MODEL 1
REMARK VINA RESULT:    -5.910      0.000      0.000
REMARK INTER + INTRA:         -13.286
REMARK INTER:                  -9.788
REMARK INTRA:                  -3.498
REMARK CONF_INDEPENDENT:        3.878
REMARK UNBOUND:                -3.498
REMARK  13 active torsions:
REMARK  status: ('A' for Active; 'I' for Inactive)
REMARK    1  A    between atoms: C_2  and  C_3 
REMARK    2  A    between atoms: C_3  and  C_4 
REMARK    3  A    between atoms: C_4  and  N_5 
REMARK       I    between atoms: N_5  and  C_6 
REMARK    4  A    between atoms: C_8  and  C_6 
REMARK    5  A    between atoms: C_8  and  N_18 
REMARK    6  A    between atoms: C_8  and  C_9 
REMARK    7  A    between atoms: C_10  and  O_11 
REMARK    8  A    between atoms: C_13  and  O_14 
REMARK    9  A    between atoms: C_16  and  O_17 
REMARK       I    between atoms: N_18  and  C_19 
REMARK   10  A    between atoms: N_18  and  C_30 
REMARK   11  A    between atoms: C_19  and  C_21 
REMARK   12  A    between atoms: C_21  and  O_22 
REMARK   13  A    between atoms: C_21  and  C_24 
ROOT
ATOM      1  C   UNL d   1      28.255 -15.093  -1.437  0.00  0.00     0.219 C 
ENDROOT
BRANCH   1   2
ATOM      2  N   UNL d   1      27.875 -15.356  -3.000  0.00  0.00    -0.324 N 
ATOM      3  C   UNL d   1      26.515 -15.540  -3.396  0.00  0.00     0.255 C 
ATOM      4  O   UNL d   1      26.080 -15.849  -4.493  0.00  0.00    -0.270 OA
BRANCH   3   5
ATOM      5  C   UNL d   1      25.560 -15.172  -2.350  0.00  0.00     0.245 C 
BRANCH   5   6
ATOM      6  O   UNL d   1      24.589 -14.450  -3.295  0.00  0.00    -0.377 OA
ATOM      7  C   UNL d   1      24.776 -13.305  -4.295  0.00  0.00     0.203 C 
ENDBRANCH   5   6
BRANCH   5   8
ATOM      8  C   UNL d   1      25.057 -16.359  -1.489  0.00  0.00    -0.020 A 
ATOM      9  C   UNL d   1      25.991 -17.168  -0.860  0.00  0.00     0.010 A 
ATOM     10  C   UNL d   1      25.591 -18.288  -0.132  0.00  0.00     0.001 A 
ATOM     11  C   UNL d   1      24.239 -18.569   0.074  0.00  0.00     0.000 A 
ATOM     12  C   UNL d   1      23.270 -17.746  -0.490  0.00  0.00     0.001 A 
ATOM     13  C   UNL d   1      23.672 -16.646  -1.268  0.00  0.00     0.010 A 
ENDBRANCH   5   8
ENDBRANCH   3   5
BRANCH   2  14
ATOM     14  C   UNL d   1      28.820 -15.045  -4.193  0.00  0.00     0.025 C 
ATOM     15  C   UNL d   1      28.207 -14.106  -5.269  0.00  0.00     0.037 C 
ATOM     16  C   UNL d   1      30.182 -14.545  -3.742  0.00  0.00     0.037 C 
ATOM     17  C   UNL d   1      29.280 -16.301  -4.970  0.00  0.00     0.037 C 
ENDBRANCH   2  14
ENDBRANCH   1   2
BRANCH   1  18
ATOM     18  C   UNL d   1      29.776 -15.710  -0.726  0.00  0.00     0.040 A 
ATOM     19  C   UNL d   1      30.240 -16.845  -1.382  0.00  0.00     0.080 A 
ATOM     20  C   UNL d   1      31.386 -17.462  -0.871  0.00  0.00     0.073 A 
ATOM     21  C   UNL d   1      32.096 -17.028   0.283  0.00  0.00     0.071 A 
ATOM     22  C   UNL d   1      31.740 -15.980   1.051  0.00  0.00     0.073 A 
ATOM     23  C   UNL d   1      30.600 -15.366   0.629  0.00  0.00     0.080 A 
BRANCH  19  24
ATOM     24  O   UNL d   1      29.574 -17.557  -2.346  0.00  0.00    -0.360 OA
ATOM     25  H   UNL d   1      30.080 -18.285  -2.740  0.00  0.00     0.217 HD
ENDBRANCH  19  24
BRANCH  21  26
ATOM     26  O   UNL d   1      33.183 -17.684   0.762  0.00  0.00    -0.361 OA
ATOM     27  H   UNL d   1      32.846 -18.248   1.465  0.00  0.00     0.217 HD
ENDBRANCH  21  26
BRANCH  23  28
ATOM     28  O   UNL d   1      30.233 -14.794   1.883  0.00  0.00    -0.360 OA
ATOM     29  H   UNL d   1      30.028 -15.397   2.619  0.00  0.00     0.217 HD
ENDBRANCH  23  28
ENDBRANCH   1  18
BRANCH   1  30
ATOM     30  C   UNL d   1      27.910 -13.678  -0.838  0.00  0.00     0.245 C 
ATOM     31  N   UNL d   1      27.804 -13.659   0.535  0.00  0.00    -0.359 N 
ATOM     32  H   UNL d   1      28.503 -14.195   1.027  0.00  0.00     0.162 HD
ATOM     33  O   UNL d   1      27.876 -12.653  -1.464  0.00  0.00    -0.271 OA
BRANCH  31  34
ATOM     34  C   UNL d   1      27.030 -12.645   1.214  0.00  0.00     0.122 C 
BRANCH  34  35
ATOM     35  C   UNL d   1      26.669 -12.961   2.675  0.00  0.00     0.019 C 
BRANCH  35  36
ATOM     36  C   UNL d   1      27.860 -13.572   3.391  0.00  0.00    -0.003 C 
ATOM     37  C   UNL d   1      27.454 -14.167   4.727  0.00  0.00     0.005 C 
ENDBRANCH  35  36
ENDBRANCH  34  35
ENDBRANCH  31  34
ENDBRANCH   1  30
TORSDOF 13
ENDMDL
MODEL 2
REMARK VINA RESULT:    -5.538      1.876      4.253
REMARK INTER + INTRA:         -13.681
REMARK INTER:                  -9.416
REMARK INTRA:                  -4.265
REMARK CONF_INDEPENDENT:        3.878
REMARK UNBOUND:                -4.265
REMARK  13 active torsions:
REMARK  status: ('A' for Active; 'I' for Inactive)
REMARK    1  A    between atoms: C_2  and  C_3 
REMARK    2  A    between atoms: C_3  and  C_4 
REMARK    3  A    between atoms: C_4  and  N_5 
REMARK       I    between atoms: N_5  and  C_6 
REMARK    4  A    between atoms: C_8  and  C_6 
REMARK    5  A    between atoms: C_8  and  N_18 
REMARK    6  A    between atoms: C_8  and  C_9 
REMARK    7  A    between atoms: C_10  and  O_11 
REMARK    8  A    between atoms: C_13  and  O_14 
REMARK    9  A    between atoms: C_16  and  O_17 
REMARK       I    between atoms: N_18  and  C_19 
REMARK   10  A    between atoms: N_18  and  C_30 
REMARK   11  A    between atoms: C_19  and  C_21 
REMARK   12  A    between atoms: C_21  and  O_22 
REMARK   13  A    between atoms: C_21  and  C_24 
ROOT
ATOM      1  C   UNL d   1      26.768 -15.294   0.247  0.00  0.00     0.219 C 
ENDROOT
BRANCH   1   2
ATOM      2  N   UNL d   1      25.517 -15.536  -0.770  0.00  0.00    -0.324 N 
ATOM      3  C   UNL d   1      25.456 -14.852  -2.022  0.00  0.00     0.255 C 
ATOM      4  O   UNL d   1      24.548 -14.841  -2.837  0.00  0.00    -0.270 OA
BRANCH   3   5
ATOM      5  C   UNL d   1      26.718 -14.205  -2.383  0.00  0.00     0.245 C 
BRANCH   5   6
ATOM      6  O   UNL d   1      27.079 -15.208  -3.488  0.00  0.00    -0.377 OA
ATOM      7  C   UNL d   1      26.866 -15.200  -5.004  0.00  0.00     0.203 C 
ENDBRANCH   5   6
BRANCH   5   8
ATOM      8  C   UNL d   1      26.597 -12.698  -2.721  0.00  0.00    -0.020 A 
ATOM      9  C   UNL d   1      27.192 -11.775  -1.874  0.00  0.00     0.010 A 
ATOM     10  C   UNL d   1      27.051 -10.406  -2.097  0.00  0.00     0.001 A 
ATOM     11  C   UNL d   1      26.400  -9.924  -3.234  0.00  0.00     0.000 A 
ATOM     12  C   UNL d   1      25.842 -10.819  -4.141  0.00  0.00     0.001 A 
ATOM     13  C   UNL d   1      25.938 -12.199  -3.890  0.00  0.00     0.010 A 
ENDBRANCH   5   8
ENDBRANCH   3   5
BRANCH   2  14
ATOM     14  C   UNL d   1      24.549 -16.748  -0.689  0.00  0.00     0.025 C 
ATOM     15  C   UNL d   1      24.951 -17.822   0.360  0.00  0.00     0.037 C 
ATOM     16  C   UNL d   1      23.101 -16.326  -0.513  0.00  0.00     0.037 C 
ATOM     17  C   UNL d   1      24.405 -17.522  -2.021  0.00  0.00     0.037 C 
ENDBRANCH   2  14
ENDBRANCH   1   2
BRANCH   1  18
ATOM     18  C   UNL d   1      28.441 -15.738  -0.203  0.00  0.00     0.040 A 
ATOM     19  C   UNL d   1      28.476 -16.733  -1.174  0.00  0.00     0.080 A 
ATOM     20  C   UNL d   1      29.732 -17.216  -1.557  0.00  0.00     0.073 A 
ATOM     21  C   UNL d   1      30.971 -16.782  -1.009  0.00  0.00     0.071 A 
ATOM     22  C   UNL d   1      31.094 -15.867  -0.027  0.00  0.00     0.073 A 
ATOM     23  C   UNL d   1      29.899 -15.394   0.421  0.00  0.00     0.080 A 
BRANCH  19  24
ATOM     24  O   UNL d   1      27.407 -17.450  -1.645  0.00  0.00    -0.360 OA
ATOM     25  H   UNL d   1      26.841 -16.976  -2.275  0.00  0.00     0.217 HD
ENDBRANCH  19  24
BRANCH  21  26
ATOM     26  O   UNL d   1      32.162 -17.309  -1.387  0.00  0.00    -0.361 OA
ATOM     27  H   UNL d   1      32.529 -17.700  -0.588  0.00  0.00     0.217 HD
ENDBRANCH  21  26
BRANCH  23  28
ATOM     28  O   UNL d   1      30.343 -14.991   1.716  0.00  0.00    -0.360 OA
ATOM     29  H   UNL d   1      30.146 -15.575   2.469  0.00  0.00     0.217 HD
ENDBRANCH  23  28
ENDBRANCH   1  18
BRANCH   1  30
ATOM     30  C   UNL d   1      26.767 -13.963   1.089  0.00  0.00     0.245 C 
ATOM     31  N   UNL d   1      27.532 -14.020   2.233  0.00  0.00    -0.359 N 
ATOM     32  H   UNL d   1      28.421 -14.486   2.133  0.00  0.00     0.162 HD
ATOM     33  O   UNL d   1      26.281 -12.923   0.735  0.00  0.00    -0.271 OA
BRANCH  31  34
ATOM     34  C   UNL d   1      27.273 -13.145   3.353  0.00  0.00     0.122 C 
BRANCH  34  35
ATOM     35  C   UNL d   1      27.343 -13.809   4.738  0.00  0.00     0.019 C 
BRANCH  35  36
ATOM     36  C   UNL d   1      28.235 -15.037   4.688  0.00  0.00    -0.003 C 
ATOM     37  C   UNL d   1      29.509 -14.825   5.485  0.00  0.00     0.005 C 
ENDBRANCH  35  36
ENDBRANCH  34  35
ENDBRANCH  31  34
ENDBRANCH   1  30
TORSDOF 13
ENDMDL
MODEL 3
REMARK VINA RESULT:    -5.535      1.902      6.738
REMARK INTER + INTRA:         -13.477
REMARK INTER:                  -9.413
REMARK INTRA:                  -4.063
REMARK CONF_INDEPENDENT:        3.878
REMARK UNBOUND:                -4.063
REMARK  13 active torsions:
REMARK  status: ('A' for Active; 'I' for Inactive)
REMARK    1  A    between atoms: C_2  and  C_3 
REMARK    2  A    between atoms: C_3  and  C_4 
REMARK    3  A    between atoms: C_4  and  N_5 
REMARK       I    between atoms: N_5  and  C_6 
REMARK    4  A    between atoms: C_8  and  C_6 
REMARK    5  A    between atoms: C_8  and  N_18 
REMARK    6  A    between atoms: C_8  and  C_9 
REMARK    7  A    between atoms: C_10  and  O_11 
REMARK    8  A    between atoms: C_13  and  O_14 
REMARK    9  A    between atoms: C_16  and  O_17 
REMARK       I    between atoms: N_18  and  C_19 
REMARK   10  A    between atoms: N_18  and  C_30 
REMARK   11  A    between atoms: C_19  and  C_21 
REMARK   12  A    between atoms: C_21  and  O_22 
REMARK   13  A    between atoms: C_21  and  C_24 
ROOT
ATOM      1  C   UNL d   1      26.456 -14.755  -0.796  0.00  0.00     0.219 C 
ENDROOT
BRANCH   1   2
ATOM      2  N   UNL d   1      27.702 -14.536   0.232  0.00  0.00    -0.324 N 
ATOM      3  C   UNL d   1      29.044 -14.785  -0.190  0.00  0.00     0.255 C 
ATOM      4  O   UNL d   1      30.064 -14.773   0.479  0.00  0.00    -0.270 OA
BRANCH   3   5
ATOM      5  C   UNL d   1      29.168 -14.939  -1.640  0.00  0.00     0.245 C 
BRANCH   5   6
ATOM      6  O   UNL d   1      29.872 -13.593  -1.864  0.00  0.00    -0.377 OA
ATOM      7  C   UNL d   1      30.497 -12.945  -3.102  0.00  0.00     0.203 C 
ENDBRANCH   5   6
BRANCH   5   8
ATOM      8  C   UNL d   1      29.856 -16.252  -2.092  0.00  0.00    -0.020 A 
ATOM      9  C   UNL d   1      29.994 -16.498  -3.450  0.00  0.00     0.010 A 
ATOM     10  C   UNL d   1      30.542 -17.696  -3.907  0.00  0.00     0.001 A 
ATOM     11  C   UNL d   1      31.065 -18.636  -3.017  0.00  0.00     0.000 A 
ATOM     12  C   UNL d   1      31.001 -18.398  -1.648  0.00  0.00     0.001 A 
ATOM     13  C   UNL d   1      30.401 -17.215  -1.184  0.00  0.00     0.010 A 
ENDBRANCH   5   8
ENDBRANCH   3   5
BRANCH   2  14
ATOM     14  C   UNL d   1      27.619 -13.702   1.540  0.00  0.00     0.025 C 
ATOM     15  C   UNL d   1      26.282 -12.934   1.727  0.00  0.00     0.037 C 
ATOM     16  C   UNL d   1      27.958 -14.519   2.774  0.00  0.00     0.037 C 
ATOM     17  C   UNL d   1      28.723 -12.625   1.664  0.00  0.00     0.037 C 
ENDBRANCH   2  14
ENDBRANCH   1   2
BRANCH   1  18
ATOM     18  C   UNL d   1      26.249 -13.732  -2.248  0.00  0.00     0.040 A 
ATOM     19  C   UNL d   1      26.925 -12.522  -2.139  0.00  0.00     0.080 A 
ATOM     20  C   UNL d   1      26.779 -11.605  -3.184  0.00  0.00     0.073 A 
ATOM     21  C   UNL d   1      25.972 -11.810  -4.338  0.00  0.00     0.071 A 
ATOM     22  C   UNL d   1      25.219 -12.905  -4.559  0.00  0.00     0.073 A 
ATOM     23  C   UNL d   1      25.283 -13.816  -3.549  0.00  0.00     0.080 A 
BRANCH  19  24
ATOM     24  O   UNL d   1      27.547 -12.035  -1.018  0.00  0.00    -0.360 OA
ATOM     25  H   UNL d   1      28.449 -12.363  -0.875  0.00  0.00     0.217 HD
ENDBRANCH  19  24
BRANCH  21  26
ATOM     26  O   UNL d   1      25.833 -10.873  -5.308  0.00  0.00    -0.361 OA
ATOM     27  H   UNL d   1      24.889 -10.836  -5.489  0.00  0.00     0.217 HD
ENDBRANCH  21  26
BRANCH  23  28
ATOM     28  O   UNL d   1      24.030 -14.450  -3.804  0.00  0.00    -0.360 OA
ATOM     29  H   UNL d   1      23.592 -14.271  -4.654  0.00  0.00     0.217 HD
ENDBRANCH  23  28
ENDBRANCH   1  18
BRANCH   1  30
ATOM     30  C   UNL d   1      26.031 -16.239  -1.111  0.00  0.00     0.245 C 
ATOM     31  N   UNL d   1      24.697 -16.389  -1.416  0.00  0.00    -0.359 N 
ATOM     32  H   UNL d   1      24.310 -15.676  -2.015  0.00  0.00     0.162 HD
ATOM     33  O   UNL d   1      26.790 -17.163  -1.229  0.00  0.00    -0.271 OA
BRANCH  31  34
ATOM     34  C   UNL d   1      24.025 -17.656  -1.238  0.00  0.00     0.122 C 
BRANCH  34  35
ATOM     35  C   UNL d   1      22.533 -17.564  -0.879  0.00  0.00     0.019 C 
BRANCH  35  36
ATOM     36  C   UNL d   1      21.918 -18.952  -0.828  0.00  0.00    -0.003 C 
ATOM     37  C   UNL d   1      20.403 -18.886  -0.895  0.00  0.00     0.005 C 
ENDBRANCH  35  36
ENDBRANCH  34  35
ENDBRANCH  31  34
ENDBRANCH   1  30
TORSDOF 13
ENDMDL
MODEL 4
REMARK VINA RESULT:    -5.430      2.603      6.518
REMARK INTER + INTRA:         -13.453
REMARK INTER:                  -9.308
REMARK INTRA:                  -4.145
REMARK CONF_INDEPENDENT:        3.878
REMARK UNBOUND:                -4.145
REMARK  13 active torsions:
REMARK  status: ('A' for Active; 'I' for Inactive)
REMARK    1  A    between atoms: C_2  and  C_3 
REMARK    2  A    between atoms: C_3  and  C_4 
REMARK    3  A    between atoms: C_4  and  N_5 
REMARK       I    between atoms: N_5  and  C_6 
REMARK    4  A    between atoms: C_8  and  C_6 
REMARK    5  A    between atoms: C_8  and  N_18 
REMARK    6  A    between atoms: C_8  and  C_9 
REMARK    7  A    between atoms: C_10  and  O_11 
REMARK    8  A    between atoms: C_13  and  O_14 
REMARK    9  A    between atoms: C_16  and  O_17 
REMARK       I    between atoms: N_18  and  C_19 
REMARK   10  A    between atoms: N_18  and  C_30 
REMARK   11  A    between atoms: C_19  and  C_21 
REMARK   12  A    between atoms: C_21  and  O_22 
REMARK   13  A    between atoms: C_21  and  C_24 
ROOT
ATOM      1  C   UNL d   1      27.318 -14.489  -3.619  0.00  0.00     0.219 C 
ENDROOT
BRANCH   1   2
ATOM      2  N   UNL d   1      27.264 -14.207  -2.014  0.00  0.00    -0.324 N 
ATOM      3  C   UNL d   1      26.515 -15.065  -1.151  0.00  0.00     0.255 C 
ATOM      4  O   UNL d   1      26.288 -14.930   0.040  0.00  0.00    -0.270 OA
BRANCH   3   5
ATOM      5  C   UNL d   1      26.102 -16.310  -1.800  0.00  0.00     0.245 C 
BRANCH   5   6
ATOM      6  O   UNL d   1      27.389 -17.076  -1.464  0.00  0.00    -0.377 OA
ATOM      7  C   UNL d   1      27.997 -17.550  -0.141  0.00  0.00     0.203 C 
ENDBRANCH   5   6
BRANCH   5   8
ATOM      8  C   UNL d   1      24.733 -16.860  -1.326  0.00  0.00    -0.020 A 
ATOM      9  C   UNL d   1      24.659 -18.173  -0.885  0.00  0.00     0.010 A 
ATOM     10  C   UNL d   1      23.438 -18.735  -0.515  0.00  0.00     0.001 A 
ATOM     11  C   UNL d   1      22.273 -17.966  -0.476  0.00  0.00     0.000 A 
ATOM     12  C   UNL d   1      22.317 -16.628  -0.852  0.00  0.00     0.001 A 
ATOM     13  C   UNL d   1      23.538 -16.074  -1.276  0.00  0.00     0.010 A 
ENDBRANCH   5   8
ENDBRANCH   3   5
BRANCH   2  14
ATOM     14  C   UNL d   1      28.272 -13.304  -1.252  0.00  0.00     0.025 C 
ATOM     15  C   UNL d   1      29.159 -14.059  -0.224  0.00  0.00     0.037 C 
ATOM     16  C   UNL d   1      29.118 -12.457  -2.187  0.00  0.00     0.037 C 
ATOM     17  C   UNL d   1      27.604 -12.165  -0.447  0.00  0.00     0.037 C 
ENDBRANCH   2  14
ENDBRANCH   1   2
BRANCH   1  18
ATOM     18  C   UNL d   1      27.139 -13.167  -4.809  0.00  0.00     0.040 A 
ATOM     19  C   UNL d   1      26.068 -12.332  -4.509  0.00  0.00     0.080 A 
ATOM     20  C   UNL d   1      25.782 -11.301  -5.409  0.00  0.00     0.073 A 
ATOM     21  C   UNL d   1      26.491 -11.059  -6.619  0.00  0.00     0.071 A 
ATOM     22  C   UNL d   1      27.514 -11.811  -7.069  0.00  0.00     0.073 A 
ATOM     23  C   UNL d   1      27.808 -12.863  -6.257  0.00  0.00     0.080 A 
BRANCH  19  24
ATOM     24  O   UNL d   1      25.122 -12.539  -3.539  0.00  0.00    -0.360 OA
ATOM     25  H   UNL d   1      24.406 -11.885  -3.519  0.00  0.00     0.217 HD
ENDBRANCH  19  24
BRANCH  21  26
ATOM     26  O   UNL d   1      26.150 -10.066  -7.479  0.00  0.00    -0.361 OA
ATOM     27  H   UNL d   1      25.239  -9.847  -7.261  0.00  0.00     0.217 HD
ENDBRANCH  21  26
BRANCH  23  28
ATOM     28  O   UNL d   1      28.423 -13.685  -7.247  0.00  0.00    -0.360 OA
ATOM     29  H   UNL d   1      28.511 -14.636  -7.061  0.00  0.00     0.217 HD
ENDBRANCH  23  28
ENDBRANCH   1  18
BRANCH   1  30
ATOM     30  C   UNL d   1      28.371 -15.543  -4.132  0.00  0.00     0.245 C 
ATOM     31  N   UNL d   1      29.127 -16.115  -3.133  0.00  0.00    -0.359 N 
ATOM     32  H   UNL d   1      28.619 -16.360  -2.297  0.00  0.00     0.162 HD
ATOM     33  O   UNL d   1      28.446 -15.950  -5.260  0.00  0.00    -0.271 OA
BRANCH  31  34
ATOM     34  C   UNL d   1      30.426 -16.685  -3.408  0.00  0.00     0.122 C 
BRANCH  34  35
ATOM     35  C   UNL d   1      30.431 -18.191  -3.717  0.00  0.00     0.019 C 
BRANCH  35  36
ATOM     36  C   UNL d   1      30.417 -18.421  -5.218  0.00  0.00    -0.003 C 
ATOM     37  C   UNL d   1      30.405 -19.902  -5.549  0.00  0.00     0.005 C 
ENDBRANCH  35  36
ENDBRANCH  34  35
ENDBRANCH  31  34
ENDBRANCH   1  30
TORSDOF 13
ENDMDL
MODEL 5
REMARK VINA RESULT:    -5.423      2.063      6.321
REMARK INTER + INTRA:         -13.787
REMARK INTER:                  -9.301
REMARK INTRA:                  -4.486
REMARK CONF_INDEPENDENT:        3.878
REMARK UNBOUND:                -4.486
REMARK  13 active torsions:
REMARK  status: ('A' for Active; 'I' for Inactive)
REMARK    1  A    between atoms: C_2  and  C_3 
REMARK    2  A    between atoms: C_3  and  C_4 
REMARK    3  A    between atoms: C_4  and  N_5 
REMARK       I    between atoms: N_5  and  C_6 
REMARK    4  A    between atoms: C_8  and  C_6 
REMARK    5  A    between atoms: C_8  and  N_18 
REMARK    6  A    between atoms: C_8  and  C_9 
REMARK    7  A    between atoms: C_10  and  O_11 
REMARK    8  A    between atoms: C_13  and  O_14 
REMARK    9  A    between atoms: C_16  and  O_17 
REMARK       I    between atoms: N_18  and  C_19 
REMARK   10  A    between atoms: N_18  and  C_30 
REMARK   11  A    between atoms: C_19  and  C_21 
REMARK   12  A    between atoms: C_21  and  O_22 
REMARK   13  A    between atoms: C_21  and  C_24 
ROOT
ATOM      1  C   UNL d   1      27.660 -15.983  -0.330  0.00  0.00     0.219 C 
ENDROOT
BRANCH   1   2
ATOM      2  N   UNL d   1      27.935 -14.377  -0.289  0.00  0.00    -0.324 N 
ATOM      3  C   UNL d   1      27.793 -13.586  -1.470  0.00  0.00     0.255 C 
ATOM      4  O   UNL d   1      28.063 -12.407  -1.629  0.00  0.00    -0.270 OA
BRANCH   3   5
ATOM      5  C   UNL d   1      27.114 -14.294  -2.555  0.00  0.00     0.245 C 
BRANCH   5   6
ATOM      6  O   UNL d   1      25.897 -13.359  -2.593  0.00  0.00    -0.377 OA
ATOM      7  C   UNL d   1      25.529 -12.174  -3.489  0.00  0.00     0.203 C 
ENDBRANCH   5   6
BRANCH   5   8
ATOM      8  C   UNL d   1      27.971 -14.494  -3.831  0.00  0.00    -0.020 A 
ATOM      9  C   UNL d   1      29.352 -14.478  -3.715  0.00  0.00     0.010 A 
ATOM     10  C   UNL d   1      30.166 -14.583  -4.842  0.00  0.00     0.001 A 
ATOM     11  C   UNL d   1      29.619 -14.814  -6.106  0.00  0.00     0.000 A 
ATOM     12  C   UNL d   1      28.239 -14.898  -6.256  0.00  0.00     0.001 A 
ATOM     13  C   UNL d   1      27.416 -14.739  -5.127  0.00  0.00     0.010 A 
ENDBRANCH   5   8
ENDBRANCH   3   5
BRANCH   2  14
ATOM     14  C   UNL d   1      27.968 -13.530   1.012  0.00  0.00     0.025 C 
ATOM     15  C   UNL d   1      29.223 -12.625   1.157  0.00  0.00     0.037 C 
ATOM     16  C   UNL d   1      26.692 -12.734   1.222  0.00  0.00     0.037 C 
ATOM     17  C   UNL d   1      27.930 -14.374   2.308  0.00  0.00     0.037 C 
ENDBRANCH   2  14
ENDBRANCH   1   2
BRANCH   1  18
ATOM     18  C   UNL d   1      26.001 -16.651  -0.302  0.00  0.00     0.040 A 
ATOM     19  C   UNL d   1      25.955 -17.918   0.268  0.00  0.00     0.080 A 
ATOM     20  C   UNL d   1      24.720 -18.575   0.282  0.00  0.00     0.073 A 
ATOM     21  C   UNL d   1      23.516 -18.052  -0.266  0.00  0.00     0.071 A 
ATOM     22  C   UNL d   1      23.415 -16.864  -0.895  0.00  0.00     0.073 A 
ATOM     23  C   UNL d   1      24.599 -16.198  -0.982  0.00  0.00     0.080 A 
BRANCH  19  24
ATOM     24  O   UNL d   1      27.030 -18.690   0.625  0.00  0.00    -0.360 OA
ATOM     25  H   UNL d   1      27.788 -18.199   0.980  0.00  0.00     0.217 HD
ENDBRANCH  19  24
BRANCH  21  26
ATOM     26  O   UNL d   1      22.350 -18.744  -0.262  0.00  0.00    -0.361 OA
ATOM     27  H   UNL d   1      22.398 -19.313   0.513  0.00  0.00     0.217 HD
ENDBRANCH  21  26
BRANCH  23  28
ATOM     28  O   UNL d   1      24.271 -15.402  -2.119  0.00  0.00    -0.360 OA
ATOM     29  H   UNL d   1      24.488 -14.454  -2.092  0.00  0.00     0.217 HD
ENDBRANCH  23  28
ENDBRANCH   1  18
BRANCH   1  30
ATOM     30  C   UNL d   1      28.579 -16.850  -1.271  0.00  0.00     0.245 C 
ATOM     31  N   UNL d   1      29.479 -17.647  -0.600  0.00  0.00    -0.359 N 
ATOM     32  H   UNL d   1      29.116 -18.109   0.220  0.00  0.00     0.162 HD
ATOM     33  O   UNL d   1      28.447 -16.951  -2.461  0.00  0.00    -0.271 OA
BRANCH  31  34
ATOM     34  C   UNL d   1      30.695 -18.103  -1.234  0.00  0.00     0.122 C 
BRANCH  34  35
ATOM     35  C   UNL d   1      31.309 -17.131  -2.255  0.00  0.00     0.019 C 
BRANCH  35  36
ATOM     36  C   UNL d   1      31.647 -17.863  -3.542  0.00  0.00    -0.003 C 
ATOM     37  C   UNL d   1      30.405 -18.101  -4.382  0.00  0.00     0.005 C 
ENDBRANCH  35  36
ENDBRANCH  34  35
ENDBRANCH  31  34
ENDBRANCH   1  30
TORSDOF 13
ENDMDL
MODEL 6
REMARK VINA RESULT:    -5.362      2.082      6.857
REMARK INTER + INTRA:         -13.362
REMARK INTER:                  -9.240
REMARK INTRA:                  -4.122
REMARK CONF_INDEPENDENT:        3.878
REMARK UNBOUND:                -4.122
REMARK  13 active torsions:
REMARK  status: ('A' for Active; 'I' for Inactive)
REMARK    1  A    between atoms: C_2  and  C_3 
REMARK    2  A    between atoms: C_3  and  C_4 
REMARK    3  A    between atoms: C_4  and  N_5 
REMARK       I    between atoms: N_5  and  C_6 
REMARK    4  A    between atoms: C_8  and  C_6 
REMARK    5  A    between atoms: C_8  and  N_18 
REMARK    6  A    between atoms: C_8  and  C_9 
REMARK    7  A    between atoms: C_10  and  O_11 
REMARK    8  A    between atoms: C_13  and  O_14 
REMARK    9  A    between atoms: C_16  and  O_17 
REMARK       I    between atoms: N_18  and  C_19 
REMARK   10  A    between atoms: N_18  and  C_30 
REMARK   11  A    between atoms: C_19  and  C_21 
REMARK   12  A    between atoms: C_21  and  O_22 
REMARK   13  A    between atoms: C_21  and  C_24 
ROOT
ATOM      1  C   UNL d   1      26.965 -14.185  -0.788  0.00  0.00     0.219 C 
ENDROOT
BRANCH   1   2
ATOM      2  N   UNL d   1      28.477 -14.188  -0.180  0.00  0.00    -0.324 N 
ATOM      3  C   UNL d   1      28.725 -13.737   1.153  0.00  0.00     0.255 C 
ATOM      4  O   UNL d   1      29.798 -13.577   1.711  0.00  0.00    -0.270 OA
BRANCH   3   5
ATOM      5  C   UNL d   1      27.503 -13.589   1.943  0.00  0.00     0.245 C 
BRANCH   5   6
ATOM      6  O   UNL d   1      27.773 -14.800   2.847  0.00  0.00    -0.377 OA
ATOM      7  C   UNL d   1      28.137 -14.925   4.329  0.00  0.00     0.203 C 
ENDBRANCH   5   6
BRANCH   5   8
ATOM      8  C   UNL d   1      27.309 -12.186   2.573  0.00  0.00    -0.020 A 
ATOM      9  C   UNL d   1      26.493 -11.272   1.924  0.00  0.00     0.010 A 
ATOM     10  C   UNL d   1      26.342  -9.975   2.413  0.00  0.00     0.001 A 
ATOM     11  C   UNL d   1      26.921  -9.590   3.624  0.00  0.00     0.000 A 
ATOM     12  C   UNL d   1      27.697 -10.498   4.337  0.00  0.00     0.001 A 
ATOM     13  C   UNL d   1      27.893 -11.789   3.818  0.00  0.00     0.010 A 
ENDBRANCH   5   8
ENDBRANCH   3   5
BRANCH   2  14
ATOM     14  C   UNL d   1      29.656 -15.003  -0.778  0.00  0.00     0.025 C 
ATOM     15  C   UNL d   1      29.302 -15.791  -2.070  0.00  0.00     0.037 C 
ATOM     16  C   UNL d   1      30.906 -14.163  -0.975  0.00  0.00     0.037 C 
ATOM     17  C   UNL d   1      30.238 -16.061   0.190  0.00  0.00     0.037 C 
ENDBRANCH   2  14
ENDBRANCH   1   2
BRANCH   1  18
ATOM     18  C   UNL d   1      26.577 -13.373  -2.333  0.00  0.00     0.040 A 
ATOM     19  C   UNL d   1      26.865 -12.013  -2.298  0.00  0.00     0.080 A 
ATOM     20  C   UNL d   1      26.537 -11.255  -3.426  0.00  0.00     0.073 A 
ATOM     21  C   UNL d   1      25.910 -11.768  -4.595  0.00  0.00     0.071 A 
ATOM     22  C   UNL d   1      25.523 -13.049  -4.756  0.00  0.00     0.073 A 
ATOM     23  C   UNL d   1      25.774 -13.828  -3.668  0.00  0.00     0.080 A 
BRANCH  19  24
ATOM     24  O   UNL d   1      27.237 -11.288  -1.195  0.00  0.00    -0.360 OA
ATOM     25  H   UNL d   1      28.051 -11.590  -0.762  0.00  0.00     0.217 HD
ENDBRANCH  19  24
BRANCH  21  26
ATOM     26  O   UNL d   1      25.577 -10.983  -5.651  0.00  0.00    -0.361 OA
ATOM     27  H   UNL d   1      24.663 -10.727  -5.495  0.00  0.00     0.217 HD
ENDBRANCH  21  26
BRANCH  23  28
ATOM     28  O   UNL d   1      24.780 -14.818  -3.927  0.00  0.00    -0.360 OA
ATOM     29  H   UNL d   1      24.541 -15.426  -3.206  0.00  0.00     0.217 HD
ENDBRANCH  23  28
ENDBRANCH   1  18
BRANCH   1  30
ATOM     30  C   UNL d   1      26.127 -15.512  -0.646  0.00  0.00     0.245 C 
ATOM     31  N   UNL d   1      26.601 -16.377   0.315  0.00  0.00    -0.359 N 
ATOM     32  H   UNL d   1      26.900 -15.942   1.174  0.00  0.00     0.162 HD
ATOM     33  O   UNL d   1      25.082 -15.730  -1.198  0.00  0.00    -0.271 OA
BRANCH  31  34
ATOM     34  C   UNL d   1      26.315 -17.792   0.257  0.00  0.00     0.122 C 
BRANCH  34  35
ATOM     35  C   UNL d   1      24.863 -18.183   0.581  0.00  0.00     0.019 C 
BRANCH  35  36
ATOM     36  C   UNL d   1      24.087 -18.434  -0.700  0.00  0.00    -0.003 C 
ATOM     37  C   UNL d   1      22.600 -18.205  -0.497  0.00  0.00     0.005 C 
ENDBRANCH  35  36
ENDBRANCH  34  35
ENDBRANCH  31  34
ENDBRANCH   1  30
TORSDOF 13
ENDMDL
MODEL 7
REMARK VINA RESULT:    -5.226      2.011      5.174
REMARK INTER + INTRA:         -13.105
REMARK INTER:                  -9.104
REMARK INTRA:                  -4.000
REMARK CONF_INDEPENDENT:        3.878
REMARK UNBOUND:                -4.000
REMARK  13 active torsions:
REMARK  status: ('A' for Active; 'I' for Inactive)
REMARK    1  A    between atoms: C_2  and  C_3 
REMARK    2  A    between atoms: C_3  and  C_4 
REMARK    3  A    between atoms: C_4  and  N_5 
REMARK       I    between atoms: N_5  and  C_6 
REMARK    4  A    between atoms: C_8  and  C_6 
REMARK    5  A    between atoms: C_8  and  N_18 
REMARK    6  A    between atoms: C_8  and  C_9 
REMARK    7  A    between atoms: C_10  and  O_11 
REMARK    8  A    between atoms: C_13  and  O_14 
REMARK    9  A    between atoms: C_16  and  O_17 
REMARK       I    between atoms: N_18  and  C_19 
REMARK   10  A    between atoms: N_18  and  C_30 
REMARK   11  A    between atoms: C_19  and  C_21 
REMARK   12  A    between atoms: C_21  and  O_22 
REMARK   13  A    between atoms: C_21  and  C_24 
ROOT
ATOM      1  C   UNL d   1      28.302 -16.043  -2.253  0.00  0.00     0.219 C 
ENDROOT
BRANCH   1   2
ATOM      2  N   UNL d   1      27.505 -15.216  -1.096  0.00  0.00    -0.324 N 
ATOM      3  C   UNL d   1      26.271 -15.707  -0.570  0.00  0.00     0.255 C 
ATOM      4  O   UNL d   1      25.508 -15.161   0.210  0.00  0.00    -0.270 OA
BRANCH   3   5
ATOM      5  C   UNL d   1      26.002 -17.095  -0.946  0.00  0.00     0.245 C 
BRANCH   5   6
ATOM      6  O   UNL d   1      27.059 -17.701  -0.012  0.00  0.00    -0.377 OA
ATOM      7  C   UNL d   1      27.028 -18.884   0.959  0.00  0.00     0.203 C 
ENDBRANCH   5   6
BRANCH   5   8
ATOM      8  C   UNL d   1      24.519 -17.524  -0.810  0.00  0.00    -0.020 A 
ATOM      9  C   UNL d   1      23.529 -16.589  -1.068  0.00  0.00     0.010 A 
ATOM     10  C   UNL d   1      22.182 -16.906  -0.891  0.00  0.00     0.001 A 
ATOM     11  C   UNL d   1      21.785 -18.201  -0.555  0.00  0.00     0.000 A 
ATOM     12  C   UNL d   1      22.746 -19.185  -0.348  0.00  0.00     0.001 A 
ATOM     13  C   UNL d   1      24.106 -18.853  -0.473  0.00  0.00     0.010 A 
ENDBRANCH   5   8
ENDBRANCH   3   5
BRANCH   2  14
ATOM     14  C   UNL d   1      28.150 -14.115  -0.210  0.00  0.00     0.025 C 
ATOM     15  C   UNL d   1      29.535 -13.619  -0.709  0.00  0.00     0.037 C 
ATOM     16  C   UNL d   1      27.211 -12.949   0.046  0.00  0.00     0.037 C 
ATOM     17  C   UNL d   1      28.383 -14.551   1.256  0.00  0.00     0.037 C 
ENDBRANCH   2  14
ENDBRANCH   1   2
BRANCH   1  18
ATOM     18  C   UNL d   1      28.532 -15.372  -3.895  0.00  0.00     0.040 A 
ATOM     19  C   UNL d   1      27.333 -14.956  -4.464  0.00  0.00     0.080 A 
ATOM     20  C   UNL d   1      27.375 -14.479  -5.778  0.00  0.00     0.073 A 
ATOM     21  C   UNL d   1      28.548 -14.409  -6.580  0.00  0.00     0.071 A 
ATOM     22  C   UNL d   1      29.769 -14.822  -6.186  0.00  0.00     0.073 A 
ATOM     23  C   UNL d   1      29.782 -15.344  -4.929  0.00  0.00     0.080 A 
BRANCH  19  24
ATOM     24  O   UNL d   1      26.076 -15.166  -3.959  0.00  0.00    -0.360 OA
ATOM     25  H   UNL d   1      26.048 -15.636  -3.111  0.00  0.00     0.217 HD
ENDBRANCH  19  24
BRANCH  21  26
ATOM     26  O   UNL d   1      28.531 -13.972  -7.864  0.00  0.00    -0.361 OA
ATOM     27  H   UNL d   1      28.866 -14.708  -8.385  0.00  0.00     0.217 HD
ENDBRANCH  21  26
BRANCH  23  28
ATOM     28  O   UNL d   1      30.946 -16.154  -5.086  0.00  0.00    -0.360 OA
ATOM     29  H   UNL d   1      31.021 -16.956  -4.540  0.00  0.00     0.217 HD
ENDBRANCH  23  28
ENDBRANCH   1  18
BRANCH   1  30
ATOM     30  C   UNL d   1      29.579 -16.853  -1.813  0.00  0.00     0.245 C 
ATOM     31  N   UNL d   1      29.840 -16.802  -0.461  0.00  0.00    -0.359 N 
ATOM     32  H   UNL d   1      29.030 -16.883   0.135  0.00  0.00     0.162 HD
ATOM     33  O   UNL d   1      30.215 -17.580  -2.527  0.00  0.00    -0.271 OA
BRANCH  31  34
ATOM     34  C   UNL d   1      31.170 -17.026   0.055  0.00  0.00     0.122 C 
BRANCH  34  35
ATOM     35  C   UNL d   1      31.964 -15.756   0.402  0.00  0.00     0.019 C 
BRANCH  35  36
ATOM     36  C   UNL d   1      32.313 -15.740   1.880  0.00  0.00    -0.003 C 
ATOM     37  C   UNL d   1      31.328 -14.899   2.671  0.00  0.00     0.005 C 
ENDBRANCH  35  36
ENDBRANCH  34  35
ENDBRANCH  31  34
ENDBRANCH   1  30
TORSDOF 13
ENDMDL
MODEL 8
REMARK VINA RESULT:    -5.135      1.991      6.608
REMARK INTER + INTRA:         -13.087
REMARK INTER:                  -9.013
REMARK INTRA:                  -4.074
REMARK CONF_INDEPENDENT:        3.878
REMARK UNBOUND:                -4.074
REMARK  13 active torsions:
REMARK  status: ('A' for Active; 'I' for Inactive)
REMARK    1  A    between atoms: C_2  and  C_3 
REMARK    2  A    between atoms: C_3  and  C_4 
REMARK    3  A    between atoms: C_4  and  N_5 
REMARK       I    between atoms: N_5  and  C_6 
REMARK    4  A    between atoms: C_8  and  C_6 
REMARK    5  A    between atoms: C_8  and  N_18 
REMARK    6  A    between atoms: C_8  and  C_9 
REMARK    7  A    between atoms: C_10  and  O_11 
REMARK    8  A    between atoms: C_13  and  O_14 
REMARK    9  A    between atoms: C_16  and  O_17 
REMARK       I    between atoms: N_18  and  C_19 
REMARK   10  A    between atoms: N_18  and  C_30 
REMARK   11  A    between atoms: C_19  and  C_21 
REMARK   12  A    between atoms: C_21  and  O_22 
REMARK   13  A    between atoms: C_21  and  C_24 
ROOT
ATOM      1  C   UNL d   1      27.545 -15.858   0.172  0.00  0.00     0.219 C 
ENDROOT
BRANCH   1   2
ATOM      2  N   UNL d   1      27.763 -14.256  -0.038  0.00  0.00    -0.324 N 
ATOM      3  C   UNL d   1      28.295 -13.451   1.016  0.00  0.00     0.255 C 
ATOM      4  O   UNL d   1      28.417 -12.237   1.056  0.00  0.00    -0.270 OA
BRANCH   3   5
ATOM      5  C   UNL d   1      28.870 -14.241   2.105  0.00  0.00     0.245 C 
BRANCH   5   6
ATOM      6  O   UNL d   1      30.320 -14.121   1.614  0.00  0.00    -0.377 OA
ATOM      7  C   UNL d   1      31.667 -14.402   2.285  0.00  0.00     0.203 C 
ENDBRANCH   5   6
BRANCH   5   8
ATOM      8  C   UNL d   1      28.496 -13.750   3.526  0.00  0.00    -0.020 A 
ATOM      9  C   UNL d   1      28.554 -14.651   4.579  0.00  0.00     0.010 A 
ATOM     10  C   UNL d   1      28.160 -14.277   5.863  0.00  0.00     0.001 A 
ATOM     11  C   UNL d   1      27.796 -12.959   6.150  0.00  0.00     0.000 A 
ATOM     12  C   UNL d   1      27.784 -12.011   5.133  0.00  0.00     0.001 A 
ATOM     13  C   UNL d   1      28.130 -12.400   3.827  0.00  0.00     0.010 A 
ENDBRANCH   5   8
ENDBRANCH   3   5
BRANCH   2  14
ATOM     14  C   UNL d   1      27.810 -13.555  -1.423  0.00  0.00     0.025 C 
ATOM     15  C   UNL d   1      26.730 -12.456  -1.623  0.00  0.00     0.037 C 
ATOM     16  C   UNL d   1      29.194 -13.031  -1.764  0.00  0.00     0.037 C 
ATOM     17  C   UNL d   1      27.627 -14.521  -2.617  0.00  0.00     0.037 C 
ENDBRANCH   2  14
ENDBRANCH   1   2
BRANCH   1  18
ATOM     18  C   UNL d   1      25.959 -16.633  -0.113  0.00  0.00     0.040 A 
ATOM     19  C   UNL d   1      25.833 -17.838   0.570  0.00  0.00     0.080 A 
ATOM     20  C   UNL d   1      24.661 -18.574   0.368  0.00  0.00     0.073 A 
ATOM     21  C   UNL d   1      23.602 -18.192  -0.502  0.00  0.00     0.071 A 
ATOM     22  C   UNL d   1      23.602 -17.083  -1.267  0.00  0.00     0.073 A 
ATOM     23  C   UNL d   1      24.742 -16.348  -1.149  0.00  0.00     0.080 A 
BRANCH  19  24
ATOM     24  O   UNL d   1      26.824 -18.494   1.252  0.00  0.00    -0.360 OA
ATOM     25  H   UNL d   1      27.728 -18.244   1.003  0.00  0.00     0.217 HD
ENDBRANCH  19  24
BRANCH  21  26
ATOM     26  O   UNL d   1      22.500 -18.960  -0.692  0.00  0.00    -0.361 OA
ATOM     27  H   UNL d   1      22.334 -19.377   0.159  0.00  0.00     0.217 HD
ENDBRANCH  21  26
BRANCH  23  28
ATOM     28  O   UNL d   1      24.662 -15.693  -2.414  0.00  0.00    -0.360 OA
ATOM     29  H   UNL d   1      24.765 -16.234  -3.216  0.00  0.00     0.217 HD
ENDBRANCH  23  28
ENDBRANCH   1  18
BRANCH   1  30
ATOM     30  C   UNL d   1      28.708 -16.812  -0.294  0.00  0.00     0.245 C 
ATOM     31  N   UNL d   1      29.943 -16.489   0.223  0.00  0.00    -0.359 N 
ATOM     32  H   UNL d   1      29.944 -16.223   1.196  0.00  0.00     0.162 HD
ATOM     33  O   UNL d   1      28.559 -17.825  -0.923  0.00  0.00    -0.271 OA
BRANCH  31  34
ATOM     34  C   UNL d   1      31.162 -16.888  -0.441  0.00  0.00     0.122 C 
BRANCH  34  35
ATOM     35  C   UNL d   1      31.589 -16.000  -1.622  0.00  0.00     0.019 C 
BRANCH  35  36
ATOM     36  C   UNL d   1      31.530 -16.787  -2.919  0.00  0.00    -0.003 C 
ATOM     37  C   UNL d   1      30.099 -16.962  -3.394  0.00  0.00     0.005 C 
ENDBRANCH  35  36
ENDBRANCH  34  35
ENDBRANCH  31  34
ENDBRANCH   1  30
TORSDOF 13
ENDMDL
MODEL 9
REMARK VINA RESULT:    -5.124      2.060      4.470
REMARK INTER + INTRA:         -13.265
REMARK INTER:                  -9.002
REMARK INTRA:                  -4.263
REMARK CONF_INDEPENDENT:        3.878
REMARK UNBOUND:                -4.263
REMARK  13 active torsions:
REMARK  status: ('A' for Active; 'I' for Inactive)
REMARK    1  A    between atoms: C_2  and  C_3 
REMARK    2  A    between atoms: C_3  and  C_4 
REMARK    3  A    between atoms: C_4  and  N_5 
REMARK       I    between atoms: N_5  and  C_6 
REMARK    4  A    between atoms: C_8  and  C_6 
REMARK    5  A    between atoms: C_8  and  N_18 
REMARK    6  A    between atoms: C_8  and  C_9 
REMARK    7  A    between atoms: C_10  and  O_11 
REMARK    8  A    between atoms: C_13  and  O_14 
REMARK    9  A    between atoms: C_16  and  O_17 
REMARK       I    between atoms: N_18  and  C_19 
REMARK   10  A    between atoms: N_18  and  C_30 
REMARK   11  A    between atoms: C_19  and  C_21 
REMARK   12  A    between atoms: C_21  and  O_22 
REMARK   13  A    between atoms: C_21  and  C_24 
ROOT
ATOM      1  C   UNL d   1      28.118 -14.224   1.086  0.00  0.00     0.219 C 
ENDROOT
BRANCH   1   2
ATOM      2  N   UNL d   1      28.678 -15.345   0.044  0.00  0.00    -0.324 N 
ATOM      3  C   UNL d   1      27.781 -16.048  -0.818  0.00  0.00     0.255 C 
ATOM      4  O   UNL d   1      28.024 -16.980  -1.568  0.00  0.00    -0.270 OA
BRANCH   3   5
ATOM      5  C   UNL d   1      26.447 -15.449  -0.866  0.00  0.00     0.245 C 
BRANCH   5   6
ATOM      6  O   UNL d   1      26.638 -14.791  -2.239  0.00  0.00    -0.377 OA
ATOM      7  C   UNL d   1      26.232 -15.210  -3.655  0.00  0.00     0.203 C 
ENDBRANCH   5   6
BRANCH   5   8
ATOM      8  C   UNL d   1      25.283 -16.449  -0.647  0.00  0.00    -0.020 A 
ATOM      9  C   UNL d   1      25.530 -17.612   0.068  0.00  0.00     0.010 A 
ATOM     10  C   UNL d   1      24.534 -18.575   0.231  0.00  0.00     0.001 A 
ATOM     11  C   UNL d   1      23.234 -18.352  -0.226  0.00  0.00     0.000 A 
ATOM     12  C   UNL d   1      22.931 -17.171  -0.895  0.00  0.00     0.001 A 
ATOM     13  C   UNL d   1      23.947 -16.222  -1.106  0.00  0.00     0.010 A 
ENDBRANCH   5   8
ENDBRANCH   3   5
BRANCH   2  14
ATOM     14  C   UNL d   1      30.164 -15.467  -0.392  0.00  0.00     0.025 C 
ATOM     15  C   UNL d   1      31.109 -14.413   0.249  0.00  0.00     0.037 C 
ATOM     16  C   UNL d   1      30.711 -16.873  -0.212  0.00  0.00     0.037 C 
ATOM     17  C   UNL d   1      30.380 -15.327  -1.917  0.00  0.00     0.037 C 
ENDBRANCH   2  14
ENDBRANCH   1   2
BRANCH   1  18
ATOM     18  C   UNL d   1      28.524 -14.277   2.827  0.00  0.00     0.040 A 
ATOM     19  C   UNL d   1      27.460 -13.873   3.626  0.00  0.00     0.080 A 
ATOM     20  C   UNL d   1      27.680 -13.804   5.006  0.00  0.00     0.073 A 
ATOM     21  C   UNL d   1      28.918 -14.092   5.646  0.00  0.00     0.071 A 
ATOM     22  C   UNL d   1      30.048 -14.443   5.003  0.00  0.00     0.073 A 
ATOM     23  C   UNL d   1      29.908 -14.480   3.649  0.00  0.00     0.080 A 
BRANCH  19  24
ATOM     24  O   UNL d   1      26.280 -13.325   3.195  0.00  0.00    -0.360 OA
ATOM     25  H   UNL d   1      26.372 -12.514   2.671  0.00  0.00     0.217 HD
ENDBRANCH  19  24
BRANCH  21  26
ATOM     26  O   UNL d   1      29.092 -13.973   6.986  0.00  0.00    -0.361 OA
ATOM     27  H   UNL d   1      29.433 -14.826   7.272  0.00  0.00     0.217 HD
ENDBRANCH  21  26
BRANCH  23  28
ATOM     28  O   UNL d   1      31.283 -14.282   3.324  0.00  0.00    -0.360 OA
ATOM     29  H   UNL d   1      31.890 -14.028   4.040  0.00  0.00     0.217 HD
ENDBRANCH  23  28
ENDBRANCH   1  18
BRANCH   1  30
ATOM     30  C   UNL d   1      28.070 -12.731   0.584  0.00  0.00     0.245 C 
ATOM     31  N   UNL d   1      28.182 -12.593  -0.782  0.00  0.00    -0.359 N 
ATOM     32  H   UNL d   1      27.662 -13.266  -1.325  0.00  0.00     0.162 HD
ATOM     33  O   UNL d   1      27.815 -11.780   1.272  0.00  0.00    -0.271 OA
BRANCH  31  34
ATOM     34  C   UNL d   1      28.657 -11.364  -1.375  0.00  0.00     0.122 C 
BRANCH  34  35
ATOM     35  C   UNL d   1      27.816 -10.831  -2.546  0.00  0.00     0.019 C 
BRANCH  35  36
ATOM     36  C   UNL d   1      26.740 -11.835  -2.921  0.00  0.00    -0.003 C 
ATOM     37  C   UNL d   1      25.578 -11.160  -3.627  0.00  0.00     0.005 C 
ENDBRANCH  35  36
ENDBRANCH  34  35
ENDBRANCH  31  34
ENDBRANCH   1  30
TORSDOF 13
ENDMDL
