MODEL 1
REMARK VINA RESULT:    -7.532      0.000      0.000
REMARK INTER + INTRA:         -10.280
REMARK INTER:                  -9.024
REMARK INTRA:                  -1.256
REMARK CONF_INDEPENDENT:        1.492
REMARK UNBOUND:                -1.256
REMARK  5 active torsions:
REMARK  status: ('A' for Active; 'I' for Inactive)
REMARK       I    between atoms: N_1  and  C_2 
REMARK    1  A    between atoms: C_2  and  C_4 
REMARK    2  A    between atoms: C_6  and  N_7 
REMARK    3  A    between atoms: N_7  and  C_8 
REMARK    4  A    between atoms: C_15  and  N_16 
REMARK       I    between atoms: N_16  and  C_17 
REMARK    5  A    between atoms: C_17  and  C_19 
ROOT
ATOM      1  C   UNL d   1      26.091 -17.004  -0.751  0.00  0.00     0.161 A 
ATOM      2  N   UNL d   1      25.416 -17.963  -0.016  0.00  0.00    -0.216 NA
ATOM      3  C   UNL d   1      24.132 -17.717   0.056  0.00  0.00     0.174 A 
ATOM      4  S   UNL d   1      23.653 -16.315  -0.868  0.00  0.00    -0.032 SA
ATOM      5  C   UNL d   1      25.284 -16.056  -1.367  0.00  0.00     0.115 A 
ENDROOT
BRANCH   5   6
ATOM      6  N   UNL d   1      25.545 -14.993  -2.248  0.00  0.00    -0.315 N 
ATOM      7  C   UNL d   1      25.780 -15.247  -3.599  0.00  0.00     0.262 C 
ATOM      8  O   UNL d   1      25.532 -16.328  -4.135  0.00  0.00    -0.267 OA
ATOM      9  H   UNL d   1      25.485 -14.042  -1.903  0.00  0.00     0.170 HD
BRANCH   7  10
ATOM     10  C   UNL d   1      26.309 -14.220  -4.518  0.00  0.00     0.109 A 
ATOM     11  C   UNL d   1      27.440 -14.554  -5.288  0.00  0.00     0.135 A 
ATOM     12  F   UNL d   1      27.894 -15.815  -5.363  0.00  0.00    -0.205 F 
ATOM     13  C   UNL d   1      28.133 -13.604  -6.029  0.00  0.00     0.043 A 
ATOM     14  C   UNL d   1      27.657 -12.301  -6.082  0.00  0.00     0.006 A 
ATOM     15  C   UNL d   1      26.521 -11.953  -5.345  0.00  0.00     0.043 A 
ATOM     16  C   UNL d   1      25.861 -12.906  -4.556  0.00  0.00     0.135 A 
ATOM     17  F   UNL d   1      24.807 -12.514  -3.828  0.00  0.00    -0.205 F 
ENDBRANCH   7  10
ENDBRANCH   5   6
BRANCH   1  18
ATOM     18  C   UNL d   1      27.545 -17.056  -0.768  0.00  0.00     0.271 C 
ATOM     19  N   UNL d   1      28.091 -17.975   0.091  0.00  0.00    -0.365 N 
ATOM     20  H   UNL d   1      29.038 -18.261  -0.110  0.00  0.00     0.159 HD
ATOM     21  H   UNL d   1      27.514 -18.536   0.699  0.00  0.00     0.159 HD
ATOM     22  O   UNL d   1      28.237 -16.337  -1.484  0.00  0.00    -0.266 OA
ENDBRANCH   1  18
BRANCH   3  23
ATOM     23  N   UNL d   1      23.272 -18.517   0.746  0.00  0.00    -0.335 N 
ATOM     24  H   UNL d   1      23.551 -18.991   1.594  0.00  0.00     0.168 HD
BRANCH  23  25
ATOM     25  C   UNL d   1      22.012 -18.920   0.233  0.00  0.00     0.034 A 
ATOM     26  C   UNL d   1      20.982 -19.313   1.100  0.00  0.00     0.029 A 
ATOM     27  C   UNL d   1      19.734 -19.720   0.603  0.00  0.00     0.002 A 
ATOM     28  C   UNL d   1      19.485 -19.705  -0.768  0.00  0.00     0.000 A 
ATOM     29  C   UNL d   1      20.498 -19.325  -1.643  0.00  0.00     0.002 A 
ATOM     30  C   UNL d   1      21.752 -18.946  -1.146  0.00  0.00     0.029 A 
ENDBRANCH  23  25
ENDBRANCH   3  23
TORSDOF 5
ENDMDL
MODEL 2
REMARK VINA RESULT:    -7.352      2.540      4.123
REMARK INTER + INTRA:         -10.071
REMARK INTER:                  -8.844
REMARK INTRA:                  -1.228
REMARK CONF_INDEPENDENT:        1.492
REMARK UNBOUND:                -1.228
REMARK  5 active torsions:
REMARK  status: ('A' for Active; 'I' for Inactive)
REMARK       I    between atoms: N_1  and  C_2 
REMARK    1  A    between atoms: C_2  and  C_4 
REMARK    2  A    between atoms: C_6  and  N_7 
REMARK    3  A    between atoms: N_7  and  C_8 
REMARK    4  A    between atoms: C_15  and  N_16 
REMARK       I    between atoms: N_16  and  C_17 
REMARK    5  A    between atoms: C_17  and  C_19 
ROOT
ATOM      1  C   UNL d   1      25.955 -14.422  -3.372  0.00  0.00     0.161 A 
ATOM      2  N   UNL d   1      25.246 -14.946  -2.305  0.00  0.00    -0.216 NA
ATOM      3  C   UNL d   1      25.955 -15.803  -1.614  0.00  0.00     0.174 A 
ATOM      4  S   UNL d   1      27.596 -15.952  -2.190  0.00  0.00    -0.032 SA
ATOM      5  C   UNL d   1      27.292 -14.795  -3.433  0.00  0.00     0.115 A 
ENDROOT
BRANCH   5   6
ATOM      6  N   UNL d   1      28.357 -14.433  -4.275  0.00  0.00    -0.315 N 
ATOM      7  C   UNL d   1      28.337 -14.794  -5.622  0.00  0.00     0.262 C 
ATOM      8  O   UNL d   1      27.325 -15.202  -6.195  0.00  0.00    -0.267 OA
ATOM      9  H   UNL d   1      29.096 -13.845  -3.908  0.00  0.00     0.170 HD
BRANCH   7  10
ATOM     10  C   UNL d   1      29.522 -14.674  -6.492  0.00  0.00     0.109 A 
ATOM     11  C   UNL d   1      30.374 -15.791  -6.591  0.00  0.00     0.135 A 
ATOM     12  F   UNL d   1      30.023 -16.991  -6.103  0.00  0.00    -0.205 F 
ATOM     13  C   UNL d   1      31.613 -15.719  -7.218  0.00  0.00     0.043 A 
ATOM     14  C   UNL d   1      31.995 -14.538  -7.838  0.00  0.00     0.006 A 
ATOM     15  C   UNL d   1      31.153 -13.423  -7.774  0.00  0.00     0.043 A 
ATOM     16  C   UNL d   1      29.931 -13.489  -7.091  0.00  0.00     0.135 A 
ATOM     17  F   UNL d   1      29.181 -12.382  -7.014  0.00  0.00    -0.205 F 
ENDBRANCH   7  10
ENDBRANCH   5   6
BRANCH   1  18
ATOM     18  C   UNL d   1      25.236 -13.591  -4.327  0.00  0.00     0.271 C 
ATOM     19  N   UNL d   1      23.872 -13.711  -4.271  0.00  0.00    -0.365 N 
ATOM     20  H   UNL d   1      23.344 -12.951  -4.672  0.00  0.00     0.159 HD
ATOM     21  H   UNL d   1      23.424 -14.354  -3.635  0.00  0.00     0.159 HD
ATOM     22  O   UNL d   1      25.796 -12.842  -5.124  0.00  0.00    -0.266 OA
ENDBRANCH   1  18
BRANCH   3  23
ATOM     23  N   UNL d   1      25.455 -16.459  -0.530  0.00  0.00    -0.335 N 
ATOM     24  H   UNL d   1      25.995 -16.575   0.317  0.00  0.00     0.168 HD
BRANCH  23  25
ATOM     25  C   UNL d   1      24.251 -17.208  -0.568  0.00  0.00     0.034 A 
ATOM     26  C   UNL d   1      23.031 -16.582  -0.861  0.00  0.00     0.029 A 
ATOM     27  C   UNL d   1      21.832 -17.314  -0.894  0.00  0.00     0.002 A 
ATOM     28  C   UNL d   1      21.843 -18.689  -0.672  0.00  0.00     0.000 A 
ATOM     29  C   UNL d   1      23.044 -19.325  -0.374  0.00  0.00     0.002 A 
ATOM     30  C   UNL d   1      24.233 -18.588  -0.313  0.00  0.00     0.029 A 
ENDBRANCH  23  25
ENDBRANCH   3  23
TORSDOF 5
ENDMDL
MODEL 3
REMARK VINA RESULT:    -7.217      2.569      4.334
REMARK INTER + INTRA:          -9.942
REMARK INTER:                  -8.708
REMARK INTRA:                  -1.234
REMARK CONF_INDEPENDENT:        1.492
REMARK UNBOUND:                -1.234
REMARK  5 active torsions:
REMARK  status: ('A' for Active; 'I' for Inactive)
REMARK       I    between atoms: N_1  and  C_2 
REMARK    1  A    between atoms: C_2  and  C_4 
REMARK    2  A    between atoms: C_6  and  N_7 
REMARK    3  A    between atoms: N_7  and  C_8 
REMARK    4  A    between atoms: C_15  and  N_16 
REMARK       I    between atoms: N_16  and  C_17 
REMARK    5  A    between atoms: C_17  and  C_19 
ROOT
ATOM      1  C   UNL d   1      26.117 -14.563  -3.314  0.00  0.00     0.161 A 
ATOM      2  N   UNL d   1      25.339 -15.065  -2.285  0.00  0.00    -0.216 NA
ATOM      3  C   UNL d   1      25.997 -15.920  -1.542  0.00  0.00     0.174 A 
ATOM      4  S   UNL d   1      27.668 -16.093  -2.018  0.00  0.00    -0.032 SA
ATOM      5  C   UNL d   1      27.450 -14.950  -3.291  0.00  0.00     0.115 A 
ENDROOT
BRANCH   5   6
ATOM      6  N   UNL d   1      28.568 -14.610  -4.073  0.00  0.00    -0.315 N 
ATOM      7  C   UNL d   1      28.576 -14.889  -5.439  0.00  0.00     0.262 C 
ATOM      8  O   UNL d   1      27.563 -15.196  -6.069  0.00  0.00    -0.267 OA
ATOM      9  H   UNL d   1      29.328 -14.093  -3.645  0.00  0.00     0.170 HD
BRANCH   7  10
ATOM     10  C   UNL d   1      29.798 -14.797  -6.259  0.00  0.00     0.109 A 
ATOM     11  C   UNL d   1      30.049 -13.581  -6.923  0.00  0.00     0.135 A 
ATOM     12  F   UNL d   1      29.340 -12.473  -6.655  0.00  0.00    -0.205 F 
ATOM     13  C   UNL d   1      31.056 -13.453  -7.873  0.00  0.00     0.043 A 
ATOM     14  C   UNL d   1      31.897 -14.528  -8.123  0.00  0.00     0.006 A 
ATOM     15  C   UNL d   1      31.682 -15.739  -7.456  0.00  0.00     0.043 A 
ATOM     16  C   UNL d   1      30.628 -15.875  -6.542  0.00  0.00     0.135 A 
ATOM     17  F   UNL d   1      30.432 -17.068  -5.965  0.00  0.00    -0.205 F 
ENDBRANCH   7  10
ENDBRANCH   5   6
BRANCH   1  18
ATOM     18  C   UNL d   1      25.465 -13.736  -4.320  0.00  0.00     0.271 C 
ATOM     19  N   UNL d   1      24.096 -13.730  -4.251  0.00  0.00    -0.365 N 
ATOM     20  H   UNL d   1      23.634 -12.954  -4.701  0.00  0.00     0.159 HD
ATOM     21  H   UNL d   1      23.600 -14.286  -3.570  0.00  0.00     0.159 HD
ATOM     22  O   UNL d   1      26.081 -13.097  -5.169  0.00  0.00    -0.266 OA
ENDBRANCH   1  18
BRANCH   3  23
ATOM     23  N   UNL d   1      25.427 -16.557  -0.482  0.00  0.00    -0.335 N 
ATOM     24  H   UNL d   1      25.927 -16.699   0.385  0.00  0.00     0.168 HD
BRANCH  23  25
ATOM     25  C   UNL d   1      24.194 -17.252  -0.570  0.00  0.00     0.034 A 
ATOM     26  C   UNL d   1      22.999 -16.558  -0.813  0.00  0.00     0.029 A 
ATOM     27  C   UNL d   1      21.773 -17.237  -0.895  0.00  0.00     0.002 A 
ATOM     28  C   UNL d   1      21.728 -18.624  -0.774  0.00  0.00     0.000 A 
ATOM     29  C   UNL d   1      22.902 -19.328  -0.527  0.00  0.00     0.002 A 
ATOM     30  C   UNL d   1      24.121 -18.645  -0.417  0.00  0.00     0.029 A 
ENDBRANCH  23  25
ENDBRANCH   3  23
TORSDOF 5
ENDMDL
MODEL 4
REMARK VINA RESULT:    -7.123      3.046      4.741
REMARK INTER + INTRA:          -9.818
REMARK INTER:                  -8.614
REMARK INTRA:                  -1.204
REMARK CONF_INDEPENDENT:        1.492
REMARK UNBOUND:                -1.204
REMARK  5 active torsions:
REMARK  status: ('A' for Active; 'I' for Inactive)
REMARK       I    between atoms: N_1  and  C_2 
REMARK    1  A    between atoms: C_2  and  C_4 
REMARK    2  A    between atoms: C_6  and  N_7 
REMARK    3  A    between atoms: N_7  and  C_8 
REMARK    4  A    between atoms: C_15  and  N_16 
REMARK       I    between atoms: N_16  and  C_17 
REMARK    5  A    between atoms: C_17  and  C_19 
ROOT
ATOM      1  C   UNL d   1      26.771 -14.425  -4.431  0.00  0.00     0.161 A 
ATOM      2  N   UNL d   1      26.848 -15.575  -3.663  0.00  0.00    -0.216 NA
ATOM      3  C   UNL d   1      26.142 -15.482  -2.565  0.00  0.00     0.174 A 
ATOM      4  S   UNL d   1      25.252 -13.984  -2.449  0.00  0.00    -0.032 SA
ATOM      5  C   UNL d   1      25.881 -13.464  -3.968  0.00  0.00     0.115 A 
ENDROOT
BRANCH   5   6
ATOM      6  N   UNL d   1      25.446 -12.228  -4.476  0.00  0.00    -0.315 N 
ATOM      7  C   UNL d   1      26.125 -11.057  -4.141  0.00  0.00     0.262 C 
ATOM      8  O   UNL d   1      27.242 -11.051  -3.621  0.00  0.00    -0.267 OA
ATOM      9  H   UNL d   1      24.685 -12.212  -5.145  0.00  0.00     0.170 HD
BRANCH   7  10
ATOM     10  C   UNL d   1      25.578  -9.716  -4.424  0.00  0.00     0.109 A 
ATOM     11  C   UNL d   1      25.218  -9.425  -5.753  0.00  0.00     0.135 A 
ATOM     12  F   UNL d   1      25.156 -10.382  -6.692  0.00  0.00    -0.205 F 
ATOM     13  C   UNL d   1      24.885  -8.138  -6.162  0.00  0.00     0.043 A 
ATOM     14  C   UNL d   1      24.825  -7.120  -5.222  0.00  0.00     0.006 A 
ATOM     15  C   UNL d   1      25.155  -7.391  -3.890  0.00  0.00     0.043 A 
ATOM     16  C   UNL d   1      25.544  -8.680  -3.499  0.00  0.00     0.135 A 
ATOM     17  F   UNL d   1      25.899  -8.881  -2.223  0.00  0.00    -0.205 F 
ENDBRANCH   7  10
ENDBRANCH   5   6
BRANCH   1  18
ATOM     18  C   UNL d   1      27.643 -14.320  -5.592  0.00  0.00     0.271 C 
ATOM     19  N   UNL d   1      28.304 -13.125  -5.701  0.00  0.00    -0.365 N 
ATOM     20  H   UNL d   1      29.127 -13.125  -6.284  0.00  0.00     0.159 HD
ATOM     21  H   UNL d   1      28.158 -12.379  -5.037  0.00  0.00     0.159 HD
ATOM     22  O   UNL d   1      27.780 -15.222  -6.415  0.00  0.00    -0.266 OA
ENDBRANCH   1  18
BRANCH   3  23
ATOM     23  N   UNL d   1      26.084 -16.487  -1.647  0.00  0.00    -0.335 N 
ATOM     24  H   UNL d   1      26.909 -17.003  -1.370  0.00  0.00     0.168 HD
BRANCH  23  25
ATOM     25  C   UNL d   1      24.864 -17.031  -1.172  0.00  0.00     0.034 A 
ATOM     26  C   UNL d   1      24.829 -18.308  -0.592  0.00  0.00     0.029 A 
ATOM     27  C   UNL d   1      23.625 -18.859  -0.126  0.00  0.00     0.002 A 
ATOM     28  C   UNL d   1      22.442 -18.125  -0.199  0.00  0.00     0.000 A 
ATOM     29  C   UNL d   1      22.456 -16.860  -0.778  0.00  0.00     0.002 A 
ATOM     30  C   UNL d   1      23.655 -16.325  -1.268  0.00  0.00     0.029 A 
ENDBRANCH  23  25
ENDBRANCH   3  23
TORSDOF 5
ENDMDL
MODEL 5
REMARK VINA RESULT:    -6.673      1.900      3.101
REMARK INTER + INTRA:          -9.336
REMARK INTER:                  -8.165
REMARK INTRA:                  -1.171
REMARK CONF_INDEPENDENT:        1.492
REMARK UNBOUND:                -1.171
REMARK  5 active torsions:
REMARK  status: ('A' for Active; 'I' for Inactive)
REMARK       I    between atoms: N_1  and  C_2 
REMARK    1  A    between atoms: C_2  and  C_4 
REMARK    2  A    between atoms: C_6  and  N_7 
REMARK    3  A    between atoms: N_7  and  C_8 
REMARK    4  A    between atoms: C_15  and  N_16 
REMARK       I    between atoms: N_16  and  C_17 
REMARK    5  A    between atoms: C_17  and  C_19 
ROOT
ATOM      1  C   UNL d   1      28.533 -16.678  -1.714  0.00  0.00     0.161 A 
ATOM      2  N   UNL d   1      27.777 -17.432  -0.832  0.00  0.00    -0.216 NA
ATOM      3  C   UNL d   1      26.597 -16.906  -0.622  0.00  0.00     0.174 A 
ATOM      4  S   UNL d   1      26.305 -15.475  -1.579  0.00  0.00    -0.032 SA
ATOM      5  C   UNL d   1      27.870 -15.604  -2.293  0.00  0.00     0.115 A 
ENDROOT
BRANCH   5   6
ATOM      6  N   UNL d   1      28.229 -14.665  -3.275  0.00  0.00    -0.315 N 
ATOM      7  C   UNL d   1      27.793 -14.828  -4.590  0.00  0.00     0.262 C 
ATOM      8  O   UNL d   1      26.901 -15.615  -4.911  0.00  0.00    -0.267 OA
ATOM      9  H   UNL d   1      28.740 -13.835  -2.998  0.00  0.00     0.170 HD
BRANCH   7  10
ATOM     10  C   UNL d   1      28.337 -14.035  -5.709  0.00  0.00     0.109 A 
ATOM     11  C   UNL d   1      27.634 -12.875  -6.089  0.00  0.00     0.135 A 
ATOM     12  F   UNL d   1      26.640 -12.376  -5.338  0.00  0.00    -0.205 F 
ATOM     13  C   UNL d   1      27.944 -12.172  -7.248  0.00  0.00     0.043 A 
ATOM     14  C   UNL d   1      29.028 -12.571  -8.017  0.00  0.00     0.006 A 
ATOM     15  C   UNL d   1      29.757 -13.705  -7.645  0.00  0.00     0.043 A 
ATOM     16  C   UNL d   1      29.401 -14.440  -6.505  0.00  0.00     0.135 A 
ATOM     17  F   UNL d   1      30.097 -15.548  -6.215  0.00  0.00    -0.205 F 
ENDBRANCH   7  10
ENDBRANCH   5   6
BRANCH   1  18
ATOM     18  C   UNL d   1      29.928 -17.050  -1.905  0.00  0.00     0.271 C 
ATOM     19  N   UNL d   1      30.444 -17.849  -0.919  0.00  0.00    -0.365 N 
ATOM     20  H   UNL d   1      31.271 -18.374  -1.162  0.00  0.00     0.159 HD
ATOM     21  H   UNL d   1      29.894 -18.121  -0.118  0.00  0.00     0.159 HD
ATOM     22  O   UNL d   1      30.598 -16.679  -2.865  0.00  0.00    -0.266 OA
ENDBRANCH   1  18
BRANCH   3  23
ATOM     23  N   UNL d   1      25.688 -17.465   0.226  0.00  0.00    -0.335 N 
ATOM     24  H   UNL d   1      25.966 -17.873   1.109  0.00  0.00     0.168 HD
BRANCH  23  25
ATOM     25  C   UNL d   1      24.342 -17.716  -0.141  0.00  0.00     0.034 A 
ATOM     26  C   UNL d   1      23.492 -16.660  -0.502  0.00  0.00     0.029 A 
ATOM     27  C   UNL d   1      22.155 -16.897  -0.860  0.00  0.00     0.002 A 
ATOM     28  C   UNL d   1      21.659 -18.198  -0.899  0.00  0.00     0.000 A 
ATOM     29  C   UNL d   1      22.485 -19.257  -0.538  0.00  0.00     0.002 A 
ATOM     30  C   UNL d   1      23.811 -19.015  -0.154  0.00  0.00     0.029 A 
ENDBRANCH  23  25
ENDBRANCH   3  23
TORSDOF 5
ENDMDL
MODEL 6
REMARK VINA RESULT:    -6.656      3.151      5.407
REMARK INTER + INTRA:          -9.323
REMARK INTER:                  -8.148
REMARK INTRA:                  -1.175
REMARK CONF_INDEPENDENT:        1.492
REMARK UNBOUND:                -1.175
REMARK  5 active torsions:
REMARK  status: ('A' for Active; 'I' for Inactive)
REMARK       I    between atoms: N_1  and  C_2 
REMARK    1  A    between atoms: C_2  and  C_4 
REMARK    2  A    between atoms: C_6  and  N_7 
REMARK    3  A    between atoms: N_7  and  C_8 
REMARK    4  A    between atoms: C_15  and  N_16 
REMARK       I    between atoms: N_16  and  C_17 
REMARK    5  A    between atoms: C_17  and  C_19 
ROOT
ATOM      1  C   UNL d   1      26.240 -13.038  -4.581  0.00  0.00     0.161 A 
ATOM      2  N   UNL d   1      25.355 -13.270  -3.543  0.00  0.00    -0.216 NA
ATOM      3  C   UNL d   1      25.143 -14.548  -3.352  0.00  0.00     0.174 A 
ATOM      4  S   UNL d   1      26.106 -15.563  -4.396  0.00  0.00    -0.032 SA
ATOM      5  C   UNL d   1      26.823 -14.174  -5.126  0.00  0.00     0.115 A 
ENDROOT
BRANCH   5   6
ATOM      6  N   UNL d   1      27.810 -14.377  -6.107  0.00  0.00    -0.315 N 
ATOM      7  C   UNL d   1      28.855 -15.269  -5.871  0.00  0.00     0.262 C 
ATOM      8  O   UNL d   1      28.847 -16.089  -4.952  0.00  0.00    -0.267 OA
ATOM      9  H   UNL d   1      27.707 -13.926  -7.008  0.00  0.00     0.170 HD
BRANCH   7  10
ATOM     10  C   UNL d   1      30.049 -15.336  -6.736  0.00  0.00     0.109 A 
ATOM     11  C   UNL d   1      30.665 -16.591  -6.900  0.00  0.00     0.135 A 
ATOM     12  F   UNL d   1      30.081 -17.724  -6.480  0.00  0.00    -0.205 F 
ATOM     13  C   UNL d   1      31.900 -16.730  -7.525  0.00  0.00     0.043 A 
ATOM     14  C   UNL d   1      32.512 -15.615  -8.078  0.00  0.00     0.006 A 
ATOM     15  C   UNL d   1      31.906 -14.361  -7.949  0.00  0.00     0.043 A 
ATOM     16  C   UNL d   1      30.688 -14.223  -7.268  0.00  0.00     0.135 A 
ATOM     17  F   UNL d   1      30.169 -12.996  -7.127  0.00  0.00    -0.205 F 
ENDBRANCH   7  10
ENDBRANCH   5   6
BRANCH   1  18
ATOM     18  C   UNL d   1      26.433 -11.662  -5.017  0.00  0.00     0.271 C 
ATOM     19  N   UNL d   1      25.530 -10.770  -4.501  0.00  0.00    -0.365 N 
ATOM     20  H   UNL d   1      25.807  -9.800  -4.518  0.00  0.00     0.159 HD
ATOM     21  H   UNL d   1      24.780 -11.069  -3.896  0.00  0.00     0.159 HD
ATOM     22  O   UNL d   1      27.326 -11.319  -5.788  0.00  0.00    -0.266 OA
ENDBRANCH   1  18
BRANCH   3  23
ATOM     23  N   UNL d   1      24.292 -15.013  -2.396  0.00  0.00    -0.335 N 
ATOM     24  H   UNL d   1      23.444 -14.518  -2.153  0.00  0.00     0.168 HD
BRANCH  23  25
ATOM     25  C   UNL d   1      24.618 -16.084  -1.525  0.00  0.00     0.034 A 
ATOM     26  C   UNL d   1      25.932 -16.255  -1.065  0.00  0.00     0.029 A 
ATOM     27  C   UNL d   1      26.267 -17.316  -0.209  0.00  0.00     0.002 A 
ATOM     28  C   UNL d   1      25.285 -18.201   0.230  0.00  0.00     0.000 A 
ATOM     29  C   UNL d   1      23.977 -18.051  -0.222  0.00  0.00     0.002 A 
ATOM     30  C   UNL d   1      23.652 -17.008  -1.099  0.00  0.00     0.029 A 
ENDBRANCH  23  25
ENDBRANCH   3  23
TORSDOF 5
ENDMDL
MODEL 7
REMARK VINA RESULT:    -6.650      2.351      3.196
REMARK INTER + INTRA:          -9.372
REMARK INTER:                  -8.141
REMARK INTRA:                  -1.231
REMARK CONF_INDEPENDENT:        1.492
REMARK UNBOUND:                -1.231
REMARK  5 active torsions:
REMARK  status: ('A' for Active; 'I' for Inactive)
REMARK       I    between atoms: N_1  and  C_2 
REMARK    1  A    between atoms: C_2  and  C_4 
REMARK    2  A    between atoms: C_6  and  N_7 
REMARK    3  A    between atoms: N_7  and  C_8 
REMARK    4  A    between atoms: C_15  and  N_16 
REMARK       I    between atoms: N_16  and  C_17 
REMARK    5  A    between atoms: C_17  and  C_19 
ROOT
ATOM      1  C   UNL d   1      28.228 -16.236  -1.592  0.00  0.00     0.161 A 
ATOM      2  N   UNL d   1      27.172 -16.552  -0.754  0.00  0.00    -0.216 NA
ATOM      3  C   UNL d   1      26.140 -15.770  -0.946  0.00  0.00     0.174 A 
ATOM      4  S   UNL d   1      26.375 -14.636  -2.253  0.00  0.00    -0.032 SA
ATOM      5  C   UNL d   1      27.957 -15.260  -2.542  0.00  0.00     0.115 A 
ENDROOT
BRANCH   5   6
ATOM      6  N   UNL d   1      28.696 -14.721  -3.609  0.00  0.00    -0.315 N 
ATOM      7  C   UNL d   1      28.337 -15.012  -4.924  0.00  0.00     0.262 C 
ATOM      8  O   UNL d   1      27.256 -15.517  -5.232  0.00  0.00    -0.267 OA
ATOM      9  H   UNL d   1      29.439 -14.062  -3.408  0.00  0.00     0.170 HD
BRANCH   7  10
ATOM     10  C   UNL d   1      29.209 -14.697  -6.072  0.00  0.00     0.109 A 
ATOM     11  C   UNL d   1      30.397 -15.440  -6.213  0.00  0.00     0.135 A 
ATOM     12  F   UNL d   1      30.632 -16.538  -5.478  0.00  0.00    -0.205 F 
ATOM     13  C   UNL d   1      31.379 -15.093  -7.134  0.00  0.00     0.043 A 
ATOM     14  C   UNL d   1      31.156 -14.032  -7.999  0.00  0.00     0.006 A 
ATOM     15  C   UNL d   1      29.972 -13.294  -7.895  0.00  0.00     0.043 A 
ATOM     16  C   UNL d   1      29.012 -13.618  -6.925  0.00  0.00     0.135 A 
ATOM     17  F   UNL d   1      27.917 -12.853  -6.829  0.00  0.00    -0.205 F 
ENDBRANCH   7  10
ENDBRANCH   5   6
BRANCH   1  18
ATOM     18  C   UNL d   1      29.499 -16.909  -1.369  0.00  0.00     0.271 C 
ATOM     19  N   UNL d   1      29.606 -17.536  -0.155  0.00  0.00    -0.365 N 
ATOM     20  H   UNL d   1      30.311 -18.255  -0.089  0.00  0.00     0.159 HD
ATOM     21  H   UNL d   1      28.864 -17.495   0.527  0.00  0.00     0.159 HD
ATOM     22  O   UNL d   1      30.411 -16.917  -2.193  0.00  0.00    -0.266 OA
ENDBRANCH   1  18
BRANCH   3  23
ATOM     23  N   UNL d   1      24.993 -15.883  -0.220  0.00  0.00    -0.335 N 
ATOM     24  H   UNL d   1      24.826 -15.318   0.603  0.00  0.00     0.168 HD
BRANCH  23  25
ATOM     25  C   UNL d   1      24.053 -16.926  -0.418  0.00  0.00     0.034 A 
ATOM     26  C   UNL d   1      24.446 -18.269  -0.318  0.00  0.00     0.029 A 
ATOM     27  C   UNL d   1      23.525 -19.310  -0.519  0.00  0.00     0.002 A 
ATOM     28  C   UNL d   1      22.188 -19.022  -0.786  0.00  0.00     0.000 A 
ATOM     29  C   UNL d   1      21.781 -17.696  -0.896  0.00  0.00     0.002 A 
ATOM     30  C   UNL d   1      22.709 -16.660  -0.722  0.00  0.00     0.029 A 
ENDBRANCH  23  25
ENDBRANCH   3  23
TORSDOF 5
ENDMDL
MODEL 8
REMARK VINA RESULT:    -6.628      3.015      3.689
REMARK INTER + INTRA:          -9.516
REMARK INTER:                  -8.119
REMARK INTRA:                  -1.397
REMARK CONF_INDEPENDENT:        1.492
REMARK UNBOUND:                -1.397
REMARK  5 active torsions:
REMARK  status: ('A' for Active; 'I' for Inactive)
REMARK       I    between atoms: N_1  and  C_2 
REMARK    1  A    between atoms: C_2  and  C_4 
REMARK    2  A    between atoms: C_6  and  N_7 
REMARK    3  A    between atoms: N_7  and  C_8 
REMARK    4  A    between atoms: C_15  and  N_16 
REMARK       I    between atoms: N_16  and  C_17 
REMARK    5  A    between atoms: C_17  and  C_19 
ROOT
ATOM      1  C   UNL d   1      25.512 -17.651  -0.064  0.00  0.00     0.161 A 
ATOM      2  N   UNL d   1      24.603 -18.598  -0.502  0.00  0.00    -0.216 NA
ATOM      3  C   UNL d   1      23.499 -18.052  -0.949  0.00  0.00     0.174 A 
ATOM      4  S   UNL d   1      23.549 -16.307  -0.941  0.00  0.00    -0.032 SA
ATOM      5  C   UNL d   1      25.147 -16.330  -0.293  0.00  0.00     0.115 A 
ENDROOT
BRANCH   5   6
ATOM      6  N   UNL d   1      25.797 -15.101  -0.091  0.00  0.00    -0.315 N 
ATOM      7  C   UNL d   1      26.992 -14.825  -0.754  0.00  0.00     0.262 C 
ATOM      8  O   UNL d   1      27.403 -15.489  -1.707  0.00  0.00    -0.267 OA
ATOM      9  H   UNL d   1      25.347 -14.395   0.481  0.00  0.00     0.170 HD
BRANCH   7  10
ATOM     10  C   UNL d   1      27.850 -13.679  -0.397  0.00  0.00     0.109 A 
ATOM     11  C   UNL d   1      28.291 -13.584   0.937  0.00  0.00     0.135 A 
ATOM     12  F   UNL d   1      28.135 -14.596   1.804  0.00  0.00    -0.205 F 
ATOM     13  C   UNL d   1      28.931 -12.449   1.423  0.00  0.00     0.043 A 
ATOM     14  C   UNL d   1      29.220 -11.406   0.554  0.00  0.00     0.006 A 
ATOM     15  C   UNL d   1      28.814 -11.489  -0.782  0.00  0.00     0.043 A 
ATOM     16  C   UNL d   1      28.119 -12.614  -1.248  0.00  0.00     0.135 A 
ATOM     17  F   UNL d   1      27.707 -12.628  -2.523  0.00  0.00    -0.205 F 
ENDBRANCH   7  10
ENDBRANCH   5   6
BRANCH   1  18
ATOM     18  C   UNL d   1      26.710 -18.120   0.618  0.00  0.00     0.271 C 
ATOM     19  N   UNL d   1      27.880 -17.868  -0.050  0.00  0.00    -0.365 N 
ATOM     20  H   UNL d   1      28.720 -17.885   0.508  0.00  0.00     0.159 HD
ATOM     21  H   UNL d   1      27.886 -17.421  -0.954  0.00  0.00     0.159 HD
ATOM     22  O   UNL d   1      26.685 -18.699   1.701  0.00  0.00    -0.266 OA
ENDBRANCH   1  18
BRANCH   3  23
ATOM     23  N   UNL d   1      22.455 -18.792  -1.414  0.00  0.00    -0.335 N 
ATOM     24  H   UNL d   1      22.344 -18.997  -2.398  0.00  0.00     0.168 HD
BRANCH  23  25
ATOM     25  C   UNL d   1      21.341 -19.146  -0.611  0.00  0.00     0.034 A 
ATOM     26  C   UNL d   1      20.190 -19.700  -1.191  0.00  0.00     0.029 A 
ATOM     27  C   UNL d   1      19.079 -20.047  -0.405  0.00  0.00     0.002 A 
ATOM     28  C   UNL d   1      19.117 -19.879   0.978  0.00  0.00     0.000 A 
ATOM     29  C   UNL d   1      20.247 -19.325   1.569  0.00  0.00     0.002 A 
ATOM     30  C   UNL d   1      21.343 -18.953   0.780  0.00  0.00     0.029 A 
ENDBRANCH  23  25
ENDBRANCH   3  23
TORSDOF 5
ENDMDL
MODEL 9
REMARK VINA RESULT:    -6.625      3.463      8.234
REMARK INTER + INTRA:          -9.249
REMARK INTER:                  -8.116
REMARK INTRA:                  -1.133
REMARK CONF_INDEPENDENT:        1.492
REMARK UNBOUND:                -1.133
REMARK  5 active torsions:
REMARK  status: ('A' for Active; 'I' for Inactive)
REMARK       I    between atoms: N_1  and  C_2 
REMARK    1  A    between atoms: C_2  and  C_4 
REMARK    2  A    between atoms: C_6  and  N_7 
REMARK    3  A    between atoms: N_7  and  C_8 
REMARK    4  A    between atoms: C_15  and  N_16 
REMARK       I    between atoms: N_16  and  C_17 
REMARK    5  A    between atoms: C_17  and  C_19 
ROOT
ATOM      1  C   UNL d   1      27.275 -13.590  -5.648  0.00  0.00     0.161 A 
ATOM      2  N   UNL d   1      27.005 -12.348  -6.199  0.00  0.00    -0.216 NA
ATOM      3  C   UNL d   1      26.080 -11.704  -5.533  0.00  0.00     0.174 A 
ATOM      4  S   UNL d   1      25.539 -12.561  -4.111  0.00  0.00    -0.032 SA
ATOM      5  C   UNL d   1      26.625 -13.858  -4.451  0.00  0.00     0.115 A 
ENDROOT
BRANCH   5   6
ATOM      6  N   UNL d   1      26.681 -14.929  -3.542  0.00  0.00    -0.315 N 
ATOM      7  C   UNL d   1      25.563 -15.254  -2.776  0.00  0.00     0.262 C 
ATOM      8  O   UNL d   1      24.433 -14.822  -3.014  0.00  0.00    -0.267 OA
ATOM      9  H   UNL d   1      27.516 -15.502  -3.509  0.00  0.00     0.170 HD
BRANCH   7  10
ATOM     10  C   UNL d   1      25.629 -16.185  -1.633  0.00  0.00     0.109 A 
ATOM     11  C   UNL d   1      26.904 -16.552  -1.163  0.00  0.00     0.135 A 
ATOM     12  F   UNL d   1      28.015 -15.921  -1.575  0.00  0.00    -0.205 F 
ATOM     13  C   UNL d   1      27.082 -17.569  -0.231  0.00  0.00     0.043 A 
ATOM     14  C   UNL d   1      25.971 -18.192   0.317  0.00  0.00     0.006 A 
ATOM     15  C   UNL d   1      24.692 -17.826  -0.116  0.00  0.00     0.043 A 
ATOM     16  C   UNL d   1      24.526 -16.839  -1.098  0.00  0.00     0.135 A 
ATOM     17  F   UNL d   1      23.285 -16.557  -1.517  0.00  0.00    -0.205 F 
ENDBRANCH   7  10
ENDBRANCH   5   6
BRANCH   1  18
ATOM     18  C   UNL d   1      28.155 -14.485  -6.385  0.00  0.00     0.271 C 
ATOM     19  N   UNL d   1      28.533 -14.024  -7.618  0.00  0.00    -0.365 N 
ATOM     20  H   UNL d   1      29.362 -14.442  -8.013  0.00  0.00     0.159 HD
ATOM     21  H   UNL d   1      28.192 -13.146  -7.981  0.00  0.00     0.159 HD
ATOM     22  O   UNL d   1      28.530 -15.570  -5.948  0.00  0.00    -0.266 OA
ENDBRANCH   1  18
BRANCH   3  23
ATOM     23  N   UNL d   1      25.639 -10.470  -5.904  0.00  0.00    -0.335 N 
ATOM     24  H   UNL d   1      25.466 -10.236  -6.873  0.00  0.00     0.168 HD
BRANCH  23  25
ATOM     25  C   UNL d   1      25.594  -9.365  -5.015  0.00  0.00     0.034 A 
ATOM     26  C   UNL d   1      26.304  -9.394  -3.806  0.00  0.00     0.029 A 
ATOM     27  C   UNL d   1      26.261  -8.309  -2.916  0.00  0.00     0.002 A 
ATOM     28  C   UNL d   1      25.536  -7.164  -3.239  0.00  0.00     0.000 A 
ATOM     29  C   UNL d   1      24.820  -7.121  -4.431  0.00  0.00     0.002 A 
ATOM     30  C   UNL d   1      24.842  -8.216  -5.304  0.00  0.00     0.029 A 
ENDBRANCH  23  25
ENDBRANCH   3  23
TORSDOF 5
ENDMDL
