MODEL 1
REMARK VINA RESULT:    -8.969      0.000      0.000
REMARK INTER + INTRA:         -11.934
REMARK INTER:                 -11.057
REMARK INTRA:                  -0.877
REMARK CONF_INDEPENDENT:        2.088
REMARK UNBOUND:                -0.877
REMARK  7 active torsions:
REMARK  status: ('A' for Active; 'I' for Inactive)
REMARK    1  A    between atoms: O_2  and  C_3 
REMARK    2  A    between atoms: C_7  and  C_6 
REMARK    3  A    between atoms: C_7  and  N_9 
REMARK       I    between atoms: N_9  and  C_10 
REMARK       I    between atoms: C_10  and  N_12 
REMARK    4  A    between atoms: N_12  and  O_13 
REMARK    5  A    between atoms: O_13  and  C_14 
REMARK    6  A    between atoms: C_14  and  C_15 
REMARK    7  A    between atoms: C_22  and  O_23 
ROOT
ATOM      1  N   UNL d   1      24.774 -16.152  -0.258  0.00  0.00    -0.333 N 
ATOM      2  C   UNL d   1      23.764 -16.846  -0.898  0.00  0.00     0.340 C 
ATOM      3  O   UNL d   1      23.978 -17.655  -1.807  0.00  0.00    -0.245 OA
ATOM      4  N   UNL d   1      22.520 -16.639  -0.346  0.00  0.00    -0.216 N 
ATOM      5  H   UNL d   1      24.527 -15.343   0.287  0.00  0.00     0.165 HD
ATOM      6  H   UNL d   1      22.264 -15.766   0.090  0.00  0.00     0.199 HD
ENDROOT
BRANCH   1   7
ATOM      7  C   UNL d   1      26.210 -16.439  -0.454  0.00  0.00     0.115 C 
ATOM      8  C   UNL d   1      26.494 -17.932  -0.181  0.00  0.00     0.037 C 
BRANCH   7   9
ATOM      9  C   UNL d   1      26.704 -16.045  -1.856  0.00  0.00    -0.033 A 
ATOM     10  C   UNL d   1      27.990 -16.325  -2.324  0.00  0.00     0.012 A 
ATOM     11  C   UNL d   1      28.409 -15.920  -3.599  0.00  0.00     0.040 A 
ATOM     12  C   UNL d   1      27.546 -15.271  -4.497  0.00  0.00     0.101 A 
ATOM     13  C   UNL d   1      26.246 -14.999  -4.056  0.00  0.00     0.102 A 
ATOM     14  C   UNL d   1      25.880 -15.347  -2.745  0.00  0.00     0.049 A 
BRANCH  12  15
ATOM     15  O   UNL d   1      28.053 -15.209  -5.771  0.00  0.00    -0.353 OA
ATOM     16  C   UNL d   1      29.464 -15.229  -5.955  0.00  0.00     0.210 C 
ENDBRANCH  12  15
BRANCH  13  17
ATOM     17  O   UNL d   1      25.135 -14.502  -4.688  0.00  0.00    -0.353 OA
ATOM     18  C   UNL d   1      24.297 -13.700  -3.914  0.00  0.00     0.210 C 
ENDBRANCH  13  17
ENDBRANCH   7   9
ENDBRANCH   1   7
BRANCH   4  19
ATOM     19  O   UNL d   1      21.484 -17.460  -0.883  0.00  0.00    -0.272 OA
BRANCH  19  20
ATOM     20  C   UNL d   1      21.754 -18.843  -0.648  0.00  0.00     0.240 C 
BRANCH  20  21
ATOM     21  C   UNL d   1      20.629 -19.477   0.140  0.00  0.00    -0.032 A 
ATOM     22  C   UNL d   1      19.535 -20.055  -0.520  0.00  0.00     0.009 A 
ATOM     23  C   UNL d   1      18.467 -20.592   0.204  0.00  0.00     0.001 A 
ATOM     24  C   UNL d   1      18.512 -20.627   1.596  0.00  0.00     0.000 A 
ATOM     25  C   UNL d   1      19.601 -20.073   2.266  0.00  0.00     0.001 A 
ATOM     26  C   UNL d   1      20.646 -19.488   1.544  0.00  0.00     0.009 A 
ENDBRANCH  20  21
ENDBRANCH  19  20
ENDBRANCH   4  19
TORSDOF 7
ENDMDL
MODEL 2
REMARK VINA RESULT:    -8.484      1.579      2.695
REMARK INTER + INTRA:         -11.366
REMARK INTER:                 -10.572
REMARK INTRA:                  -0.794
REMARK CONF_INDEPENDENT:        2.088
REMARK UNBOUND:                -0.794
REMARK  7 active torsions:
REMARK  status: ('A' for Active; 'I' for Inactive)
REMARK    1  A    between atoms: O_2  and  C_3 
REMARK    2  A    between atoms: C_7  and  C_6 
REMARK    3  A    between atoms: C_7  and  N_9 
REMARK       I    between atoms: N_9  and  C_10 
REMARK       I    between atoms: C_10  and  N_12 
REMARK    4  A    between atoms: N_12  and  O_13 
REMARK    5  A    between atoms: O_13  and  C_14 
REMARK    6  A    between atoms: C_14  and  C_15 
REMARK    7  A    between atoms: C_22  and  O_23 
ROOT
ATOM      1  N   UNL d   1      24.698 -17.137  -2.091  0.00  0.00    -0.333 N 
ATOM      2  C   UNL d   1      23.905 -17.920  -1.272  0.00  0.00     0.340 C 
ATOM      3  O   UNL d   1      23.819 -17.743  -0.053  0.00  0.00    -0.245 OA
ATOM      4  N   UNL d   1      23.134 -18.830  -1.961  0.00  0.00    -0.216 N 
ATOM      5  H   UNL d   1      24.917 -17.479  -3.012  0.00  0.00     0.165 HD
ATOM      6  H   UNL d   1      23.439 -19.245  -2.828  0.00  0.00     0.199 HD
ENDROOT
BRANCH   1   7
ATOM      7  C   UNL d   1      25.370 -15.903  -1.635  0.00  0.00     0.115 C 
ATOM      8  C   UNL d   1      26.680 -16.253  -0.897  0.00  0.00     0.037 C 
BRANCH   7   9
ATOM      9  C   UNL d   1      25.647 -14.923  -2.788  0.00  0.00    -0.033 A 
ATOM     10  C   UNL d   1      25.260 -13.582  -2.765  0.00  0.00     0.012 A 
ATOM     11  C   UNL d   1      25.505 -12.730  -3.852  0.00  0.00     0.040 A 
ATOM     12  C   UNL d   1      26.207 -13.158  -4.990  0.00  0.00     0.101 A 
ATOM     13  C   UNL d   1      26.622 -14.493  -5.026  0.00  0.00     0.102 A 
ATOM     14  C   UNL d   1      26.292 -15.342  -3.956  0.00  0.00     0.049 A 
BRANCH  12  15
ATOM     15  O   UNL d   1      26.580 -12.118  -5.806  0.00  0.00    -0.353 OA
ATOM     16  C   UNL d   1      25.942 -10.856  -5.652  0.00  0.00     0.210 C 
ENDBRANCH  12  15
BRANCH  13  17
ATOM     17  O   UNL d   1      27.409 -15.199  -5.900  0.00  0.00    -0.353 OA
ATOM     18  C   UNL d   1      28.782 -15.150  -5.665  0.00  0.00     0.210 C 
ENDBRANCH  13  17
ENDBRANCH   7   9
ENDBRANCH   1   7
BRANCH   4  19
ATOM     19  O   UNL d   1      22.192 -19.542  -1.160  0.00  0.00    -0.272 OA
BRANCH  19  20
ATOM     20  C   UNL d   1      21.078 -18.713  -0.822  0.00  0.00     0.240 C 
BRANCH  20  21
ATOM     21  C   UNL d   1      20.099 -19.469   0.047  0.00  0.00    -0.032 A 
ATOM     22  C   UNL d   1      20.287 -19.540   1.436  0.00  0.00     0.009 A 
ATOM     23  C   UNL d   1      19.415 -20.284   2.236  0.00  0.00     0.001 A 
ATOM     24  C   UNL d   1      18.302 -20.902   1.672  0.00  0.00     0.000 A 
ATOM     25  C   UNL d   1      18.091 -20.825   0.297  0.00  0.00     0.001 A 
ATOM     26  C   UNL d   1      18.992 -20.126  -0.513  0.00  0.00     0.009 A 
ENDBRANCH  20  21
ENDBRANCH  19  20
ENDBRANCH   4  19
TORSDOF 7
ENDMDL
MODEL 3
REMARK VINA RESULT:    -8.388      1.195      2.147
REMARK INTER + INTRA:         -11.280
REMARK INTER:                 -10.477
REMARK INTRA:                  -0.803
REMARK CONF_INDEPENDENT:        2.088
REMARK UNBOUND:                -0.803
REMARK  7 active torsions:
REMARK  status: ('A' for Active; 'I' for Inactive)
REMARK    1  A    between atoms: O_2  and  C_3 
REMARK    2  A    between atoms: C_7  and  C_6 
REMARK    3  A    between atoms: C_7  and  N_9 
REMARK       I    between atoms: N_9  and  C_10 
REMARK       I    between atoms: C_10  and  N_12 
REMARK    4  A    between atoms: N_12  and  O_13 
REMARK    5  A    between atoms: O_13  and  C_14 
REMARK    6  A    between atoms: C_14  and  C_15 
REMARK    7  A    between atoms: C_22  and  O_23 
ROOT
ATOM      1  N   UNL d   1      25.068 -17.590  -0.085  0.00  0.00    -0.333 N 
ATOM      2  C   UNL d   1      23.834 -17.748  -0.687  0.00  0.00     0.340 C 
ATOM      3  O   UNL d   1      23.245 -16.828  -1.263  0.00  0.00    -0.245 OA
ATOM      4  N   UNL d   1      23.385 -19.050  -0.687  0.00  0.00    -0.216 N 
ATOM      5  H   UNL d   1      25.374 -18.292   0.568  0.00  0.00     0.165 HD
ATOM      6  H   UNL d   1      23.616 -19.698   0.051  0.00  0.00     0.199 HD
ENDROOT
BRANCH   1   7
ATOM      7  C   UNL d   1      25.894 -16.373  -0.228  0.00  0.00     0.115 C 
ATOM      8  C   UNL d   1      27.159 -16.485   0.649  0.00  0.00     0.037 C 
BRANCH   7   9
ATOM      9  C   UNL d   1      26.276 -16.089  -1.690  0.00  0.00    -0.033 A 
ATOM     10  C   UNL d   1      25.350 -15.713  -2.666  0.00  0.00     0.012 A 
ATOM     11  C   UNL d   1      25.737 -15.494  -3.997  0.00  0.00     0.040 A 
ATOM     12  C   UNL d   1      27.078 -15.575  -4.406  0.00  0.00     0.101 A 
ATOM     13  C   UNL d   1      28.026 -15.930  -3.439  0.00  0.00     0.102 A 
ATOM     14  C   UNL d   1      27.596 -16.220  -2.133  0.00  0.00     0.049 A 
BRANCH  12  15
ATOM     15  O   UNL d   1      27.282 -15.062  -5.663  0.00  0.00    -0.353 OA
ATOM     16  C   UNL d   1      28.605 -14.728  -6.067  0.00  0.00     0.210 C 
ENDBRANCH  12  15
BRANCH  13  17
ATOM     17  O   UNL d   1      29.396 -15.987  -3.457  0.00  0.00    -0.353 OA
ATOM     18  C   UNL d   1      30.001 -16.530  -2.325  0.00  0.00     0.210 C 
ENDBRANCH  13  17
ENDBRANCH   7   9
ENDBRANCH   1   7
BRANCH   4  19
ATOM     19  O   UNL d   1      22.192 -19.271  -1.437  0.00  0.00    -0.272 OA
BRANCH  19  20
ATOM     20  C   UNL d   1      21.109 -18.500  -0.913  0.00  0.00     0.240 C 
BRANCH  20  21
ATOM     21  C   UNL d   1      20.302 -19.318   0.071  0.00  0.00    -0.032 A 
ATOM     22  C   UNL d   1      19.205 -20.077  -0.365  0.00  0.00     0.009 A 
ATOM     23  C   UNL d   1      18.423 -20.790   0.547  0.00  0.00     0.001 A 
ATOM     24  C   UNL d   1      18.771 -20.816   1.896  0.00  0.00     0.000 A 
ATOM     25  C   UNL d   1      19.868 -20.083   2.342  0.00  0.00     0.001 A 
ATOM     26  C   UNL d   1      20.620 -19.326   1.438  0.00  0.00     0.009 A 
ENDBRANCH  20  21
ENDBRANCH  19  20
ENDBRANCH   4  19
TORSDOF 7
ENDMDL
MODEL 4
REMARK VINA RESULT:    -7.493      5.299      8.191
REMARK INTER + INTRA:         -10.472
REMARK INTER:                  -9.581
REMARK INTRA:                  -0.891
REMARK CONF_INDEPENDENT:        2.088
REMARK UNBOUND:                -0.891
REMARK  7 active torsions:
REMARK  status: ('A' for Active; 'I' for Inactive)
REMARK    1  A    between atoms: O_2  and  C_3 
REMARK    2  A    between atoms: C_7  and  C_6 
REMARK    3  A    between atoms: C_7  and  N_9 
REMARK       I    between atoms: N_9  and  C_10 
REMARK       I    between atoms: C_10  and  N_12 
REMARK    4  A    between atoms: N_12  and  O_13 
REMARK    5  A    between atoms: O_13  and  C_14 
REMARK    6  A    between atoms: C_14  and  C_15 
REMARK    7  A    between atoms: C_22  and  O_23 
ROOT
ATOM      1  N   UNL d   1      28.536 -15.688   0.979  0.00  0.00    -0.333 N 
ATOM      2  C   UNL d   1      27.865 -14.763   1.757  0.00  0.00     0.340 C 
ATOM      3  O   UNL d   1      27.032 -13.977   1.296  0.00  0.00    -0.245 OA
ATOM      4  N   UNL d   1      28.127 -14.884   3.104  0.00  0.00    -0.216 N 
ATOM      5  H   UNL d   1      29.364 -16.119   1.356  0.00  0.00     0.165 HD
ATOM      6  H   UNL d   1      29.017 -15.209   3.451  0.00  0.00     0.199 HD
ENDROOT
BRANCH   1   7
ATOM      7  C   UNL d   1      28.194 -15.966  -0.431  0.00  0.00     0.115 C 
ATOM      8  C   UNL d   1      29.113 -17.073  -0.991  0.00  0.00     0.037 C 
BRANCH   7   9
ATOM      9  C   UNL d   1      26.717 -16.349  -0.615  0.00  0.00    -0.033 A 
ATOM     10  C   UNL d   1      26.098 -17.383   0.092  0.00  0.00     0.012 A 
ATOM     11  C   UNL d   1      24.755 -17.721  -0.129  0.00  0.00     0.040 A 
ATOM     12  C   UNL d   1      23.943 -17.001  -1.021  0.00  0.00     0.101 A 
ATOM     13  C   UNL d   1      24.537 -15.948  -1.725  0.00  0.00     0.102 A 
ATOM     14  C   UNL d   1      25.905 -15.685  -1.540  0.00  0.00     0.049 A 
BRANCH  12  15
ATOM     15  O   UNL d   1      22.611 -17.306  -0.890  0.00  0.00    -0.353 OA
ATOM     16  C   UNL d   1      22.238 -18.622  -0.498  0.00  0.00     0.210 C 
ENDBRANCH  12  15
BRANCH  13  17
ATOM     17  O   UNL d   1      24.030 -14.987  -2.563  0.00  0.00    -0.353 OA
ATOM     18  C   UNL d   1      24.966 -14.167  -3.191  0.00  0.00     0.210 C 
ENDBRANCH  13  17
ENDBRANCH   7   9
ENDBRANCH   1   7
BRANCH   4  19
ATOM     19  O   UNL d   1      27.333 -14.049   3.945  0.00  0.00    -0.272 OA
BRANCH  19  20
ATOM     20  C   UNL d   1      28.052 -12.872   4.322  0.00  0.00     0.240 C 
BRANCH  20  21
ATOM     21  C   UNL d   1      28.392 -12.908   5.795  0.00  0.00    -0.032 A 
ATOM     22  C   UNL d   1      28.156 -11.789   6.607  0.00  0.00     0.009 A 
ATOM     23  C   UNL d   1      28.521 -11.797   7.956  0.00  0.00     0.001 A 
ATOM     24  C   UNL d   1      29.055 -12.948   8.530  0.00  0.00     0.000 A 
ATOM     25  C   UNL d   1      29.278 -14.074   7.740  0.00  0.00     0.001 A 
ATOM     26  C   UNL d   1      28.963 -14.050   6.378  0.00  0.00     0.009 A 
ENDBRANCH  20  21
ENDBRANCH  19  20
ENDBRANCH   4  19
TORSDOF 7
ENDMDL
MODEL 5
REMARK VINA RESULT:    -7.313      2.190      2.845
REMARK INTER + INTRA:         -10.235
REMARK INTER:                  -9.401
REMARK INTRA:                  -0.834
REMARK CONF_INDEPENDENT:        2.088
REMARK UNBOUND:                -0.834
REMARK  7 active torsions:
REMARK  status: ('A' for Active; 'I' for Inactive)
REMARK    1  A    between atoms: O_2  and  C_3 
REMARK    2  A    between atoms: C_7  and  C_6 
REMARK    3  A    between atoms: C_7  and  N_9 
REMARK       I    between atoms: N_9  and  C_10 
REMARK       I    between atoms: C_10  and  N_12 
REMARK    4  A    between atoms: N_12  and  O_13 
REMARK    5  A    between atoms: O_13  and  C_14 
REMARK    6  A    between atoms: C_14  and  C_15 
REMARK    7  A    between atoms: C_22  and  O_23 
ROOT
ATOM      1  N   UNL d   1      24.763 -16.963  -1.757  0.00  0.00    -0.333 N 
ATOM      2  C   UNL d   1      23.997 -17.849  -1.022  0.00  0.00     0.340 C 
ATOM      3  O   UNL d   1      24.036 -17.909   0.211  0.00  0.00    -0.245 OA
ATOM      4  N   UNL d   1      23.105 -18.568  -1.786  0.00  0.00    -0.216 N 
ATOM      5  H   UNL d   1      24.872 -17.130  -2.744  0.00  0.00     0.165 HD
ATOM      6  H   UNL d   1      23.299 -18.822  -2.743  0.00  0.00     0.199 HD
ENDROOT
BRANCH   1   7
ATOM      7  C   UNL d   1      25.557 -15.876  -1.148  0.00  0.00     0.115 C 
ATOM      8  C   UNL d   1      26.939 -16.409  -0.712  0.00  0.00     0.037 C 
BRANCH   7   9
ATOM      9  C   UNL d   1      25.718 -14.669  -2.087  0.00  0.00    -0.033 A 
ATOM     10  C   UNL d   1      25.144 -14.602  -3.358  0.00  0.00     0.012 A 
ATOM     11  C   UNL d   1      25.342 -13.495  -4.195  0.00  0.00     0.040 A 
ATOM     12  C   UNL d   1      26.070 -12.368  -3.780  0.00  0.00     0.101 A 
ATOM     13  C   UNL d   1      26.638 -12.404  -2.501  0.00  0.00     0.102 A 
ATOM     14  C   UNL d   1      26.487 -13.560  -1.718  0.00  0.00     0.049 A 
BRANCH  12  15
ATOM     15  O   UNL d   1      25.916 -11.296  -4.623  0.00  0.00    -0.353 OA
ATOM     16  C   UNL d   1      25.855  -9.985  -4.071  0.00  0.00     0.210 C 
ENDBRANCH  12  15
BRANCH  13  17
ATOM     17  O   UNL d   1      27.292 -11.463  -1.748  0.00  0.00    -0.353 OA
ATOM     18  C   UNL d   1      27.496 -11.786  -0.407  0.00  0.00     0.210 C 
ENDBRANCH  13  17
ENDBRANCH   7   9
ENDBRANCH   1   7
BRANCH   4  19
ATOM     19  O   UNL d   1      22.193 -19.375  -1.041  0.00  0.00    -0.272 OA
BRANCH  19  20
ATOM     20  C   UNL d   1      21.049 -18.617  -0.642  0.00  0.00     0.240 C 
BRANCH  20  21
ATOM     21  C   UNL d   1      20.086 -19.483   0.139  0.00  0.00    -0.032 A 
ATOM     22  C   UNL d   1      19.006 -20.106  -0.506  0.00  0.00     0.009 A 
ATOM     23  C   UNL d   1      18.082 -20.862   0.220  0.00  0.00     0.001 A 
ATOM     24  C   UNL d   1      18.265 -21.069   1.585  0.00  0.00     0.000 A 
ATOM     25  C   UNL d   1      19.343 -20.472   2.237  0.00  0.00     0.001 A 
ATOM     26  C   UNL d   1      20.239 -19.672   1.521  0.00  0.00     0.009 A 
ENDBRANCH  20  21
ENDBRANCH  19  20
ENDBRANCH   4  19
TORSDOF 7
ENDMDL
MODEL 6
REMARK VINA RESULT:    -7.193      4.715      7.166
REMARK INTER + INTRA:         -10.213
REMARK INTER:                  -9.282
REMARK INTRA:                  -0.931
REMARK CONF_INDEPENDENT:        2.088
REMARK UNBOUND:                -0.931
REMARK  7 active torsions:
REMARK  status: ('A' for Active; 'I' for Inactive)
REMARK    1  A    between atoms: O_2  and  C_3 
REMARK    2  A    between atoms: C_7  and  C_6 
REMARK    3  A    between atoms: C_7  and  N_9 
REMARK       I    between atoms: N_9  and  C_10 
REMARK       I    between atoms: C_10  and  N_12 
REMARK    4  A    between atoms: N_12  and  O_13 
REMARK    5  A    between atoms: O_13  and  C_14 
REMARK    6  A    between atoms: C_14  and  C_15 
REMARK    7  A    between atoms: C_22  and  O_23 
ROOT
ATOM      1  N   UNL d   1      27.993 -16.439   0.642  0.00  0.00    -0.333 N 
ATOM      2  C   UNL d   1      27.741 -15.146   1.064  0.00  0.00     0.340 C 
ATOM      3  O   UNL d   1      26.923 -14.406   0.509  0.00  0.00    -0.245 OA
ATOM      4  N   UNL d   1      28.398 -14.811   2.227  0.00  0.00    -0.216 N 
ATOM      5  H   UNL d   1      28.829 -16.894   0.969  0.00  0.00     0.165 HD
ATOM      6  H   UNL d   1      29.297 -15.199   2.468  0.00  0.00     0.199 HD
ENDROOT
BRANCH   1   7
ATOM      7  C   UNL d   1      27.185 -17.132  -0.383  0.00  0.00     0.115 C 
ATOM      8  C   UNL d   1      25.700 -17.151   0.036  0.00  0.00     0.037 C 
BRANCH   7   9
ATOM      9  C   UNL d   1      27.342 -16.506  -1.778  0.00  0.00    -0.033 A 
ATOM     10  C   UNL d   1      28.530 -16.555  -2.513  0.00  0.00     0.012 A 
ATOM     11  C   UNL d   1      28.639 -15.943  -3.770  0.00  0.00     0.040 A 
ATOM     12  C   UNL d   1      27.550 -15.308  -4.387  0.00  0.00     0.101 A 
ATOM     13  C   UNL d   1      26.344 -15.265  -3.678  0.00  0.00     0.102 A 
ATOM     14  C   UNL d   1      26.288 -15.818  -2.388  0.00  0.00     0.049 A 
BRANCH  12  15
ATOM     15  O   UNL d   1      27.781 -15.022  -5.710  0.00  0.00    -0.353 OA
ATOM     16  C   UNL d   1      29.031 -14.455  -6.086  0.00  0.00     0.210 C 
ENDBRANCH  12  15
BRANCH  13  17
ATOM     17  O   UNL d   1      25.083 -14.843  -4.014  0.00  0.00    -0.353 OA
ATOM     18  C   UNL d   1      24.835 -13.478  -3.872  0.00  0.00     0.210 C 
ENDBRANCH  13  17
ENDBRANCH   7   9
ENDBRANCH   1   7
BRANCH   4  19
ATOM     19  O   UNL d   1      28.038 -13.542   2.772  0.00  0.00    -0.272 OA
BRANCH  19  20
ATOM     20  C   UNL d   1      27.200 -13.698   3.920  0.00  0.00     0.240 C 
BRANCH  20  21
ATOM     21  C   UNL d   1      28.018 -13.609   5.189  0.00  0.00    -0.032 A 
ATOM     22  C   UNL d   1      27.782 -12.584   6.118  0.00  0.00     0.009 A 
ATOM     23  C   UNL d   1      28.571 -12.465   7.265  0.00  0.00     0.001 A 
ATOM     24  C   UNL d   1      29.556 -13.411   7.538  0.00  0.00     0.000 A 
ATOM     25  C   UNL d   1      29.791 -14.445   6.634  0.00  0.00     0.001 A 
ATOM     26  C   UNL d   1      29.037 -14.536   5.460  0.00  0.00     0.009 A 
ENDBRANCH  20  21
ENDBRANCH  19  20
ENDBRANCH   4  19
TORSDOF 7
ENDMDL
MODEL 7
REMARK VINA RESULT:    -7.076      4.824      7.505
REMARK INTER + INTRA:          -9.984
REMARK INTER:                  -9.165
REMARK INTRA:                  -0.820
REMARK CONF_INDEPENDENT:        2.088
REMARK UNBOUND:                -0.820
REMARK  7 active torsions:
REMARK  status: ('A' for Active; 'I' for Inactive)
REMARK    1  A    between atoms: O_2  and  C_3 
REMARK    2  A    between atoms: C_7  and  C_6 
REMARK    3  A    between atoms: C_7  and  N_9 
REMARK       I    between atoms: N_9  and  C_10 
REMARK       I    between atoms: C_10  and  N_12 
REMARK    4  A    between atoms: N_12  and  O_13 
REMARK    5  A    between atoms: O_13  and  C_14 
REMARK    6  A    between atoms: C_14  and  C_15 
REMARK    7  A    between atoms: C_22  and  O_23 
ROOT
ATOM      1  N   UNL d   1      28.155 -16.548   0.839  0.00  0.00    -0.333 N 
ATOM      2  C   UNL d   1      27.842 -15.264   1.246  0.00  0.00     0.340 C 
ATOM      3  O   UNL d   1      26.902 -14.620   0.770  0.00  0.00    -0.245 OA
ATOM      4  N   UNL d   1      28.598 -14.825   2.310  0.00  0.00    -0.216 N 
ATOM      5  H   UNL d   1      29.061 -16.917   1.077  0.00  0.00     0.165 HD
ATOM      6  H   UNL d   1      29.550 -15.126   2.452  0.00  0.00     0.199 HD
ENDROOT
BRANCH   1   7
ATOM      7  C   UNL d   1      27.297 -17.350  -0.057  0.00  0.00     0.115 C 
ATOM      8  C   UNL d   1      26.311 -18.200   0.773  0.00  0.00     0.037 C 
BRANCH   7   9
ATOM      9  C   UNL d   1      26.537 -16.484  -1.075  0.00  0.00    -0.033 A 
ATOM     10  C   UNL d   1      27.162 -15.801  -2.121  0.00  0.00     0.012 A 
ATOM     11  C   UNL d   1      26.433 -14.996  -3.009  0.00  0.00     0.040 A 
ATOM     12  C   UNL d   1      25.035 -14.884  -2.937  0.00  0.00     0.101 A 
ATOM     13  C   UNL d   1      24.386 -15.576  -1.908  0.00  0.00     0.102 A 
ATOM     14  C   UNL d   1      25.152 -16.310  -0.988  0.00  0.00     0.049 A 
BRANCH  12  15
ATOM     15  O   UNL d   1      24.493 -14.283  -4.046  0.00  0.00    -0.353 OA
ATOM     16  C   UNL d   1      25.181 -13.191  -4.647  0.00  0.00     0.210 C 
ENDBRANCH  12  15
BRANCH  13  17
ATOM     17  O   UNL d   1      23.061 -15.781  -1.618  0.00  0.00    -0.353 OA
ATOM     18  C   UNL d   1      22.794 -16.644  -0.556  0.00  0.00     0.210 C 
ENDBRANCH  13  17
ENDBRANCH   7   9
ENDBRANCH   1   7
BRANCH   4  19
ATOM     19  O   UNL d   1      28.194 -13.569   2.852  0.00  0.00    -0.272 OA
BRANCH  19  20
ATOM     20  C   UNL d   1      27.322 -13.752   3.970  0.00  0.00     0.240 C 
BRANCH  20  21
ATOM     21  C   UNL d   1      28.095 -13.659   5.266  0.00  0.00    -0.032 A 
ATOM     22  C   UNL d   1      27.780 -12.674   6.214  0.00  0.00     0.009 A 
ATOM     23  C   UNL d   1      28.527 -12.549   7.389  0.00  0.00     0.001 A 
ATOM     24  C   UNL d   1      29.549 -13.453   7.667  0.00  0.00     0.000 A 
ATOM     25  C   UNL d   1      29.862 -14.449   6.744  0.00  0.00     0.001 A 
ATOM     26  C   UNL d   1      29.150 -14.542   5.544  0.00  0.00     0.009 A 
ENDBRANCH  20  21
ENDBRANCH  19  20
ENDBRANCH   4  19
TORSDOF 7
ENDMDL
MODEL 8
REMARK VINA RESULT:    -7.024      2.826      8.627
REMARK INTER + INTRA:         -10.008
REMARK INTER:                  -9.112
REMARK INTRA:                  -0.896
REMARK CONF_INDEPENDENT:        2.088
REMARK UNBOUND:                -0.896
REMARK  7 active torsions:
REMARK  status: ('A' for Active; 'I' for Inactive)
REMARK    1  A    between atoms: O_2  and  C_3 
REMARK    2  A    between atoms: C_7  and  C_6 
REMARK    3  A    between atoms: C_7  and  N_9 
REMARK       I    between atoms: N_9  and  C_10 
REMARK       I    between atoms: C_10  and  N_12 
REMARK    4  A    between atoms: N_12  and  O_13 
REMARK    5  A    between atoms: O_13  and  C_14 
REMARK    6  A    between atoms: C_14  and  C_15 
REMARK    7  A    between atoms: C_22  and  O_23 
ROOT
ATOM      1  N   UNL d   1      27.466 -14.549  -3.406  0.00  0.00    -0.333 N 
ATOM      2  C   UNL d   1      27.551 -15.154  -4.647  0.00  0.00     0.340 C 
ATOM      3  O   UNL d   1      26.567 -15.602  -5.244  0.00  0.00    -0.245 OA
ATOM      4  N   UNL d   1      28.811 -15.098  -5.199  0.00  0.00    -0.216 N 
ATOM      5  H   UNL d   1      28.311 -14.433  -2.872  0.00  0.00     0.165 HD
ATOM      6  H   UNL d   1      29.647 -15.104  -4.634  0.00  0.00     0.199 HD
ENDROOT
BRANCH   1   7
ATOM      7  C   UNL d   1      26.185 -14.206  -2.754  0.00  0.00     0.115 C 
ATOM      8  C   UNL d   1      25.191 -13.652  -3.798  0.00  0.00     0.037 C 
BRANCH   7   9
ATOM      9  C   UNL d   1      25.568 -15.397  -2.003  0.00  0.00    -0.033 A 
ATOM     10  C   UNL d   1      24.199 -15.676  -1.998  0.00  0.00     0.012 A 
ATOM     11  C   UNL d   1      23.674 -16.756  -1.273  0.00  0.00     0.040 A 
ATOM     12  C   UNL d   1      24.496 -17.650  -0.569  0.00  0.00     0.101 A 
ATOM     13  C   UNL d   1      25.874 -17.401  -0.577  0.00  0.00     0.102 A 
ATOM     14  C   UNL d   1      26.360 -16.267  -1.247  0.00  0.00     0.049 A 
BRANCH  12  15
ATOM     15  O   UNL d   1      23.828 -18.779  -0.164  0.00  0.00    -0.353 OA
ATOM     16  C   UNL d   1      22.444 -18.910  -0.469  0.00  0.00     0.210 C 
ENDBRANCH  12  15
BRANCH  13  17
ATOM     17  O   UNL d   1      26.949 -18.113  -0.110  0.00  0.00    -0.353 OA
ATOM     18  C   UNL d   1      28.179 -17.456  -0.145  0.00  0.00     0.210 C 
ENDBRANCH  13  17
ENDBRANCH   7   9
ENDBRANCH   1   7
BRANCH   4  19
ATOM     19  O   UNL d   1      28.896 -15.572  -6.542  0.00  0.00    -0.272 OA
BRANCH  19  20
ATOM     20  C   UNL d   1      30.234 -15.960  -6.863  0.00  0.00     0.240 C 
BRANCH  20  21
ATOM     21  C   UNL d   1      30.448 -17.426  -6.558  0.00  0.00    -0.032 A 
ATOM     22  C   UNL d   1      30.879 -18.307  -7.562  0.00  0.00     0.009 A 
ATOM     23  C   UNL d   1      31.025 -19.671  -7.299  0.00  0.00     0.001 A 
ATOM     24  C   UNL d   1      30.816 -20.162  -6.012  0.00  0.00     0.000 A 
ATOM     25  C   UNL d   1      30.406 -19.297  -5.000  0.00  0.00     0.001 A 
ATOM     26  C   UNL d   1      30.208 -17.940  -5.274  0.00  0.00     0.009 A 
ENDBRANCH  20  21
ENDBRANCH  19  20
ENDBRANCH   4  19
TORSDOF 7
ENDMDL
MODEL 9
REMARK VINA RESULT:    -6.864      2.854      8.428
REMARK INTER + INTRA:         -10.127
REMARK INTER:                  -8.952
REMARK INTRA:                  -1.175
REMARK CONF_INDEPENDENT:        2.088
REMARK UNBOUND:                -1.175
REMARK  7 active torsions:
REMARK  status: ('A' for Active; 'I' for Inactive)
REMARK    1  A    between atoms: O_2  and  C_3 
REMARK    2  A    between atoms: C_7  and  C_6 
REMARK    3  A    between atoms: C_7  and  N_9 
REMARK       I    between atoms: N_9  and  C_10 
REMARK       I    between atoms: C_10  and  N_12 
REMARK    4  A    between atoms: N_12  and  O_13 
REMARK    5  A    between atoms: O_13  and  C_14 
REMARK    6  A    between atoms: C_14  and  C_15 
REMARK    7  A    between atoms: C_22  and  O_23 
ROOT
ATOM      1  N   UNL d   1      27.187 -13.757  -3.968  0.00  0.00    -0.333 N 
ATOM      2  C   UNL d   1      27.529 -14.602  -5.008  0.00  0.00     0.340 C 
ATOM      3  O   UNL d   1      26.849 -15.583  -5.326  0.00  0.00    -0.245 OA
ATOM      4  N   UNL d   1      28.625 -14.177  -5.724  0.00  0.00    -0.216 N 
ATOM      5  H   UNL d   1      27.893 -13.138  -3.604  0.00  0.00     0.165 HD
ATOM      6  H   UNL d   1      29.377 -13.657  -5.298  0.00  0.00     0.199 HD
ENDROOT
BRANCH   1   7
ATOM      7  C   UNL d   1      25.893 -13.821  -3.258  0.00  0.00     0.115 C 
ATOM      8  C   UNL d   1      24.730 -13.729  -4.269  0.00  0.00     0.037 C 
BRANCH   7   9
ATOM      9  C   UNL d   1      25.756 -15.086  -2.396  0.00  0.00    -0.033 A 
ATOM     10  C   UNL d   1      26.849 -15.837  -1.955  0.00  0.00     0.012 A 
ATOM     11  C   UNL d   1      26.678 -17.004  -1.195  0.00  0.00     0.040 A 
ATOM     12  C   UNL d   1      25.411 -17.444  -0.781  0.00  0.00     0.101 A 
ATOM     13  C   UNL d   1      24.303 -16.695  -1.194  0.00  0.00     0.102 A 
ATOM     14  C   UNL d   1      24.502 -15.577  -2.020  0.00  0.00     0.049 A 
BRANCH  12  15
ATOM     15  O   UNL d   1      25.476 -18.431   0.171  0.00  0.00    -0.353 OA
ATOM     16  C   UNL d   1      26.655 -18.553   0.959  0.00  0.00     0.210 C 
ENDBRANCH  12  15
BRANCH  13  17
ATOM     17  O   UNL d   1      22.968 -16.764  -0.887  0.00  0.00    -0.353 OA
ATOM     18  C   UNL d   1      22.471 -18.034  -0.595  0.00  0.00     0.210 C 
ENDBRANCH  13  17
ENDBRANCH   7   9
ENDBRANCH   1   7
BRANCH   4  19
ATOM     19  O   UNL d   1      28.907 -14.940  -6.896  0.00  0.00    -0.272 OA
BRANCH  19  20
ATOM     20  C   UNL d   1      30.274 -15.355  -6.919  0.00  0.00     0.240 C 
BRANCH  20  21
ATOM     21  C   UNL d   1      30.420 -16.736  -6.321  0.00  0.00    -0.032 A 
ATOM     22  C   UNL d   1      30.211 -16.943  -4.949  0.00  0.00     0.009 A 
ATOM     23  C   UNL d   1      30.399 -18.206  -4.381  0.00  0.00     0.001 A 
ATOM     24  C   UNL d   1      30.723 -19.295  -5.188  0.00  0.00     0.000 A 
ATOM     25  C   UNL d   1      30.916 -19.109  -6.555  0.00  0.00     0.001 A 
ATOM     26  C   UNL d   1      30.780 -17.835  -7.116  0.00  0.00     0.009 A 
ENDBRANCH  20  21
ENDBRANCH  19  20
ENDBRANCH   4  19
TORSDOF 7
ENDMDL
