MODEL 1
REMARK VINA RESULT:    -7.271      0.000      0.000
REMARK INTER + INTRA:         -11.977
REMARK INTER:                  -9.956
REMARK INTRA:                  -2.021
REMARK CONF_INDEPENDENT:        2.685
REMARK UNBOUND:                -2.021
REMARK  9 active torsions:
REMARK  status: ('A' for Active; 'I' for Inactive)
REMARK    1  A    between atoms: O_2  and  C_3 
REMARK    2  A    between atoms: C_8  and  O_9 
REMARK    3  A    between atoms: O_9  and  C_10 
REMARK    4  A    between atoms: C_10  and  C_11 
REMARK    5  A    between atoms: C_11  and  N_12 
REMARK       I    between atoms: N_12  and  C_13 
REMARK       I    between atoms: C_13  and  N_15 
REMARK    6  A    between atoms: N_15  and  N_16 
REMARK       I    between atoms: N_16  and  C_17 
REMARK    7  A    between atoms: C_17  and  C_19 
REMARK    8  A    between atoms: C_19  and  C_20 
REMARK    9  A    between atoms: C_20  and  C_21 
ROOT
ATOM      1  N   UNL d   1      25.363 -16.461  -0.421  0.00  0.00    -0.340 N 
ATOM      2  C   UNL d   1      24.609 -17.576  -0.124  0.00  0.00     0.334 C 
ATOM      3  O   UNL d   1      25.050 -18.488   0.591  0.00  0.00    -0.246 OA
ATOM      4  N   UNL d   1      23.333 -17.629  -0.654  0.00  0.00    -0.249 N 
ATOM      5  H   UNL d   1      24.977 -15.754  -1.035  0.00  0.00     0.164 HD
ATOM      6  H   UNL d   1      22.910 -16.924  -1.252  0.00  0.00     0.192 HD
ENDROOT
BRANCH   1   7
ATOM      7  C   UNL d   1      26.764 -16.354   0.090  0.00  0.00     0.151 C 
BRANCH   7   8
ATOM      8  C   UNL d   1      27.819 -16.041  -0.972  0.00  0.00     0.195 C 
BRANCH   8   9
ATOM      9  O   UNL d   1      27.473 -15.791  -2.320  0.00  0.00    -0.347 OA
BRANCH   9  10
ATOM     10  C   UNL d   1      26.927 -14.522  -2.518  0.00  0.00     0.102 A 
ATOM     11  C   UNL d   1      27.679 -13.540  -1.834  0.00  0.00     0.039 A 
ATOM     12  C   UNL d   1      27.408 -12.175  -1.960  0.00  0.00     0.003 A 
ATOM     13  C   UNL d   1      26.376 -11.758  -2.786  0.00  0.00     0.003 A 
ATOM     14  C   UNL d   1      25.575 -12.711  -3.426  0.00  0.00     0.039 A 
ATOM     15  C   UNL d   1      25.826 -14.099  -3.312  0.00  0.00     0.101 A 
BRANCH  15  16
ATOM     16  O   UNL d   1      25.073 -14.833  -4.207  0.00  0.00    -0.353 OA
ATOM     17  C   UNL d   1      25.709 -15.570  -5.251  0.00  0.00     0.210 C 
ENDBRANCH  15  16
ENDBRANCH   9  10
ENDBRANCH   8   9
ENDBRANCH   7   8
ENDBRANCH   1   7
BRANCH   4  18
ATOM     18  N   UNL d   1      22.518 -18.784  -0.383  0.00  0.00    -0.266 N 
ATOM     19  C   UNL d   1      21.170 -18.779  -0.714  0.00  0.00     0.236 C 
ATOM     20  O   UNL d   1      20.635 -17.802  -1.243  0.00  0.00    -0.272 OA
ATOM     21  H   UNL d   1      22.995 -19.567   0.064  0.00  0.00     0.190 HD
BRANCH  19  22
ATOM     22  C   UNL d   1      20.395 -20.058  -0.361  0.00  0.00     0.105 C 
BRANCH  22  23
ATOM     23  C   UNL d   1      18.911 -19.783  -0.027  0.00  0.00     0.013 C 
BRANCH  23  24
ATOM     24  C   UNL d   1      18.432 -20.380   1.316  0.00  0.00    -0.022 C 
ATOM     25  C   UNL d   1      17.942 -21.818   1.149  0.00  0.00     0.009 C 
ATOM     26  C   UNL d   1      19.564 -20.356   2.351  0.00  0.00     0.009 C 
ENDBRANCH  23  24
ENDBRANCH  22  23
ENDBRANCH  19  22
ENDBRANCH   4  18
TORSDOF 9
ENDMDL
MODEL 2
REMARK VINA RESULT:    -7.251      1.416      1.666
REMARK INTER + INTRA:         -11.679
REMARK INTER:                  -9.935
REMARK INTRA:                  -1.743
REMARK CONF_INDEPENDENT:        2.685
REMARK UNBOUND:                -1.743
REMARK  9 active torsions:
REMARK  status: ('A' for Active; 'I' for Inactive)
REMARK    1  A    between atoms: O_2  and  C_3 
REMARK    2  A    between atoms: C_8  and  O_9 
REMARK    3  A    between atoms: O_9  and  C_10 
REMARK    4  A    between atoms: C_10  and  C_11 
REMARK    5  A    between atoms: C_11  and  N_12 
REMARK       I    between atoms: N_12  and  C_13 
REMARK       I    between atoms: C_13  and  N_15 
REMARK    6  A    between atoms: N_15  and  N_16 
REMARK       I    between atoms: N_16  and  C_17 
REMARK    7  A    between atoms: C_17  and  C_19 
REMARK    8  A    between atoms: C_19  and  C_20 
REMARK    9  A    between atoms: C_20  and  C_21 
ROOT
ATOM      1  N   UNL d   1      25.855 -17.048  -0.988  0.00  0.00    -0.340 N 
ATOM      2  C   UNL d   1      25.013 -17.821  -0.217  0.00  0.00     0.334 C 
ATOM      3  O   UNL d   1      25.376 -18.292   0.870  0.00  0.00    -0.246 OA
ATOM      4  N   UNL d   1      23.739 -18.041  -0.709  0.00  0.00    -0.249 N 
ATOM      5  H   UNL d   1      25.529 -16.709  -1.885  0.00  0.00     0.164 HD
ATOM      6  H   UNL d   1      23.376 -17.693  -1.592  0.00  0.00     0.192 HD
ENDROOT
BRANCH   1   7
ATOM      7  C   UNL d   1      27.257 -16.800  -0.535  0.00  0.00     0.151 C 
BRANCH   7   8
ATOM      8  C   UNL d   1      28.136 -16.041  -1.531  0.00  0.00     0.195 C 
BRANCH   8   9
ATOM      9  O   UNL d   1      28.073 -16.285  -2.922  0.00  0.00    -0.347 OA
BRANCH   9  10
ATOM     10  C   UNL d   1      27.339 -15.320  -3.613  0.00  0.00     0.102 A 
ATOM     11  C   UNL d   1      26.423 -14.675  -2.752  0.00  0.00     0.039 A 
ATOM     12  C   UNL d   1      25.646 -13.591  -3.172  0.00  0.00     0.003 A 
ATOM     13  C   UNL d   1      25.775 -13.120  -4.469  0.00  0.00     0.003 A 
ATOM     14  C   UNL d   1      26.629 -13.780  -5.361  0.00  0.00     0.039 A 
ATOM     15  C   UNL d   1      27.423 -14.881  -4.963  0.00  0.00     0.101 A 
BRANCH  15  16
ATOM     16  O   UNL d   1      28.355 -15.217  -5.926  0.00  0.00    -0.353 OA
ATOM     17  C   UNL d   1      28.494 -14.424  -7.104  0.00  0.00     0.210 C 
ENDBRANCH  15  16
ENDBRANCH   9  10
ENDBRANCH   8   9
ENDBRANCH   7   8
ENDBRANCH   1   7
BRANCH   4  18
ATOM     18  N   UNL d   1      22.833 -18.856   0.057  0.00  0.00    -0.266 N 
ATOM     19  C   UNL d   1      21.634 -19.276  -0.500  0.00  0.00     0.236 C 
ATOM     20  O   UNL d   1      21.310 -18.972  -1.651  0.00  0.00    -0.272 OA
ATOM     21  H   UNL d   1      23.132 -19.077   1.007  0.00  0.00     0.190 HD
BRANCH  19  22
ATOM     22  C   UNL d   1      20.738 -20.126   0.415  0.00  0.00     0.105 C 
BRANCH  22  23
ATOM     23  C   UNL d   1      19.267 -19.651   0.416  0.00  0.00     0.013 C 
BRANCH  23  24
ATOM     24  C   UNL d   1      18.399 -20.244   1.550  0.00  0.00    -0.022 C 
ATOM     25  C   UNL d   1      17.775 -21.578   1.142  0.00  0.00     0.009 C 
ATOM     26  C   UNL d   1      19.239 -20.453   2.818  0.00  0.00     0.009 C 
ENDBRANCH  23  24
ENDBRANCH  22  23
ENDBRANCH  19  22
ENDBRANCH   4  18
TORSDOF 9
ENDMDL
MODEL 3
REMARK VINA RESULT:    -7.194      1.357      2.008
REMARK INTER + INTRA:         -12.032
REMARK INTER:                  -9.879
REMARK INTRA:                  -2.153
REMARK CONF_INDEPENDENT:        2.685
REMARK UNBOUND:                -2.153
REMARK  9 active torsions:
REMARK  status: ('A' for Active; 'I' for Inactive)
REMARK    1  A    between atoms: O_2  and  C_3 
REMARK    2  A    between atoms: C_8  and  O_9 
REMARK    3  A    between atoms: O_9  and  C_10 
REMARK    4  A    between atoms: C_10  and  C_11 
REMARK    5  A    between atoms: C_11  and  N_12 
REMARK       I    between atoms: N_12  and  C_13 
REMARK       I    between atoms: C_13  and  N_15 
REMARK    6  A    between atoms: N_15  and  N_16 
REMARK       I    between atoms: N_16  and  C_17 
REMARK    7  A    between atoms: C_17  and  C_19 
REMARK    8  A    between atoms: C_19  and  C_20 
REMARK    9  A    between atoms: C_20  and  C_21 
ROOT
ATOM      1  N   UNL d   1      25.675 -16.401  -0.405  0.00  0.00    -0.340 N 
ATOM      2  C   UNL d   1      24.904 -17.517  -0.154  0.00  0.00     0.334 C 
ATOM      3  O   UNL d   1      25.387 -18.542   0.347  0.00  0.00    -0.246 OA
ATOM      4  N   UNL d   1      23.562 -17.437  -0.481  0.00  0.00    -0.249 N 
ATOM      5  H   UNL d   1      25.247 -15.596  -0.846  0.00  0.00     0.164 HD
ATOM      6  H   UNL d   1      23.100 -16.635  -0.900  0.00  0.00     0.192 HD
ENDROOT
BRANCH   1   7
ATOM      7  C   UNL d   1      27.139 -16.429  -0.110  0.00  0.00     0.151 C 
BRANCH   7   8
ATOM      8  C   UNL d   1      28.027 -15.781  -1.172  0.00  0.00     0.195 C 
BRANCH   8   9
ATOM      9  O   UNL d   1      28.446 -16.482  -2.327  0.00  0.00    -0.347 OA
BRANCH   9  10
ATOM     10  C   UNL d   1      28.101 -15.834  -3.514  0.00  0.00     0.102 A 
ATOM     11  C   UNL d   1      29.208 -15.773  -4.391  0.00  0.00     0.039 A 
ATOM     12  C   UNL d   1      29.098 -15.273  -5.692  0.00  0.00     0.003 A 
ATOM     13  C   UNL d   1      27.868 -14.828  -6.151  0.00  0.00     0.003 A 
ATOM     14  C   UNL d   1      26.770 -14.819  -5.283  0.00  0.00     0.039 A 
ATOM     15  C   UNL d   1      26.855 -15.315  -3.961  0.00  0.00     0.101 A 
BRANCH  15  16
ATOM     16  O   UNL d   1      25.610 -15.431  -3.374  0.00  0.00    -0.353 OA
ATOM     17  C   UNL d   1      25.000 -14.303  -2.747  0.00  0.00     0.210 C 
ENDBRANCH  15  16
ENDBRANCH   9  10
ENDBRANCH   8   9
ENDBRANCH   7   8
ENDBRANCH   1   7
BRANCH   4  18
ATOM     18  N   UNL d   1      22.725 -18.585  -0.252  0.00  0.00    -0.266 N 
ATOM     19  C   UNL d   1      21.406 -18.584  -0.683  0.00  0.00     0.236 C 
ATOM     20  O   UNL d   1      20.916 -17.616  -1.269  0.00  0.00    -0.272 OA
ATOM     21  H   UNL d   1      23.164 -19.361   0.245  0.00  0.00     0.190 HD
BRANCH  19  22
ATOM     22  C   UNL d   1      20.602 -19.855  -0.367  0.00  0.00     0.105 C 
BRANCH  22  23
ATOM     23  C   UNL d   1      19.143 -19.550   0.041  0.00  0.00     0.013 C 
BRANCH  23  24
ATOM     24  C   UNL d   1      18.742 -20.073   1.439  0.00  0.00    -0.022 C 
ATOM     25  C   UNL d   1      18.175 -21.491   1.370  0.00  0.00     0.009 C 
ATOM     26  C   UNL d   1      19.952 -20.066   2.384  0.00  0.00     0.009 C 
ENDBRANCH  23  24
ENDBRANCH  22  23
ENDBRANCH  19  22
ENDBRANCH   4  18
TORSDOF 9
ENDMDL
MODEL 4
REMARK VINA RESULT:    -7.093      1.033      1.912
REMARK INTER + INTRA:         -12.363
REMARK INTER:                  -9.777
REMARK INTRA:                  -2.586
REMARK CONF_INDEPENDENT:        2.685
REMARK UNBOUND:                -2.586
REMARK  9 active torsions:
REMARK  status: ('A' for Active; 'I' for Inactive)
REMARK    1  A    between atoms: O_2  and  C_3 
REMARK    2  A    between atoms: C_8  and  O_9 
REMARK    3  A    between atoms: O_9  and  C_10 
REMARK    4  A    between atoms: C_10  and  C_11 
REMARK    5  A    between atoms: C_11  and  N_12 
REMARK       I    between atoms: N_12  and  C_13 
REMARK       I    between atoms: C_13  and  N_15 
REMARK    6  A    between atoms: N_15  and  N_16 
REMARK       I    between atoms: N_16  and  C_17 
REMARK    7  A    between atoms: C_17  and  C_19 
REMARK    8  A    between atoms: C_19  and  C_20 
REMARK    9  A    between atoms: C_20  and  C_21 
ROOT
ATOM      1  N   UNL d   1      25.608 -16.468  -0.262  0.00  0.00    -0.340 N 
ATOM      2  C   UNL d   1      24.863 -17.604  -0.025  0.00  0.00     0.334 C 
ATOM      3  O   UNL d   1      25.361 -18.610   0.500  0.00  0.00    -0.246 OA
ATOM      4  N   UNL d   1      23.531 -17.568  -0.394  0.00  0.00    -0.249 N 
ATOM      5  H   UNL d   1      25.170 -15.679  -0.723  0.00  0.00     0.164 HD
ATOM      6  H   UNL d   1      23.058 -16.783  -0.835  0.00  0.00     0.192 HD
ENDROOT
BRANCH   1   7
ATOM      7  C   UNL d   1      27.062 -16.449   0.079  0.00  0.00     0.151 C 
BRANCH   7   8
ATOM      8  C   UNL d   1      28.002 -16.200  -1.101  0.00  0.00     0.195 C 
BRANCH   8   9
ATOM      9  O   UNL d   1      27.569 -16.323  -2.442  0.00  0.00    -0.347 OA
BRANCH   9  10
ATOM     10  C   UNL d   1      26.896 -15.190  -2.904  0.00  0.00     0.102 A 
ATOM     11  C   UNL d   1      26.662 -15.280  -4.294  0.00  0.00     0.039 A 
ATOM     12  C   UNL d   1      25.907 -14.326  -4.984  0.00  0.00     0.003 A 
ATOM     13  C   UNL d   1      25.358 -13.259  -4.290  0.00  0.00     0.003 A 
ATOM     14  C   UNL d   1      25.627 -13.112  -2.924  0.00  0.00     0.039 A 
ATOM     15  C   UNL d   1      26.391 -14.060  -2.204  0.00  0.00     0.101 A 
BRANCH  15  16
ATOM     16  O   UNL d   1      26.326 -13.845  -0.842  0.00  0.00    -0.353 OA
ATOM     17  C   UNL d   1      27.016 -12.743  -0.251  0.00  0.00     0.210 C 
ENDBRANCH  15  16
ENDBRANCH   9  10
ENDBRANCH   8   9
ENDBRANCH   7   8
ENDBRANCH   1   7
BRANCH   4  18
ATOM     18  N   UNL d   1      22.721 -18.739  -0.181  0.00  0.00    -0.266 N 
ATOM     19  C   UNL d   1      21.394 -18.751  -0.584  0.00  0.00     0.236 C 
ATOM     20  O   UNL d   1      20.872 -17.777  -1.131  0.00  0.00    -0.272 OA
ATOM     21  H   UNL d   1      23.186 -19.519   0.284  0.00  0.00     0.190 HD
BRANCH  19  22
ATOM     22  C   UNL d   1      20.621 -20.047  -0.288  0.00  0.00     0.105 C 
BRANCH  22  23
ATOM     23  C   UNL d   1      19.103 -19.810  -0.121  0.00  0.00     0.013 C 
BRANCH  23  24
ATOM     24  C   UNL d   1      18.499 -20.393   1.177  0.00  0.00    -0.022 C 
ATOM     25  C   UNL d   1      18.030 -21.834   0.983  0.00  0.00     0.009 C 
ATOM     26  C   UNL d   1      19.528 -20.352   2.315  0.00  0.00     0.009 C 
ENDBRANCH  23  24
ENDBRANCH  22  23
ENDBRANCH  19  22
ENDBRANCH   4  18
TORSDOF 9
ENDMDL
MODEL 5
REMARK VINA RESULT:    -6.677      3.303      4.585
REMARK INTER + INTRA:         -11.181
REMARK INTER:                  -9.362
REMARK INTRA:                  -1.820
REMARK CONF_INDEPENDENT:        2.685
REMARK UNBOUND:                -1.820
REMARK  9 active torsions:
REMARK  status: ('A' for Active; 'I' for Inactive)
REMARK    1  A    between atoms: O_2  and  C_3 
REMARK    2  A    between atoms: C_8  and  O_9 
REMARK    3  A    between atoms: O_9  and  C_10 
REMARK    4  A    between atoms: C_10  and  C_11 
REMARK    5  A    between atoms: C_11  and  N_12 
REMARK       I    between atoms: N_12  and  C_13 
REMARK       I    between atoms: C_13  and  N_15 
REMARK    6  A    between atoms: N_15  and  N_16 
REMARK       I    between atoms: N_16  and  C_17 
REMARK    7  A    between atoms: C_17  and  C_19 
REMARK    8  A    between atoms: C_19  and  C_20 
REMARK    9  A    between atoms: C_20  and  C_21 
ROOT
ATOM      1  N   UNL d   1      26.163 -16.388   0.096  0.00  0.00    -0.340 N 
ATOM      2  C   UNL d   1      25.359 -17.501   0.229  0.00  0.00     0.334 C 
ATOM      3  O   UNL d   1      25.787 -18.558   0.714  0.00  0.00    -0.246 OA
ATOM      4  N   UNL d   1      24.049 -17.381  -0.197  0.00  0.00    -0.249 N 
ATOM      5  H   UNL d   1      25.783 -15.554  -0.335  0.00  0.00     0.164 HD
ATOM      6  H   UNL d   1      23.633 -16.550  -0.610  0.00  0.00     0.192 HD
ENDROOT
BRANCH   1   7
ATOM      7  C   UNL d   1      27.599 -16.457   0.504  0.00  0.00     0.151 C 
BRANCH   7   8
ATOM      8  C   UNL d   1      28.279 -15.104   0.715  0.00  0.00     0.195 C 
BRANCH   8   9
ATOM      9  O   UNL d   1      27.559 -13.962   1.135  0.00  0.00    -0.347 OA
BRANCH   9  10
ATOM     10  C   UNL d   1      27.689 -13.706   2.501  0.00  0.00     0.102 A 
ATOM     11  C   UNL d   1      28.233 -14.824   3.171  0.00  0.00     0.039 A 
ATOM     12  C   UNL d   1      28.568 -14.787   4.528  0.00  0.00     0.003 A 
ATOM     13  C   UNL d   1      28.371 -13.620   5.248  0.00  0.00     0.003 A 
ATOM     14  C   UNL d   1      27.774 -12.517   4.625  0.00  0.00     0.039 A 
ATOM     15  C   UNL d   1      27.424 -12.529   3.254  0.00  0.00     0.101 A 
BRANCH  15  16
ATOM     16  O   UNL d   1      27.079 -11.271   2.801  0.00  0.00    -0.353 OA
ATOM     17  C   UNL d   1      28.069 -10.249   2.686  0.00  0.00     0.210 C 
ENDBRANCH  15  16
ENDBRANCH   9  10
ENDBRANCH   8   9
ENDBRANCH   7   8
ENDBRANCH   1   7
BRANCH   4  18
ATOM     18  N   UNL d   1      23.180 -18.523  -0.093  0.00  0.00    -0.266 N 
ATOM     19  C   UNL d   1      21.848 -18.423  -0.467  0.00  0.00     0.236 C 
ATOM     20  O   UNL d   1      21.372 -17.369  -0.898  0.00  0.00    -0.272 OA
ATOM     21  H   UNL d   1      23.608 -19.372   0.277  0.00  0.00     0.190 HD
BRANCH  19  22
ATOM     22  C   UNL d   1      21.011 -19.700  -0.295  0.00  0.00     0.105 C 
BRANCH  22  23
ATOM     23  C   UNL d   1      19.493 -19.414  -0.244  0.00  0.00     0.013 C 
BRANCH  23  24
ATOM     24  C   UNL d   1      18.789 -19.895   1.046  0.00  0.00    -0.022 C 
ATOM     25  C   UNL d   1      18.032 -21.203   0.820  0.00  0.00     0.009 C 
ATOM     26  C   UNL d   1      19.812 -20.099   2.172  0.00  0.00     0.009 C 
ENDBRANCH  23  24
ENDBRANCH  22  23
ENDBRANCH  19  22
ENDBRANCH   4  18
TORSDOF 9
ENDMDL
MODEL 6
REMARK VINA RESULT:    -6.561      2.287      3.350
REMARK INTER + INTRA:         -11.165
REMARK INTER:                  -9.245
REMARK INTRA:                  -1.919
REMARK CONF_INDEPENDENT:        2.685
REMARK UNBOUND:                -1.919
REMARK  9 active torsions:
REMARK  status: ('A' for Active; 'I' for Inactive)
REMARK    1  A    between atoms: O_2  and  C_3 
REMARK    2  A    between atoms: C_8  and  O_9 
REMARK    3  A    between atoms: O_9  and  C_10 
REMARK    4  A    between atoms: C_10  and  C_11 
REMARK    5  A    between atoms: C_11  and  N_12 
REMARK       I    between atoms: N_12  and  C_13 
REMARK       I    between atoms: C_13  and  N_15 
REMARK    6  A    between atoms: N_15  and  N_16 
REMARK       I    between atoms: N_16  and  C_17 
REMARK    7  A    between atoms: C_17  and  C_19 
REMARK    8  A    between atoms: C_19  and  C_20 
REMARK    9  A    between atoms: C_20  and  C_21 
ROOT
ATOM      1  N   UNL d   1      25.706 -15.867  -2.475  0.00  0.00    -0.340 N 
ATOM      2  C   UNL d   1      24.671 -16.329  -1.689  0.00  0.00     0.334 C 
ATOM      3  O   UNL d   1      23.629 -15.676  -1.536  0.00  0.00    -0.246 OA
ATOM      4  N   UNL d   1      24.846 -17.560  -1.084  0.00  0.00    -0.249 N 
ATOM      5  H   UNL d   1      26.553 -16.418  -2.547  0.00  0.00     0.164 HD
ATOM      6  H   UNL d   1      25.673 -18.146  -1.159  0.00  0.00     0.192 HD
ENDROOT
BRANCH   1   7
ATOM      7  C   UNL d   1      25.600 -14.528  -3.130  0.00  0.00     0.151 C 
BRANCH   7   8
ATOM      8  C   UNL d   1      25.677 -14.545  -4.657  0.00  0.00     0.195 C 
BRANCH   8   9
ATOM      9  O   UNL d   1      26.473 -15.482  -5.356  0.00  0.00    -0.347 OA
BRANCH   9  10
ATOM     10  C   UNL d   1      27.838 -15.203  -5.280  0.00  0.00     0.102 A 
ATOM     11  C   UNL d   1      28.318 -14.708  -6.513  0.00  0.00     0.039 A 
ATOM     12  C   UNL d   1      29.629 -14.248  -6.671  0.00  0.00     0.003 A 
ATOM     13  C   UNL d   1      30.492 -14.266  -5.587  0.00  0.00     0.003 A 
ATOM     14  C   UNL d   1      30.063 -14.809  -4.370  0.00  0.00     0.039 A 
ATOM     15  C   UNL d   1      28.743 -15.284  -4.186  0.00  0.00     0.101 A 
BRANCH  15  16
ATOM     16  O   UNL d   1      28.472 -15.547  -2.858  0.00  0.00    -0.353 OA
ATOM     17  C   UNL d   1      28.974 -16.732  -2.239  0.00  0.00     0.210 C 
ENDBRANCH  15  16
ENDBRANCH   9  10
ENDBRANCH   8   9
ENDBRANCH   7   8
ENDBRANCH   1   7
BRANCH   4  18
ATOM     18  N   UNL d   1      23.797 -18.072  -0.242  0.00  0.00    -0.266 N 
ATOM     19  C   UNL d   1      22.789 -18.858  -0.782  0.00  0.00     0.236 C 
ATOM     20  O   UNL d   1      22.759 -19.141  -1.982  0.00  0.00    -0.272 OA
ATOM     21  H   UNL d   1      23.851 -17.808   0.742  0.00  0.00     0.190 HD
BRANCH  19  22
ATOM     22  C   UNL d   1      21.713 -19.333   0.207  0.00  0.00     0.105 C 
BRANCH  22  23
ATOM     23  C   UNL d   1      20.293 -19.312  -0.402  0.00  0.00     0.013 C 
BRANCH  23  24
ATOM     24  C   UNL d   1      19.156 -19.596   0.606  0.00  0.00    -0.022 C 
ATOM     25  C   UNL d   1      18.344 -20.828   0.206  0.00  0.00     0.009 C 
ATOM     26  C   UNL d   1      19.725 -19.810   2.015  0.00  0.00     0.009 C 
ENDBRANCH  23  24
ENDBRANCH  22  23
ENDBRANCH  19  22
ENDBRANCH   4  18
TORSDOF 9
ENDMDL
MODEL 7
REMARK VINA RESULT:    -6.492      5.966      9.093
REMARK INTER + INTRA:         -10.951
REMARK INTER:                  -9.176
REMARK INTRA:                  -1.775
REMARK CONF_INDEPENDENT:        2.685
REMARK UNBOUND:                -1.775
REMARK  9 active torsions:
REMARK  status: ('A' for Active; 'I' for Inactive)
REMARK    1  A    between atoms: O_2  and  C_3 
REMARK    2  A    between atoms: C_8  and  O_9 
REMARK    3  A    between atoms: O_9  and  C_10 
REMARK    4  A    between atoms: C_10  and  C_11 
REMARK    5  A    between atoms: C_11  and  N_12 
REMARK       I    between atoms: N_12  and  C_13 
REMARK       I    between atoms: C_13  and  N_15 
REMARK    6  A    between atoms: N_15  and  N_16 
REMARK       I    between atoms: N_16  and  C_17 
REMARK    7  A    between atoms: C_17  and  C_19 
REMARK    8  A    between atoms: C_19  and  C_20 
REMARK    9  A    between atoms: C_20  and  C_21 
ROOT
ATOM      1  N   UNL d   1      27.943 -14.683   2.178  0.00  0.00    -0.340 N 
ATOM      2  C   UNL d   1      28.464 -14.059   3.292  0.00  0.00     0.334 C 
ATOM      3  O   UNL d   1      28.228 -12.868   3.540  0.00  0.00    -0.246 OA
ATOM      4  N   UNL d   1      29.259 -14.825   4.124  0.00  0.00    -0.249 N 
ATOM      5  H   UNL d   1      28.187 -15.649   1.995  0.00  0.00     0.164 HD
ATOM      6  H   UNL d   1      29.501 -15.802   3.980  0.00  0.00     0.192 HD
ENDROOT
BRANCH   1   7
ATOM      7  C   UNL d   1      27.104 -13.906   1.216  0.00  0.00     0.151 C 
BRANCH   7   8
ATOM      8  C   UNL d   1      27.210 -14.352  -0.243  0.00  0.00     0.195 C 
BRANCH   8   9
ATOM      9  O   UNL d   1      26.080 -14.774  -0.980  0.00  0.00    -0.347 OA
BRANCH   9  10
ATOM     10  C   UNL d   1      25.595 -16.018  -0.573  0.00  0.00     0.102 A 
ATOM     11  C   UNL d   1      24.291 -16.235  -1.071  0.00  0.00     0.039 A 
ATOM     12  C   UNL d   1      23.622 -17.450  -0.899  0.00  0.00     0.003 A 
ATOM     13  C   UNL d   1      24.252 -18.487  -0.229  0.00  0.00     0.003 A 
ATOM     14  C   UNL d   1      25.520 -18.279   0.329  0.00  0.00     0.039 A 
ATOM     15  C   UNL d   1      26.216 -17.057   0.173  0.00  0.00     0.101 A 
BRANCH  15  16
ATOM     16  O   UNL d   1      27.528 -17.157   0.590  0.00  0.00    -0.353 OA
ATOM     17  C   UNL d   1      28.564 -17.450  -0.347  0.00  0.00     0.210 C 
ENDBRANCH  15  16
ENDBRANCH   9  10
ENDBRANCH   8   9
ENDBRANCH   7   8
ENDBRANCH   1   7
BRANCH   4  18
ATOM     18  N   UNL d   1      29.838 -14.208   5.289  0.00  0.00    -0.266 N 
ATOM     19  C   UNL d   1      29.021 -13.719   6.298  0.00  0.00     0.236 C 
ATOM     20  O   UNL d   1      27.791 -13.797   6.233  0.00  0.00    -0.272 OA
ATOM     21  H   UNL d   1      30.857 -14.153   5.300  0.00  0.00     0.190 HD
BRANCH  19  22
ATOM     22  C   UNL d   1      29.747 -13.065   7.484  0.00  0.00     0.105 C 
BRANCH  22  23
ATOM     23  C   UNL d   1      28.778 -12.369   8.466  0.00  0.00     0.013 C 
BRANCH  23  24
ATOM     24  C   UNL d   1      28.155 -13.303   9.528  0.00  0.00    -0.022 C 
ATOM     25  C   UNL d   1      28.911 -14.628   9.626  0.00  0.00     0.009 C 
ATOM     26  C   UNL d   1      28.154 -12.627  10.906  0.00  0.00     0.009 C 
ENDBRANCH  23  24
ENDBRANCH  22  23
ENDBRANCH  19  22
ENDBRANCH   4  18
TORSDOF 9
ENDMDL
MODEL 8
REMARK VINA RESULT:    -5.151      1.820      3.499
REMARK INTER + INTRA:         -11.334
REMARK INTER:                  -7.836
REMARK INTRA:                  -3.498
REMARK CONF_INDEPENDENT:        2.685
REMARK UNBOUND:                -3.498
REMARK  9 active torsions:
REMARK  status: ('A' for Active; 'I' for Inactive)
REMARK    1  A    between atoms: O_2  and  C_3 
REMARK    2  A    between atoms: C_8  and  O_9 
REMARK    3  A    between atoms: O_9  and  C_10 
REMARK    4  A    between atoms: C_10  and  C_11 
REMARK    5  A    between atoms: C_11  and  N_12 
REMARK       I    between atoms: N_12  and  C_13 
REMARK       I    between atoms: C_13  and  N_15 
REMARK    6  A    between atoms: N_15  and  N_16 
REMARK       I    between atoms: N_16  and  C_17 
REMARK    7  A    between atoms: C_17  and  C_19 
REMARK    8  A    between atoms: C_19  and  C_20 
REMARK    9  A    between atoms: C_20  and  C_21 
ROOT
ATOM      1  N   UNL d   1      26.814 -15.505  -3.602  0.00  0.00    -0.340 N 
ATOM      2  C   UNL d   1      25.552 -15.604  -3.054  0.00  0.00     0.334 C 
ATOM      3  O   UNL d   1      24.662 -14.784  -3.318  0.00  0.00    -0.246 OA
ATOM      4  N   UNL d   1      25.323 -16.667  -2.199  0.00  0.00    -0.249 N 
ATOM      5  H   UNL d   1      27.522 -16.179  -3.335  0.00  0.00     0.164 HD
ATOM      6  H   UNL d   1      26.005 -17.372  -1.932  0.00  0.00     0.192 HD
ENDROOT
BRANCH   1   7
ATOM      7  C   UNL d   1      27.142 -14.362  -4.507  0.00  0.00     0.151 C 
BRANCH   7   8
ATOM      8  C   UNL d   1      28.194 -13.391  -3.968  0.00  0.00     0.195 C 
BRANCH   8   9
ATOM      9  O   UNL d   1      29.016 -13.714  -2.864  0.00  0.00    -0.347 OA
BRANCH   9  10
ATOM     10  C   UNL d   1      28.306 -13.826  -1.668  0.00  0.00     0.102 A 
ATOM     11  C   UNL d   1      27.951 -12.550  -1.175  0.00  0.00     0.039 A 
ATOM     12  C   UNL d   1      27.139 -12.388  -0.048  0.00  0.00     0.003 A 
ATOM     13  C   UNL d   1      26.655 -13.507   0.610  0.00  0.00     0.003 A 
ATOM     14  C   UNL d   1      27.043 -14.782   0.181  0.00  0.00     0.039 A 
ATOM     15  C   UNL d   1      27.866 -14.973  -0.953  0.00  0.00     0.101 A 
BRANCH  15  16
ATOM     16  O   UNL d   1      27.920 -16.300  -1.330  0.00  0.00    -0.353 OA
ATOM     17  C   UNL d   1      29.040 -17.109  -0.969  0.00  0.00     0.210 C 
ENDBRANCH  15  16
ENDBRANCH   9  10
ENDBRANCH   8   9
ENDBRANCH   7   8
ENDBRANCH   1   7
BRANCH   4  18
ATOM     18  N   UNL d   1      24.025 -16.798  -1.591  0.00  0.00    -0.266 N 
ATOM     19  C   UNL d   1      23.780 -17.820  -0.686  0.00  0.00     0.236 C 
ATOM     20  O   UNL d   1      24.651 -18.636  -0.375  0.00  0.00    -0.272 OA
ATOM     21  H   UNL d   1      23.329 -16.111  -1.881  0.00  0.00     0.190 HD
BRANCH  19  22
ATOM     22  C   UNL d   1      22.354 -17.874  -0.114  0.00  0.00     0.105 C 
BRANCH  22  23
ATOM     23  C   UNL d   1      21.611 -19.177  -0.488  0.00  0.00     0.013 C 
BRANCH  23  24
ATOM     24  C   UNL d   1      20.209 -19.324   0.145  0.00  0.00    -0.022 C 
ATOM     25  C   UNL d   1      19.156 -19.697  -0.898  0.00  0.00     0.009 C 
ATOM     26  C   UNL d   1      20.224 -20.395   1.244  0.00  0.00     0.009 C 
ENDBRANCH  23  24
ENDBRANCH  22  23
ENDBRANCH  19  22
ENDBRANCH   4  18
TORSDOF 9
ENDMDL
MODEL 9
REMARK VINA RESULT:    -5.120      3.255      5.664
REMARK INTER + INTRA:         -11.117
REMARK INTER:                  -7.805
REMARK INTRA:                  -3.312
REMARK CONF_INDEPENDENT:        2.685
REMARK UNBOUND:                -3.312
REMARK  9 active torsions:
REMARK  status: ('A' for Active; 'I' for Inactive)
REMARK    1  A    between atoms: O_2  and  C_3 
REMARK    2  A    between atoms: C_8  and  O_9 
REMARK    3  A    between atoms: O_9  and  C_10 
REMARK    4  A    between atoms: C_10  and  C_11 
REMARK    5  A    between atoms: C_11  and  N_12 
REMARK       I    between atoms: N_12  and  C_13 
REMARK       I    between atoms: C_13  and  N_15 
REMARK    6  A    between atoms: N_15  and  N_16 
REMARK       I    between atoms: N_16  and  C_17 
REMARK    7  A    between atoms: C_17  and  C_19 
REMARK    8  A    between atoms: C_19  and  C_20 
REMARK    9  A    between atoms: C_20  and  C_21 
ROOT
ATOM      1  N   UNL d   1      27.456 -14.707  -4.061  0.00  0.00    -0.340 N 
ATOM      2  C   UNL d   1      26.515 -15.496  -3.432  0.00  0.00     0.334 C 
ATOM      3  O   UNL d   1      25.430 -15.766  -3.966  0.00  0.00    -0.246 OA
ATOM      4  N   UNL d   1      26.842 -15.979  -2.178  0.00  0.00    -0.249 N 
ATOM      5  H   UNL d   1      28.316 -14.485  -3.575  0.00  0.00     0.164 HD
ATOM      6  H   UNL d   1      27.706 -15.794  -1.676  0.00  0.00     0.192 HD
ENDROOT
BRANCH   1   7
ATOM      7  C   UNL d   1      27.155 -14.122  -5.402  0.00  0.00     0.151 C 
BRANCH   7   8
ATOM      8  C   UNL d   1      28.315 -14.156  -6.399  0.00  0.00     0.195 C 
BRANCH   8   9
ATOM      9  O   UNL d   1      29.642 -14.424  -5.994  0.00  0.00    -0.347 OA
BRANCH   9  10
ATOM     10  C   UNL d   1      29.874 -15.777  -5.740  0.00  0.00     0.102 A 
ATOM     11  C   UNL d   1      30.371 -16.426  -6.892  0.00  0.00     0.039 A 
ATOM     12  C   UNL d   1      30.788 -17.760  -6.873  0.00  0.00     0.003 A 
ATOM     13  C   UNL d   1      30.725 -18.477  -5.689  0.00  0.00     0.003 A 
ATOM     14  C   UNL d   1      30.178 -17.879  -4.547  0.00  0.00     0.039 A 
ATOM     15  C   UNL d   1      29.745 -16.532  -4.542  0.00  0.00     0.101 A 
BRANCH  15  16
ATOM     16  O   UNL d   1      29.471 -16.086  -3.264  0.00  0.00    -0.353 OA
ATOM     17  C   UNL d   1      29.833 -16.874  -2.130  0.00  0.00     0.210 C 
ENDBRANCH  15  16
ENDBRANCH   9  10
ENDBRANCH   8   9
ENDBRANCH   7   8
ENDBRANCH   1   7
BRANCH   4  18
ATOM     18  N   UNL d   1      25.882 -16.793  -1.478  0.00  0.00    -0.266 N 
ATOM     19  C   UNL d   1      26.198 -17.335  -0.241  0.00  0.00     0.236 C 
ATOM     20  O   UNL d   1      27.292 -17.141   0.293  0.00  0.00    -0.272 OA
ATOM     21  H   UNL d   1      24.993 -16.939  -1.958  0.00  0.00     0.190 HD
BRANCH  19  22
ATOM     22  C   UNL d   1      25.104 -18.201   0.404  0.00  0.00     0.105 C 
BRANCH  22  23
ATOM     23  C   UNL d   1      23.945 -18.520  -0.569  0.00  0.00     0.013 C 
BRANCH  23  24
ATOM     24  C   UNL d   1      22.588 -17.888  -0.183  0.00  0.00    -0.022 C 
ATOM     25  C   UNL d   1      22.534 -16.404  -0.547  0.00  0.00     0.009 C 
ATOM     26  C   UNL d   1      21.436 -18.617  -0.887  0.00  0.00     0.009 C 
ENDBRANCH  23  24
ENDBRANCH  22  23
ENDBRANCH  19  22
ENDBRANCH   4  18
TORSDOF 9
ENDMDL
