MODEL 1
REMARK VINA RESULT:    -8.985      0.000      0.000
REMARK INTER + INTRA:         -10.929
REMARK INTER:                 -10.477
REMARK INTRA:                  -0.452
REMARK CONF_INDEPENDENT:        1.492
REMARK UNBOUND:                -0.452
REMARK  5 active torsions:
REMARK  status: ('A' for Active; 'I' for Inactive)
REMARK       I    between atoms: N_2  and  C_3 
REMARK       I    between atoms: C_3  and  N_5 
REMARK       I    between atoms: N_5  and  C_6 
REMARK    1  A    between atoms: C_6  and  C_8 
REMARK    2  A    between atoms: C_8  and  N_9 
REMARK    3  A    between atoms: N_9  and  C_10 
REMARK    4  A    between atoms: C_14  and  C_15 
REMARK       I    between atoms: C_15  and  N_17 
REMARK    5  A    between atoms: N_17  and  C_18 
ROOT
ATOM      1  C   UNL d   1      24.947 -16.281  -1.061  0.00  0.00     0.029 A 
ATOM      2  C   UNL d   1      25.854 -17.221  -0.546  0.00  0.00     0.029 A 
ATOM      3  C   UNL d   1      25.423 -18.444  -0.020  0.00  0.00     0.003 A 
ATOM      4  C   UNL d   1      24.063 -18.729   0.037  0.00  0.00     0.017 A 
ATOM      5  C   UNL d   1      23.136 -17.812  -0.478  0.00  0.00     0.034 A 
ATOM      6  C   UNL d   1      23.590 -16.596  -1.008  0.00  0.00     0.046 A 
ENDROOT
BRANCH   1   7
ATOM      7  N   UNL d   1      25.414 -15.089  -1.581  0.00  0.00    -0.381 N 
ATOM      8  H   UNL d   1      26.371 -14.823  -1.330  0.00  0.00     0.160 HD
BRANCH   7   9
ATOM      9  C   UNL d   1      24.874 -14.404  -2.772  0.00  0.00     0.223 C 
BRANCH   9  10
ATOM     10  C   UNL d   1      25.731 -14.749  -4.021  0.00  0.00     0.243 C 
ATOM     11  N   UNL d   1      27.108 -14.520  -3.943  0.00  0.00    -0.278 N 
ATOM     12  C   UNL d   1      27.953 -14.807  -5.000  0.00  0.00     0.322 C 
ATOM     13  H   UNL d   1      27.510 -14.158  -3.094  0.00  0.00     0.173 HD
ATOM     14  N   UNL d   1      29.294 -14.543  -4.795  0.00  0.00    -0.347 N 
ATOM     15  O   UNL d   1      27.587 -15.262  -6.082  0.00  0.00    -0.247 OA
ATOM     16  C   UNL d   1      30.236 -14.825  -5.874  0.00  0.00     0.151 C 
ATOM     17  H   UNL d   1      29.662 -14.174  -3.932  0.00  0.00     0.163 HD
ATOM     18  O   UNL d   1      25.157 -15.183  -5.023  0.00  0.00    -0.271 OA
ENDBRANCH   9  10
ENDBRANCH   7   9
ENDBRANCH   1   7
BRANCH   5  19
ATOM     19  C   UNL d   1      21.699 -18.195  -0.475  0.00  0.00     0.252 C 
ATOM     20  O   UNL d   1      20.911 -17.508  -1.127  0.00  0.00    -0.268 OA
ATOM     21  N   UNL d   1      21.307 -19.296   0.270  0.00  0.00    -0.349 N 
ATOM     22  H   UNL d   1      21.979 -19.809   0.817  0.00  0.00     0.163 HD
BRANCH  21  23
ATOM     23  C   UNL d   1      19.912 -19.744   0.356  0.00  0.00     0.022 C 
ATOM     24  C   UNL d   1      19.156 -19.376  -0.930  0.00  0.00     0.037 C 
ATOM     25  C   UNL d   1      19.866 -21.257   0.605  0.00  0.00     0.037 C 
ATOM     26  C   UNL d   1      19.209 -19.044   1.537  0.00  0.00     0.037 C 
ENDBRANCH  21  23
ENDBRANCH   5  19
TORSDOF 5
ENDMDL
MODEL 2
REMARK VINA RESULT:    -8.637      1.923      2.362
REMARK INTER + INTRA:         -11.170
REMARK INTER:                 -10.128
REMARK INTRA:                  -1.042
REMARK CONF_INDEPENDENT:        1.492
REMARK UNBOUND:                -1.042
REMARK  5 active torsions:
REMARK  status: ('A' for Active; 'I' for Inactive)
REMARK       I    between atoms: N_2  and  C_3 
REMARK       I    between atoms: C_3  and  N_5 
REMARK       I    between atoms: N_5  and  C_6 
REMARK    1  A    between atoms: C_6  and  C_8 
REMARK    2  A    between atoms: C_8  and  N_9 
REMARK    3  A    between atoms: N_9  and  C_10 
REMARK    4  A    between atoms: C_14  and  C_15 
REMARK       I    between atoms: C_15  and  N_17 
REMARK    5  A    between atoms: N_17  and  C_18 
ROOT
ATOM      1  C   UNL d   1      25.114 -16.603  -1.426  0.00  0.00     0.029 A 
ATOM      2  C   UNL d   1      25.972 -17.362  -0.615  0.00  0.00     0.029 A 
ATOM      3  C   UNL d   1      25.484 -18.354   0.243  0.00  0.00     0.003 A 
ATOM      4  C   UNL d   1      24.114 -18.574   0.333  0.00  0.00     0.017 A 
ATOM      5  C   UNL d   1      23.235 -17.836  -0.471  0.00  0.00     0.034 A 
ATOM      6  C   UNL d   1      23.746 -16.852  -1.330  0.00  0.00     0.046 A 
ENDROOT
BRANCH   1   7
ATOM      7  N   UNL d   1      25.637 -15.640  -2.268  0.00  0.00    -0.381 N 
ATOM      8  H   UNL d   1      26.541 -15.851  -2.700  0.00  0.00     0.160 HD
BRANCH   7   9
ATOM      9  C   UNL d   1      24.863 -14.579  -2.941  0.00  0.00     0.223 C 
BRANCH   9  10
ATOM     10  C   UNL d   1      25.727 -13.903  -4.041  0.00  0.00     0.243 C 
ATOM     11  N   UNL d   1      25.333 -12.638  -4.486  0.00  0.00    -0.278 N 
ATOM     12  C   UNL d   1      26.045 -11.954  -5.454  0.00  0.00     0.322 C 
ATOM     13  H   UNL d   1      24.523 -12.194  -4.085  0.00  0.00     0.173 HD
ATOM     14  N   UNL d   1      25.557 -10.708  -5.802  0.00  0.00    -0.347 N 
ATOM     15  O   UNL d   1      27.055 -12.382  -6.011  0.00  0.00    -0.247 OA
ATOM     16  C   UNL d   1      26.266  -9.938  -6.818  0.00  0.00     0.151 C 
ATOM     17  H   UNL d   1      24.738 -10.296  -5.383  0.00  0.00     0.163 HD
ATOM     18  O   UNL d   1      26.700 -14.520  -4.482  0.00  0.00    -0.271 OA
ENDBRANCH   9  10
ENDBRANCH   7   9
ENDBRANCH   1   7
BRANCH   5  19
ATOM     19  C   UNL d   1      21.785 -18.164  -0.406  0.00  0.00     0.252 C 
ATOM     20  O   UNL d   1      20.984 -17.365  -0.895  0.00  0.00    -0.268 OA
ATOM     21  N   UNL d   1      21.398 -19.341   0.215  0.00  0.00    -0.349 N 
ATOM     22  H   UNL d   1      22.084 -19.948   0.633  0.00  0.00     0.163 HD
BRANCH  21  23
ATOM     23  C   UNL d   1      19.994 -19.746   0.350  0.00  0.00     0.022 C 
ATOM     24  C   UNL d   1      19.375 -19.107   1.602  0.00  0.00     0.037 C 
ATOM     25  C   UNL d   1      19.215 -19.350  -0.911  0.00  0.00     0.037 C 
ATOM     26  C   UNL d   1      19.904 -21.278   0.505  0.00  0.00     0.037 C 
ENDBRANCH  21  23
ENDBRANCH   5  19
TORSDOF 5
ENDMDL
MODEL 3
REMARK VINA RESULT:    -8.137      1.647      8.838
REMARK INTER + INTRA:         -10.789
REMARK INTER:                  -9.629
REMARK INTRA:                  -1.160
REMARK CONF_INDEPENDENT:        1.492
REMARK UNBOUND:                -1.160
REMARK  5 active torsions:
REMARK  status: ('A' for Active; 'I' for Inactive)
REMARK       I    between atoms: N_2  and  C_3 
REMARK       I    between atoms: C_3  and  N_5 
REMARK       I    between atoms: N_5  and  C_6 
REMARK    1  A    between atoms: C_6  and  C_8 
REMARK    2  A    between atoms: C_8  and  N_9 
REMARK    3  A    between atoms: N_9  and  C_10 
REMARK    4  A    between atoms: C_14  and  C_15 
REMARK       I    between atoms: C_15  and  N_17 
REMARK    5  A    between atoms: N_17  and  C_18 
ROOT
ATOM      1  C   UNL d   1      24.587 -16.828  -1.033  0.00  0.00     0.029 A 
ATOM      2  C   UNL d   1      25.691 -17.228  -0.264  0.00  0.00     0.029 A 
ATOM      3  C   UNL d   1      27.004 -16.952  -0.665  0.00  0.00     0.003 A 
ATOM      4  C   UNL d   1      27.232 -16.304  -1.874  0.00  0.00     0.017 A 
ATOM      5  C   UNL d   1      26.148 -15.886  -2.658  0.00  0.00     0.034 A 
ATOM      6  C   UNL d   1      24.841 -16.165  -2.233  0.00  0.00     0.046 A 
ENDROOT
BRANCH   1   7
ATOM      7  N   UNL d   1      23.307 -17.111  -0.597  0.00  0.00    -0.381 N 
ATOM      8  H   UNL d   1      22.544 -16.600  -1.052  0.00  0.00     0.160 HD
BRANCH   7   9
ATOM      9  C   UNL d   1      22.893 -18.341   0.107  0.00  0.00     0.223 C 
BRANCH   9  10
ATOM     10  C   UNL d   1      21.446 -18.728  -0.300  0.00  0.00     0.243 C 
ATOM     11  N   UNL d   1      20.817 -19.740   0.431  0.00  0.00    -0.278 N 
ATOM     12  C   UNL d   1      19.525 -20.145   0.149  0.00  0.00     0.322 C 
ATOM     13  H   UNL d   1      21.299 -20.178   1.199  0.00  0.00     0.173 HD
ATOM     14  N   UNL d   1      19.014 -21.149   0.951  0.00  0.00    -0.347 N 
ATOM     15  O   UNL d   1      18.829 -19.681  -0.752  0.00  0.00    -0.247 OA
ATOM     16  C   UNL d   1      17.655 -21.619   0.702  0.00  0.00     0.151 C 
ATOM     17  H   UNL d   1      19.528 -21.570   1.709  0.00  0.00     0.163 HD
ATOM     18  O   UNL d   1      20.931 -18.145  -1.258  0.00  0.00    -0.271 OA
ENDBRANCH   9  10
ENDBRANCH   7   9
ENDBRANCH   1   7
BRANCH   5  19
ATOM     19  C   UNL d   1      26.437 -15.120  -3.900  0.00  0.00     0.252 C 
ATOM     20  O   UNL d   1      25.523 -14.954  -4.709  0.00  0.00    -0.268 OA
ATOM     21  N   UNL d   1      27.722 -14.641  -4.099  0.00  0.00    -0.349 N 
ATOM     22  H   UNL d   1      28.449 -14.829  -3.428  0.00  0.00     0.163 HD
BRANCH  21  23
ATOM     23  C   UNL d   1      28.116 -13.892  -5.299  0.00  0.00     0.022 C 
ATOM     24  C   UNL d   1      28.157 -14.825  -6.518  0.00  0.00     0.037 C 
ATOM     25  C   UNL d   1      27.140 -12.731  -5.530  0.00  0.00     0.037 C 
ATOM     26  C   UNL d   1      29.527 -13.299  -5.107  0.00  0.00     0.037 C 
ENDBRANCH  21  23
ENDBRANCH   5  19
TORSDOF 5
ENDMDL
MODEL 4
REMARK VINA RESULT:    -7.930      2.951      4.005
REMARK INTER + INTRA:         -10.062
REMARK INTER:                  -9.422
REMARK INTRA:                  -0.641
REMARK CONF_INDEPENDENT:        1.492
REMARK UNBOUND:                -0.641
REMARK  5 active torsions:
REMARK  status: ('A' for Active; 'I' for Inactive)
REMARK       I    between atoms: N_2  and  C_3 
REMARK       I    between atoms: C_3  and  N_5 
REMARK       I    between atoms: N_5  and  C_6 
REMARK    1  A    between atoms: C_6  and  C_8 
REMARK    2  A    between atoms: C_8  and  N_9 
REMARK    3  A    between atoms: N_9  and  C_10 
REMARK    4  A    between atoms: C_14  and  C_15 
REMARK       I    between atoms: C_15  and  N_17 
REMARK    5  A    between atoms: N_17  and  C_18 
ROOT
ATOM      1  C   UNL d   1      25.074 -16.478  -1.350  0.00  0.00     0.029 A 
ATOM      2  C   UNL d   1      25.946 -17.299  -0.617  0.00  0.00     0.029 A 
ATOM      3  C   UNL d   1      25.473 -18.366   0.156  0.00  0.00     0.003 A 
ATOM      4  C   UNL d   1      24.106 -18.602   0.240  0.00  0.00     0.017 A 
ATOM      5  C   UNL d   1      23.213 -17.803  -0.487  0.00  0.00     0.034 A 
ATOM      6  C   UNL d   1      23.709 -16.745  -1.262  0.00  0.00     0.046 A 
ENDROOT
BRANCH   1   7
ATOM      7  N   UNL d   1      25.582 -15.441  -2.109  0.00  0.00    -0.381 N 
ATOM      8  H   UNL d   1      24.906 -14.903  -2.660  0.00  0.00     0.160 HD
BRANCH   7   9
ATOM      9  C   UNL d   1      26.872 -14.761  -1.877  0.00  0.00     0.223 C 
BRANCH   9  10
ATOM     10  C   UNL d   1      26.851 -14.027  -0.509  0.00  0.00     0.243 C 
ATOM     11  N   UNL d   1      27.446 -14.670   0.579  0.00  0.00    -0.278 N 
ATOM     12  C   UNL d   1      27.486 -14.089   1.834  0.00  0.00     0.322 C 
ATOM     13  H   UNL d   1      27.879 -15.570   0.455  0.00  0.00     0.173 HD
ATOM     14  N   UNL d   1      28.111 -14.824   2.824  0.00  0.00    -0.347 N 
ATOM     15  O   UNL d   1      27.005 -12.992   2.110  0.00  0.00    -0.247 OA
ATOM     16  C   UNL d   1      28.185 -14.263   4.170  0.00  0.00     0.151 C 
ATOM     17  H   UNL d   1      28.530 -15.727   2.665  0.00  0.00     0.163 HD
ATOM     18  O   UNL d   1      26.293 -12.928  -0.443  0.00  0.00    -0.271 OA
ENDBRANCH   9  10
ENDBRANCH   7   9
ENDBRANCH   1   7
BRANCH   5  19
ATOM     19  C   UNL d   1      21.766 -18.146  -0.436  0.00  0.00     0.252 C 
ATOM     20  O   UNL d   1      20.967 -17.382  -0.980  0.00  0.00    -0.268 OA
ATOM     21  N   UNL d   1      21.381 -19.298   0.231  0.00  0.00    -0.349 N 
ATOM     22  H   UNL d   1      22.065 -19.876   0.691  0.00  0.00     0.163 HD
BRANCH  21  23
ATOM     23  C   UNL d   1      19.979 -19.714   0.356  0.00  0.00     0.022 C 
ATOM     24  C   UNL d   1      19.194 -19.327  -0.906  0.00  0.00     0.037 C 
ATOM     25  C   UNL d   1      19.905 -21.226   0.605  0.00  0.00     0.037 C 
ATOM     26  C   UNL d   1      19.326 -19.000   1.558  0.00  0.00     0.037 C 
ENDBRANCH  21  23
ENDBRANCH   5  19
TORSDOF 5
ENDMDL
MODEL 5
REMARK VINA RESULT:    -7.629      1.828      8.954
REMARK INTER + INTRA:         -10.335
REMARK INTER:                  -9.121
REMARK INTRA:                  -1.214
REMARK CONF_INDEPENDENT:        1.492
REMARK UNBOUND:                -1.214
REMARK  5 active torsions:
REMARK  status: ('A' for Active; 'I' for Inactive)
REMARK       I    between atoms: N_2  and  C_3 
REMARK       I    between atoms: C_3  and  N_5 
REMARK       I    between atoms: N_5  and  C_6 
REMARK    1  A    between atoms: C_6  and  C_8 
REMARK    2  A    between atoms: C_8  and  N_9 
REMARK    3  A    between atoms: N_9  and  C_10 
REMARK    4  A    between atoms: C_14  and  C_15 
REMARK       I    between atoms: C_15  and  N_17 
REMARK    5  A    between atoms: N_17  and  C_18 
ROOT
ATOM      1  C   UNL d   1      24.838 -17.024  -1.403  0.00  0.00     0.029 A 
ATOM      2  C   UNL d   1      25.778 -17.172  -0.372  0.00  0.00     0.029 A 
ATOM      3  C   UNL d   1      27.086 -16.688  -0.497  0.00  0.00     0.003 A 
ATOM      4  C   UNL d   1      27.486 -16.082  -1.682  0.00  0.00     0.017 A 
ATOM      5  C   UNL d   1      26.565 -15.914  -2.725  0.00  0.00     0.034 A 
ATOM      6  C   UNL d   1      25.257 -16.398  -2.576  0.00  0.00     0.046 A 
ENDROOT
BRANCH   1   7
ATOM      7  N   UNL d   1      23.553 -17.506  -1.236  0.00  0.00    -0.381 N 
ATOM      8  H   UNL d   1      22.963 -17.537  -2.073  0.00  0.00     0.160 HD
BRANCH   7   9
ATOM      9  C   UNL d   1      23.099 -18.369  -0.128  0.00  0.00     0.223 C 
BRANCH   9  10
ATOM     10  C   UNL d   1      21.729 -19.011  -0.477  0.00  0.00     0.243 C 
ATOM     11  N   UNL d   1      21.031 -19.646   0.554  0.00  0.00    -0.278 N 
ATOM     12  C   UNL d   1      19.799 -20.236   0.342  0.00  0.00     0.322 C 
ATOM     13  H   UNL d   1      21.415 -19.662   1.485  0.00  0.00     0.173 HD
ATOM     14  N   UNL d   1      19.207 -20.824   1.445  0.00  0.00    -0.347 N 
ATOM     15  O   UNL d   1      19.220 -20.273  -0.743  0.00  0.00    -0.247 OA
ATOM     16  C   UNL d   1      17.905 -21.463   1.283  0.00  0.00     0.151 C 
ATOM     17  H   UNL d   1      19.624 -20.826   2.363  0.00  0.00     0.163 HD
ATOM     18  O   UNL d   1      21.335 -18.951  -1.644  0.00  0.00    -0.271 OA
ENDBRANCH   9  10
ENDBRANCH   7   9
ENDBRANCH   1   7
BRANCH   5  19
ATOM     19  C   UNL d   1      27.011 -15.183  -3.942  0.00  0.00     0.252 C 
ATOM     20  O   UNL d   1      26.609 -15.575  -5.038  0.00  0.00    -0.268 OA
ATOM     21  N   UNL d   1      27.869 -14.105  -3.790  0.00  0.00    -0.349 N 
ATOM     22  H   UNL d   1      28.201 -13.840  -2.877  0.00  0.00     0.163 HD
BRANCH  21  23
ATOM     23  C   UNL d   1      28.383 -13.331  -4.926  0.00  0.00     0.022 C 
ATOM     24  C   UNL d   1      29.234 -12.154  -4.426  0.00  0.00     0.037 C 
ATOM     25  C   UNL d   1      29.199 -14.243  -5.850  0.00  0.00     0.037 C 
ATOM     26  C   UNL d   1      27.208 -12.754  -5.742  0.00  0.00     0.037 C 
ENDBRANCH  21  23
ENDBRANCH   5  19
TORSDOF 5
ENDMDL
MODEL 6
REMARK VINA RESULT:    -7.506      3.832      8.439
REMARK INTER + INTRA:         -10.118
REMARK INTER:                  -8.997
REMARK INTRA:                  -1.121
REMARK CONF_INDEPENDENT:        1.492
REMARK UNBOUND:                -1.121
REMARK  5 active torsions:
REMARK  status: ('A' for Active; 'I' for Inactive)
REMARK       I    between atoms: N_2  and  C_3 
REMARK       I    between atoms: C_3  and  N_5 
REMARK       I    between atoms: N_5  and  C_6 
REMARK    1  A    between atoms: C_6  and  C_8 
REMARK    2  A    between atoms: C_8  and  N_9 
REMARK    3  A    between atoms: N_9  and  C_10 
REMARK    4  A    between atoms: C_14  and  C_15 
REMARK       I    between atoms: C_15  and  N_17 
REMARK    5  A    between atoms: N_17  and  C_18 
ROOT
ATOM      1  C   UNL d   1      25.826 -16.848  -0.816  0.00  0.00     0.029 A 
ATOM      2  C   UNL d   1      26.932 -17.076  -1.649  0.00  0.00     0.029 A 
ATOM      3  C   UNL d   1      28.159 -16.437  -1.430  0.00  0.00     0.003 A 
ATOM      4  C   UNL d   1      28.283 -15.523  -0.390  0.00  0.00     0.017 A 
ATOM      5  C   UNL d   1      27.196 -15.283   0.462  0.00  0.00     0.034 A 
ATOM      6  C   UNL d   1      25.979 -15.940   0.230  0.00  0.00     0.046 A 
ENDROOT
BRANCH   1   7
ATOM      7  N   UNL d   1      24.635 -17.507  -1.060  0.00  0.00    -0.381 N 
ATOM      8  H   UNL d   1      24.352 -17.591  -2.041  0.00  0.00     0.160 HD
BRANCH   7   9
ATOM      9  C   UNL d   1      23.977 -18.457  -0.142  0.00  0.00     0.223 C 
BRANCH   9  10
ATOM     10  C   UNL d   1      22.646 -18.963  -0.761  0.00  0.00     0.243 C 
ATOM     11  N   UNL d   1      21.663 -19.433   0.114  0.00  0.00    -0.278 N 
ATOM     12  C   UNL d   1      20.442 -19.894  -0.343  0.00  0.00     0.322 C 
ATOM     13  H   UNL d   1      21.829 -19.422   1.107  0.00  0.00     0.173 HD
ATOM     14  N   UNL d   1      19.553 -20.324   0.624  0.00  0.00    -0.347 N 
ATOM     15  O   UNL d   1      20.116 -19.947  -1.527  0.00  0.00    -0.247 OA
ATOM     16  C   UNL d   1      18.247 -20.821   0.203  0.00  0.00     0.151 C 
ATOM     17  H   UNL d   1      19.755 -20.304   1.612  0.00  0.00     0.163 HD
ATOM     18  O   UNL d   1      22.528 -18.948  -1.990  0.00  0.00    -0.271 OA
ENDBRANCH   9  10
ENDBRANCH   7   9
ENDBRANCH   1   7
BRANCH   5  19
ATOM     19  C   UNL d   1      27.400 -14.363   1.613  0.00  0.00     0.252 C 
ATOM     20  O   UNL d   1      26.725 -13.333   1.663  0.00  0.00    -0.268 OA
ATOM     21  N   UNL d   1      28.347 -14.696   2.569  0.00  0.00    -0.349 N 
ATOM     22  H   UNL d   1      28.902 -15.530   2.471  0.00  0.00     0.163 HD
BRANCH  21  23
ATOM     23  C   UNL d   1      28.638 -13.847   3.731  0.00  0.00     0.022 C 
ATOM     24  C   UNL d   1      28.928 -12.408   3.278  0.00  0.00     0.037 C 
ATOM     25  C   UNL d   1      27.460 -13.887   4.712  0.00  0.00     0.037 C 
ATOM     26  C   UNL d   1      29.889 -14.374   4.464  0.00  0.00     0.037 C 
ENDBRANCH  21  23
ENDBRANCH   5  19
TORSDOF 5
ENDMDL
MODEL 7
REMARK VINA RESULT:    -7.467      4.382      8.547
REMARK INTER + INTRA:          -9.991
REMARK INTER:                  -8.958
REMARK INTRA:                  -1.033
REMARK CONF_INDEPENDENT:        1.492
REMARK UNBOUND:                -1.033
REMARK  5 active torsions:
REMARK  status: ('A' for Active; 'I' for Inactive)
REMARK       I    between atoms: N_2  and  C_3 
REMARK       I    between atoms: C_3  and  N_5 
REMARK       I    between atoms: N_5  and  C_6 
REMARK    1  A    between atoms: C_6  and  C_8 
REMARK    2  A    between atoms: C_8  and  N_9 
REMARK    3  A    between atoms: N_9  and  C_10 
REMARK    4  A    between atoms: C_14  and  C_15 
REMARK       I    between atoms: C_15  and  N_17 
REMARK    5  A    between atoms: N_17  and  C_18 
ROOT
ATOM      1  C   UNL d   1      26.858 -16.289  -0.361  0.00  0.00     0.029 A 
ATOM      2  C   UNL d   1      28.003 -16.704  -1.059  0.00  0.00     0.029 A 
ATOM      3  C   UNL d   1      29.281 -16.256  -0.704  0.00  0.00     0.003 A 
ATOM      4  C   UNL d   1      29.427 -15.346   0.337  0.00  0.00     0.017 A 
ATOM      5  C   UNL d   1      28.302 -14.921   1.055  0.00  0.00     0.034 A 
ATOM      6  C   UNL d   1      27.031 -15.388   0.688  0.00  0.00     0.046 A 
ENDROOT
BRANCH   1   7
ATOM      7  N   UNL d   1      25.615 -16.762  -0.737  0.00  0.00    -0.381 N 
ATOM      8  H   UNL d   1      25.272 -16.468  -1.656  0.00  0.00     0.160 HD
BRANCH   7   9
ATOM      9  C   UNL d   1      24.950 -17.957  -0.182  0.00  0.00     0.223 C 
BRANCH   9  10
ATOM     10  C   UNL d   1      23.435 -17.932  -0.522  0.00  0.00     0.243 C 
ATOM     11  N   UNL d   1      22.633 -18.938   0.023  0.00  0.00    -0.278 N 
ATOM     12  C   UNL d   1      21.271 -18.992  -0.214  0.00  0.00     0.322 C 
ATOM     13  H   UNL d   1      23.042 -19.636   0.623  0.00  0.00     0.173 HD
ATOM     14  N   UNL d   1      20.589 -20.032   0.389  0.00  0.00    -0.347 N 
ATOM     15  O   UNL d   1      20.654 -18.193  -0.916  0.00  0.00    -0.247 OA
ATOM     16  C   UNL d   1      19.149 -20.141   0.176  0.00  0.00     0.151 C 
ATOM     17  H   UNL d   1      21.033 -20.718   0.980  0.00  0.00     0.163 HD
ATOM     18  O   UNL d   1      23.018 -17.044  -1.270  0.00  0.00    -0.271 OA
ENDBRANCH   9  10
ENDBRANCH   7   9
ENDBRANCH   1   7
BRANCH   5  19
ATOM     19  C   UNL d   1      28.514 -14.014   2.216  0.00  0.00     0.252 C 
ATOM     20  O   UNL d   1      28.505 -12.799   2.015  0.00  0.00    -0.268 OA
ATOM     21  N   UNL d   1      28.727 -14.575   3.465  0.00  0.00    -0.349 N 
ATOM     22  H   UNL d   1      28.761 -15.575   3.578  0.00  0.00     0.163 HD
BRANCH  21  23
ATOM     23  C   UNL d   1      28.966 -13.770   4.669  0.00  0.00     0.022 C 
ATOM     24  C   UNL d   1      30.276 -12.981   4.529  0.00  0.00     0.037 C 
ATOM     25  C   UNL d   1      27.780 -12.827   4.908  0.00  0.00     0.037 C 
ATOM     26  C   UNL d   1      29.097 -14.693   5.898  0.00  0.00     0.037 C 
ENDBRANCH  21  23
ENDBRANCH   5  19
TORSDOF 5
ENDMDL
MODEL 8
REMARK VINA RESULT:    -7.357      2.953      8.637
REMARK INTER + INTRA:          -9.537
REMARK INTER:                  -8.848
REMARK INTRA:                  -0.689
REMARK CONF_INDEPENDENT:        1.492
REMARK UNBOUND:                -0.689
REMARK  5 active torsions:
REMARK  status: ('A' for Active; 'I' for Inactive)
REMARK       I    between atoms: N_2  and  C_3 
REMARK       I    between atoms: C_3  and  N_5 
REMARK       I    between atoms: N_5  and  C_6 
REMARK    1  A    between atoms: C_6  and  C_8 
REMARK    2  A    between atoms: C_8  and  N_9 
REMARK    3  A    between atoms: N_9  and  C_10 
REMARK    4  A    between atoms: C_14  and  C_15 
REMARK       I    between atoms: C_15  and  N_17 
REMARK    5  A    between atoms: N_17  and  C_18 
ROOT
ATOM      1  C   UNL d   1      25.736 -15.356  -1.692  0.00  0.00     0.029 A 
ATOM      2  C   UNL d   1      25.552 -16.064  -2.889  0.00  0.00     0.029 A 
ATOM      3  C   UNL d   1      25.607 -15.427  -4.135  0.00  0.00     0.003 A 
ATOM      4  C   UNL d   1      25.807 -14.053  -4.196  0.00  0.00     0.017 A 
ATOM      5  C   UNL d   1      26.003 -13.322  -3.016  0.00  0.00     0.034 A 
ATOM      6  C   UNL d   1      25.952 -13.982  -1.780  0.00  0.00     0.046 A 
ENDROOT
BRANCH   1   7
ATOM      7  N   UNL d   1      25.685 -16.025  -0.483  0.00  0.00    -0.381 N 
ATOM      8  H   UNL d   1      25.717 -15.446   0.362  0.00  0.00     0.160 HD
BRANCH   7   9
ATOM      9  C   UNL d   1      25.155 -17.388  -0.280  0.00  0.00     0.223 C 
BRANCH   9  10
ATOM     10  C   UNL d   1      23.629 -17.416  -0.565  0.00  0.00     0.243 C 
ATOM     11  N   UNL d   1      22.912 -18.536  -0.136  0.00  0.00    -0.278 N 
ATOM     12  C   UNL d   1      21.548 -18.647  -0.335  0.00  0.00     0.322 C 
ATOM     13  H   UNL d   1      23.386 -19.280   0.350  0.00  0.00     0.173 HD
ATOM     14  N   UNL d   1      20.954 -19.800   0.143  0.00  0.00    -0.347 N 
ATOM     15  O   UNL d   1      20.855 -17.804  -0.903  0.00  0.00    -0.247 OA
ATOM     16  C   UNL d   1      19.517 -19.974  -0.037  0.00  0.00     0.151 C 
ATOM     17  H   UNL d   1      21.462 -20.529   0.622  0.00  0.00     0.163 HD
ATOM     18  O   UNL d   1      23.129 -16.466  -1.173  0.00  0.00    -0.271 OA
ENDBRANCH   9  10
ENDBRANCH   7   9
ENDBRANCH   1   7
BRANCH   5  19
ATOM     19  C   UNL d   1      26.301 -11.869  -3.134  0.00  0.00     0.252 C 
ATOM     20  O   UNL d   1      27.202 -11.401  -2.438  0.00  0.00    -0.268 OA
ATOM     21  N   UNL d   1      25.543 -11.106  -4.009  0.00  0.00    -0.349 N 
ATOM     22  H   UNL d   1      24.792 -11.523  -4.533  0.00  0.00     0.163 HD
BRANCH  21  23
ATOM     23  C   UNL d   1      25.743  -9.662  -4.183  0.00  0.00     0.022 C 
ATOM     24  C   UNL d   1      24.774  -9.117  -5.242  0.00  0.00     0.037 C 
ATOM     25  C   UNL d   1      25.550  -8.945  -2.841  0.00  0.00     0.037 C 
ATOM     26  C   UNL d   1      27.181  -9.388  -4.669  0.00  0.00     0.037 C 
ENDBRANCH  21  23
ENDBRANCH   5  19
TORSDOF 5
ENDMDL
MODEL 9
REMARK VINA RESULT:    -7.098      1.633      8.861
REMARK INTER + INTRA:          -9.681
REMARK INTER:                  -8.589
REMARK INTRA:                  -1.092
REMARK CONF_INDEPENDENT:        1.492
REMARK UNBOUND:                -1.092
REMARK  5 active torsions:
REMARK  status: ('A' for Active; 'I' for Inactive)
REMARK       I    between atoms: N_2  and  C_3 
REMARK       I    between atoms: C_3  and  N_5 
REMARK       I    between atoms: N_5  and  C_6 
REMARK    1  A    between atoms: C_6  and  C_8 
REMARK    2  A    between atoms: C_8  and  N_9 
REMARK    3  A    between atoms: N_9  and  C_10 
REMARK    4  A    between atoms: C_14  and  C_15 
REMARK       I    between atoms: C_15  and  N_17 
REMARK    5  A    between atoms: N_17  and  C_18 
ROOT
ATOM      1  C   UNL d   1      25.891 -15.829  -1.161  0.00  0.00     0.029 A 
ATOM      2  C   UNL d   1      26.783 -15.302  -0.214  0.00  0.00     0.029 A 
ATOM      3  C   UNL d   1      28.042 -14.815  -0.584  0.00  0.00     0.003 A 
ATOM      4  C   UNL d   1      28.445 -14.887  -1.913  0.00  0.00     0.017 A 
ATOM      5  C   UNL d   1      27.571 -15.401  -2.880  0.00  0.00     0.034 A 
ATOM      6  C   UNL d   1      26.311 -15.877  -2.489  0.00  0.00     0.046 A 
ENDROOT
BRANCH   1   7
ATOM      7  N   UNL d   1      24.653 -16.291  -0.756  0.00  0.00    -0.381 N 
ATOM      8  H   UNL d   1      23.852 -15.681  -0.946  0.00  0.00     0.160 HD
BRANCH   7   9
ATOM      9  C   UNL d   1      24.307 -17.703  -0.498  0.00  0.00     0.223 C 
BRANCH   9  10
ATOM     10  C   UNL d   1      22.769 -17.900  -0.575  0.00  0.00     0.243 C 
ATOM     11  N   UNL d   1      22.236 -19.062  -0.011  0.00  0.00    -0.278 N 
ATOM     12  C   UNL d   1      20.877 -19.319  -0.022  0.00  0.00     0.322 C 
ATOM     13  H   UNL d   1      22.845 -19.727   0.436  0.00  0.00     0.173 HD
ATOM     14  N   UNL d   1      20.476 -20.499   0.576  0.00  0.00    -0.347 N 
ATOM     15  O   UNL d   1      20.032 -18.581  -0.525  0.00  0.00    -0.247 OA
ATOM     16  C   UNL d   1      19.054 -20.825   0.595  0.00  0.00     0.151 C 
ATOM     17  H   UNL d   1      21.116 -21.147   1.010  0.00  0.00     0.163 HD
ATOM     18  O   UNL d   1      22.097 -17.038  -1.148  0.00  0.00    -0.271 OA
ENDBRANCH   9  10
ENDBRANCH   7   9
ENDBRANCH   1   7
BRANCH   5  19
ATOM     19  C   UNL d   1      28.010 -15.380  -4.302  0.00  0.00     0.252 C 
ATOM     20  O   UNL d   1      27.164 -15.575  -5.176  0.00  0.00    -0.268 OA
ATOM     21  N   UNL d   1      29.350 -15.157  -4.579  0.00  0.00    -0.349 N 
ATOM     22  H   UNL d   1      30.014 -15.037  -3.832  0.00  0.00     0.163 HD
BRANCH  21  23
ATOM     23  C   UNL d   1      29.888 -15.137  -5.944  0.00  0.00     0.022 C 
ATOM     24  C   UNL d   1      31.233 -14.397  -5.975  0.00  0.00     0.037 C 
ATOM     25  C   UNL d   1      30.040 -16.573  -6.464  0.00  0.00     0.037 C 
ATOM     26  C   UNL d   1      28.914 -14.392  -6.880  0.00  0.00     0.037 C 
ENDBRANCH  21  23
ENDBRANCH   5  19
TORSDOF 5
ENDMDL
