MODEL 1
REMARK VINA RESULT:    -8.257      0.000      0.000
REMARK INTER + INTRA:         -10.522
REMARK INTER:                  -9.450
REMARK INTRA:                  -1.072
REMARK CONF_INDEPENDENT:        1.193
REMARK UNBOUND:                -1.072
REMARK  4 active torsions:
REMARK  status: ('A' for Active; 'I' for Inactive)
REMARK    1  A    between atoms: C_7  and  N_8 
REMARK       I    between atoms: N_8  and  C_9 
REMARK    2  A    between atoms: C_9  and  C_11 
REMARK    3  A    between atoms: C_11  and  N_13 
REMARK       I    between atoms: N_13  and  C_14 
REMARK    4  A    between atoms: C_14  and  C_16 
ROOT
ATOM      1  C   UNL d   1      27.225 -15.968  -0.095  0.00  0.00     0.173 C 
ATOM      2  C   UNL d   1      26.690 -17.216   0.548  0.00  0.00     0.042 C 
ENDROOT
BRANCH   1   3
ATOM      3  C   UNL d   1      27.187 -14.888   0.973  0.00  0.00     0.244 C 
ATOM      4  N   UNL d   1      27.951 -15.055   2.132  0.00  0.00    -0.325 N 
ATOM      5  H   UNL d   1      28.530 -15.886   2.191  0.00  0.00     0.169 HD
ATOM      6  O   UNL d   1      26.443 -13.957   0.665  0.00  0.00    -0.271 OA
BRANCH   4   7
ATOM      7  C   UNL d   1      28.025 -14.213   3.296  0.00  0.00     0.040 A 
ATOM      8  C   UNL d   1      28.138 -14.825   4.565  0.00  0.00     0.030 A 
ATOM      9  C   UNL d   1      28.257 -14.052   5.740  0.00  0.00     0.002 A 
ATOM     10  C   UNL d   1      28.249 -12.665   5.675  0.00  0.00     0.001 A 
ATOM     11  C   UNL d   1      28.117 -12.053   4.445  0.00  0.00     0.009 A 
ATOM     12  C   UNL d   1      28.004 -12.806   3.270  0.00  0.00    -0.035 A 
ATOM     13  C   UNL d   1      27.881 -11.984   2.039  0.00  0.00     0.050 C 
ENDBRANCH   4   7
ENDBRANCH   1   3
BRANCH   1  14
ATOM     14  N   UNL d   1      26.351 -15.420  -1.203  0.00  0.00    -0.344 N 
ATOM     15  C   UNL d   1      25.472 -16.065  -2.053  0.00  0.00     0.252 C 
ATOM     16  O   UNL d   1      25.552 -15.947  -3.257  0.00  0.00    -0.268 OA
ATOM     17  H   UNL d   1      26.814 -14.640  -1.681  0.00  0.00     0.163 HD
BRANCH  15  18
ATOM     18  C   UNL d   1      24.348 -16.821  -1.433  0.00  0.00     0.032 C 
ATOM     19  C   UNL d   1      23.219 -16.191  -0.928  0.00  0.00     0.018 C 
ATOM     20  C   UNL d   1      22.154 -16.975  -0.456  0.00  0.00     0.025 C 
ATOM     21  C   UNL d   1      22.174 -18.364  -0.605  0.00  0.00     0.034 C 
ATOM     22 CL   UNL d   1      20.860 -19.339  -0.085  0.00  0.00    -0.084 Cl
ATOM     23  C   UNL d   1      23.313 -18.985  -1.070  0.00  0.00     0.025 C 
ATOM     24  C   UNL d   1      24.438 -18.198  -1.271  0.00  0.00     0.018 C 
ENDBRANCH  15  18
ENDBRANCH   1  14
TORSDOF 4
ENDMDL
MODEL 2
REMARK VINA RESULT:    -7.646      4.493      7.098
REMARK INTER + INTRA:         -10.112
REMARK INTER:                  -8.840
REMARK INTRA:                  -1.273
REMARK CONF_INDEPENDENT:        1.193
REMARK UNBOUND:                -1.273
REMARK  4 active torsions:
REMARK  status: ('A' for Active; 'I' for Inactive)
REMARK    1  A    between atoms: C_7  and  N_8 
REMARK       I    between atoms: N_8  and  C_9 
REMARK    2  A    between atoms: C_9  and  C_11 
REMARK    3  A    between atoms: C_11  and  N_13 
REMARK       I    between atoms: N_13  and  C_14 
REMARK    4  A    between atoms: C_14  and  C_16 
ROOT
ATOM      1  C   UNL d   1      25.887 -12.733  -3.040  0.00  0.00     0.173 C 
ATOM      2  C   UNL d   1      27.342 -12.893  -2.701  0.00  0.00     0.042 C 
ENDROOT
BRANCH   1   3
ATOM      3  C   UNL d   1      25.234 -14.077  -2.761  0.00  0.00     0.244 C 
ATOM      4  N   UNL d   1      25.525 -14.735  -1.562  0.00  0.00    -0.325 N 
ATOM      5  H   UNL d   1      26.142 -14.261  -0.911  0.00  0.00     0.169 HD
ATOM      6  O   UNL d   1      24.497 -14.433  -3.680  0.00  0.00    -0.271 OA
BRANCH   4   7
ATOM      7  C   UNL d   1      25.088 -16.028  -1.112  0.00  0.00     0.040 A 
ATOM      8  C   UNL d   1      23.726 -16.373  -1.270  0.00  0.00     0.030 A 
ATOM      9  C   UNL d   1      23.246 -17.644  -0.887  0.00  0.00     0.002 A 
ATOM     10  C   UNL d   1      24.103 -18.582  -0.328  0.00  0.00     0.001 A 
ATOM     11  C   UNL d   1      25.430 -18.252  -0.147  0.00  0.00     0.009 A 
ATOM     12  C   UNL d   1      25.924 -16.998  -0.528  0.00  0.00    -0.035 A 
ATOM     13  C   UNL d   1      27.375 -16.820  -0.270  0.00  0.00     0.050 C 
ENDBRANCH   4   7
ENDBRANCH   1   3
BRANCH   1  14
ATOM     14  N   UNL d   1      25.619 -12.492  -4.511  0.00  0.00    -0.344 N 
ATOM     15  C   UNL d   1      26.496 -12.322  -5.566  0.00  0.00     0.252 C 
ATOM     16  O   UNL d   1      26.427 -11.359  -6.298  0.00  0.00    -0.268 OA
ATOM     17  H   UNL d   1      24.779 -11.918  -4.638  0.00  0.00     0.163 HD
BRANCH  15  18
ATOM     18  C   UNL d   1      27.459 -13.425  -5.841  0.00  0.00     0.032 C 
ATOM     19  C   UNL d   1      28.494 -13.295  -6.757  0.00  0.00     0.018 C 
ATOM     20  C   UNL d   1      29.426 -14.337  -6.885  0.00  0.00     0.025 C 
ATOM     21  C   UNL d   1      29.389 -15.434  -6.019  0.00  0.00     0.034 C 
ATOM     22 CL   UNL d   1      30.550 -16.694  -6.121  0.00  0.00    -0.084 Cl
ATOM     23  C   UNL d   1      28.336 -15.575  -5.141  0.00  0.00     0.025 C 
ATOM     24  C   UNL d   1      27.295 -14.664  -5.232  0.00  0.00     0.018 C 
ENDBRANCH  15  18
ENDBRANCH   1  14
TORSDOF 4
ENDMDL
MODEL 3
REMARK VINA RESULT:    -7.532      4.067      6.081
REMARK INTER + INTRA:         -10.344
REMARK INTER:                  -8.725
REMARK INTRA:                  -1.619
REMARK CONF_INDEPENDENT:        1.193
REMARK UNBOUND:                -1.619
REMARK  4 active torsions:
REMARK  status: ('A' for Active; 'I' for Inactive)
REMARK    1  A    between atoms: C_7  and  N_8 
REMARK       I    between atoms: N_8  and  C_9 
REMARK    2  A    between atoms: C_9  and  C_11 
REMARK    3  A    between atoms: C_11  and  N_13 
REMARK       I    between atoms: N_13  and  C_14 
REMARK    4  A    between atoms: C_14  and  C_16 
ROOT
ATOM      1  C   UNL d   1      25.495 -14.724  -3.281  0.00  0.00     0.173 C 
ATOM      2  C   UNL d   1      25.875 -15.139  -4.673  0.00  0.00     0.042 C 
ENDROOT
BRANCH   1   3
ATOM      3  C   UNL d   1      25.953 -13.284  -3.124  0.00  0.00     0.244 C 
ATOM      4  N   UNL d   1      25.416 -12.307  -3.968  0.00  0.00    -0.325 N 
ATOM      5  H   UNL d   1      24.710 -12.606  -4.633  0.00  0.00     0.169 HD
ATOM      6  O   UNL d   1      26.787 -13.158  -2.227  0.00  0.00    -0.271 OA
BRANCH   4   7
ATOM      7  C   UNL d   1      25.739 -10.909  -4.053  0.00  0.00     0.040 A 
ATOM      8  C   UNL d   1      25.907 -10.180  -2.852  0.00  0.00     0.030 A 
ATOM      9  C   UNL d   1      26.267  -8.816  -2.871  0.00  0.00     0.002 A 
ATOM     10  C   UNL d   1      26.449  -8.151  -4.076  0.00  0.00     0.001 A 
ATOM     11  C   UNL d   1      26.267  -8.843  -5.256  0.00  0.00     0.009 A 
ATOM     12  C   UNL d   1      25.916 -10.199  -5.255  0.00  0.00    -0.035 A 
ATOM     13  C   UNL d   1      25.772 -10.784  -6.612  0.00  0.00     0.050 C 
ENDBRANCH   4   7
ENDBRANCH   1   3
BRANCH   1  14
ATOM     14  N   UNL d   1      26.238 -15.467  -2.190  0.00  0.00    -0.344 N 
ATOM     15  C   UNL d   1      25.816 -15.884  -0.942  0.00  0.00     0.252 C 
ATOM     16  O   UNL d   1      26.424 -15.588   0.064  0.00  0.00    -0.268 OA
ATOM     17  H   UNL d   1      27.225 -15.190  -2.168  0.00  0.00     0.163 HD
BRANCH  15  18
ATOM     18  C   UNL d   1      24.648 -16.808  -0.886  0.00  0.00     0.032 C 
ATOM     19  C   UNL d   1      24.791 -18.171  -0.663  0.00  0.00     0.018 C 
ATOM     20  C   UNL d   1      23.640 -18.961  -0.516  0.00  0.00     0.025 C 
ATOM     21  C   UNL d   1      22.374 -18.371  -0.468  0.00  0.00     0.034 C 
ATOM     22 CL   UNL d   1      20.957 -19.312  -0.235  0.00  0.00    -0.084 Cl
ATOM     23  C   UNL d   1      22.238 -17.025  -0.730  0.00  0.00     0.025 C 
ATOM     24  C   UNL d   1      23.368 -16.332  -1.137  0.00  0.00     0.018 C 
ENDBRANCH  15  18
ENDBRANCH   1  14
TORSDOF 4
ENDMDL
MODEL 4
REMARK VINA RESULT:    -7.401      1.463      1.852
REMARK INTER + INTRA:         -10.138
REMARK INTER:                  -8.594
REMARK INTRA:                  -1.544
REMARK CONF_INDEPENDENT:        1.193
REMARK UNBOUND:                -1.544
REMARK  4 active torsions:
REMARK  status: ('A' for Active; 'I' for Inactive)
REMARK    1  A    between atoms: C_7  and  N_8 
REMARK       I    between atoms: N_8  and  C_9 
REMARK    2  A    between atoms: C_9  and  C_11 
REMARK    3  A    between atoms: C_11  and  N_13 
REMARK       I    between atoms: N_13  and  C_14 
REMARK    4  A    between atoms: C_14  and  C_16 
ROOT
ATOM      1  C   UNL d   1      26.631 -14.334   0.319  0.00  0.00     0.173 C 
ATOM      2  C   UNL d   1      26.933 -13.054  -0.406  0.00  0.00     0.042 C 
ENDROOT
BRANCH   1   3
ATOM      3  C   UNL d   1      27.529 -14.352   1.545  0.00  0.00     0.244 C 
ATOM      4  N   UNL d   1      27.041 -13.833   2.748  0.00  0.00    -0.325 N 
ATOM      5  H   UNL d   1      26.084 -13.494   2.754  0.00  0.00     0.169 HD
ATOM      6  O   UNL d   1      28.631 -14.844   1.305  0.00  0.00    -0.271 OA
BRANCH   4   7
ATOM      7  C   UNL d   1      27.718 -13.682   4.008  0.00  0.00     0.040 A 
ATOM      8  C   UNL d   1      28.067 -14.846   4.731  0.00  0.00     0.030 A 
ATOM      9  C   UNL d   1      28.770 -14.763   5.951  0.00  0.00     0.002 A 
ATOM     10  C   UNL d   1      29.121 -13.528   6.480  0.00  0.00     0.001 A 
ATOM     11  C   UNL d   1      28.768 -12.382   5.797  0.00  0.00     0.009 A 
ATOM     12  C   UNL d   1      28.076 -12.448   4.581  0.00  0.00    -0.035 A 
ATOM     13  C   UNL d   1      27.788 -11.120   3.982  0.00  0.00     0.050 C 
ENDBRANCH   4   7
ENDBRANCH   1   3
BRANCH   1  14
ATOM     14  N   UNL d   1      27.024 -15.582  -0.443  0.00  0.00    -0.344 N 
ATOM     15  C   UNL d   1      26.659 -16.902  -0.251  0.00  0.00     0.252 C 
ATOM     16  O   UNL d   1      27.488 -17.778  -0.132  0.00  0.00    -0.268 OA
ATOM     17  H   UNL d   1      27.991 -15.516  -0.776  0.00  0.00     0.163 HD
BRANCH  15  18
ATOM     18  C   UNL d   1      25.206 -17.227  -0.311  0.00  0.00     0.032 C 
ATOM     19  C   UNL d   1      24.261 -16.319  -0.767  0.00  0.00     0.018 C 
ATOM     20  C   UNL d   1      22.926 -16.732  -0.897  0.00  0.00     0.025 C 
ATOM     21  C   UNL d   1      22.572 -18.069  -0.692  0.00  0.00     0.034 C 
ATOM     22 CL   UNL d   1      20.956 -18.609  -0.897  0.00  0.00    -0.084 Cl
ATOM     23  C   UNL d   1      23.507 -18.955  -0.202  0.00  0.00     0.025 C 
ATOM     24  C   UNL d   1      24.743 -18.446   0.169  0.00  0.00     0.018 C 
ENDBRANCH  15  18
ENDBRANCH   1  14
TORSDOF 4
ENDMDL
MODEL 5
REMARK VINA RESULT:    -7.298      1.585      2.329
REMARK INTER + INTRA:         -10.177
REMARK INTER:                  -8.491
REMARK INTRA:                  -1.686
REMARK CONF_INDEPENDENT:        1.193
REMARK UNBOUND:                -1.686
REMARK  4 active torsions:
REMARK  status: ('A' for Active; 'I' for Inactive)
REMARK    1  A    between atoms: C_7  and  N_8 
REMARK       I    between atoms: N_8  and  C_9 
REMARK    2  A    between atoms: C_9  and  C_11 
REMARK    3  A    between atoms: C_11  and  N_13 
REMARK       I    between atoms: N_13  and  C_14 
REMARK    4  A    between atoms: C_14  and  C_16 
ROOT
ATOM      1  C   UNL d   1      26.478 -14.117  -0.367  0.00  0.00     0.173 C 
ATOM      2  C   UNL d   1      26.970 -13.073  -1.328  0.00  0.00     0.042 C 
ENDROOT
BRANCH   1   3
ATOM      3  C   UNL d   1      26.905 -13.658   1.018  0.00  0.00     0.244 C 
ATOM      4  N   UNL d   1      27.781 -14.460   1.756  0.00  0.00    -0.325 N 
ATOM      5  H   UNL d   1      28.120 -15.307   1.312  0.00  0.00     0.169 HD
ATOM      6  O   UNL d   1      26.393 -12.583   1.328  0.00  0.00    -0.271 OA
BRANCH   4   7
ATOM      7  C   UNL d   1      28.267 -14.272   3.096  0.00  0.00     0.040 A 
ATOM      8  C   UNL d   1      27.326 -14.079   4.134  0.00  0.00     0.030 A 
ATOM      9  C   UNL d   1      27.740 -13.932   5.476  0.00  0.00     0.002 A 
ATOM     10  C   UNL d   1      29.089 -13.957   5.804  0.00  0.00     0.001 A 
ATOM     11  C   UNL d   1      30.019 -14.122   4.799  0.00  0.00     0.009 A 
ATOM     12  C   UNL d   1      29.625 -14.276   3.464  0.00  0.00    -0.035 A 
ATOM     13  C   UNL d   1      30.757 -14.452   2.519  0.00  0.00     0.050 C 
ENDBRANCH   4   7
ENDBRANCH   1   3
BRANCH   1  14
ATOM     14  N   UNL d   1      27.145 -15.468  -0.528  0.00  0.00    -0.344 N 
ATOM     15  C   UNL d   1      26.809 -16.702  -0.004  0.00  0.00     0.252 C 
ATOM     16  O   UNL d   1      27.610 -17.365   0.620  0.00  0.00    -0.268 OA
ATOM     17  H   UNL d   1      28.163 -15.365  -0.596  0.00  0.00     0.163 HD
BRANCH  15  18
ATOM     18  C   UNL d   1      25.459 -17.241  -0.331  0.00  0.00     0.032 C 
ATOM     19  C   UNL d   1      25.126 -18.574  -0.137  0.00  0.00     0.018 C 
ATOM     20  C   UNL d   1      23.804 -18.987  -0.367  0.00  0.00     0.025 C 
ATOM     21  C   UNL d   1      22.809 -18.051  -0.664  0.00  0.00     0.034 C 
ATOM     22 CL   UNL d   1      21.175 -18.525  -0.896  0.00  0.00    -0.084 Cl
ATOM     23  C   UNL d   1      23.154 -16.737  -0.893  0.00  0.00     0.025 C 
ATOM     24  C   UNL d   1      24.505 -16.422  -0.922  0.00  0.00     0.018 C 
ENDBRANCH  15  18
ENDBRANCH   1  14
TORSDOF 4
ENDMDL
MODEL 6
REMARK VINA RESULT:    -7.227      3.230      5.736
REMARK INTER + INTRA:          -9.953
REMARK INTER:                  -8.421
REMARK INTRA:                  -1.532
REMARK CONF_INDEPENDENT:        1.193
REMARK UNBOUND:                -1.532
REMARK  4 active torsions:
REMARK  status: ('A' for Active; 'I' for Inactive)
REMARK    1  A    between atoms: C_7  and  N_8 
REMARK       I    between atoms: N_8  and  C_9 
REMARK    2  A    between atoms: C_9  and  C_11 
REMARK    3  A    between atoms: C_11  and  N_13 
REMARK       I    between atoms: N_13  and  C_14 
REMARK    4  A    between atoms: C_14  and  C_16 
ROOT
ATOM      1  C   UNL d   1      28.903 -17.319  -1.123  0.00  0.00     0.173 C 
ATOM      2  C   UNL d   1      30.401 -17.431  -1.148  0.00  0.00     0.042 C 
ENDROOT
BRANCH   1   3
ATOM      3  C   UNL d   1      28.551 -16.116  -1.982  0.00  0.00     0.244 C 
ATOM      4  N   UNL d   1      27.257 -16.014  -2.503  0.00  0.00    -0.325 N 
ATOM      5  H   UNL d   1      26.596 -16.741  -2.251  0.00  0.00     0.169 HD
ATOM      6  O   UNL d   1      29.503 -15.349  -2.119  0.00  0.00    -0.271 OA
BRANCH   4   7
ATOM      7  C   UNL d   1      26.715 -15.016  -3.385  0.00  0.00     0.040 A 
ATOM      8  C   UNL d   1      25.538 -14.337  -2.994  0.00  0.00     0.030 A 
ATOM      9  C   UNL d   1      24.982 -13.318  -3.797  0.00  0.00     0.002 A 
ATOM     10  C   UNL d   1      25.573 -12.971  -5.004  0.00  0.00     0.001 A 
ATOM     11  C   UNL d   1      26.710 -13.641  -5.411  0.00  0.00     0.009 A 
ATOM     12  C   UNL d   1      27.277 -14.649  -4.622  0.00  0.00    -0.035 A 
ATOM     13  C   UNL d   1      28.501 -15.253  -5.208  0.00  0.00     0.050 C 
ENDBRANCH   4   7
ENDBRANCH   1   3
BRANCH   1  14
ATOM     14  N   UNL d   1      28.332 -16.979   0.238  0.00  0.00    -0.344 N 
ATOM     15  C   UNL d   1      27.155 -16.342   0.582  0.00  0.00     0.252 C 
ATOM     16  O   UNL d   1      27.147 -15.376   1.314  0.00  0.00    -0.268 OA
ATOM     17  H   UNL d   1      29.080 -16.744   0.899  0.00  0.00     0.163 HD
BRANCH  15  18
ATOM     18  C   UNL d   1      25.881 -16.957   0.113  0.00  0.00     0.032 C 
ATOM     19  C   UNL d   1      25.631 -18.318   0.218  0.00  0.00     0.018 C 
ATOM     20  C   UNL d   1      24.367 -18.809  -0.145  0.00  0.00     0.025 C 
ATOM     21  C   UNL d   1      23.335 -17.931  -0.487  0.00  0.00     0.034 C 
ATOM     22 CL   UNL d   1      21.766 -18.505  -0.883  0.00  0.00    -0.084 Cl
ATOM     23  C   UNL d   1      23.601 -16.586  -0.627  0.00  0.00     0.025 C 
ATOM     24  C   UNL d   1      24.922 -16.177  -0.523  0.00  0.00     0.018 C 
ENDBRANCH  15  18
ENDBRANCH   1  14
TORSDOF 4
ENDMDL
MODEL 7
REMARK VINA RESULT:    -7.094      2.373      3.712
REMARK INTER + INTRA:         -10.166
REMARK INTER:                  -8.287
REMARK INTRA:                  -1.879
REMARK CONF_INDEPENDENT:        1.193
REMARK UNBOUND:                -1.879
REMARK  4 active torsions:
REMARK  status: ('A' for Active; 'I' for Inactive)
REMARK    1  A    between atoms: C_7  and  N_8 
REMARK       I    between atoms: N_8  and  C_9 
REMARK    2  A    between atoms: C_9  and  C_11 
REMARK    3  A    between atoms: C_11  and  N_13 
REMARK       I    between atoms: N_13  and  C_14 
REMARK    4  A    between atoms: C_14  and  C_16 
ROOT
ATOM      1  C   UNL d   1      25.531 -15.389  -3.333  0.00  0.00     0.173 C 
ATOM      2  C   UNL d   1      26.089 -15.425  -4.727  0.00  0.00     0.042 C 
ENDROOT
BRANCH   1   3
ATOM      3  C   UNL d   1      25.847 -14.009  -2.781  0.00  0.00     0.244 C 
ATOM      4  N   UNL d   1      26.657 -13.904  -1.646  0.00  0.00    -0.325 N 
ATOM      5  H   UNL d   1      27.027 -14.766  -1.258  0.00  0.00     0.169 HD
ATOM      6  O   UNL d   1      25.317 -13.114  -3.438  0.00  0.00    -0.271 OA
BRANCH   4   7
ATOM      7  C   UNL d   1      27.035 -12.728  -0.910  0.00  0.00     0.040 A 
ATOM      8  C   UNL d   1      27.255 -11.528  -1.625  0.00  0.00     0.030 A 
ATOM      9  C   UNL d   1      27.586 -10.330  -0.955  0.00  0.00     0.002 A 
ATOM     10  C   UNL d   1      27.720 -10.310   0.427  0.00  0.00     0.001 A 
ATOM     11  C   UNL d   1      27.530 -11.478   1.136  0.00  0.00     0.009 A 
ATOM     12  C   UNL d   1      27.195 -12.673   0.487  0.00  0.00    -0.035 A 
ATOM     13  C   UNL d   1      27.018 -13.827   1.405  0.00  0.00     0.050 C 
ENDBRANCH   4   7
ENDBRANCH   1   3
BRANCH   1  14
ATOM     14  N   UNL d   1      26.215 -16.336  -2.369  0.00  0.00    -0.344 N 
ATOM     15  C   UNL d   1      25.905 -16.663  -1.062  0.00  0.00     0.252 C 
ATOM     16  O   UNL d   1      26.725 -16.571  -0.174  0.00  0.00    -0.268 OA
ATOM     17  H   UNL d   1      27.229 -16.332  -2.513  0.00  0.00     0.163 HD
BRANCH  15  18
ATOM     18  C   UNL d   1      24.558 -17.245  -0.802  0.00  0.00     0.032 C 
ATOM     19  C   UNL d   1      23.397 -16.487  -0.867  0.00  0.00     0.018 C 
ATOM     20  C   UNL d   1      22.156 -17.126  -0.716  0.00  0.00     0.025 C 
ATOM     21  C   UNL d   1      22.081 -18.519  -0.626  0.00  0.00     0.034 C 
ATOM     22 CL   UNL d   1      20.571 -19.326  -0.495  0.00  0.00    -0.084 Cl
ATOM     23  C   UNL d   1      23.237 -19.260  -0.522  0.00  0.00     0.025 C 
ATOM     24  C   UNL d   1      24.435 -18.571  -0.404  0.00  0.00     0.018 C 
ENDBRANCH  15  18
ENDBRANCH   1  14
TORSDOF 4
ENDMDL
MODEL 8
REMARK VINA RESULT:    -7.040      5.066      7.459
REMARK INTER + INTRA:         -10.008
REMARK INTER:                  -8.233
REMARK INTRA:                  -1.775
REMARK CONF_INDEPENDENT:        1.193
REMARK UNBOUND:                -1.775
REMARK  4 active torsions:
REMARK  status: ('A' for Active; 'I' for Inactive)
REMARK    1  A    between atoms: C_7  and  N_8 
REMARK       I    between atoms: N_8  and  C_9 
REMARK    2  A    between atoms: C_9  and  C_11 
REMARK    3  A    between atoms: C_11  and  N_13 
REMARK       I    between atoms: N_13  and  C_14 
REMARK    4  A    between atoms: C_14  and  C_16 
ROOT
ATOM      1  C   UNL d   1      26.990 -14.613  -4.412  0.00  0.00     0.173 C 
ATOM      2  C   UNL d   1      26.645 -13.168  -4.632  0.00  0.00     0.042 C 
ENDROOT
BRANCH   1   3
ATOM      3  C   UNL d   1      25.905 -15.179  -3.512  0.00  0.00     0.244 C 
ATOM      4  N   UNL d   1      26.273 -16.005  -2.446  0.00  0.00    -0.325 N 
ATOM      5  H   UNL d   1      27.265 -16.163  -2.302  0.00  0.00     0.169 HD
ATOM      6  O   UNL d   1      24.780 -14.822  -3.861  0.00  0.00    -0.271 OA
BRANCH   4   7
ATOM      7  C   UNL d   1      25.433 -16.704  -1.511  0.00  0.00     0.040 A 
ATOM      8  C   UNL d   1      24.031 -16.580  -1.641  0.00  0.00     0.030 A 
ATOM      9  C   UNL d   1      23.154 -17.275  -0.781  0.00  0.00     0.002 A 
ATOM     10  C   UNL d   1      23.654 -18.087   0.228  0.00  0.00     0.001 A 
ATOM     11  C   UNL d   1      25.020 -18.200   0.382  0.00  0.00     0.009 A 
ATOM     12  C   UNL d   1      25.903 -17.522  -0.467  0.00  0.00    -0.035 A 
ATOM     13  C   UNL d   1      27.336 -17.767  -0.164  0.00  0.00     0.050 C 
ENDBRANCH   4   7
ENDBRANCH   1   3
BRANCH   1  14
ATOM     14  N   UNL d   1      28.268 -14.831  -3.628  0.00  0.00    -0.344 N 
ATOM     15  C   UNL d   1      29.068 -15.952  -3.511  0.00  0.00     0.252 C 
ATOM     16  O   UNL d   1      29.366 -16.407  -2.428  0.00  0.00    -0.268 OA
ATOM     17  H   UNL d   1      28.252 -14.301  -2.751  0.00  0.00     0.163 HD
BRANCH  15  18
ATOM     18  C   UNL d   1      29.646 -16.516  -4.763  0.00  0.00     0.032 C 
ATOM     19  C   UNL d   1      29.753 -15.773  -5.931  0.00  0.00     0.018 C 
ATOM     20  C   UNL d   1      30.406 -16.336  -7.039  0.00  0.00     0.025 C 
ATOM     21  C   UNL d   1      31.050 -17.572  -6.932  0.00  0.00     0.034 C 
ATOM     22 CL   UNL d   1      31.901 -18.255  -8.257  0.00  0.00    -0.084 Cl
ATOM     23  C   UNL d   1      30.906 -18.320  -5.784  0.00  0.00     0.025 C 
ATOM     24  C   UNL d   1      30.031 -17.850  -4.816  0.00  0.00     0.018 C 
ENDBRANCH  15  18
ENDBRANCH   1  14
TORSDOF 4
ENDMDL
MODEL 9
REMARK VINA RESULT:    -6.970      3.417      6.084
REMARK INTER + INTRA:          -9.939
REMARK INTER:                  -8.163
REMARK INTRA:                  -1.776
REMARK CONF_INDEPENDENT:        1.193
REMARK UNBOUND:                -1.776
REMARK  4 active torsions:
REMARK  status: ('A' for Active; 'I' for Inactive)
REMARK    1  A    between atoms: C_7  and  N_8 
REMARK       I    between atoms: N_8  and  C_9 
REMARK    2  A    between atoms: C_9  and  C_11 
REMARK    3  A    between atoms: C_11  and  N_13 
REMARK       I    between atoms: N_13  and  C_14 
REMARK    4  A    between atoms: C_14  and  C_16 
ROOT
ATOM      1  C   UNL d   1      27.510 -16.118  -0.657  0.00  0.00     0.173 C 
ATOM      2  C   UNL d   1      28.170 -15.443   0.511  0.00  0.00     0.042 C 
ENDROOT
BRANCH   1   3
ATOM      3  C   UNL d   1      28.594 -16.320  -1.703  0.00  0.00     0.244 C 
ATOM      4  N   UNL d   1      28.276 -16.127  -3.051  0.00  0.00    -0.325 N 
ATOM      5  H   UNL d   1      27.332 -15.826  -3.267  0.00  0.00     0.169 HD
ATOM      6  O   UNL d   1      29.668 -16.649  -1.200  0.00  0.00    -0.271 OA
BRANCH   4   7
ATOM      7  C   UNL d   1      29.104 -16.321  -4.211  0.00  0.00     0.040 A 
ATOM      8  C   UNL d   1      30.062 -17.360  -4.190  0.00  0.00     0.030 A 
ATOM      9  C   UNL d   1      30.874 -17.627  -5.314  0.00  0.00     0.002 A 
ATOM     10  C   UNL d   1      30.759 -16.859  -6.464  0.00  0.00     0.001 A 
ATOM     11  C   UNL d   1      29.843 -15.827  -6.492  0.00  0.00     0.009 A 
ATOM     12  C   UNL d   1      29.026 -15.554  -5.388  0.00  0.00    -0.035 A 
ATOM     13  C   UNL d   1      28.094 -14.417  -5.597  0.00  0.00     0.050 C 
ENDBRANCH   4   7
ENDBRANCH   1   3
BRANCH   1  14
ATOM     14  N   UNL d   1      26.475 -15.264  -1.360  0.00  0.00    -0.344 N 
ATOM     15  C   UNL d   1      25.374 -15.628  -2.112  0.00  0.00     0.252 C 
ATOM     16  O   UNL d   1      25.204 -15.201  -3.234  0.00  0.00    -0.268 OA
ATOM     17  H   UNL d   1      26.899 -14.405  -1.725  0.00  0.00     0.163 HD
BRANCH  15  18
ATOM     18  C   UNL d   1      24.342 -16.476  -1.452  0.00  0.00     0.032 C 
ATOM     19  C   UNL d   1      23.119 -15.967  -1.037  0.00  0.00     0.018 C 
ATOM     20  C   UNL d   1      22.155 -16.847  -0.520  0.00  0.00     0.025 C 
ATOM     21  C   UNL d   1      22.370 -18.228  -0.539  0.00  0.00     0.034 C 
ATOM     22 CL   UNL d   1      21.183 -19.326   0.037  0.00  0.00    -0.084 Cl
ATOM     23  C   UNL d   1      23.600 -18.722  -0.916  0.00  0.00     0.025 C 
ATOM     24  C   UNL d   1      24.613 -17.807  -1.161  0.00  0.00     0.018 C 
ENDBRANCH  15  18
ENDBRANCH   1  14
TORSDOF 4
ENDMDL
