MODEL 1
REMARK VINA RESULT:    -7.715      0.000      0.000
REMARK INTER + INTRA:         -11.345
REMARK INTER:                  -9.803
REMARK INTRA:                  -1.542
REMARK CONF_INDEPENDENT:        2.088
REMARK UNBOUND:                -1.542
REMARK  7 active torsions:
REMARK  status: ('A' for Active; 'I' for Inactive)
REMARK    1  A    between atoms: C_2  and  C_3 
REMARK    2  A    between atoms: C_3  and  C_4 
REMARK    3  A    between atoms: C_4  and  N_5 
REMARK       I    between atoms: N_5  and  C_6 
REMARK       I    between atoms: C_6  and  N_8 
REMARK    4  A    between atoms: N_8  and  N_9 
REMARK       I    between atoms: N_9  and  C_10 
REMARK    5  A    between atoms: C_10  and  C_12 
REMARK    6  A    between atoms: C_12  and  O_13 
REMARK    7  A    between atoms: O_13  and  C_14 
ROOT
ATOM      1  N   UNL d   1      23.937 -17.563  -0.333  0.00  0.00    -0.264 N 
ATOM      2  C   UNL d   1      25.279 -17.597   0.049  0.00  0.00     0.260 C 
ATOM      3  O   UNL d   1      25.720 -18.544   0.705  0.00  0.00    -0.269 OA
ATOM      4  H   UNL d   1      23.503 -16.817  -0.874  0.00  0.00     0.190 HD
ENDROOT
BRANCH   1   5
ATOM      5  N   UNL d   1      23.061 -18.649   0.041  0.00  0.00    -0.249 N 
ATOM      6  C   UNL d   1      21.721 -18.610  -0.317  0.00  0.00     0.334 C 
ATOM      7  N   UNL d   1      20.971 -19.700   0.089  0.00  0.00    -0.342 N 
ATOM      8  O   UNL d   1      21.245 -17.666  -0.949  0.00  0.00    -0.246 OA
ATOM      9  H   UNL d   1      21.410 -20.448   0.606  0.00  0.00     0.164 HD
ATOM     10  H   UNL d   1      23.493 -19.409   0.563  0.00  0.00     0.192 HD
BRANCH   7  11
ATOM     11  C   UNL d   1      19.537 -19.800  -0.216  0.00  0.00     0.124 C 
BRANCH  11  12
ATOM     12  C   UNL d   1      18.783 -20.851   0.616  0.00  0.00     0.019 C 
BRANCH  12  13
ATOM     13  C   UNL d   1      18.506 -20.372   2.051  0.00  0.00    -0.003 C 
ATOM     14  C   UNL d   1      19.757 -20.450   2.921  0.00  0.00     0.005 C 
ENDBRANCH  12  13
ENDBRANCH  11  12
ENDBRANCH   7  11
ENDBRANCH   1   5
BRANCH   2  15
ATOM     15  C   UNL d   1      26.163 -16.381  -0.384  0.00  0.00     0.280 C 
BRANCH  15  16
ATOM     16  O   UNL d   1      26.649 -16.558  -1.728  0.00  0.00    -0.342 OA
BRANCH  16  17
ATOM     17  C   UNL d   1      26.245 -15.659  -2.689  0.00  0.00     0.075 A 
ATOM     18  C   UNL d   1      25.002 -15.023  -2.657  0.00  0.00     0.037 A 
ATOM     19  C   UNL d   1      24.680 -14.050  -3.609  0.00  0.00     0.003 A 
ATOM     20  C   UNL d   1      25.590 -13.712  -4.608  0.00  0.00     0.007 A 
ATOM     21  C   UNL d   1      26.848 -14.326  -4.662  0.00  0.00    -0.053 A 
ATOM     22  C   UNL d   1      27.789 -13.938  -5.774  0.00  0.00     0.049 C 
ATOM     23  C   UNL d   1      27.192 -15.288  -3.679  0.00  0.00    -0.023 A 
ATOM     24  C   UNL d   1      28.557 -15.928  -3.660  0.00  0.00     0.052 C 
ENDBRANCH  16  17
ENDBRANCH  15  16
ENDBRANCH   2  15
TORSDOF 7
ENDMDL
MODEL 2
REMARK VINA RESULT:    -7.302      0.691      1.716
REMARK INTER + INTRA:         -11.103
REMARK INTER:                  -9.390
REMARK INTRA:                  -1.713
REMARK CONF_INDEPENDENT:        2.088
REMARK UNBOUND:                -1.713
REMARK  7 active torsions:
REMARK  status: ('A' for Active; 'I' for Inactive)
REMARK    1  A    between atoms: C_2  and  C_3 
REMARK    2  A    between atoms: C_3  and  C_4 
REMARK    3  A    between atoms: C_4  and  N_5 
REMARK       I    between atoms: N_5  and  C_6 
REMARK       I    between atoms: C_6  and  N_8 
REMARK    4  A    between atoms: N_8  and  N_9 
REMARK       I    between atoms: N_9  and  C_10 
REMARK    5  A    between atoms: C_10  and  C_12 
REMARK    6  A    between atoms: C_12  and  O_13 
REMARK    7  A    between atoms: O_13  and  C_14 
ROOT
ATOM      1  N   UNL d   1      23.732 -17.769  -0.620  0.00  0.00    -0.264 N 
ATOM      2  C   UNL d   1      25.001 -17.587  -0.066  0.00  0.00     0.260 C 
ATOM      3  O   UNL d   1      25.372 -18.274   0.889  0.00  0.00    -0.269 OA
ATOM      4  H   UNL d   1      23.359 -17.242  -1.408  0.00  0.00     0.190 HD
ENDROOT
BRANCH   1   5
ATOM      5  N   UNL d   1      22.851 -18.773  -0.069  0.00  0.00    -0.249 N 
ATOM      6  C   UNL d   1      21.517 -18.802  -0.447  0.00  0.00     0.334 C 
ATOM      7  N   UNL d   1      20.760 -19.803   0.137  0.00  0.00    -0.342 N 
ATOM      8  O   UNL d   1      21.050 -17.988  -1.246  0.00  0.00    -0.246 OA
ATOM      9  H   UNL d   1      21.192 -20.445   0.786  0.00  0.00     0.164 HD
ATOM     10  H   UNL d   1      23.275 -19.425   0.586  0.00  0.00     0.192 HD
BRANCH   7  11
ATOM     11  C   UNL d   1      19.331 -19.960  -0.165  0.00  0.00     0.124 C 
BRANCH  11  12
ATOM     12  C   UNL d   1      18.632 -21.075   0.630  0.00  0.00     0.019 C 
BRANCH  12  13
ATOM     13  C   UNL d   1      18.429 -20.700   2.108  0.00  0.00    -0.003 C 
ATOM     14  C   UNL d   1      19.756 -20.414   2.804  0.00  0.00     0.005 C 
ENDBRANCH  12  13
ENDBRANCH  11  12
ENDBRANCH   7  11
ENDBRANCH   1   5
BRANCH   2  15
ATOM     15  C   UNL d   1      25.895 -16.476  -0.709  0.00  0.00     0.280 C 
BRANCH  15  16
ATOM     16  O   UNL d   1      25.488 -16.215  -2.065  0.00  0.00    -0.342 OA
BRANCH  16  17
ATOM     17  C   UNL d   1      26.361 -15.540  -2.889  0.00  0.00     0.075 A 
ATOM     18  C   UNL d   1      27.681 -15.949  -3.091  0.00  0.00     0.037 A 
ATOM     19  C   UNL d   1      28.496 -15.279  -4.010  0.00  0.00     0.003 A 
ATOM     20  C   UNL d   1      28.006 -14.189  -4.725  0.00  0.00     0.007 A 
ATOM     21  C   UNL d   1      26.684 -13.760  -4.550  0.00  0.00    -0.053 A 
ATOM     22  C   UNL d   1      26.208 -12.564  -5.334  0.00  0.00     0.049 C 
ATOM     23  C   UNL d   1      25.843 -14.457  -3.645  0.00  0.00    -0.023 A 
ATOM     24  C   UNL d   1      24.396 -14.070  -3.473  0.00  0.00     0.052 C 
ENDBRANCH  16  17
ENDBRANCH  15  16
ENDBRANCH   2  15
TORSDOF 7
ENDMDL
MODEL 3
REMARK VINA RESULT:    -7.209      1.163      1.436
REMARK INTER + INTRA:         -11.276
REMARK INTER:                  -9.297
REMARK INTRA:                  -1.979
REMARK CONF_INDEPENDENT:        2.088
REMARK UNBOUND:                -1.979
REMARK  7 active torsions:
REMARK  status: ('A' for Active; 'I' for Inactive)
REMARK    1  A    between atoms: C_2  and  C_3 
REMARK    2  A    between atoms: C_3  and  C_4 
REMARK    3  A    between atoms: C_4  and  N_5 
REMARK       I    between atoms: N_5  and  C_6 
REMARK       I    between atoms: C_6  and  N_8 
REMARK    4  A    between atoms: N_8  and  N_9 
REMARK       I    between atoms: N_9  and  C_10 
REMARK    5  A    between atoms: C_10  and  C_12 
REMARK    6  A    between atoms: C_12  and  O_13 
REMARK    7  A    between atoms: O_13  and  C_14 
ROOT
ATOM      1  N   UNL d   1      23.923 -17.586  -0.427  0.00  0.00    -0.264 N 
ATOM      2  C   UNL d   1      25.268 -17.590  -0.049  0.00  0.00     0.260 C 
ATOM      3  O   UNL d   1      25.723 -18.511   0.634  0.00  0.00    -0.269 OA
ATOM      4  H   UNL d   1      23.479 -16.863  -0.989  0.00  0.00     0.190 HD
ENDROOT
BRANCH   1   5
ATOM      5  N   UNL d   1      23.064 -18.672  -0.016  0.00  0.00    -0.249 N 
ATOM      6  C   UNL d   1      21.719 -18.653  -0.356  0.00  0.00     0.334 C 
ATOM      7  N   UNL d   1      20.984 -19.741   0.085  0.00  0.00    -0.342 N 
ATOM      8  O   UNL d   1      21.225 -17.729  -1.003  0.00  0.00    -0.246 OA
ATOM      9  H   UNL d   1      21.438 -20.473   0.612  0.00  0.00     0.164 HD
ATOM     10  H   UNL d   1      23.510 -19.415   0.516  0.00  0.00     0.192 HD
BRANCH   7  11
ATOM     11  C   UNL d   1      19.548 -19.861  -0.198  0.00  0.00     0.124 C 
BRANCH  11  12
ATOM     12  C   UNL d   1      18.803 -20.856   0.708  0.00  0.00     0.019 C 
BRANCH  12  13
ATOM     13  C   UNL d   1      18.519 -20.276   2.104  0.00  0.00    -0.003 C 
ATOM     14  C   UNL d   1      19.710 -20.452   3.040  0.00  0.00     0.005 C 
ENDBRANCH  12  13
ENDBRANCH  11  12
ENDBRANCH   7  11
ENDBRANCH   1   5
BRANCH   2  15
ATOM     15  C   UNL d   1      26.134 -16.377  -0.523  0.00  0.00     0.280 C 
BRANCH  15  16
ATOM     16  O   UNL d   1      25.332 -15.432  -1.255  0.00  0.00    -0.342 OA
BRANCH  16  17
ATOM     17  C   UNL d   1      25.781 -15.015  -2.488  0.00  0.00     0.075 A 
ATOM     18  C   UNL d   1      25.531 -15.725  -3.665  0.00  0.00     0.037 A 
ATOM     19  C   UNL d   1      25.931 -15.207  -4.901  0.00  0.00     0.003 A 
ATOM     20  C   UNL d   1      26.595 -13.984  -4.973  0.00  0.00     0.007 A 
ATOM     21  C   UNL d   1      26.853 -13.245  -3.812  0.00  0.00    -0.053 A 
ATOM     22  C   UNL d   1      27.589 -11.937  -3.942  0.00  0.00     0.049 C 
ATOM     23  C   UNL d   1      26.418 -13.750  -2.559  0.00  0.00    -0.023 A 
ATOM     24  C   UNL d   1      26.617 -12.959  -1.291  0.00  0.00     0.052 C 
ENDBRANCH  16  17
ENDBRANCH  15  16
ENDBRANCH   2  15
TORSDOF 7
ENDMDL
MODEL 4
REMARK VINA RESULT:    -7.129      1.337      1.619
REMARK INTER + INTRA:         -11.105
REMARK INTER:                  -9.217
REMARK INTRA:                  -1.888
REMARK CONF_INDEPENDENT:        2.088
REMARK UNBOUND:                -1.888
REMARK  7 active torsions:
REMARK  status: ('A' for Active; 'I' for Inactive)
REMARK    1  A    between atoms: C_2  and  C_3 
REMARK    2  A    between atoms: C_3  and  C_4 
REMARK    3  A    between atoms: C_4  and  N_5 
REMARK       I    between atoms: N_5  and  C_6 
REMARK       I    between atoms: C_6  and  N_8 
REMARK    4  A    between atoms: N_8  and  N_9 
REMARK       I    between atoms: N_9  and  C_10 
REMARK    5  A    between atoms: C_10  and  C_12 
REMARK    6  A    between atoms: C_12  and  O_13 
REMARK    7  A    between atoms: O_13  and  C_14 
ROOT
ATOM      1  N   UNL d   1      24.276 -18.012  -0.662  0.00  0.00    -0.264 N 
ATOM      2  C   UNL d   1      25.531 -17.913  -0.057  0.00  0.00     0.260 C 
ATOM      3  O   UNL d   1      25.795 -18.577   0.949  0.00  0.00    -0.269 OA
ATOM      4  H   UNL d   1      23.988 -17.498  -1.493  0.00  0.00     0.190 HD
ENDROOT
BRANCH   1   5
ATOM      5  N   UNL d   1      23.284 -18.901  -0.105  0.00  0.00    -0.249 N 
ATOM      6  C   UNL d   1      21.953 -18.767  -0.474  0.00  0.00     0.334 C 
ATOM      7  N   UNL d   1      21.084 -19.669   0.116  0.00  0.00    -0.342 N 
ATOM      8  O   UNL d   1      21.583 -17.903  -1.270  0.00  0.00    -0.246 OA
ATOM      9  H   UNL d   1      21.439 -20.359   0.762  0.00  0.00     0.164 HD
ATOM     10  H   UNL d   1      23.630 -19.600   0.548  0.00  0.00     0.192 HD
BRANCH   7  11
ATOM     11  C   UNL d   1      19.645 -19.651  -0.177  0.00  0.00     0.124 C 
BRANCH  11  12
ATOM     12  C   UNL d   1      18.830 -20.718   0.574  0.00  0.00     0.019 C 
BRANCH  12  13
ATOM     13  C   UNL d   1      18.485 -20.286   2.009  0.00  0.00    -0.003 C 
ATOM     14  C   UNL d   1      19.676 -20.446   2.948  0.00  0.00     0.005 C 
ENDBRANCH  12  13
ENDBRANCH  11  12
ENDBRANCH   7  11
ENDBRANCH   1   5
BRANCH   2  15
ATOM     15  C   UNL d   1      26.550 -16.923  -0.711  0.00  0.00     0.280 C 
BRANCH  15  16
ATOM     16  O   UNL d   1      25.958 -16.252  -1.839  0.00  0.00    -0.342 OA
BRANCH  16  17
ATOM     17  C   UNL d   1      26.151 -14.895  -1.963  0.00  0.00     0.075 A 
ATOM     18  C   UNL d   1      26.623 -14.098  -0.918  0.00  0.00     0.037 A 
ATOM     19  C   UNL d   1      26.887 -12.740  -1.128  0.00  0.00     0.003 A 
ATOM     20  C   UNL d   1      26.672 -12.163  -2.378  0.00  0.00     0.007 A 
ATOM     21  C   UNL d   1      26.207 -12.939  -3.448  0.00  0.00    -0.053 A 
ATOM     22  C   UNL d   1      25.973 -12.263  -4.775  0.00  0.00     0.049 C 
ATOM     23  C   UNL d   1      25.970 -14.323  -3.249  0.00  0.00    -0.023 A 
ATOM     24  C   UNL d   1      25.531 -15.208  -4.388  0.00  0.00     0.052 C 
ENDBRANCH  16  17
ENDBRANCH  15  16
ENDBRANCH   2  15
TORSDOF 7
ENDMDL
MODEL 5
REMARK VINA RESULT:    -6.544      2.385      4.069
REMARK INTER + INTRA:          -9.957
REMARK INTER:                  -8.632
REMARK INTRA:                  -1.325
REMARK CONF_INDEPENDENT:        2.088
REMARK UNBOUND:                -1.325
REMARK  7 active torsions:
REMARK  status: ('A' for Active; 'I' for Inactive)
REMARK    1  A    between atoms: C_2  and  C_3 
REMARK    2  A    between atoms: C_3  and  C_4 
REMARK    3  A    between atoms: C_4  and  N_5 
REMARK       I    between atoms: N_5  and  C_6 
REMARK       I    between atoms: C_6  and  N_8 
REMARK    4  A    between atoms: N_8  and  N_9 
REMARK       I    between atoms: N_9  and  C_10 
REMARK    5  A    between atoms: C_10  and  C_12 
REMARK    6  A    between atoms: C_12  and  O_13 
REMARK    7  A    between atoms: O_13  and  C_14 
ROOT
ATOM      1  N   UNL d   1      25.597 -16.020  -2.510  0.00  0.00    -0.264 N 
ATOM      2  C   UNL d   1      25.797 -15.118  -3.557  0.00  0.00     0.260 C 
ATOM      3  O   UNL d   1      24.841 -14.528  -4.067  0.00  0.00    -0.269 OA
ATOM      4  H   UNL d   1      26.336 -16.540  -2.040  0.00  0.00     0.190 HD
ENDROOT
BRANCH   1   5
ATOM      5  N   UNL d   1      24.259 -16.260  -2.021  0.00  0.00    -0.249 N 
ATOM      6  C   UNL d   1      24.017 -17.327  -1.168  0.00  0.00     0.334 C 
ATOM      7  N   UNL d   1      22.703 -17.467  -0.758  0.00  0.00    -0.342 N 
ATOM      8  O   UNL d   1      24.916 -18.089  -0.810  0.00  0.00    -0.246 OA
ATOM      9  H   UNL d   1      22.003 -16.815  -1.081  0.00  0.00     0.164 HD
ATOM     10  H   UNL d   1      23.546 -15.609  -2.341  0.00  0.00     0.192 HD
BRANCH   7  11
ATOM     11  C   UNL d   1      22.293 -18.550   0.146  0.00  0.00     0.124 C 
BRANCH  11  12
ATOM     12  C   UNL d   1      20.984 -19.250  -0.253  0.00  0.00     0.019 C 
BRANCH  12  13
ATOM     13  C   UNL d   1      20.173 -19.715   0.969  0.00  0.00    -0.003 C 
ATOM     14  C   UNL d   1      19.168 -20.801   0.599  0.00  0.00     0.005 C 
ENDBRANCH  12  13
ENDBRANCH  11  12
ENDBRANCH   7  11
ENDBRANCH   1   5
BRANCH   2  15
ATOM     15  C   UNL d   1      27.272 -14.916  -4.038  0.00  0.00     0.280 C 
BRANCH  15  16
ATOM     16  O   UNL d   1      27.429 -15.357  -5.400  0.00  0.00    -0.342 OA
BRANCH  16  17
ATOM     17  C   UNL d   1      28.360 -14.717  -6.188  0.00  0.00     0.075 A 
ATOM     18  C   UNL d   1      28.153 -13.444  -6.722  0.00  0.00     0.037 A 
ATOM     19  C   UNL d   1      29.170 -12.804  -7.439  0.00  0.00     0.003 A 
ATOM     20  C   UNL d   1      30.397 -13.434  -7.639  0.00  0.00     0.007 A 
ATOM     21  C   UNL d   1      30.637 -14.708  -7.108  0.00  0.00    -0.053 A 
ATOM     22  C   UNL d   1      31.974 -15.354  -7.369  0.00  0.00     0.049 C 
ATOM     23  C   UNL d   1      29.621 -15.346  -6.352  0.00  0.00    -0.023 A 
ATOM     24  C   UNL d   1      29.858 -16.689  -5.708  0.00  0.00     0.052 C 
ENDBRANCH  16  17
ENDBRANCH  15  16
ENDBRANCH   2  15
TORSDOF 7
ENDMDL
MODEL 6
REMARK VINA RESULT:    -6.290      4.663      9.198
REMARK INTER + INTRA:          -9.866
REMARK INTER:                  -8.379
REMARK INTRA:                  -1.488
REMARK CONF_INDEPENDENT:        2.088
REMARK UNBOUND:                -1.488
REMARK  7 active torsions:
REMARK  status: ('A' for Active; 'I' for Inactive)
REMARK    1  A    between atoms: C_2  and  C_3 
REMARK    2  A    between atoms: C_3  and  C_4 
REMARK    3  A    between atoms: C_4  and  N_5 
REMARK       I    between atoms: N_5  and  C_6 
REMARK       I    between atoms: C_6  and  N_8 
REMARK    4  A    between atoms: N_8  and  N_9 
REMARK       I    between atoms: N_9  and  C_10 
REMARK    5  A    between atoms: C_10  and  C_12 
REMARK    6  A    between atoms: C_12  and  O_13 
REMARK    7  A    between atoms: O_13  and  C_14 
ROOT
ATOM      1  N   UNL d   1      26.337 -12.940  -4.349  0.00  0.00    -0.264 N 
ATOM      2  C   UNL d   1      25.788 -14.185  -4.034  0.00  0.00     0.260 C 
ATOM      3  O   UNL d   1      24.619 -14.447  -4.330  0.00  0.00    -0.269 OA
ATOM      4  H   UNL d   1      27.292 -12.654  -4.139  0.00  0.00     0.190 HD
ENDROOT
BRANCH   1   5
ATOM      5  N   UNL d   1      25.527 -11.955  -5.029  0.00  0.00    -0.249 N 
ATOM      6  C   UNL d   1      26.070 -10.720  -5.352  0.00  0.00     0.334 C 
ATOM      7  N   UNL d   1      25.211  -9.851  -6.002  0.00  0.00    -0.342 N 
ATOM      8  O   UNL d   1      27.235 -10.429  -5.073  0.00  0.00    -0.246 OA
ATOM      9  H   UNL d   1      24.266 -10.138  -6.207  0.00  0.00     0.164 HD
ATOM     10  H   UNL d   1      24.572 -12.234  -5.240  0.00  0.00     0.192 HD
BRANCH   7  11
ATOM     11  C   UNL d   1      25.643  -8.507  -6.408  0.00  0.00     0.124 C 
BRANCH  11  12
ATOM     12  C   UNL d   1      24.608  -7.400  -6.145  0.00  0.00     0.019 C 
BRANCH  12  13
ATOM     13  C   UNL d   1      23.340  -7.937  -5.459  0.00  0.00    -0.003 C 
ATOM     14  C   UNL d   1      22.269  -6.859  -5.333  0.00  0.00     0.005 C 
ENDBRANCH  12  13
ENDBRANCH  11  12
ENDBRANCH   7  11
ENDBRANCH   1   5
BRANCH   2  15
ATOM     15  C   UNL d   1      26.722 -15.196  -3.291  0.00  0.00     0.280 C 
BRANCH  15  16
ATOM     16  O   UNL d   1      26.531 -15.114  -1.867  0.00  0.00    -0.342 OA
BRANCH  16  17
ATOM     17  C   UNL d   1      26.339 -16.284  -1.167  0.00  0.00     0.075 A 
ATOM     18  C   UNL d   1      27.377 -16.961  -0.523  0.00  0.00     0.037 A 
ATOM     19  C   UNL d   1      27.109 -18.096   0.250  0.00  0.00     0.003 A 
ATOM     20  C   UNL d   1      25.805 -18.571   0.378  0.00  0.00     0.007 A 
ATOM     21  C   UNL d   1      24.742 -17.909  -0.248  0.00  0.00    -0.053 A 
ATOM     22  C   UNL d   1      23.354 -18.474  -0.093  0.00  0.00     0.049 C 
ATOM     23  C   UNL d   1      25.005 -16.739  -1.006  0.00  0.00    -0.023 A 
ATOM     24  C   UNL d   1      23.884 -15.958  -1.644  0.00  0.00     0.052 C 
ENDBRANCH  16  17
ENDBRANCH  15  16
ENDBRANCH   2  15
TORSDOF 7
ENDMDL
MODEL 7
REMARK VINA RESULT:    -6.259      3.220      4.524
REMARK INTER + INTRA:          -9.797
REMARK INTER:                  -8.348
REMARK INTRA:                  -1.449
REMARK CONF_INDEPENDENT:        2.088
REMARK UNBOUND:                -1.449
REMARK  7 active torsions:
REMARK  status: ('A' for Active; 'I' for Inactive)
REMARK    1  A    between atoms: C_2  and  C_3 
REMARK    2  A    between atoms: C_3  and  C_4 
REMARK    3  A    between atoms: C_4  and  N_5 
REMARK       I    between atoms: N_5  and  C_6 
REMARK       I    between atoms: C_6  and  N_8 
REMARK    4  A    between atoms: N_8  and  N_9 
REMARK       I    between atoms: N_9  and  C_10 
REMARK    5  A    between atoms: C_10  and  C_12 
REMARK    6  A    between atoms: C_12  and  O_13 
REMARK    7  A    between atoms: O_13  and  C_14 
ROOT
ATOM      1  N   UNL d   1      24.735 -17.245  -0.176  0.00  0.00    -0.264 N 
ATOM      2  C   UNL d   1      26.036 -17.337   0.320  0.00  0.00     0.260 C 
ATOM      3  O   UNL d   1      26.411 -18.354   0.910  0.00  0.00    -0.269 OA
ATOM      4  H   UNL d   1      24.357 -16.440  -0.673  0.00  0.00     0.190 HD
ENDROOT
BRANCH   1   5
ATOM      5  N   UNL d   1      23.823 -18.350   0.002  0.00  0.00    -0.249 N 
ATOM      6  C   UNL d   1      22.499 -18.224  -0.393  0.00  0.00     0.334 C 
ATOM      7  N   UNL d   1      21.711 -19.342  -0.179  0.00  0.00    -0.342 N 
ATOM      8  O   UNL d   1      22.067 -17.185  -0.895  0.00  0.00    -0.246 OA
ATOM      9  H   UNL d   1      22.114 -20.169   0.237  0.00  0.00     0.164 HD
ATOM     10  H   UNL d   1      24.218 -19.189   0.421  0.00  0.00     0.192 HD
BRANCH   7  11
ATOM     11  C   UNL d   1      20.288 -19.358  -0.546  0.00  0.00     0.124 C 
BRANCH  11  12
ATOM     12  C   UNL d   1      19.473 -20.478   0.121  0.00  0.00     0.019 C 
BRANCH  12  13
ATOM     13  C   UNL d   1      18.871 -20.040   1.468  0.00  0.00    -0.003 C 
ATOM     14  C   UNL d   1      19.907 -20.075   2.586  0.00  0.00     0.005 C 
ENDBRANCH  12  13
ENDBRANCH  11  12
ENDBRANCH   7  11
ENDBRANCH   1   5
BRANCH   2  15
ATOM     15  C   UNL d   1      26.963 -16.097   0.097  0.00  0.00     0.280 C 
BRANCH  15  16
ATOM     16  O   UNL d   1      27.493 -15.625   1.350  0.00  0.00    -0.342 OA
BRANCH  16  17
ATOM     17  C   UNL d   1      27.440 -14.273   1.611  0.00  0.00     0.075 A 
ATOM     18  C   UNL d   1      27.003 -13.337   0.671  0.00  0.00     0.037 A 
ATOM     19  C   UNL d   1      26.883 -11.988   1.020  0.00  0.00     0.003 A 
ATOM     20  C   UNL d   1      27.209 -11.559   2.305  0.00  0.00     0.007 A 
ATOM     21  C   UNL d   1      27.642 -12.476   3.272  0.00  0.00    -0.053 A 
ATOM     22  C   UNL d   1      27.999 -11.958   4.642  0.00  0.00     0.049 C 
ATOM     23  C   UNL d   1      27.733 -13.850   2.932  0.00  0.00    -0.023 A 
ATOM     24  C   UNL d   1      28.133 -14.879   3.959  0.00  0.00     0.052 C 
ENDBRANCH  16  17
ENDBRANCH  15  16
ENDBRANCH   2  15
TORSDOF 7
ENDMDL
MODEL 8
REMARK VINA RESULT:    -6.071      2.910      4.137
REMARK INTER + INTRA:          -9.944
REMARK INTER:                  -8.159
REMARK INTRA:                  -1.785
REMARK CONF_INDEPENDENT:        2.088
REMARK UNBOUND:                -1.785
REMARK  7 active torsions:
REMARK  status: ('A' for Active; 'I' for Inactive)
REMARK    1  A    between atoms: C_2  and  C_3 
REMARK    2  A    between atoms: C_3  and  C_4 
REMARK    3  A    between atoms: C_4  and  N_5 
REMARK       I    between atoms: N_5  and  C_6 
REMARK       I    between atoms: C_6  and  N_8 
REMARK    4  A    between atoms: N_8  and  N_9 
REMARK       I    between atoms: N_9  and  C_10 
REMARK    5  A    between atoms: C_10  and  C_12 
REMARK    6  A    between atoms: C_12  and  O_13 
REMARK    7  A    between atoms: O_13  and  C_14 
ROOT
ATOM      1  N   UNL d   1      25.461 -17.300   0.047  0.00  0.00    -0.264 N 
ATOM      2  C   UNL d   1      26.783 -17.717   0.212  0.00  0.00     0.260 C 
ATOM      3  O   UNL d   1      27.037 -18.881   0.534  0.00  0.00    -0.269 OA
ATOM      4  H   UNL d   1      25.177 -16.358  -0.219  0.00  0.00     0.190 HD
ENDROOT
BRANCH   1   5
ATOM      5  N   UNL d   1      24.385 -18.241   0.252  0.00  0.00    -0.249 N 
ATOM      6  C   UNL d   1      23.169 -18.048  -0.387  0.00  0.00     0.334 C 
ATOM      7  N   UNL d   1      22.206 -19.007  -0.123  0.00  0.00    -0.342 N 
ATOM      8  O   UNL d   1      22.971 -17.088  -1.133  0.00  0.00    -0.246 OA
ATOM      9  H   UNL d   1      22.419 -19.776   0.496  0.00  0.00     0.164 HD
ATOM     10  H   UNL d   1      24.588 -19.019   0.875  0.00  0.00     0.192 HD
BRANCH   7  11
ATOM     11  C   UNL d   1      20.869 -18.938  -0.727  0.00  0.00     0.124 C 
BRANCH  11  12
ATOM     12  C   UNL d   1      19.722 -19.327   0.221  0.00  0.00     0.019 C 
BRANCH  12  13
ATOM     13  C   UNL d   1      19.465 -20.844   0.234  0.00  0.00    -0.003 C 
ATOM     14  C   UNL d   1      18.057 -21.171   0.721  0.00  0.00     0.005 C 
ENDBRANCH  12  13
ENDBRANCH  11  12
ENDBRANCH   7  11
ENDBRANCH   1   5
BRANCH   2  15
ATOM     15  C   UNL d   1      27.894 -16.641  -0.019  0.00  0.00     0.280 C 
BRANCH  15  16
ATOM     16  O   UNL d   1      27.312 -15.335  -0.187  0.00  0.00    -0.342 OA
BRANCH  16  17
ATOM     17  C   UNL d   1      27.389 -14.447   0.863  0.00  0.00     0.075 A 
ATOM     18  C   UNL d   1      27.796 -14.824   2.145  0.00  0.00     0.037 A 
ATOM     19  C   UNL d   1      27.944 -13.863   3.150  0.00  0.00     0.003 A 
ATOM     20  C   UNL d   1      27.677 -12.521   2.889  0.00  0.00     0.007 A 
ATOM     21  C   UNL d   1      27.276 -12.111   1.612  0.00  0.00    -0.053 A 
ATOM     22  C   UNL d   1      26.983 -10.650   1.386  0.00  0.00     0.049 C 
ATOM     23  C   UNL d   1      27.157 -13.077   0.580  0.00  0.00    -0.023 A 
ATOM     24  C   UNL d   1      26.791 -12.672  -0.826  0.00  0.00     0.052 C 
ENDBRANCH  16  17
ENDBRANCH  15  16
ENDBRANCH   2  15
TORSDOF 7
ENDMDL
MODEL 9
REMARK VINA RESULT:    -5.772      2.435      4.656
REMARK INTER + INTRA:          -9.828
REMARK INTER:                  -7.860
REMARK INTRA:                  -1.968
REMARK CONF_INDEPENDENT:        2.088
REMARK UNBOUND:                -1.968
REMARK  7 active torsions:
REMARK  status: ('A' for Active; 'I' for Inactive)
REMARK    1  A    between atoms: C_2  and  C_3 
REMARK    2  A    between atoms: C_3  and  C_4 
REMARK    3  A    between atoms: C_4  and  N_5 
REMARK       I    between atoms: N_5  and  C_6 
REMARK       I    between atoms: C_6  and  N_8 
REMARK    4  A    between atoms: N_8  and  N_9 
REMARK       I    between atoms: N_9  and  C_10 
REMARK    5  A    between atoms: C_10  and  C_12 
REMARK    6  A    between atoms: C_12  and  O_13 
REMARK    7  A    between atoms: O_13  and  C_14 
ROOT
ATOM      1  N   UNL d   1      25.713 -15.310  -3.109  0.00  0.00    -0.264 N 
ATOM      2  C   UNL d   1      25.620 -14.495  -4.239  0.00  0.00     0.260 C 
ATOM      3  O   UNL d   1      24.524 -14.072  -4.617  0.00  0.00    -0.269 OA
ATOM      4  H   UNL d   1      26.581 -15.693  -2.737  0.00  0.00     0.190 HD
ENDROOT
BRANCH   1   5
ATOM      5  N   UNL d   1      24.517 -15.655  -2.378  0.00  0.00    -0.249 N 
ATOM      6  C   UNL d   1      24.520 -16.751  -1.527  0.00  0.00     0.334 C 
ATOM      7  N   UNL d   1      23.324 -16.994  -0.874  0.00  0.00    -0.342 N 
ATOM      8  O   UNL d   1      25.522 -17.451  -1.373  0.00  0.00    -0.246 OA
ATOM      9  H   UNL d   1      22.532 -16.390  -1.035  0.00  0.00     0.164 HD
ATOM     10  H   UNL d   1      23.712 -15.053  -2.533  0.00  0.00     0.192 HD
BRANCH   7  11
ATOM     11  C   UNL d   1      23.174 -18.119   0.058  0.00  0.00     0.124 C 
BRANCH  11  12
ATOM     12  C   UNL d   1      22.409 -19.323  -0.516  0.00  0.00     0.019 C 
BRANCH  12  13
ATOM     13  C   UNL d   1      20.990 -18.948  -0.975  0.00  0.00    -0.003 C 
ATOM     14  C   UNL d   1      19.924 -19.613  -0.110  0.00  0.00     0.005 C 
ENDBRANCH  12  13
ENDBRANCH  11  12
ENDBRANCH   7  11
ENDBRANCH   1   5
BRANCH   2  15
ATOM     15  C   UNL d   1      26.957 -14.171  -4.984  0.00  0.00     0.280 C 
BRANCH  15  16
ATOM     16  O   UNL d   1      28.084 -14.702  -4.264  0.00  0.00    -0.342 OA
BRANCH  16  17
ATOM     17  C   UNL d   1      28.933 -15.562  -4.925  0.00  0.00     0.075 A 
ATOM     18  C   UNL d   1      29.286 -15.395  -6.266  0.00  0.00     0.037 A 
ATOM     19  C   UNL d   1      30.224 -16.245  -6.860  0.00  0.00     0.003 A 
ATOM     20  C   UNL d   1      30.809 -17.276  -6.127  0.00  0.00     0.007 A 
ATOM     21  C   UNL d   1      30.481 -17.463  -4.778  0.00  0.00    -0.053 A 
ATOM     22  C   UNL d   1      31.127 -18.603  -4.035  0.00  0.00     0.049 C 
ATOM     23  C   UNL d   1      29.556 -16.583  -4.161  0.00  0.00    -0.023 A 
ATOM     24  C   UNL d   1      29.222 -16.707  -2.696  0.00  0.00     0.052 C 
ENDBRANCH  16  17
ENDBRANCH  15  16
ENDBRANCH   2  15
TORSDOF 7
ENDMDL
