MODEL 1
REMARK VINA RESULT:   -10.584      0.000      0.000
REMARK INTER + INTRA:         -18.159
REMARK INTER:                 -13.865
REMARK INTRA:                  -4.294
REMARK CONF_INDEPENDENT:        3.281
REMARK UNBOUND:                -4.294
REMARK  11 active torsions:
REMARK  status: ('A' for Active; 'I' for Inactive)
REMARK    1  A    between atoms: C_8  and  C_9 
REMARK    2  A    between atoms: N_10  and  C_9 
REMARK    3  A    between atoms: N_10  and  C_14 
REMARK    4  A    between atoms: N_10  and  C_11 
REMARK    5  A    between atoms: C_11  and  C_12 
REMARK    6  A    between atoms: C_12  and  O_13 
REMARK    7  A    between atoms: C_14  and  C_15 
REMARK    8  A    between atoms: C_14  and  C_28 
REMARK    9  A    between atoms: N_19  and  C_20 
REMARK   10  A    between atoms: C_20  and  C_21 
REMARK   11  A    between atoms: C_31  and  O_32 
ROOT
ATOM      1  N   UNL d   1      28.458 -14.740   1.811  0.00  0.00    -0.053 N 
ATOM      2  H   UNL d   1      28.674 -15.312   2.630  0.00  0.00     0.281 HD
ENDROOT
BRANCH   1   3
ATOM      3  C   UNL d   1      27.389 -15.623   0.921  0.00  0.00     0.264 C 
BRANCH   3   4
ATOM      4  C   UNL d   1      26.789 -14.674  -0.147  0.00  0.00     0.179 A 
ATOM      5  N   UNL d   1      27.192 -13.408  -0.183  0.00  0.00    -0.112 NA
ATOM      6  N   UNL d   1      26.645 -12.817  -1.274  0.00  0.00    -0.023 NA
ATOM      7  N   UNL d   1      25.911 -13.685  -1.941  0.00  0.00    -0.044 NA
ATOM      8  N   UNL d   1      25.963 -14.870  -1.260  0.00  0.00    -0.228 N 
BRANCH   8   9
ATOM      9  C   UNL d   1      25.144 -15.947  -1.894  0.00  0.00     0.193 C 
BRANCH   9  10
ATOM     10  C   UNL d   1      24.205 -16.854  -1.070  0.00  0.00    -0.039 C 
ATOM     11  C   UNL d   1      22.932 -16.706  -0.895  0.00  0.00     0.008 C 
ATOM     12  C   UNL d   1      21.913 -17.689  -0.595  0.00  0.00     0.025 C 
ATOM     13  C   UNL d   1      22.060 -18.950  -0.125  0.00  0.00     0.182 C 
ATOM     14  F   UNL d   1      20.965 -19.743  -0.235  0.00  0.00    -0.230 F 
ATOM     15  C   UNL d   1      23.283 -19.252  -0.522  0.00  0.00     0.025 C 
ATOM     16  C   UNL d   1      24.377 -18.212  -0.925  0.00  0.00     0.008 C 
ENDBRANCH   9  10
ENDBRANCH   8   9
ENDBRANCH   3   4
BRANCH   3  17
ATOM     17  C   UNL d   1      27.897 -16.979   0.394  0.00  0.00     0.016 C 
ATOM     18  C   UNL d   1      27.031 -18.219   0.620  0.00  0.00     0.012 C 
ATOM     19  C   UNL d   1      28.601 -17.002  -1.102  0.00  0.00     0.012 C 
ENDBRANCH   3  17
ENDBRANCH   1   3
BRANCH   1  20
ATOM     20  C   UNL d   1      29.799 -14.761   1.059  0.00  0.00     0.262 C 
BRANCH  20  21
ATOM     21  C   UNL d   1      31.065 -14.741   1.929  0.00  0.00     0.192 C 
BRANCH  21  22
ATOM     22  O   UNL d   1      30.676 -14.714   3.293  0.00  0.00    -0.399 OA
ATOM     23  H   UNL d   1      30.292 -15.572   3.546  0.00  0.00     0.209 HD
ENDBRANCH  21  22
ENDBRANCH  20  21
ENDBRANCH   1  20
BRANCH   1  24
ATOM     24  C   UNL d   1      28.199 -13.324   2.454  0.00  0.00     0.279 C 
BRANCH  24  25
ATOM     25  C   UNL d   1      27.967 -13.191   4.019  0.00  0.00     0.021 C 
ATOM     26  C   UNL d   1      27.923 -11.943   4.771  0.00  0.00     0.027 C 
ATOM     27  C   UNL d   1      28.251 -11.749   6.259  0.00  0.00    -0.001 C 
ATOM     28  C   UNL d   1      28.884 -10.488   6.977  0.00  0.00    -0.049 C 
ATOM     29  C   UNL d   1      28.415 -13.027   6.903  0.00  0.00     0.071 C 
ATOM     30  C   UNL d   1      29.678 -10.675   8.136  0.00  0.00     0.014 C 
ATOM     31  C   UNL d   1      29.190  -9.051   6.316  0.00  0.00     0.049 C 
ATOM     32  C   UNL d   1      29.736 -11.922   8.756  0.00  0.00    -0.059 C 
ATOM     33  C   UNL d   1      30.305 -11.992  10.152  0.00  0.00     0.048 C 
ATOM     34  C   UNL d   1      29.138 -13.059   8.134  0.00  0.00     0.039 C 
ATOM     35  N   UNL d   1      28.219 -14.224   6.220  0.00  0.00    -0.224 NA
ATOM     36  C   UNL d   1      28.038 -14.309   4.855  0.00  0.00     0.170 C 
BRANCH  36  37
ATOM     37  O   UNL d   1      28.255 -15.576   4.368  0.00  0.00    -0.344 OA
ATOM     38  H   UNL d   1      29.173 -15.881   4.353  0.00  0.00     0.219 HD
ENDBRANCH  36  37
ENDBRANCH  24  25
ENDBRANCH   1  24
TORSDOF 11
ENDMDL
MODEL 2
REMARK VINA RESULT:   -10.190      2.338      3.587
REMARK INTER + INTRA:         -18.145
REMARK INTER:                 -13.471
REMARK INTRA:                  -4.674
REMARK CONF_INDEPENDENT:        3.281
REMARK UNBOUND:                -4.674
REMARK  11 active torsions:
REMARK  status: ('A' for Active; 'I' for Inactive)
REMARK    1  A    between atoms: C_8  and  C_9 
REMARK    2  A    between atoms: N_10  and  C_9 
REMARK    3  A    between atoms: N_10  and  C_14 
REMARK    4  A    between atoms: N_10  and  C_11 
REMARK    5  A    between atoms: C_11  and  C_12 
REMARK    6  A    between atoms: C_12  and  O_13 
REMARK    7  A    between atoms: C_14  and  C_15 
REMARK    8  A    between atoms: C_14  and  C_28 
REMARK    9  A    between atoms: N_19  and  C_20 
REMARK   10  A    between atoms: C_20  and  C_21 
REMARK   11  A    between atoms: C_31  and  O_32 
ROOT
ATOM      1  N   UNL d   1      29.044 -15.390  -1.789  0.00  0.00    -0.053 N 
ATOM      2  H   UNL d   1      28.705 -16.089  -1.125  0.00  0.00     0.281 HD
ENDROOT
BRANCH   1   3
ATOM      3  C   UNL d   1      28.622 -15.951  -3.280  0.00  0.00     0.264 C 
BRANCH   3   4
ATOM      4  C   UNL d   1      27.149 -15.537  -3.526  0.00  0.00     0.179 A 
ATOM      5  N   UNL d   1      26.734 -15.343  -4.774  0.00  0.00    -0.112 NA
ATOM      6  N   UNL d   1      25.395 -15.132  -4.749  0.00  0.00    -0.023 NA
ATOM      7  N   UNL d   1      24.946 -15.199  -3.512  0.00  0.00    -0.044 NA
ATOM      8  N   UNL d   1      26.021 -15.442  -2.702  0.00  0.00    -0.228 N 
BRANCH   8   9
ATOM      9  C   UNL d   1      25.660 -15.515  -1.254  0.00  0.00     0.193 C 
BRANCH   9  10
ATOM     10  C   UNL d   1      24.570 -16.475  -0.729  0.00  0.00    -0.039 C 
ATOM     11  C   UNL d   1      23.291 -16.366  -0.891  0.00  0.00     0.008 C 
ATOM     12  C   UNL d   1      22.263 -17.385  -0.895  0.00  0.00     0.025 C 
ATOM     13  C   UNL d   1      22.325 -18.656  -0.436  0.00  0.00     0.182 C 
ATOM     14  F   UNL d   1      21.325 -19.474  -0.850  0.00  0.00    -0.230 F 
ATOM     15  C   UNL d   1      23.619 -18.913  -0.505  0.00  0.00     0.025 C 
ATOM     16  C   UNL d   1      24.744 -17.832  -0.580  0.00  0.00     0.008 C 
ENDBRANCH   9  10
ENDBRANCH   8   9
ENDBRANCH   3   4
BRANCH   3  17
ATOM     17  C   UNL d   1      29.601 -15.636  -4.429  0.00  0.00     0.016 C 
ATOM     18  C   UNL d   1      29.961 -16.756  -5.406  0.00  0.00     0.012 C 
ATOM     19  C   UNL d   1      29.421 -14.191  -5.211  0.00  0.00     0.012 C 
ENDBRANCH   3  17
ENDBRANCH   1   3
BRANCH   1  20
ATOM     20  C   UNL d   1      30.568 -15.554  -1.659  0.00  0.00     0.262 C 
BRANCH  20  21
ATOM     21  C   UNL d   1      31.052 -16.788  -0.883  0.00  0.00     0.192 C 
BRANCH  21  22
ATOM     22  O   UNL d   1      29.953 -17.665  -0.696  0.00  0.00    -0.399 OA
ATOM     23  H   UNL d   1      29.924 -17.970   0.228  0.00  0.00     0.209 HD
ENDBRANCH  21  22
ENDBRANCH  20  21
ENDBRANCH   1  20
BRANCH   1  24
ATOM     24  C   UNL d   1      28.568 -14.042  -1.125  0.00  0.00     0.279 C 
BRANCH  24  25
ATOM     25  C   UNL d   1      27.932 -14.053   0.330  0.00  0.00     0.021 C 
ATOM     26  C   UNL d   1      27.507 -12.879   1.084  0.00  0.00     0.027 C 
ATOM     27  C   UNL d   1      27.418 -12.745   2.611  0.00  0.00    -0.001 C 
ATOM     28  C   UNL d   1      27.647 -11.460   3.507  0.00  0.00    -0.049 C 
ATOM     29  C   UNL d   1      27.611 -14.029   3.235  0.00  0.00     0.071 C 
ATOM     30  C   UNL d   1      28.142 -11.613   4.825  0.00  0.00     0.014 C 
ATOM     31  C   UNL d   1      27.882  -9.951   2.993  0.00  0.00     0.049 C 
ATOM     32  C   UNL d   1      28.236 -12.880   5.401  0.00  0.00    -0.059 C 
ATOM     33  C   UNL d   1      28.440 -12.965   6.893  0.00  0.00     0.048 C 
ATOM     34  C   UNL d   1      27.997 -14.044   4.610  0.00  0.00     0.039 C 
ATOM     35  N   UNL d   1      27.780 -15.190   2.488  0.00  0.00    -0.224 NA
ATOM     36  C   UNL d   1      27.963 -15.205   1.120  0.00  0.00     0.170 C 
BRANCH  36  37
ATOM     37  O   UNL d   1      28.490 -16.392   0.667  0.00  0.00    -0.344 OA
ATOM     38  H   UNL d   1      29.258 -16.733   1.147  0.00  0.00     0.219 HD
ENDBRANCH  36  37
ENDBRANCH  24  25
ENDBRANCH   1  24
TORSDOF 11
ENDMDL
MODEL 3
REMARK VINA RESULT:    -9.263      1.839      2.756
REMARK INTER + INTRA:         -18.236
REMARK INTER:                 -12.544
REMARK INTRA:                  -5.693
REMARK CONF_INDEPENDENT:        3.281
REMARK UNBOUND:                -5.693
REMARK  11 active torsions:
REMARK  status: ('A' for Active; 'I' for Inactive)
REMARK    1  A    between atoms: C_8  and  C_9 
REMARK    2  A    between atoms: N_10  and  C_9 
REMARK    3  A    between atoms: N_10  and  C_14 
REMARK    4  A    between atoms: N_10  and  C_11 
REMARK    5  A    between atoms: C_11  and  C_12 
REMARK    6  A    between atoms: C_12  and  O_13 
REMARK    7  A    between atoms: C_14  and  C_15 
REMARK    8  A    between atoms: C_14  and  C_28 
REMARK    9  A    between atoms: N_19  and  C_20 
REMARK   10  A    between atoms: C_20  and  C_21 
REMARK   11  A    between atoms: C_31  and  O_32 
ROOT
ATOM      1  N   UNL d   1      28.411 -14.468  -0.263  0.00  0.00    -0.053 N 
ATOM      2  H   UNL d   1      28.544 -15.129   0.504  0.00  0.00     0.281 HD
ENDROOT
BRANCH   1   3
ATOM      3  C   UNL d   1      27.404 -15.221  -1.330  0.00  0.00     0.264 C 
BRANCH   3   4
ATOM      4  C   UNL d   1      27.037 -16.597  -0.720  0.00  0.00     0.179 A 
ATOM      5  N   UNL d   1      27.893 -17.181   0.113  0.00  0.00    -0.112 NA
ATOM      6  N   UNL d   1      27.301 -18.290   0.623  0.00  0.00    -0.023 NA
ATOM      7  N   UNL d   1      26.082 -18.417   0.141  0.00  0.00    -0.044 NA
ATOM      8  N   UNL d   1      25.874 -17.376  -0.721  0.00  0.00    -0.228 N 
BRANCH   8   9
ATOM      9  C   UNL d   1      24.528 -17.410  -1.369  0.00  0.00     0.193 C 
BRANCH   9  10
ATOM     10  C   UNL d   1      23.396 -18.328  -0.857  0.00  0.00    -0.039 C 
ATOM     11  C   UNL d   1      22.877 -18.340   0.327  0.00  0.00     0.008 C 
ATOM     12  C   UNL d   1      21.562 -18.759   0.763  0.00  0.00     0.025 C 
ATOM     13  C   UNL d   1      20.653 -19.520   0.111  0.00  0.00     0.182 C 
ATOM     14  F   UNL d   1      19.396 -19.492   0.621  0.00  0.00    -0.230 F 
ATOM     15  C   UNL d   1      20.984 -19.325  -1.153  0.00  0.00     0.025 C 
ATOM     16  C   UNL d   1      22.371 -18.799  -1.645  0.00  0.00     0.008 C 
ENDBRANCH   9  10
ENDBRANCH   8   9
ENDBRANCH   3   4
BRANCH   3  17
ATOM     17  C   UNL d   1      26.218 -14.387  -1.851  0.00  0.00     0.016 C 
ATOM     18  C   UNL d   1      26.408 -12.879  -2.023  0.00  0.00     0.012 C 
ATOM     19  C   UNL d   1      25.320 -15.023  -3.085  0.00  0.00     0.012 C 
ENDBRANCH   3  17
ENDBRANCH   1   3
BRANCH   1  20
ATOM     20  C   UNL d   1      29.811 -14.448  -0.899  0.00  0.00     0.262 C 
BRANCH  20  21
ATOM     21  C   UNL d   1      30.803 -15.503  -0.388  0.00  0.00     0.192 C 
BRANCH  21  22
ATOM     22  O   UNL d   1      30.492 -15.797   0.965  0.00  0.00    -0.399 OA
ATOM     23  H   UNL d   1      29.679 -16.330   1.011  0.00  0.00     0.209 HD
ENDBRANCH  21  22
ENDBRANCH  20  21
ENDBRANCH   1  20
BRANCH   1  24
ATOM     24  C   UNL d   1      28.125 -13.121   0.504  0.00  0.00     0.279 C 
BRANCH  24  25
ATOM     25  C   UNL d   1      27.703 -13.151   2.034  0.00  0.00     0.021 C 
ATOM     26  C   UNL d   1      27.647 -11.998   2.926  0.00  0.00     0.027 C 
ATOM     27  C   UNL d   1      27.793 -12.005   4.454  0.00  0.00    -0.001 C 
ATOM     28  C   UNL d   1      28.413 -10.893   5.395  0.00  0.00    -0.049 C 
ATOM     29  C   UNL d   1      27.785 -13.359   4.948  0.00  0.00     0.071 C 
ATOM     30  C   UNL d   1      29.035 -11.278   6.608  0.00  0.00     0.014 C 
ATOM     31  C   UNL d   1      28.899  -9.419   4.960  0.00  0.00     0.049 C 
ATOM     32  C   UNL d   1      28.928 -12.589   7.070  0.00  0.00    -0.059 C 
ATOM     33  C   UNL d   1      29.307 -12.867   8.504  0.00  0.00     0.048 C 
ATOM     34  C   UNL d   1      28.339 -13.593   6.244  0.00  0.00     0.039 C 
ATOM     35  N   UNL d   1      27.597 -14.448   4.103  0.00  0.00    -0.224 NA
ATOM     36  C   UNL d   1      27.589 -14.359   2.726  0.00  0.00     0.170 C 
BRANCH  36  37
ATOM     37  O   UNL d   1      27.780 -15.576   2.114  0.00  0.00    -0.344 OA
ATOM     38  H   UNL d   1      28.694 -15.885   2.046  0.00  0.00     0.219 HD
ENDBRANCH  36  37
ENDBRANCH  24  25
ENDBRANCH   1  24
TORSDOF 11
ENDMDL
MODEL 4
REMARK VINA RESULT:    -8.950      2.337      3.831
REMARK INTER + INTRA:         -18.443
REMARK INTER:                 -12.232
REMARK INTRA:                  -6.211
REMARK CONF_INDEPENDENT:        3.281
REMARK UNBOUND:                -6.211
REMARK  11 active torsions:
REMARK  status: ('A' for Active; 'I' for Inactive)
REMARK    1  A    between atoms: C_8  and  C_9 
REMARK    2  A    between atoms: N_10  and  C_9 
REMARK    3  A    between atoms: N_10  and  C_14 
REMARK    4  A    between atoms: N_10  and  C_11 
REMARK    5  A    between atoms: C_11  and  C_12 
REMARK    6  A    between atoms: C_12  and  O_13 
REMARK    7  A    between atoms: C_14  and  C_15 
REMARK    8  A    between atoms: C_14  and  C_28 
REMARK    9  A    between atoms: N_19  and  C_20 
REMARK   10  A    between atoms: C_20  and  C_21 
REMARK   11  A    between atoms: C_31  and  O_32 
ROOT
ATOM      1  N   UNL d   1      27.713 -15.539  -1.308  0.00  0.00    -0.053 N 
ATOM      2  H   UNL d   1      27.964 -15.993  -0.428  0.00  0.00     0.281 HD
ENDROOT
BRANCH   1   3
ATOM      3  C   UNL d   1      26.607 -16.531  -2.021  0.00  0.00     0.264 C 
BRANCH   3   4
ATOM      4  C   UNL d   1      25.986 -17.405  -0.903  0.00  0.00     0.179 A 
ATOM      5  N   UNL d   1      26.747 -17.774   0.123  0.00  0.00    -0.112 NA
ATOM      6  N   UNL d   1      25.961 -18.402   1.032  0.00  0.00    -0.023 NA
ATOM      7  N   UNL d   1      24.712 -18.430   0.612  0.00  0.00    -0.044 NA
ATOM      8  N   UNL d   1      24.681 -17.820  -0.612  0.00  0.00    -0.228 N 
BRANCH   8   9
ATOM      9  C   UNL d   1      23.319 -17.805  -1.225  0.00  0.00     0.193 C 
BRANCH   9  10
ATOM     10  C   UNL d   1      22.181 -18.717  -0.716  0.00  0.00    -0.039 C 
ATOM     11  C   UNL d   1      21.841 -18.926   0.514  0.00  0.00     0.008 C 
ATOM     12  C   UNL d   1      20.566 -19.322   1.074  0.00  0.00     0.025 C 
ATOM     13  C   UNL d   1      19.495 -19.865   0.449  0.00  0.00     0.182 C 
ATOM     14  F   UNL d   1      18.337 -19.843   1.153  0.00  0.00    -0.230 F 
ATOM     15  C   UNL d   1      19.659 -19.445  -0.793  0.00  0.00     0.025 C 
ATOM     16  C   UNL d   1      21.008 -18.940  -1.399  0.00  0.00     0.008 C 
ENDBRANCH   9  10
ENDBRANCH   8   9
ENDBRANCH   3   4
BRANCH   3  17
ATOM     17  C   UNL d   1      25.600 -15.855  -2.973  0.00  0.00     0.016 C 
ATOM     18  C   UNL d   1      24.606 -14.850  -2.387  0.00  0.00     0.012 C 
ATOM     19  C   UNL d   1      26.158 -15.357  -4.447  0.00  0.00     0.012 C 
ENDBRANCH   3  17
ENDBRANCH   1   3
BRANCH   1  20
ATOM     20  C   UNL d   1      29.020 -15.670  -2.107  0.00  0.00     0.262 C 
BRANCH  20  21
ATOM     21  C   UNL d   1      30.021 -16.720  -1.601  0.00  0.00     0.192 C 
BRANCH  21  22
ATOM     22  O   UNL d   1      29.323 -17.663  -0.805  0.00  0.00    -0.399 OA
ATOM     23  H   UNL d   1      28.912 -17.217  -0.043  0.00  0.00     0.209 HD
ENDBRANCH  21  22
ENDBRANCH  20  21
ENDBRANCH   1  20
BRANCH   1  24
ATOM     24  C   UNL d   1      27.480 -14.047  -0.856  0.00  0.00     0.279 C 
BRANCH  24  25
ATOM     25  C   UNL d   1      27.146 -13.717   0.661  0.00  0.00     0.021 C 
ATOM     26  C   UNL d   1      26.818 -12.401   1.195  0.00  0.00     0.027 C 
ATOM     27  C   UNL d   1      27.025 -11.911   2.636  0.00  0.00    -0.001 C 
ATOM     28  C   UNL d   1      27.360 -10.451   3.147  0.00  0.00    -0.049 C 
ATOM     29  C   UNL d   1      27.405 -13.011   3.485  0.00  0.00     0.071 C 
ATOM     30  C   UNL d   1      28.113 -10.286   4.335  0.00  0.00     0.014 C 
ATOM     31  C   UNL d   1      27.410  -9.104   2.262  0.00  0.00     0.049 C 
ATOM     32  C   UNL d   1      28.385 -11.382   5.154  0.00  0.00    -0.059 C 
ATOM     33  C   UNL d   1      28.884 -11.113   6.552  0.00  0.00     0.048 C 
ATOM     34  C   UNL d   1      28.055 -12.700   4.718  0.00  0.00     0.039 C 
ATOM     35  N   UNL d   1      27.483 -14.315   3.007  0.00  0.00    -0.224 NA
ATOM     36  C   UNL d   1      27.393 -14.650   1.671  0.00  0.00     0.170 C 
BRANCH  36  37
ATOM     37  O   UNL d   1      27.880 -15.908   1.405  0.00  0.00    -0.344 OA
ATOM     38  H   UNL d   1      27.231 -16.625   1.378  0.00  0.00     0.219 HD
ENDBRANCH  36  37
ENDBRANCH  24  25
ENDBRANCH   1  24
TORSDOF 11
ENDMDL
MODEL 5
REMARK VINA RESULT:    -8.549      5.799     10.350
REMARK INTER + INTRA:         -17.762
REMARK INTER:                 -11.830
REMARK INTRA:                  -5.932
REMARK CONF_INDEPENDENT:        3.281
REMARK UNBOUND:                -5.932
REMARK  11 active torsions:
REMARK  status: ('A' for Active; 'I' for Inactive)
REMARK    1  A    between atoms: C_8  and  C_9 
REMARK    2  A    between atoms: N_10  and  C_9 
REMARK    3  A    between atoms: N_10  and  C_14 
REMARK    4  A    between atoms: N_10  and  C_11 
REMARK    5  A    between atoms: C_11  and  C_12 
REMARK    6  A    between atoms: C_12  and  O_13 
REMARK    7  A    between atoms: C_14  and  C_15 
REMARK    8  A    between atoms: C_14  and  C_28 
REMARK    9  A    between atoms: N_19  and  C_20 
REMARK   10  A    between atoms: C_20  and  C_21 
REMARK   11  A    between atoms: C_31  and  O_32 
ROOT
ATOM      1  N   UNL d   1      29.868 -15.590  -3.340  0.00  0.00    -0.053 N 
ATOM      2  H   UNL d   1      29.720 -15.258  -4.296  0.00  0.00     0.281 HD
ENDROOT
BRANCH   1   3
ATOM      3  C   UNL d   1      28.419 -15.404  -2.576  0.00  0.00     0.264 C 
BRANCH   3   4
ATOM      4  C   UNL d   1      27.329 -15.322  -3.674  0.00  0.00     0.179 A 
ATOM      5  N   UNL d   1      27.668 -15.563  -4.937  0.00  0.00    -0.112 NA
ATOM      6  N   UNL d   1      26.537 -15.574  -5.686  0.00  0.00    -0.023 NA
ATOM      7  N   UNL d   1      25.484 -15.359  -4.924  0.00  0.00    -0.044 NA
ATOM      8  N   UNL d   1      25.936 -15.183  -3.646  0.00  0.00    -0.228 N 
BRANCH   8   9
ATOM      9  C   UNL d   1      24.841 -14.898  -2.670  0.00  0.00     0.193 C 
BRANCH   9  10
ATOM     10  C   UNL d   1      24.364 -15.949  -1.644  0.00  0.00    -0.039 C 
ATOM     11  C   UNL d   1      23.206 -16.010  -1.071  0.00  0.00     0.008 C 
ATOM     12  C   UNL d   1      22.499 -17.147  -0.521  0.00  0.00     0.025 C 
ATOM     13  C   UNL d   1      22.980 -18.368  -0.189  0.00  0.00     0.182 C 
ATOM     14  F   UNL d   1      22.043 -19.329   0.007  0.00  0.00    -0.230 F 
ATOM     15  C   UNL d   1      24.045 -18.466  -0.965  0.00  0.00     0.025 C 
ATOM     16  C   UNL d   1      24.780 -17.261  -1.634  0.00  0.00     0.008 C 
ENDBRANCH   9  10
ENDBRANCH   8   9
ENDBRANCH   3   4
BRANCH   3  17
ATOM     17  C   UNL d   1      28.128 -16.382  -1.421  0.00  0.00     0.016 C 
ATOM     18  C   UNL d   1      29.232 -17.348  -0.990  0.00  0.00     0.012 C 
ATOM     19  C   UNL d   1      27.297 -15.798  -0.117  0.00  0.00     0.012 C 
ENDBRANCH   3  17
ENDBRANCH   1   3
BRANCH   1  20
ATOM     20  C   UNL d   1      30.814 -14.513  -2.783  0.00  0.00     0.262 C 
BRANCH  20  21
ATOM     21  C   UNL d   1      31.176 -13.368  -3.740  0.00  0.00     0.192 C 
BRANCH  21  22
ATOM     22  O   UNL d   1      30.579 -13.626  -5.001  0.00  0.00    -0.399 OA
ATOM     23  H   UNL d   1      31.033 -14.368  -5.439  0.00  0.00     0.209 HD
ENDBRANCH  21  22
ENDBRANCH  20  21
ENDBRANCH   1  20
BRANCH   1  24
ATOM     24  C   UNL d   1      30.637 -16.945  -3.574  0.00  0.00     0.279 C 
BRANCH  24  25
ATOM     25  C   UNL d   1      30.379 -17.790  -4.894  0.00  0.00     0.021 C 
ATOM     26  C   UNL d   1      30.496 -19.238  -5.016  0.00  0.00     0.027 C 
ATOM     27  C   UNL d   1      30.803 -20.035  -6.292  0.00  0.00    -0.001 C 
ATOM     28  C   UNL d   1      31.593 -21.399  -6.442  0.00  0.00    -0.049 C 
ATOM     29  C   UNL d   1      30.757 -19.169  -7.443  0.00  0.00     0.071 C 
ATOM     30  C   UNL d   1      32.314 -21.657  -7.634  0.00  0.00     0.014 C 
ATOM     31  C   UNL d   1      32.128 -22.342  -5.250  0.00  0.00     0.049 C 
ATOM     32  C   UNL d   1      32.168 -20.820  -8.740  0.00  0.00    -0.059 C 
ATOM     33  C   UNL d   1      32.678 -21.313 -10.072  0.00  0.00     0.048 C 
ATOM     34  C   UNL d   1      31.428 -19.605  -8.625  0.00  0.00     0.039 C 
ATOM     35  N   UNL d   1      30.407 -17.827  -7.338  0.00  0.00    -0.224 NA
ATOM     36  C   UNL d   1      30.258 -17.163  -6.137  0.00  0.00     0.170 C 
BRANCH  36  37
ATOM     37  O   UNL d   1      30.300 -15.796  -6.276  0.00  0.00    -0.344 OA
ATOM     38  H   UNL d   1      29.523 -15.307  -5.971  0.00  0.00     0.219 HD
ENDBRANCH  36  37
ENDBRANCH  24  25
ENDBRANCH   1  24
TORSDOF 11
ENDMDL
MODEL 6
REMARK VINA RESULT:    -8.411      1.511      2.331
REMARK INTER + INTRA:         -17.463
REMARK INTER:                 -11.692
REMARK INTRA:                  -5.771
REMARK CONF_INDEPENDENT:        3.281
REMARK UNBOUND:                -5.771
REMARK  11 active torsions:
REMARK  status: ('A' for Active; 'I' for Inactive)
REMARK    1  A    between atoms: C_8  and  C_9 
REMARK    2  A    between atoms: N_10  and  C_9 
REMARK    3  A    between atoms: N_10  and  C_14 
REMARK    4  A    between atoms: N_10  and  C_11 
REMARK    5  A    between atoms: C_11  and  C_12 
REMARK    6  A    between atoms: C_12  and  O_13 
REMARK    7  A    between atoms: C_14  and  C_15 
REMARK    8  A    between atoms: C_14  and  C_28 
REMARK    9  A    between atoms: N_19  and  C_20 
REMARK   10  A    between atoms: C_20  and  C_21 
REMARK   11  A    between atoms: C_31  and  O_32 
ROOT
ATOM      1  N   UNL d   1      29.545 -13.292   1.619  0.00  0.00    -0.053 N 
ATOM      2  H   UNL d   1      29.483 -14.171   2.136  0.00  0.00     0.281 HD
ENDROOT
BRANCH   1   3
ATOM      3  C   UNL d   1      28.491 -13.440   0.360  0.00  0.00     0.264 C 
BRANCH   3   4
ATOM      4  C   UNL d   1      28.322 -14.954   0.080  0.00  0.00     0.179 A 
ATOM      5  N   UNL d   1      29.291 -15.789   0.444  0.00  0.00    -0.112 NA
ATOM      6  N   UNL d   1      28.863 -17.057   0.230  0.00  0.00    -0.023 NA
ATOM      7  N   UNL d   1      27.637 -17.049  -0.252  0.00  0.00    -0.044 NA
ATOM      8  N   UNL d   1      27.257 -15.741  -0.374  0.00  0.00    -0.228 N 
BRANCH   8   9
ATOM      9  C   UNL d   1      25.885 -15.579  -0.942  0.00  0.00     0.193 C 
BRANCH   9  10
ATOM     10  C   UNL d   1      24.711 -16.490  -0.520  0.00  0.00    -0.039 C 
ATOM     11  C   UNL d   1      23.458 -16.325  -0.794  0.00  0.00     0.008 C 
ATOM     12  C   UNL d   1      22.390 -17.297  -0.894  0.00  0.00     0.025 C 
ATOM     13  C   UNL d   1      22.355 -18.571  -0.437  0.00  0.00     0.182 C 
ATOM     14  F   UNL d   1      21.361 -19.343  -0.942  0.00  0.00    -0.230 F 
ATOM     15  C   UNL d   1      23.638 -18.884  -0.394  0.00  0.00     0.025 C 
ATOM     16  C   UNL d   1      24.812 -17.854  -0.363  0.00  0.00     0.008 C 
ENDBRANCH   9  10
ENDBRANCH   8   9
ENDBRANCH   3   4
BRANCH   3  17
ATOM     17  C   UNL d   1      27.182 -12.634   0.469  0.00  0.00     0.016 C 
ATOM     18  C   UNL d   1      26.164 -13.041   1.536  0.00  0.00     0.012 C 
ATOM     19  C   UNL d   1      27.284 -10.990   0.333  0.00  0.00     0.012 C 
ENDBRANCH   3  17
ENDBRANCH   1   3
BRANCH   1  20
ATOM     20  C   UNL d   1      30.964 -13.379   1.033  0.00  0.00     0.262 C 
BRANCH  20  21
ATOM     21  C   UNL d   1      31.800 -14.595   1.459  0.00  0.00     0.192 C 
BRANCH  21  22
ATOM     22  O   UNL d   1      31.180 -15.199   2.583  0.00  0.00    -0.399 OA
ATOM     23  H   UNL d   1      30.444 -15.766   2.292  0.00  0.00     0.209 HD
ENDBRANCH  21  22
ENDBRANCH  20  21
ENDBRANCH   1  20
BRANCH   1  24
ATOM     24  C   UNL d   1      29.481 -12.221   2.774  0.00  0.00     0.279 C 
BRANCH  24  25
ATOM     25  C   UNL d   1      28.852 -12.606   4.181  0.00  0.00     0.021 C 
ATOM     26  C   UNL d   1      28.669 -11.699   5.309  0.00  0.00     0.027 C 
ATOM     27  C   UNL d   1      28.604 -12.078   6.795  0.00  0.00    -0.001 C 
ATOM     28  C   UNL d   1      29.084 -11.242   8.052  0.00  0.00    -0.049 C 
ATOM     29  C   UNL d   1      28.535 -13.510   6.942  0.00  0.00     0.071 C 
ATOM     30  C   UNL d   1      29.535 -11.925   9.208  0.00  0.00     0.014 C 
ATOM     31  C   UNL d   1      29.618  -9.722   8.055  0.00  0.00     0.049 C 
ATOM     32  C   UNL d   1      29.372 -13.305   9.321  0.00  0.00    -0.059 C 
ATOM     33  C   UNL d   1      29.551 -13.929  10.682  0.00  0.00     0.048 C 
ATOM     34  C   UNL d   1      28.906 -14.063   8.205  0.00  0.00     0.039 C 
ATOM     35  N   UNL d   1      28.470 -14.358   5.841  0.00  0.00    -0.224 NA
ATOM     36  C   UNL d   1      28.650 -13.941   4.538  0.00  0.00     0.170 C 
BRANCH  36  37
ATOM     37  O   UNL d   1      28.929 -14.980   3.681  0.00  0.00    -0.344 OA
ATOM     38  H   UNL d   1      29.590 -15.619   3.981  0.00  0.00     0.219 HD
ENDBRANCH  36  37
ENDBRANCH  24  25
ENDBRANCH   1  24
TORSDOF 11
ENDMDL
MODEL 7
REMARK VINA RESULT:    -7.947      5.657      9.538
REMARK INTER + INTRA:         -17.615
REMARK INTER:                 -11.229
REMARK INTRA:                  -6.386
REMARK CONF_INDEPENDENT:        3.281
REMARK UNBOUND:                -6.386
REMARK  11 active torsions:
REMARK  status: ('A' for Active; 'I' for Inactive)
REMARK    1  A    between atoms: C_8  and  C_9 
REMARK    2  A    between atoms: N_10  and  C_9 
REMARK    3  A    between atoms: N_10  and  C_14 
REMARK    4  A    between atoms: N_10  and  C_11 
REMARK    5  A    between atoms: C_11  and  C_12 
REMARK    6  A    between atoms: C_12  and  O_13 
REMARK    7  A    between atoms: C_14  and  C_15 
REMARK    8  A    between atoms: C_14  and  C_28 
REMARK    9  A    between atoms: N_19  and  C_20 
REMARK   10  A    between atoms: C_20  and  C_21 
REMARK   11  A    between atoms: C_31  and  O_32 
ROOT
ATOM      1  N   UNL d   1      27.568 -11.731  -4.682  0.00  0.00    -0.053 N 
ATOM      2  H   UNL d   1      26.997 -12.214  -5.378  0.00  0.00     0.281 HD
ENDROOT
BRANCH   1   3
ATOM      3  C   UNL d   1      26.856 -12.040  -3.228  0.00  0.00     0.264 C 
BRANCH   3   4
ATOM      4  C   UNL d   1      25.876 -13.221  -3.440  0.00  0.00     0.179 A 
ATOM      5  N   UNL d   1      25.140 -13.256  -4.547  0.00  0.00    -0.112 NA
ATOM      6  N   UNL d   1      24.474 -14.438  -4.577  0.00  0.00    -0.023 NA
ATOM      7  N   UNL d   1      24.781 -15.161  -3.520  0.00  0.00    -0.044 NA
ATOM      8  N   UNL d   1      25.656 -14.428  -2.766  0.00  0.00    -0.228 N 
BRANCH   8   9
ATOM      9  C   UNL d   1      26.070 -15.121  -1.509  0.00  0.00     0.193 C 
BRANCH   9  10
ATOM     10  C   UNL d   1      25.146 -16.126  -0.785  0.00  0.00    -0.039 C 
ATOM     11  C   UNL d   1      23.873 -16.276  -0.954  0.00  0.00     0.008 C 
ATOM     12  C   UNL d   1      23.035 -17.436  -0.736  0.00  0.00     0.025 C 
ATOM     13  C   UNL d   1      23.301 -18.554  -0.023  0.00  0.00     0.182 C 
ATOM     14  F   UNL d   1      22.467 -19.600  -0.248  0.00  0.00    -0.230 F 
ATOM     15  C   UNL d   1      24.621 -18.592  -0.049  0.00  0.00     0.025 C 
ATOM     16  C   UNL d   1      25.546 -17.371  -0.358  0.00  0.00     0.008 C 
ENDBRANCH   9  10
ENDBRANCH   8   9
ENDBRANCH   3   4
BRANCH   3  17
ATOM     17  C   UNL d   1      27.804 -12.171  -2.020  0.00  0.00     0.016 C 
ATOM     18  C   UNL d   1      27.254 -11.863  -0.626  0.00  0.00     0.012 C 
ATOM     19  C   UNL d   1      28.825 -13.471  -1.988  0.00  0.00     0.012 C 
ENDBRANCH   3  17
ENDBRANCH   1   3
BRANCH   1  20
ATOM     20  C   UNL d   1      27.285 -10.258  -5.020  0.00  0.00     0.262 C 
BRANCH  20  21
ATOM     21  C   UNL d   1      26.032  -9.986  -5.866  0.00  0.00     0.192 C 
BRANCH  21  22
ATOM     22  O   UNL d   1      25.476 -11.229  -6.264  0.00  0.00    -0.399 OA
ATOM     23  H   UNL d   1      24.780 -11.497  -5.639  0.00  0.00     0.209 HD
ENDBRANCH  21  22
ENDBRANCH  20  21
ENDBRANCH   1  20
BRANCH   1  24
ATOM     24  C   UNL d   1      29.030 -12.134  -5.114  0.00  0.00     0.279 C 
BRANCH  24  25
ATOM     25  C   UNL d   1      29.462 -13.662  -5.129  0.00  0.00     0.021 C 
ATOM     26  C   UNL d   1      30.833 -14.159  -5.151  0.00  0.00     0.027 C 
ATOM     27  C   UNL d   1      31.317 -15.508  -5.704  0.00  0.00    -0.001 C 
ATOM     28  C   UNL d   1      32.700 -15.859  -6.388  0.00  0.00    -0.049 C 
ATOM     29  C   UNL d   1      30.190 -16.347  -6.023  0.00  0.00     0.071 C 
ATOM     30  C   UNL d   1      32.752 -16.885  -7.363  0.00  0.00     0.014 C 
ATOM     31  C   UNL d   1      33.985 -14.895  -6.523  0.00  0.00     0.049 C 
ATOM     32  C   UNL d   1      31.650 -17.714  -7.573  0.00  0.00    -0.059 C 
ATOM     33  C   UNL d   1      31.859 -18.984  -8.360  0.00  0.00     0.048 C 
ATOM     34  C   UNL d   1      30.407 -17.427  -6.933  0.00  0.00     0.039 C 
ATOM     35  N   UNL d   1      28.881 -15.947  -5.772  0.00  0.00    -0.224 NA
ATOM     36  C   UNL d   1      28.530 -14.671  -5.380  0.00  0.00     0.170 C 
BRANCH  36  37
ATOM     37  O   UNL d   1      27.194 -14.406  -5.571  0.00  0.00    -0.344 OA
ATOM     38  H   UNL d   1      26.583 -14.785  -4.924  0.00  0.00     0.219 HD
ENDBRANCH  36  37
ENDBRANCH  24  25
ENDBRANCH   1  24
TORSDOF 11
ENDMDL
MODEL 8
REMARK VINA RESULT:    -7.681      5.930      8.671
REMARK INTER + INTRA:         -17.647
REMARK INTER:                 -10.963
REMARK INTRA:                  -6.684
REMARK CONF_INDEPENDENT:        3.281
REMARK UNBOUND:                -6.684
REMARK  11 active torsions:
REMARK  status: ('A' for Active; 'I' for Inactive)
REMARK    1  A    between atoms: C_8  and  C_9 
REMARK    2  A    between atoms: N_10  and  C_9 
REMARK    3  A    between atoms: N_10  and  C_14 
REMARK    4  A    between atoms: N_10  and  C_11 
REMARK    5  A    between atoms: C_11  and  C_12 
REMARK    6  A    between atoms: C_12  and  O_13 
REMARK    7  A    between atoms: C_14  and  C_15 
REMARK    8  A    between atoms: C_14  and  C_28 
REMARK    9  A    between atoms: N_19  and  C_20 
REMARK   10  A    between atoms: C_20  and  C_21 
REMARK   11  A    between atoms: C_31  and  O_32 
ROOT
ATOM      1  N   UNL d   1      29.864 -14.765  -2.362  0.00  0.00    -0.053 N 
ATOM      2  H   UNL d   1      30.667 -14.956  -1.760  0.00  0.00     0.281 HD
ENDROOT
BRANCH   1   3
ATOM      3  C   UNL d   1      29.479 -16.208  -3.060  0.00  0.00     0.264 C 
BRANCH   3   4
ATOM      4  C   UNL d   1      28.648 -15.895  -4.330  0.00  0.00     0.179 A 
ATOM      5  N   UNL d   1      27.363 -15.579  -4.197  0.00  0.00    -0.112 NA
ATOM      6  N   UNL d   1      26.888 -15.212  -5.413  0.00  0.00    -0.023 NA
ATOM      7  N   UNL d   1      27.846 -15.277  -6.315  0.00  0.00    -0.044 NA
ATOM      8  N   UNL d   1      28.974 -15.715  -5.679  0.00  0.00    -0.228 N 
BRANCH   8   9
ATOM      9  C   UNL d   1      30.144 -15.864  -6.597  0.00  0.00     0.193 C 
BRANCH   9  10
ATOM     10  C   UNL d   1      30.845 -17.223  -6.816  0.00  0.00    -0.039 C 
ATOM     11  C   UNL d   1      30.476 -18.373  -6.355  0.00  0.00     0.008 C 
ATOM     12  C   UNL d   1      30.727 -19.705  -6.866  0.00  0.00     0.025 C 
ATOM     13  C   UNL d   1      31.650 -20.109  -7.769  0.00  0.00     0.182 C 
ATOM     14  F   UNL d   1      31.454 -21.346  -8.289  0.00  0.00    -0.230 F 
ATOM     15  C   UNL d   1      31.868 -19.002  -8.456  0.00  0.00     0.025 C 
ATOM     16  C   UNL d   1      31.535 -17.558  -7.959  0.00  0.00     0.008 C 
ENDBRANCH   9  10
ENDBRANCH   8   9
ENDBRANCH   3   4
BRANCH   3  17
ATOM     17  C   UNL d   1      30.641 -17.202  -3.254  0.00  0.00     0.016 C 
ATOM     18  C   UNL d   1      32.022 -16.648  -3.607  0.00  0.00     0.012 C 
ATOM     19  C   UNL d   1      30.754 -18.462  -2.190  0.00  0.00     0.012 C 
ENDBRANCH   3  17
ENDBRANCH   1   3
BRANCH   1  20
ATOM     20  C   UNL d   1      30.498 -13.889  -3.455  0.00  0.00     0.262 C 
BRANCH  20  21
ATOM     21  C   UNL d   1      29.703 -12.643  -3.871  0.00  0.00     0.192 C 
BRANCH  21  22
ATOM     22  O   UNL d   1      28.722 -13.029  -4.821  0.00  0.00    -0.399 OA
ATOM     23  H   UNL d   1      28.219 -13.793  -4.489  0.00  0.00     0.209 HD
ENDBRANCH  21  22
ENDBRANCH  20  21
ENDBRANCH   1  20
BRANCH   1  24
ATOM     24  C   UNL d   1      28.939 -13.904  -1.420  0.00  0.00     0.279 C 
BRANCH  24  25
ATOM     25  C   UNL d   1      27.453 -14.376  -1.115  0.00  0.00     0.021 C 
ATOM     26  C   UNL d   1      27.061 -15.368  -0.120  0.00  0.00     0.027 C 
ATOM     27  C   UNL d   1      25.804 -16.248  -0.141  0.00  0.00    -0.001 C 
ATOM     28  C   UNL d   1      25.614 -17.718   0.417  0.00  0.00    -0.049 C 
ATOM     29  C   UNL d   1      24.914 -15.821  -1.190  0.00  0.00     0.071 C 
ATOM     30  C   UNL d   1      24.681 -18.582  -0.205  0.00  0.00     0.014 C 
ATOM     31  C   UNL d   1      26.678 -18.570   1.278  0.00  0.00     0.049 C 
ATOM     32  C   UNL d   1      23.795 -18.090  -1.163  0.00  0.00    -0.059 C 
ATOM     33  C   UNL d   1      22.614 -18.949  -1.543  0.00  0.00     0.048 C 
ATOM     34  C   UNL d   1      23.934 -16.755  -1.647  0.00  0.00     0.039 C 
ATOM     35  N   UNL d   1      25.194 -14.714  -1.985  0.00  0.00    -0.224 NA
ATOM     36  C   UNL d   1      26.403 -14.048  -1.976  0.00  0.00     0.170 C 
BRANCH  36  37
ATOM     37  O   UNL d   1      26.585 -13.262  -3.090  0.00  0.00    -0.344 OA
ATOM     38  H   UNL d   1      26.909 -13.710  -3.884  0.00  0.00     0.219 HD
ENDBRANCH  36  37
ENDBRANCH  24  25
ENDBRANCH   1  24
TORSDOF 11
ENDMDL
