MODEL 1
REMARK VINA RESULT:    -7.377      0.000      0.000
REMARK INTER + INTRA:         -15.322
REMARK INTER:                 -10.957
REMARK INTRA:                  -4.365
REMARK CONF_INDEPENDENT:        3.580
REMARK UNBOUND:                -4.365
REMARK  12 active torsions:
REMARK  status: ('A' for Active; 'I' for Inactive)
REMARK    1  A    between atoms: C_2  and  C_3 
REMARK    2  A    between atoms: C_3  and  C_4 
REMARK    3  A    between atoms: C_4  and  N_5 
REMARK       I    between atoms: N_5  and  C_6 
REMARK    4  A    between atoms: C_8  and  C_6 
REMARK    5  A    between atoms: C_8  and  N_22 
REMARK    6  A    between atoms: C_8  and  C_9 
REMARK    7  A    between atoms: C_9  and  C_10 
REMARK    8  A    between atoms: C_9  and  C_16 
REMARK       I    between atoms: N_22  and  C_23 
REMARK    9  A    between atoms: N_22  and  C_33 
REMARK   10  A    between atoms: C_23  and  C_25 
REMARK   11  A    between atoms: C_29  and  O_30 
REMARK   12  A    between atoms: C_31  and  O_32 
ROOT
ATOM      1  C   UNL d   1      26.308 -14.397  -1.243  0.00  0.00     0.193 C 
ENDROOT
BRANCH   1   2
ATOM      2  N   UNL d   1      26.937 -13.644  -2.297  0.00  0.00    -0.325 N 
ATOM      3  C   UNL d   1      28.218 -12.944  -1.985  0.00  0.00     0.258 C 
ATOM      4  O   UNL d   1      28.853 -12.437  -2.969  0.00  0.00    -0.267 OA
BRANCH   3   5
ATOM      5  C   UNL d   1      29.053 -12.868  -0.343  0.00  0.00     0.068 A 
ATOM      6  C   UNL d   1      29.519 -11.589  -0.098  0.00  0.00     0.020 A 
ATOM      7  C   UNL d   1      30.520 -11.562   0.902  0.00  0.00     0.004 A 
ATOM      8  C   UNL d   1      31.111 -12.729   1.647  0.00  0.00     0.039 A 
ATOM      9  C   UNL d   1      30.756 -14.037   1.510  0.00  0.00     0.099 A 
ATOM     10  C   UNL d   1      29.750 -14.144   0.641  0.00  0.00     0.114 A 
BRANCH   9  11
ATOM     11  O   UNL d   1      31.327 -15.212   1.893  0.00  0.00    -0.358 OA
ATOM     12  H   UNL d   1      30.699 -15.803   2.313  0.00  0.00     0.217 HD
ENDBRANCH   9  11
BRANCH  10  13
ATOM     13  O   UNL d   1      29.515 -15.634   0.605  0.00  0.00    -0.357 OA
ATOM     14  H   UNL d   1      29.314 -16.129   1.423  0.00  0.00     0.217 HD
ENDBRANCH  10  13
ENDBRANCH   3   5
BRANCH   2  15
ATOM     15  C   UNL d   1      26.276 -13.835  -3.642  0.00  0.00     0.025 C 
ATOM     16  C   UNL d   1      24.764 -14.180  -3.544  0.00  0.00     0.037 C 
ATOM     17  C   UNL d   1      26.348 -12.511  -4.390  0.00  0.00     0.037 C 
ATOM     18  C   UNL d   1      26.991 -14.827  -4.537  0.00  0.00     0.037 C 
ENDBRANCH   2  15
ENDBRANCH   1   2
BRANCH   1  19
ATOM     19  C   UNL d   1      26.590 -15.744  -1.677  0.00  0.00     0.080 C 
BRANCH  19  20
ATOM     20  C   UNL d   1      25.185 -16.654  -0.745  0.00  0.00    -0.047 C 
ATOM     21  C   UNL d   1      25.392 -17.972  -0.157  0.00  0.00     0.008 C 
ATOM     22  C   UNL d   1      24.374 -18.949  -0.145  0.00  0.00     0.001 C 
ATOM     23  C   UNL d   1      23.059 -18.581  -0.351  0.00  0.00     0.000 C 
ATOM     24  C   UNL d   1      22.774 -17.247  -0.663  0.00  0.00     0.001 C 
ATOM     25  C   UNL d   1      23.811 -16.292  -0.882  0.00  0.00     0.008 C 
ENDBRANCH  19  20
BRANCH  19  26
ATOM     26  C   UNL d   1      28.558 -16.080  -1.782  0.00  0.00    -0.063 C 
ATOM     27  C   UNL d   1      29.396 -15.796  -2.875  0.00  0.00     0.004 C 
ATOM     28  C   UNL d   1      30.423 -16.818  -3.410  0.00  0.00    -0.003 C 
ATOM     29  C   UNL d   1      30.882 -18.051  -2.810  0.00  0.00    -0.021 C 
ATOM     30  C   UNL d   1      30.407 -18.332  -1.575  0.00  0.00     0.025 C 
ATOM     31  C   UNL d   1      29.316 -17.436  -1.326  0.00  0.00     0.032 C 
ENDBRANCH  19  26
ENDBRANCH   1  19
BRANCH   1  32
ATOM     32  C   UNL d   1      26.701 -14.240   0.283  0.00  0.00     0.241 C 
ATOM     33  N   UNL d   1      26.503 -12.974   0.763  0.00  0.00    -0.359 N 
ATOM     34  H   UNL d   1      26.494 -12.240   0.075  0.00  0.00     0.162 HD
ATOM     35  O   UNL d   1      27.161 -15.140   0.973  0.00  0.00    -0.271 OA
BRANCH  33  36
ATOM     36  C   UNL d   1      26.546 -12.591   2.133  0.00  0.00     0.122 C 
BRANCH  36  37
ATOM     37  C   UNL d   1      27.805 -13.154   2.789  0.00  0.00     0.019 C 
BRANCH  37  38
ATOM     38  C   UNL d   1      27.404 -13.789   4.104  0.00  0.00    -0.003 C 
ATOM     39  C   UNL d   1      28.405 -14.823   4.566  0.00  0.00     0.005 C 
ENDBRANCH  37  38
ENDBRANCH  36  37
ENDBRANCH  33  36
ENDBRANCH   1  32
TORSDOF 12
ENDMDL
MODEL 2
REMARK VINA RESULT:    -7.328      1.970      5.906
REMARK INTER + INTRA:         -14.481
REMARK INTER:                 -10.908
REMARK INTRA:                  -3.573
REMARK CONF_INDEPENDENT:        3.580
REMARK UNBOUND:                -3.573
REMARK  12 active torsions:
REMARK  status: ('A' for Active; 'I' for Inactive)
REMARK    1  A    between atoms: C_2  and  C_3 
REMARK    2  A    between atoms: C_3  and  C_4 
REMARK    3  A    between atoms: C_4  and  N_5 
REMARK       I    between atoms: N_5  and  C_6 
REMARK    4  A    between atoms: C_8  and  C_6 
REMARK    5  A    between atoms: C_8  and  N_22 
REMARK    6  A    between atoms: C_8  and  C_9 
REMARK    7  A    between atoms: C_9  and  C_10 
REMARK    8  A    between atoms: C_9  and  C_16 
REMARK       I    between atoms: N_22  and  C_23 
REMARK    9  A    between atoms: N_22  and  C_33 
REMARK   10  A    between atoms: C_23  and  C_25 
REMARK   11  A    between atoms: C_29  and  O_30 
REMARK   12  A    between atoms: C_31  and  O_32 
ROOT
ATOM      1  C   UNL d   1      27.436 -15.303  -1.401  0.00  0.00     0.193 C 
ENDROOT
BRANCH   1   2
ATOM      2  N   UNL d   1      27.207 -15.062  -2.802  0.00  0.00    -0.325 N 
ATOM      3  C   UNL d   1      28.153 -15.679  -3.779  0.00  0.00     0.258 C 
ATOM      4  O   UNL d   1      27.834 -15.609  -5.013  0.00  0.00    -0.267 OA
BRANCH   3   5
ATOM      5  C   UNL d   1      29.657 -16.664  -3.375  0.00  0.00     0.068 A 
ATOM      6  C   UNL d   1      30.332 -17.011  -4.532  0.00  0.00     0.020 A 
ATOM      7  C   UNL d   1      31.213 -18.100  -4.336  0.00  0.00     0.004 A 
ATOM      8  C   UNL d   1      31.440 -18.888  -3.073  0.00  0.00     0.039 A 
ATOM      9  C   UNL d   1      30.850 -18.665  -1.866  0.00  0.00     0.099 A 
ATOM     10  C   UNL d   1      30.060 -17.593  -1.941  0.00  0.00     0.114 A 
BRANCH   9  11
ATOM     11  O   UNL d   1      30.739 -19.396  -0.723  0.00  0.00    -0.358 OA
ATOM     12  H   UNL d   1      30.046 -19.069  -0.146  0.00  0.00     0.217 HD
ENDBRANCH   9  11
BRANCH  10  13
ATOM     13  O   UNL d   1      29.489 -17.519  -0.545  0.00  0.00    -0.357 OA
ATOM     14  H   UNL d   1      30.027 -17.774   0.230  0.00  0.00     0.217 HD
ENDBRANCH  10  13
ENDBRANCH   3   5
BRANCH   2  15
ATOM     15  C   UNL d   1      25.904 -14.350  -3.080  0.00  0.00     0.025 C 
ATOM     16  C   UNL d   1      25.953 -12.828  -2.768  0.00  0.00     0.037 C 
ATOM     17  C   UNL d   1      25.623 -14.455  -4.572  0.00  0.00     0.037 C 
ATOM     18  C   UNL d   1      24.704 -14.991  -2.411  0.00  0.00     0.037 C 
ENDBRANCH   2  15
ENDBRANCH   1   2
BRANCH   1  19
ATOM     19  C   UNL d   1      27.545 -13.949  -0.915  0.00  0.00     0.080 C 
BRANCH  19  20
ATOM     20  C   UNL d   1      29.139 -13.429  -1.842  0.00  0.00    -0.047 C 
ATOM     21  C   UNL d   1      29.082 -12.678  -3.091  0.00  0.00     0.008 C 
ATOM     22  C   UNL d   1      30.009 -12.896  -4.132  0.00  0.00     0.001 C 
ATOM     23  C   UNL d   1      31.199 -13.546  -3.874  0.00  0.00     0.000 C 
ATOM     24  C   UNL d   1      31.420 -14.064  -2.593  0.00  0.00     0.001 C 
ATOM     25  C   UNL d   1      30.408 -14.033  -1.588  0.00  0.00     0.008 C 
ENDBRANCH  19  20
BRANCH  19  26
ATOM     26  C   UNL d   1      27.018 -13.820   1.010  0.00  0.00    -0.063 C 
ATOM     27  C   UNL d   1      26.654 -12.649   1.698  0.00  0.00     0.004 C 
ATOM     28  C   UNL d   1      27.228 -12.304   3.091  0.00  0.00    -0.003 C 
ATOM     29  C   UNL d   1      27.976 -13.139   4.003  0.00  0.00    -0.021 C 
ATOM     30  C   UNL d   1      28.151 -14.428   3.632  0.00  0.00     0.025 C 
ATOM     31  C   UNL d   1      27.779 -14.527   2.251  0.00  0.00     0.032 C 
ENDBRANCH  19  26
ENDBRANCH   1  19
BRANCH   1  32
ATOM     32  C   UNL d   1      26.427 -16.113  -0.488  0.00  0.00     0.241 C 
ATOM     33  N   UNL d   1      26.778 -17.427  -0.331  0.00  0.00    -0.359 N 
ATOM     34  H   UNL d   1      27.367 -17.812  -1.050  0.00  0.00     0.162 HD
ATOM     35  O   UNL d   1      25.418 -15.638   0.015  0.00  0.00    -0.271 OA
BRANCH  33  36
ATOM     36  C   UNL d   1      26.203 -18.331   0.604  0.00  0.00     0.122 C 
BRANCH  36  37
ATOM     37  C   UNL d   1      24.683 -18.182   0.604  0.00  0.00     0.019 C 
BRANCH  37  38
ATOM     38  C   UNL d   1      24.184 -18.478  -0.795  0.00  0.00    -0.003 C 
ATOM     39  C   UNL d   1      22.679 -18.373  -0.896  0.00  0.00     0.005 C 
ENDBRANCH  37  38
ENDBRANCH  36  37
ENDBRANCH  33  36
ENDBRANCH   1  32
TORSDOF 12
ENDMDL
MODEL 3
REMARK VINA RESULT:    -6.915      2.026      5.375
REMARK INTER + INTRA:         -14.679
REMARK INTER:                 -10.495
REMARK INTRA:                  -4.184
REMARK CONF_INDEPENDENT:        3.580
REMARK UNBOUND:                -4.184
REMARK  12 active torsions:
REMARK  status: ('A' for Active; 'I' for Inactive)
REMARK    1  A    between atoms: C_2  and  C_3 
REMARK    2  A    between atoms: C_3  and  C_4 
REMARK    3  A    between atoms: C_4  and  N_5 
REMARK       I    between atoms: N_5  and  C_6 
REMARK    4  A    between atoms: C_8  and  C_6 
REMARK    5  A    between atoms: C_8  and  N_22 
REMARK    6  A    between atoms: C_8  and  C_9 
REMARK    7  A    between atoms: C_9  and  C_10 
REMARK    8  A    between atoms: C_9  and  C_16 
REMARK       I    between atoms: N_22  and  C_23 
REMARK    9  A    between atoms: N_22  and  C_33 
REMARK   10  A    between atoms: C_23  and  C_25 
REMARK   11  A    between atoms: C_29  and  O_30 
REMARK   12  A    between atoms: C_31  and  O_32 
ROOT
ATOM      1  C   UNL d   1      28.386 -14.543  -2.439  0.00  0.00     0.193 C 
ENDROOT
BRANCH   1   2
ATOM      2  N   UNL d   1      28.848 -13.180  -2.398  0.00  0.00    -0.325 N 
ATOM      3  C   UNL d   1      28.778 -12.459  -1.092  0.00  0.00     0.258 C 
ATOM      4  O   UNL d   1      29.355 -11.323  -1.028  0.00  0.00    -0.267 OA
BRANCH   3   5
ATOM      5  C   UNL d   1      28.073 -13.110   0.482  0.00  0.00     0.068 A 
ATOM      6  C   UNL d   1      26.970 -12.366   0.861  0.00  0.00     0.020 A 
ATOM      7  C   UNL d   1      26.661 -12.522   2.233  0.00  0.00     0.004 A 
ATOM      8  C   UNL d   1      27.398 -13.343   3.258  0.00  0.00     0.039 A 
ATOM      9  C   UNL d   1      28.494 -14.120   3.032  0.00  0.00     0.099 A 
ATOM     10  C   UNL d   1      28.805 -14.097   1.736  0.00  0.00     0.114 A 
BRANCH   9  11
ATOM     11  O   UNL d   1      29.413 -14.708   3.846  0.00  0.00    -0.358 OA
ATOM     12  H   UNL d   1      29.684 -15.572   3.526  0.00  0.00     0.217 HD
ENDBRANCH   9  11
BRANCH  10  13
ATOM     13  O   UNL d   1      30.029 -14.978   1.686  0.00  0.00    -0.357 OA
ATOM     14  H   UNL d   1      30.029 -15.861   2.105  0.00  0.00     0.217 HD
ENDBRANCH  10  13
ENDBRANCH   3   5
BRANCH   2  15
ATOM     15  C   UNL d   1      29.518 -12.738  -3.678  0.00  0.00     0.025 C 
ATOM     16  C   UNL d   1      28.602 -12.857  -4.928  0.00  0.00     0.037 C 
ATOM     17  C   UNL d   1      29.843 -11.257  -3.548  0.00  0.00     0.037 C 
ATOM     18  C   UNL d   1      30.853 -13.410  -3.931  0.00  0.00     0.037 C 
ENDBRANCH   2  15
ENDBRANCH   1   2
BRANCH   1  19
ATOM     19  C   UNL d   1      27.056 -14.386  -1.900  0.00  0.00     0.080 C 
BRANCH  19  20
ATOM     20  C   UNL d   1      26.735 -16.200  -1.375  0.00  0.00    -0.047 C 
ATOM     21  C   UNL d   1      25.458 -16.854  -1.639  0.00  0.00     0.008 C 
ATOM     22  C   UNL d   1      24.894 -17.776  -0.732  0.00  0.00     0.001 C 
ATOM     23  C   UNL d   1      25.682 -18.362   0.239  0.00  0.00     0.000 C 
ATOM     24  C   UNL d   1      27.015 -17.954   0.362  0.00  0.00     0.001 C 
ATOM     25  C   UNL d   1      27.542 -16.876  -0.410  0.00  0.00     0.008 C 
ENDBRANCH  19  20
BRANCH  19  26
ATOM     26  C   UNL d   1      25.977 -13.099  -2.984  0.00  0.00    -0.063 C 
ATOM     27  C   UNL d   1      25.521 -13.295  -4.300  0.00  0.00     0.004 C 
ATOM     28  C   UNL d   1      25.666 -12.208  -5.389  0.00  0.00    -0.003 C 
ATOM     29  C   UNL d   1      26.023 -10.814  -5.247  0.00  0.00    -0.021 C 
ATOM     30  C   UNL d   1      26.190 -10.363  -3.983  0.00  0.00     0.025 C 
ATOM     31  C   UNL d   1      26.254 -11.511  -3.127  0.00  0.00     0.032 C 
ENDBRANCH  19  26
ENDBRANCH   1  19
BRANCH   1  32
ATOM     32  C   UNL d   1      28.319 -15.393  -3.774  0.00  0.00     0.241 C 
ATOM     33  N   UNL d   1      29.487 -16.046  -4.056  0.00  0.00    -0.359 N 
ATOM     34  H   UNL d   1      30.318 -15.658  -3.642  0.00  0.00     0.162 HD
ATOM     35  O   UNL d   1      27.339 -15.451  -4.505  0.00  0.00    -0.271 OA
BRANCH  33  36
ATOM     36  C   UNL d   1      29.655 -17.053  -5.047  0.00  0.00     0.122 C 
BRANCH  36  37
ATOM     37  C   UNL d   1      31.044 -16.940  -5.673  0.00  0.00     0.019 C 
BRANCH  37  38
ATOM     38  C   UNL d   1      30.926 -16.094  -6.924  0.00  0.00    -0.003 C 
ATOM     39  C   UNL d   1      29.707 -15.201  -6.894  0.00  0.00     0.005 C 
ENDBRANCH  37  38
ENDBRANCH  36  37
ENDBRANCH  33  36
ENDBRANCH   1  32
TORSDOF 12
ENDMDL
MODEL 4
REMARK VINA RESULT:    -6.721      1.885      5.136
REMARK INTER + INTRA:         -14.568
REMARK INTER:                 -10.300
REMARK INTRA:                  -4.267
REMARK CONF_INDEPENDENT:        3.580
REMARK UNBOUND:                -4.267
REMARK  12 active torsions:
REMARK  status: ('A' for Active; 'I' for Inactive)
REMARK    1  A    between atoms: C_2  and  C_3 
REMARK    2  A    between atoms: C_3  and  C_4 
REMARK    3  A    between atoms: C_4  and  N_5 
REMARK       I    between atoms: N_5  and  C_6 
REMARK    4  A    between atoms: C_8  and  C_6 
REMARK    5  A    between atoms: C_8  and  N_22 
REMARK    6  A    between atoms: C_8  and  C_9 
REMARK    7  A    between atoms: C_9  and  C_10 
REMARK    8  A    between atoms: C_9  and  C_16 
REMARK       I    between atoms: N_22  and  C_23 
REMARK    9  A    between atoms: N_22  and  C_33 
REMARK   10  A    between atoms: C_23  and  C_25 
REMARK   11  A    between atoms: C_29  and  O_30 
REMARK   12  A    between atoms: C_31  and  O_32 
ROOT
ATOM      1  C   UNL d   1      28.724 -15.718  -0.263  0.00  0.00     0.193 C 
ENDROOT
BRANCH   1   2
ATOM      2  N   UNL d   1      30.030 -15.626  -0.862  0.00  0.00    -0.325 N 
ATOM      3  C   UNL d   1      30.957 -14.570  -0.353  0.00  0.00     0.258 C 
ATOM      4  O   UNL d   1      32.165 -14.618  -0.762  0.00  0.00    -0.267 OA
BRANCH   3   5
ATOM      5  C   UNL d   1      30.572 -13.296   0.922  0.00  0.00     0.068 A 
ATOM      6  C   UNL d   1      30.450 -12.049   0.336  0.00  0.00     0.020 A 
ATOM      7  C   UNL d   1      30.592 -10.998   1.273  0.00  0.00     0.004 A 
ATOM      8  C   UNL d   1      30.882 -11.107   2.746  0.00  0.00     0.039 A 
ATOM      9  C   UNL d   1      31.030 -12.260   3.455  0.00  0.00     0.099 A 
ATOM     10  C   UNL d   1      30.826 -13.310   2.659  0.00  0.00     0.114 A 
BRANCH   9  11
ATOM     11  O   UNL d   1      31.528 -12.549   4.690  0.00  0.00    -0.358 OA
ATOM     12  H   UNL d   1      32.252 -13.177   4.653  0.00  0.00     0.217 HD
ENDBRANCH   9  11
BRANCH  10  13
ATOM     13  O   UNL d   1      31.049 -14.471   3.597  0.00  0.00    -0.357 OA
ATOM     14  H   UNL d   1      31.827 -14.495   4.188  0.00  0.00     0.217 HD
ENDBRANCH  10  13
ENDBRANCH   3   5
BRANCH   2  15
ATOM     15  C   UNL d   1      30.332 -16.759  -1.813  0.00  0.00     0.025 C 
ATOM     16  C   UNL d   1      29.532 -16.679  -3.144  0.00  0.00     0.037 C 
ATOM     17  C   UNL d   1      31.798 -16.659  -2.210  0.00  0.00     0.037 C 
ATOM     18  C   UNL d   1      30.190 -18.133  -1.189  0.00  0.00     0.037 C 
ENDBRANCH   2  15
ENDBRANCH   1   2
BRANCH   1  19
ATOM     19  C   UNL d   1      28.228 -14.385  -0.508  0.00  0.00     0.080 C 
BRANCH  19  20
ATOM     20  C   UNL d   1      27.503 -14.016   1.227  0.00  0.00    -0.047 C 
ATOM     21  C   UNL d   1      26.919 -12.719   1.547  0.00  0.00     0.008 C 
ATOM     22  C   UNL d   1      27.058 -12.137   2.825  0.00  0.00     0.001 C 
ATOM     23  C   UNL d   1      27.424 -12.916   3.905  0.00  0.00     0.000 C 
ATOM     24  C   UNL d   1      27.744 -14.261   3.687  0.00  0.00     0.001 C 
ATOM     25  C   UNL d   1      27.809 -14.812   2.373  0.00  0.00     0.008 C 
ENDBRANCH  19  20
BRANCH  19  26
ATOM     26  C   UNL d   1      27.449 -14.222  -2.342  0.00  0.00    -0.063 C 
ATOM     27  C   UNL d   1      27.685 -13.182  -3.259  0.00  0.00     0.004 C 
ATOM     28  C   UNL d   1      26.537 -12.493  -4.031  0.00  0.00    -0.003 C 
ATOM     29  C   UNL d   1      25.154 -12.894  -4.163  0.00  0.00    -0.021 C 
ATOM     30  C   UNL d   1      24.814 -14.073  -3.594  0.00  0.00     0.025 C 
ATOM     31  C   UNL d   1      25.898 -14.461  -2.739  0.00  0.00     0.032 C 
ENDBRANCH  19  26
ENDBRANCH   1  19
BRANCH   1  32
ATOM     32  C   UNL d   1      27.639 -16.778  -0.717  0.00  0.00     0.241 C 
ATOM     33  N   UNL d   1      27.311 -17.669   0.269  0.00  0.00    -0.359 N 
ATOM     34  H   UNL d   1      28.001 -17.799   0.990  0.00  0.00     0.162 HD
ATOM     35  O   UNL d   1      27.149 -16.827  -1.837  0.00  0.00    -0.271 OA
BRANCH  33  36
ATOM     36  C   UNL d   1      26.218 -18.578   0.233  0.00  0.00     0.122 C 
BRANCH  36  37
ATOM     37  C   UNL d   1      24.900 -17.805   0.230  0.00  0.00     0.019 C 
BRANCH  37  38
ATOM     38  C   UNL d   1      23.892 -18.602  -0.572  0.00  0.00    -0.003 C 
ATOM     39  C   UNL d   1      22.512 -17.985  -0.525  0.00  0.00     0.005 C 
ENDBRANCH  37  38
ENDBRANCH  36  37
ENDBRANCH  33  36
ENDBRANCH   1  32
TORSDOF 12
ENDMDL
MODEL 5
REMARK VINA RESULT:    -6.699      1.987      5.431
REMARK INTER + INTRA:         -14.878
REMARK INTER:                 -10.279
REMARK INTRA:                  -4.599
REMARK CONF_INDEPENDENT:        3.580
REMARK UNBOUND:                -4.599
REMARK  12 active torsions:
REMARK  status: ('A' for Active; 'I' for Inactive)
REMARK    1  A    between atoms: C_2  and  C_3 
REMARK    2  A    between atoms: C_3  and  C_4 
REMARK    3  A    between atoms: C_4  and  N_5 
REMARK       I    between atoms: N_5  and  C_6 
REMARK    4  A    between atoms: C_8  and  C_6 
REMARK    5  A    between atoms: C_8  and  N_22 
REMARK    6  A    between atoms: C_8  and  C_9 
REMARK    7  A    between atoms: C_9  and  C_10 
REMARK    8  A    between atoms: C_9  and  C_16 
REMARK       I    between atoms: N_22  and  C_23 
REMARK    9  A    between atoms: N_22  and  C_33 
REMARK   10  A    between atoms: C_23  and  C_25 
REMARK   11  A    between atoms: C_29  and  O_30 
REMARK   12  A    between atoms: C_31  and  O_32 
ROOT
ATOM      1  C   UNL d   1      28.853 -14.861  -0.941  0.00  0.00     0.193 C 
ENDROOT
BRANCH   1   2
ATOM      2  N   UNL d   1      29.288 -15.789  -1.953  0.00  0.00    -0.325 N 
ATOM      3  C   UNL d   1      28.902 -15.508  -3.368  0.00  0.00     0.258 C 
ATOM      4  O   UNL d   1      29.443 -16.232  -4.268  0.00  0.00    -0.267 OA
BRANCH   3   5
ATOM      5  C   UNL d   1      27.839 -14.123  -3.959  0.00  0.00     0.068 A 
ATOM      6  C   UNL d   1      28.425 -12.905  -3.664  0.00  0.00     0.020 A 
ATOM      7  C   UNL d   1      27.494 -11.839  -3.687  0.00  0.00     0.004 A 
ATOM      8  C   UNL d   1      26.014 -11.913  -3.951  0.00  0.00     0.039 A 
ATOM      9  C   UNL d   1      25.302 -13.035  -4.251  0.00  0.00     0.099 A 
ATOM     10  C   UNL d   1      26.124 -14.082  -4.334  0.00  0.00     0.114 A 
BRANCH   9  11
ATOM     11  O   UNL d   1      23.973 -13.330  -4.270  0.00  0.00    -0.358 OA
ATOM     12  H   UNL d   1      23.699 -13.727  -5.099  0.00  0.00     0.217 HD
ENDBRANCH   9  11
BRANCH  10  13
ATOM     13  O   UNL d   1      25.172 -15.212  -4.645  0.00  0.00    -0.357 OA
ATOM     14  H   UNL d   1      24.431 -15.084  -5.269  0.00  0.00     0.217 HD
ENDBRANCH  10  13
ENDBRANCH   3   5
BRANCH   2  15
ATOM     15  C   UNL d   1      30.246 -16.834  -1.432  0.00  0.00     0.025 C 
ATOM     16  C   UNL d   1      29.567 -17.897  -0.525  0.00  0.00     0.037 C 
ATOM     17  C   UNL d   1      30.794 -17.603  -2.626  0.00  0.00     0.037 C 
ATOM     18  C   UNL d   1      31.468 -16.254  -0.749  0.00  0.00     0.037 C 
ENDBRANCH   2  15
ENDBRANCH   1   2
BRANCH   1  19
ATOM     19  C   UNL d   1      27.465 -14.705  -1.305  0.00  0.00     0.080 C 
BRANCH  19  20
ATOM     20  C   UNL d   1      27.096 -13.074  -0.372  0.00  0.00    -0.047 C 
ATOM     21  C   UNL d   1      27.888 -11.871  -0.601  0.00  0.00     0.008 C 
ATOM     22  C   UNL d   1      28.192 -10.971   0.444  0.00  0.00     0.001 C 
ATOM     23  C   UNL d   1      27.459 -10.998   1.614  0.00  0.00     0.000 C 
ATOM     24  C   UNL d   1      26.485 -11.988   1.777  0.00  0.00     0.001 C 
ATOM     25  C   UNL d   1      26.309 -13.030   0.819  0.00  0.00     0.008 C 
ENDBRANCH  19  20
BRANCH  19  26
ATOM     26  C   UNL d   1      26.519 -16.466  -1.341  0.00  0.00    -0.063 C 
ATOM     27  C   UNL d   1      25.376 -16.784  -2.096  0.00  0.00     0.004 C 
ATOM     28  C   UNL d   1      24.165 -17.521  -1.482  0.00  0.00    -0.003 C 
ATOM     29  C   UNL d   1      24.058 -18.202  -0.211  0.00  0.00    -0.021 C 
ATOM     30  C   UNL d   1      25.188 -18.273   0.529  0.00  0.00     0.025 C 
ATOM     31  C   UNL d   1      26.134 -17.363  -0.050  0.00  0.00     0.032 C 
ENDBRANCH  19  26
ENDBRANCH   1  19
BRANCH   1  32
ATOM     32  C   UNL d   1      28.963 -15.160   0.610  0.00  0.00     0.241 C 
ATOM     33  N   UNL d   1      30.023 -14.533   1.206  0.00  0.00    -0.359 N 
ATOM     34  H   UNL d   1      30.782 -14.281   0.597  0.00  0.00     0.162 HD
ATOM     35  O   UNL d   1      28.201 -15.894   1.226  0.00  0.00    -0.271 OA
BRANCH  33  36
ATOM     36  C   UNL d   1      30.242 -14.429   2.608  0.00  0.00     0.122 C 
BRANCH  36  37
ATOM     37  C   UNL d   1      29.247 -13.442   3.216  0.00  0.00     0.019 C 
BRANCH  37  38
ATOM     38  C   UNL d   1      28.112 -14.237   3.827  0.00  0.00    -0.003 C 
ATOM     39  C   UNL d   1      28.505 -14.872   5.141  0.00  0.00     0.005 C 
ENDBRANCH  37  38
ENDBRANCH  36  37
ENDBRANCH  33  36
ENDBRANCH   1  32
TORSDOF 12
ENDMDL
MODEL 6
REMARK VINA RESULT:    -6.450      1.969      4.164
REMARK INTER + INTRA:         -14.345
REMARK INTER:                 -10.030
REMARK INTRA:                  -4.315
REMARK CONF_INDEPENDENT:        3.580
REMARK UNBOUND:                -4.315
REMARK  12 active torsions:
REMARK  status: ('A' for Active; 'I' for Inactive)
REMARK    1  A    between atoms: C_2  and  C_3 
REMARK    2  A    between atoms: C_3  and  C_4 
REMARK    3  A    between atoms: C_4  and  N_5 
REMARK       I    between atoms: N_5  and  C_6 
REMARK    4  A    between atoms: C_8  and  C_6 
REMARK    5  A    between atoms: C_8  and  N_22 
REMARK    6  A    between atoms: C_8  and  C_9 
REMARK    7  A    between atoms: C_9  and  C_10 
REMARK    8  A    between atoms: C_9  and  C_16 
REMARK       I    between atoms: N_22  and  C_23 
REMARK    9  A    between atoms: N_22  and  C_33 
REMARK   10  A    between atoms: C_23  and  C_25 
REMARK   11  A    between atoms: C_29  and  O_30 
REMARK   12  A    between atoms: C_31  and  O_32 
ROOT
ATOM      1  C   UNL d   1      26.891 -13.683  -1.842  0.00  0.00     0.193 C 
ENDROOT
BRANCH   1   2
ATOM      2  N   UNL d   1      27.255 -14.278  -3.102  0.00  0.00    -0.325 N 
ATOM      3  C   UNL d   1      28.558 -15.004  -3.178  0.00  0.00     0.258 C 
ATOM      4  O   UNL d   1      28.782 -15.677  -4.239  0.00  0.00    -0.267 OA
BRANCH   3   5
ATOM      5  C   UNL d   1      29.812 -15.150  -1.835  0.00  0.00     0.068 A 
ATOM      6  C   UNL d   1      30.795 -14.188  -1.985  0.00  0.00     0.020 A 
ATOM      7  C   UNL d   1      31.977 -14.511  -1.279  0.00  0.00     0.004 A 
ATOM      8  C   UNL d   1      32.257 -15.744  -0.462  0.00  0.00     0.039 A 
ATOM      9  C   UNL d   1      31.392 -16.770  -0.229  0.00  0.00     0.099 A 
ATOM     10  C   UNL d   1      30.213 -16.505  -0.793  0.00  0.00     0.114 A 
BRANCH   9  11
ATOM     11  O   UNL d   1      31.540 -18.036   0.251  0.00  0.00    -0.358 OA
ATOM     12  H   UNL d   1      30.944 -18.222   0.979  0.00  0.00     0.217 HD
ENDBRANCH   9  11
BRANCH  10  13
ATOM     13  O   UNL d   1      29.411 -17.737  -0.453  0.00  0.00    -0.357 OA
ATOM     14  H   UNL d   1      29.721 -18.364   0.230  0.00  0.00     0.217 HD
ENDBRANCH  10  13
ENDBRANCH   3   5
BRANCH   2  15
ATOM     15  C   UNL d   1      26.148 -14.229  -4.128  0.00  0.00     0.025 C 
ATOM     16  C   UNL d   1      24.882 -13.474  -3.635  0.00  0.00     0.037 C 
ATOM     17  C   UNL d   1      26.655 -13.440  -5.326  0.00  0.00     0.037 C 
ATOM     18  C   UNL d   1      25.773 -15.587  -4.686  0.00  0.00     0.037 C 
ENDBRANCH   2  15
ENDBRANCH   1   2
BRANCH   1  19
ATOM     19  C   UNL d   1      27.353 -14.700  -0.927  0.00  0.00     0.080 C 
BRANCH  19  20
ATOM     20  C   UNL d   1      25.973 -15.999  -1.209  0.00  0.00    -0.047 C 
ATOM     21  C   UNL d   1      24.595 -15.600  -1.470  0.00  0.00     0.008 C 
ATOM     22  C   UNL d   1      23.501 -16.339  -0.973  0.00  0.00     0.001 C 
ATOM     23  C   UNL d   1      23.681 -17.640  -0.546  0.00  0.00     0.000 C 
ATOM     24  C   UNL d   1      24.976 -18.170  -0.528  0.00  0.00     0.001 C 
ATOM     25  C   UNL d   1      26.117 -17.368  -0.830  0.00  0.00     0.008 C 
ENDBRANCH  19  20
BRANCH  19  26
ATOM     26  C   UNL d   1      28.106 -13.893   0.739  0.00  0.00    -0.063 C 
ATOM     27  C   UNL d   1      29.466 -13.661   1.013  0.00  0.00     0.004 C 
ATOM     28  C   UNL d   1      30.110 -14.049   2.362  0.00  0.00    -0.003 C 
ATOM     29  C   UNL d   1      29.473 -14.450   3.597  0.00  0.00    -0.021 C 
ATOM     30  C   UNL d   1      28.121 -14.422   3.612  0.00  0.00     0.025 C 
ATOM     31  C   UNL d   1      27.684 -14.276   2.254  0.00  0.00     0.032 C 
ENDBRANCH  19  26
ENDBRANCH   1  19
BRANCH   1  32
ATOM     32  C   UNL d   1      27.421 -12.267  -1.371  0.00  0.00     0.241 C 
ATOM     33  N   UNL d   1      28.403 -11.763  -2.180  0.00  0.00    -0.359 N 
ATOM     34  H   UNL d   1      28.917 -12.438  -2.719  0.00  0.00     0.162 HD
ATOM     35  O   UNL d   1      27.024 -11.680  -0.373  0.00  0.00    -0.271 OA
BRANCH  33  36
ATOM     36  C   UNL d   1      28.902 -10.431  -2.143  0.00  0.00     0.122 C 
BRANCH  36  37
ATOM     37  C   UNL d   1      27.747  -9.439  -2.269  0.00  0.00     0.019 C 
BRANCH  37  38
ATOM     38  C   UNL d   1      26.992  -9.759  -3.542  0.00  0.00    -0.003 C 
ATOM     39  C   UNL d   1      25.531  -9.384  -3.446  0.00  0.00     0.005 C 
ENDBRANCH  37  38
ENDBRANCH  36  37
ENDBRANCH  33  36
ENDBRANCH   1  32
TORSDOF 12
ENDMDL
MODEL 7
REMARK VINA RESULT:    -6.275      1.684      4.665
REMARK INTER + INTRA:         -14.436
REMARK INTER:                  -9.854
REMARK INTRA:                  -4.582
REMARK CONF_INDEPENDENT:        3.580
REMARK UNBOUND:                -4.582
REMARK  12 active torsions:
REMARK  status: ('A' for Active; 'I' for Inactive)
REMARK    1  A    between atoms: C_2  and  C_3 
REMARK    2  A    between atoms: C_3  and  C_4 
REMARK    3  A    between atoms: C_4  and  N_5 
REMARK       I    between atoms: N_5  and  C_6 
REMARK    4  A    between atoms: C_8  and  C_6 
REMARK    5  A    between atoms: C_8  and  N_22 
REMARK    6  A    between atoms: C_8  and  C_9 
REMARK    7  A    between atoms: C_9  and  C_10 
REMARK    8  A    between atoms: C_9  and  C_16 
REMARK       I    between atoms: N_22  and  C_23 
REMARK    9  A    between atoms: N_22  and  C_33 
REMARK   10  A    between atoms: C_23  and  C_25 
REMARK   11  A    between atoms: C_29  and  O_30 
REMARK   12  A    between atoms: C_31  and  O_32 
ROOT
ATOM      1  C   UNL d   1      27.757 -13.369  -1.915  0.00  0.00     0.193 C 
ENDROOT
BRANCH   1   2
ATOM      2  N   UNL d   1      27.424 -13.864  -3.226  0.00  0.00    -0.325 N 
ATOM      3  C   UNL d   1      28.209 -15.020  -3.754  0.00  0.00     0.258 C 
ATOM      4  O   UNL d   1      27.786 -15.560  -4.830  0.00  0.00    -0.267 OA
BRANCH   3   5
ATOM      5  C   UNL d   1      29.639 -15.841  -2.931  0.00  0.00     0.068 A 
ATOM      6  C   UNL d   1      30.799 -15.630  -3.654  0.00  0.00     0.020 A 
ATOM      7  C   UNL d   1      31.811 -16.566  -3.335  0.00  0.00     0.004 A 
ATOM      8  C   UNL d   1      31.731 -17.718  -2.370  0.00  0.00     0.039 A 
ATOM      9  C   UNL d   1      30.661 -18.048  -1.595  0.00  0.00     0.099 A 
ATOM     10  C   UNL d   1      29.683 -17.159  -1.772  0.00  0.00     0.114 A 
BRANCH   9  11
ATOM     11  O   UNL d   1      30.323 -19.157  -0.881  0.00  0.00    -0.358 OA
ATOM     12  H   UNL d   1      30.150 -18.958   0.042  0.00  0.00     0.217 HD
ENDBRANCH   9  11
BRANCH  10  13
ATOM     13  O   UNL d   1      28.598 -17.692  -0.868  0.00  0.00    -0.357 OA
ATOM     14  H   UNL d   1      28.818 -18.263  -0.105  0.00  0.00     0.217 HD
ENDBRANCH  10  13
ENDBRANCH   3   5
BRANCH   2  15
ATOM     15  C   UNL d   1      26.178 -13.234  -3.803  0.00  0.00     0.025 C 
ATOM     16  C   UNL d   1      25.866 -11.830  -3.214  0.00  0.00     0.037 C 
ATOM     17  C   UNL d   1      26.412 -13.013  -5.291  0.00  0.00     0.037 C 
ATOM     18  C   UNL d   1      24.955 -14.126  -3.729  0.00  0.00     0.037 C 
ENDBRANCH   2  15
ENDBRANCH   1   2
BRANCH   1  19
ATOM     19  C   UNL d   1      26.597 -13.795  -1.170  0.00  0.00     0.080 C 
BRANCH  19  20
ATOM     20  C   UNL d   1      26.705 -12.551   0.282  0.00  0.00    -0.047 C 
ATOM     21  C   UNL d   1      27.409 -11.281   0.145  0.00  0.00     0.008 C 
ATOM     22  C   UNL d   1      28.141 -10.718   1.212  0.00  0.00     0.001 C 
ATOM     23  C   UNL d   1      27.919 -11.148   2.506  0.00  0.00     0.000 C 
ATOM     24  C   UNL d   1      27.033 -12.209   2.721  0.00  0.00     0.001 C 
ATOM     25  C   UNL d   1      26.444 -12.924   1.635  0.00  0.00     0.008 C 
ENDBRANCH  19  20
BRANCH  19  26
ATOM     26  C   UNL d   1      26.393 -15.784  -1.212  0.00  0.00    -0.063 C 
ATOM     27  C   UNL d   1      25.540 -16.517  -2.056  0.00  0.00     0.004 C 
ATOM     28  C   UNL d   1      24.638 -17.654  -1.525  0.00  0.00    -0.003 C 
ATOM     29  C   UNL d   1      24.663 -18.315  -0.239  0.00  0.00    -0.021 C 
ATOM     30  C   UNL d   1      25.652 -17.945   0.607  0.00  0.00     0.025 C 
ATOM     31  C   UNL d   1      26.240 -16.750   0.077  0.00  0.00     0.032 C 
ENDBRANCH  19  26
ENDBRANCH   1  19
BRANCH   1  32
ATOM     32  C   UNL d   1      29.070 -13.796  -1.139  0.00  0.00     0.241 C 
ATOM     33  N   UNL d   1      28.821 -14.607  -0.065  0.00  0.00    -0.359 N 
ATOM     34  H   UNL d   1      27.895 -14.549   0.324  0.00  0.00     0.162 HD
ATOM     35  O   UNL d   1      30.198 -13.428  -1.437  0.00  0.00    -0.271 OA
BRANCH  33  36
ATOM     36  C   UNL d   1      29.801 -15.326   0.674  0.00  0.00     0.122 C 
BRANCH  36  37
ATOM     37  C   UNL d   1      30.320 -14.465   1.823  0.00  0.00     0.019 C 
BRANCH  37  38
ATOM     38  C   UNL d   1      29.265 -14.450   2.910  0.00  0.00    -0.003 C 
ATOM     39  C   UNL d   1      29.871 -14.323   4.289  0.00  0.00     0.005 C 
ENDBRANCH  37  38
ENDBRANCH  36  37
ENDBRANCH  33  36
ENDBRANCH   1  32
TORSDOF 12
ENDMDL
MODEL 8
REMARK VINA RESULT:    -6.131      1.204      1.265
REMARK INTER + INTRA:         -14.578
REMARK INTER:                  -9.710
REMARK INTRA:                  -4.868
REMARK CONF_INDEPENDENT:        3.580
REMARK UNBOUND:                -4.868
REMARK  12 active torsions:
REMARK  status: ('A' for Active; 'I' for Inactive)
REMARK    1  A    between atoms: C_2  and  C_3 
REMARK    2  A    between atoms: C_3  and  C_4 
REMARK    3  A    between atoms: C_4  and  N_5 
REMARK       I    between atoms: N_5  and  C_6 
REMARK    4  A    between atoms: C_8  and  C_6 
REMARK    5  A    between atoms: C_8  and  N_22 
REMARK    6  A    between atoms: C_8  and  C_9 
REMARK    7  A    between atoms: C_9  and  C_10 
REMARK    8  A    between atoms: C_9  and  C_16 
REMARK       I    between atoms: N_22  and  C_23 
REMARK    9  A    between atoms: N_22  and  C_33 
REMARK   10  A    between atoms: C_23  and  C_25 
REMARK   11  A    between atoms: C_29  and  O_30 
REMARK   12  A    between atoms: C_31  and  O_32 
ROOT
ATOM      1  C   UNL d   1      26.274 -14.218  -1.635  0.00  0.00     0.193 C 
ENDROOT
BRANCH   1   2
ATOM      2  N   UNL d   1      26.762 -13.560  -2.819  0.00  0.00    -0.325 N 
ATOM      3  C   UNL d   1      28.103 -12.907  -2.751  0.00  0.00     0.258 C 
ATOM      4  O   UNL d   1      28.598 -12.490  -3.851  0.00  0.00    -0.267 OA
BRANCH   3   5
ATOM      5  C   UNL d   1      29.185 -12.777  -1.264  0.00  0.00     0.068 A 
ATOM      6  C   UNL d   1      28.947 -11.589  -0.597  0.00  0.00     0.020 A 
ATOM      7  C   UNL d   1      30.011 -11.233   0.265  0.00  0.00     0.004 A 
ATOM      8  C   UNL d   1      31.309 -11.964   0.480  0.00  0.00     0.039 A 
ATOM      9  C   UNL d   1      31.681 -13.137  -0.106  0.00  0.00     0.099 A 
ATOM     10  C   UNL d   1      30.691 -13.590  -0.877  0.00  0.00     0.114 A 
BRANCH   9  11
ATOM     11  O   UNL d   1      32.868 -13.792  -0.229  0.00  0.00    -0.358 OA
ATOM     12  H   UNL d   1      33.156 -13.857  -1.142  0.00  0.00     0.217 HD
ENDBRANCH   9  11
BRANCH  10  13
ATOM     13  O   UNL d   1      31.284 -14.857  -1.445  0.00  0.00    -0.357 OA
ATOM     14  H   UNL d   1      31.854 -15.433  -0.898  0.00  0.00     0.217 HD
ENDBRANCH  10  13
ENDBRANCH   3   5
BRANCH   2  15
ATOM     15  C   UNL d   1      25.894 -13.795  -4.033  0.00  0.00     0.025 C 
ATOM     16  C   UNL d   1      24.405 -14.075  -3.683  0.00  0.00     0.037 C 
ATOM     17  C   UNL d   1      25.888 -12.516  -4.859  0.00  0.00     0.037 C 
ATOM     18  C   UNL d   1      26.430 -14.860  -4.968  0.00  0.00     0.037 C 
ENDBRANCH   2  15
ENDBRANCH   1   2
BRANCH   1  19
ATOM     19  C   UNL d   1      26.542 -15.596  -1.970  0.00  0.00     0.080 C 
BRANCH  19  20
ATOM     20  C   UNL d   1      25.169 -16.427  -0.925  0.00  0.00    -0.047 C 
ATOM     21  C   UNL d   1      25.474 -17.494   0.021  0.00  0.00     0.008 C 
ATOM     22  C   UNL d   1      24.591 -18.575   0.231  0.00  0.00     0.001 C 
ATOM     23  C   UNL d   1      23.271 -18.477  -0.162  0.00  0.00     0.000 C 
ATOM     24  C   UNL d   1      22.857 -17.333  -0.853  0.00  0.00     0.001 C 
ATOM     25  C   UNL d   1      23.783 -16.325  -1.255  0.00  0.00     0.008 C 
ENDBRANCH  19  20
BRANCH  19  26
ATOM     26  C   UNL d   1      28.506 -15.943  -2.112  0.00  0.00    -0.063 C 
ATOM     27  C   UNL d   1      29.242 -16.100  -3.301  0.00  0.00     0.004 C 
ATOM     28  C   UNL d   1      30.258 -17.248  -3.492  0.00  0.00    -0.003 C 
ATOM     29  C   UNL d   1      30.808 -18.155  -2.509  0.00  0.00    -0.021 C 
ATOM     30  C   UNL d   1      30.444 -17.940  -1.224  0.00  0.00     0.025 C 
ATOM     31  C   UNL d   1      29.346 -17.019  -1.241  0.00  0.00     0.032 C 
ENDBRANCH  19  26
ENDBRANCH   1  19
BRANCH   1  32
ATOM     32  C   UNL d   1      26.830 -13.909  -0.184  0.00  0.00     0.241 C 
ATOM     33  N   UNL d   1      27.602 -14.918   0.323  0.00  0.00    -0.359 N 
ATOM     34  H   UNL d   1      27.444 -15.831  -0.069  0.00  0.00     0.162 HD
ATOM     35  O   UNL d   1      26.584 -12.889   0.445  0.00  0.00    -0.271 OA
BRANCH  33  36
ATOM     36  C   UNL d   1      28.414 -14.834   1.488  0.00  0.00     0.122 C 
BRANCH  36  37
ATOM     37  C   UNL d   1      27.602 -14.257   2.646  0.00  0.00     0.019 C 
BRANCH  37  38
ATOM     38  C   UNL d   1      28.543 -14.035   3.812  0.00  0.00    -0.003 C 
ATOM     39  C   UNL d   1      28.131 -14.826   5.033  0.00  0.00     0.005 C 
ENDBRANCH  37  38
ENDBRANCH  36  37
ENDBRANCH  33  36
ENDBRANCH   1  32
TORSDOF 12
ENDMDL
MODEL 9
REMARK VINA RESULT:    -5.995      1.992      6.354
REMARK INTER + INTRA:         -14.399
REMARK INTER:                  -9.575
REMARK INTRA:                  -4.824
REMARK CONF_INDEPENDENT:        3.580
REMARK UNBOUND:                -4.824
REMARK  12 active torsions:
REMARK  status: ('A' for Active; 'I' for Inactive)
REMARK    1  A    between atoms: C_2  and  C_3 
REMARK    2  A    between atoms: C_3  and  C_4 
REMARK    3  A    between atoms: C_4  and  N_5 
REMARK       I    between atoms: N_5  and  C_6 
REMARK    4  A    between atoms: C_8  and  C_6 
REMARK    5  A    between atoms: C_8  and  N_22 
REMARK    6  A    between atoms: C_8  and  C_9 
REMARK    7  A    between atoms: C_9  and  C_10 
REMARK    8  A    between atoms: C_9  and  C_16 
REMARK       I    between atoms: N_22  and  C_23 
REMARK    9  A    between atoms: N_22  and  C_33 
REMARK   10  A    between atoms: C_23  and  C_25 
REMARK   11  A    between atoms: C_29  and  O_30 
REMARK   12  A    between atoms: C_31  and  O_32 
ROOT
ATOM      1  C   UNL d   1      28.952 -15.092  -1.208  0.00  0.00     0.193 C 
ENDROOT
BRANCH   1   2
ATOM      2  N   UNL d   1      29.581 -13.799  -1.281  0.00  0.00    -0.325 N 
ATOM      3  C   UNL d   1      28.953 -12.767  -2.159  0.00  0.00     0.258 C 
ATOM      4  O   UNL d   1      29.413 -11.580  -2.073  0.00  0.00    -0.267 OA
BRANCH   3   5
ATOM      5  C   UNL d   1      27.480 -13.000  -3.243  0.00  0.00     0.068 A 
ATOM      6  C   UNL d   1      26.355 -12.455  -2.651  0.00  0.00     0.020 A 
ATOM      7  C   UNL d   1      25.156 -12.969  -3.199  0.00  0.00     0.004 A 
ATOM      8  C   UNL d   1      25.005 -14.016  -4.271  0.00  0.00     0.039 A 
ATOM      9  C   UNL d   1      26.016 -14.639  -4.937  0.00  0.00     0.099 A 
ATOM     10  C   UNL d   1      27.190 -14.147  -4.539  0.00  0.00     0.114 A 
BRANCH   9  11
ATOM     11  O   UNL d   1      26.081 -15.748  -5.724  0.00  0.00    -0.358 OA
ATOM     12  H   UNL d   1      26.619 -16.441  -5.334  0.00  0.00     0.217 HD
ENDBRANCH   9  11
BRANCH  10  13
ATOM     13  O   UNL d   1      28.169 -14.958  -5.354  0.00  0.00    -0.357 OA
ATOM     14  H   UNL d   1      28.189 -15.932  -5.287  0.00  0.00     0.217 HD
ENDBRANCH  10  13
ENDBRANCH   3   5
BRANCH   2  15
ATOM     15  C   UNL d   1      30.709 -13.627  -0.291  0.00  0.00     0.025 C 
ATOM     16  C   UNL d   1      30.920 -14.865   0.626  0.00  0.00     0.037 C 
ATOM     17  C   UNL d   1      32.003 -13.473  -1.077  0.00  0.00     0.037 C 
ATOM     18  C   UNL d   1      30.604 -12.363   0.538  0.00  0.00     0.037 C 
ENDBRANCH   2  15
ENDBRANCH   1   2
BRANCH   1  19
ATOM     19  C   UNL d   1      27.583 -14.704  -0.963  0.00  0.00     0.080 C 
BRANCH  19  20
ATOM     20  C   UNL d   1      27.846 -13.690   0.641  0.00  0.00    -0.047 C 
ATOM     21  C   UNL d   1      28.144 -14.340   1.912  0.00  0.00     0.008 C 
ATOM     22  C   UNL d   1      27.642 -13.847   3.135  0.00  0.00     0.001 C 
ATOM     23  C   UNL d   1      27.169 -12.552   3.216  0.00  0.00     0.000 C 
ATOM     24  C   UNL d   1      27.110 -11.781   2.050  0.00  0.00     0.001 C 
ATOM     25  C   UNL d   1      27.419 -12.334   0.772  0.00  0.00     0.008 C 
ENDBRANCH  19  20
BRANCH  19  26
ATOM     26  C   UNL d   1      26.315 -16.183  -1.414  0.00  0.00    -0.063 C 
ATOM     27  C   UNL d   1      24.974 -16.038  -1.814  0.00  0.00     0.004 C 
ATOM     28  C   UNL d   1      23.839 -16.890  -1.202  0.00  0.00    -0.003 C 
ATOM     29  C   UNL d   1      23.928 -18.069  -0.371  0.00  0.00    -0.021 C 
ATOM     30  C   UNL d   1      25.172 -18.549  -0.141  0.00  0.00     0.025 C 
ATOM     31  C   UNL d   1      26.101 -17.543  -0.564  0.00  0.00     0.032 C 
ENDBRANCH  19  26
ENDBRANCH   1  19
BRANCH   1  32
ATOM     32  C   UNL d   1      29.000 -16.145  -2.390  0.00  0.00     0.241 C 
ATOM     33  N   UNL d   1      30.184 -16.828  -2.454  0.00  0.00    -0.359 N 
ATOM     34  H   UNL d   1      30.976 -16.374  -2.033  0.00  0.00     0.162 HD
ATOM     35  O   UNL d   1      28.091 -16.325  -3.189  0.00  0.00    -0.271 OA
BRANCH  33  36
ATOM     36  C   UNL d   1      30.432 -17.979  -3.252  0.00  0.00     0.122 C 
BRANCH  36  37
ATOM     37  C   UNL d   1      30.032 -17.704  -4.700  0.00  0.00     0.019 C 
BRANCH  37  38
ATOM     38  C   UNL d   1      31.191 -17.008  -5.382  0.00  0.00    -0.003 C 
ATOM     39  C   UNL d   1      30.733 -16.116  -6.513  0.00  0.00     0.005 C 
ENDBRANCH  37  38
ENDBRANCH  36  37
ENDBRANCH  33  36
ENDBRANCH   1  32
TORSDOF 12
ENDMDL
