MODEL 1
REMARK VINA RESULT:    -6.593      0.000      0.000
REMARK INTER + INTRA:          -9.082
REMARK INTER:                  -8.084
REMARK INTRA:                  -0.998
REMARK CONF_INDEPENDENT:        1.492
REMARK UNBOUND:                -0.998
REMARK  5 active torsions:
REMARK  status: ('A' for Active; 'I' for Inactive)
REMARK    1  A    between atoms: C_2  and  C_3 
REMARK    2  A    between atoms: C_3  and  N_4 
REMARK       I    between atoms: N_4  and  C_5 
REMARK       I    between atoms: C_5  and  N_7 
REMARK    3  A    between atoms: N_7  and  N_8 
REMARK       I    between atoms: N_8  and  C_9 
REMARK    4  A    between atoms: C_9  and  C_11 
REMARK    5  A    between atoms: C_14  and  N_15 
ROOT
ATOM      1  N   UNL d   1      23.946 -18.144   0.547  0.00  0.00    -0.262 N 
ATOM      2  C   UNL d   1      25.300 -18.001   0.241  0.00  0.00     0.270 C 
ATOM      3  O   UNL d   1      26.167 -18.494   0.960  0.00  0.00    -0.266 OA
ATOM      4  H   UNL d   1      23.742 -18.528   1.471  0.00  0.00     0.190 HD
ENDROOT
BRANCH   2   5
ATOM      5  C   UNL d   1      25.710 -17.115  -0.901  0.00  0.00     0.034 A 
ATOM      6  C   UNL d   1      24.757 -16.427  -1.665  0.00  0.00     0.019 A 
ATOM      7  C   UNL d   1      25.155 -15.665  -2.780  0.00  0.00     0.037 A 
ATOM      8  C   UNL d   1      26.516 -15.567  -3.150  0.00  0.00     0.108 A 
ATOM      9  C   UNL d   1      27.485 -16.253  -2.395  0.00  0.00    -0.028 A 
ATOM     10  C   UNL d   1      28.973 -16.267  -2.598  0.00  0.00     0.050 C 
ATOM     11  C   UNL d   1      27.045 -17.039  -1.305  0.00  0.00     0.026 A 
BRANCH   8  12
ATOM     12  N   UNL d   1      26.838 -14.750  -4.345  0.00  0.00    -0.115 N 
ATOM     13  O   UNL d   1      27.135 -15.353  -5.386  0.00  0.00    -0.532 OA
ATOM     14  O   UNL d   1      26.802 -13.517  -4.266  0.00  0.00    -0.532 OA
ENDBRANCH   8  12
ENDBRANCH   2   5
BRANCH   1  15
ATOM     15  N   UNL d   1      22.959 -18.492  -0.435  0.00  0.00    -0.249 N 
ATOM     16  C   UNL d   1      21.693 -18.861  -0.008  0.00  0.00     0.334 C 
ATOM     17  N   UNL d   1      20.795 -19.086  -1.033  0.00  0.00    -0.342 N 
ATOM     18  O   UNL d   1      21.395 -18.950   1.181  0.00  0.00    -0.246 OA
ATOM     19  H   UNL d   1      21.086 -18.990  -1.994  0.00  0.00     0.164 HD
ATOM     20  H   UNL d   1      23.243 -18.558  -1.404  0.00  0.00     0.192 HD
BRANCH  17  21
ATOM     21  C   UNL d   1      19.407 -19.453  -0.751  0.00  0.00     0.124 C 
BRANCH  21  22
ATOM     22  C   UNL d   1      19.258 -20.621   0.230  0.00  0.00     0.015 C 
ATOM     23  C   UNL d   1      18.708 -20.163   1.579  0.00  0.00     0.006 C 
ENDBRANCH  21  22
ENDBRANCH  17  21
ENDBRANCH   1  15
TORSDOF 5
ENDMDL
MODEL 2
REMARK VINA RESULT:    -6.248      8.370      9.942
REMARK INTER + INTRA:          -8.575
REMARK INTER:                  -7.740
REMARK INTRA:                  -0.835
REMARK CONF_INDEPENDENT:        1.492
REMARK UNBOUND:                -0.835
REMARK  5 active torsions:
REMARK  status: ('A' for Active; 'I' for Inactive)
REMARK    1  A    between atoms: C_2  and  C_3 
REMARK    2  A    between atoms: C_3  and  N_4 
REMARK       I    between atoms: N_4  and  C_5 
REMARK       I    between atoms: C_5  and  N_7 
REMARK    3  A    between atoms: N_7  and  N_8 
REMARK       I    between atoms: N_8  and  C_9 
REMARK    4  A    between atoms: C_9  and  C_11 
REMARK    5  A    between atoms: C_14  and  N_15 
ROOT
ATOM      1  N   UNL d   1      29.795 -14.487   3.459  0.00  0.00    -0.262 N 
ATOM      2  C   UNL d   1      28.474 -14.246   3.082  0.00  0.00     0.270 C 
ATOM      3  O   UNL d   1      27.787 -15.133   2.577  0.00  0.00    -0.266 OA
ATOM      4  H   UNL d   1      30.190 -15.373   3.138  0.00  0.00     0.190 HD
ENDROOT
BRANCH   2   5
ATOM      5  C   UNL d   1      27.925 -12.850   3.162  0.00  0.00     0.034 A 
ATOM      6  C   UNL d   1      27.059 -12.354   2.178  0.00  0.00     0.019 A 
ATOM      7  C   UNL d   1      26.618 -11.017   2.227  0.00  0.00     0.037 A 
ATOM      8  C   UNL d   1      27.026 -10.151   3.267  0.00  0.00     0.108 A 
ATOM      9  C   UNL d   1      27.897 -10.633   4.261  0.00  0.00    -0.028 A 
ATOM     10  C   UNL d   1      28.432  -9.896   5.456  0.00  0.00     0.050 C 
ATOM     11  C   UNL d   1      28.350 -11.969   4.160  0.00  0.00     0.026 A 
BRANCH   8  12
ATOM     12  N   UNL d   1      26.519  -8.758   3.230  0.00  0.00    -0.115 N 
ATOM     13  O   UNL d   1      25.589  -8.508   2.450  0.00  0.00    -0.532 OA
ATOM     14  O   UNL d   1      27.031  -7.906   3.965  0.00  0.00    -0.532 OA
ENDBRANCH   8  12
ENDBRANCH   2   5
BRANCH   1  15
ATOM     15  N   UNL d   1      30.337 -14.054   4.715  0.00  0.00    -0.249 N 
ATOM     16  C   UNL d   1      29.596 -14.258   5.869  0.00  0.00     0.334 C 
ATOM     17  N   UNL d   1      30.246 -13.888   7.030  0.00  0.00    -0.342 N 
ATOM     18  O   UNL d   1      28.470 -14.751   5.854  0.00  0.00    -0.246 OA
ATOM     19  H   UNL d   1      31.175 -13.497   6.990  0.00  0.00     0.164 HD
ATOM     20  H   UNL d   1      31.197 -13.521   4.713  0.00  0.00     0.192 HD
BRANCH  17  21
ATOM     21  C   UNL d   1      29.614 -14.068   8.336  0.00  0.00     0.124 C 
BRANCH  21  22
ATOM     22  C   UNL d   1      28.529 -13.032   8.653  0.00  0.00     0.015 C 
ATOM     23  C   UNL d   1      28.176 -13.014  10.138  0.00  0.00     0.006 C 
ENDBRANCH  21  22
ENDBRANCH  17  21
ENDBRANCH   1  15
TORSDOF 5
ENDMDL
MODEL 3
REMARK VINA RESULT:    -6.057      1.220      2.111
REMARK INTER + INTRA:          -8.558
REMARK INTER:                  -7.548
REMARK INTRA:                  -1.010
REMARK CONF_INDEPENDENT:        1.492
REMARK UNBOUND:                -1.010
REMARK  5 active torsions:
REMARK  status: ('A' for Active; 'I' for Inactive)
REMARK    1  A    between atoms: C_2  and  C_3 
REMARK    2  A    between atoms: C_3  and  N_4 
REMARK       I    between atoms: N_4  and  C_5 
REMARK       I    between atoms: C_5  and  N_7 
REMARK    3  A    between atoms: N_7  and  N_8 
REMARK       I    between atoms: N_8  and  C_9 
REMARK    4  A    between atoms: C_9  and  C_11 
REMARK    5  A    between atoms: C_14  and  N_15 
ROOT
ATOM      1  N   UNL d   1      24.738 -17.188   0.016  0.00  0.00    -0.262 N 
ATOM      2  C   UNL d   1      26.076 -16.898  -0.252  0.00  0.00     0.270 C 
ATOM      3  O   UNL d   1      26.933 -16.995   0.625  0.00  0.00    -0.266 OA
ATOM      4  H   UNL d   1      24.504 -17.314   1.002  0.00  0.00     0.190 HD
ENDROOT
BRANCH   2   5
ATOM      5  C   UNL d   1      26.455 -16.326  -1.588  0.00  0.00     0.034 A 
ATOM      6  C   UNL d   1      27.733 -16.530  -2.128  0.00  0.00     0.019 A 
ATOM      7  C   UNL d   1      28.096 -15.919  -3.344  0.00  0.00     0.037 A 
ATOM      8  C   UNL d   1      27.187 -15.099  -4.050  0.00  0.00     0.108 A 
ATOM      9  C   UNL d   1      25.902 -14.883  -3.521  0.00  0.00    -0.028 A 
ATOM     10  C   UNL d   1      24.783 -14.073  -4.113  0.00  0.00     0.050 C 
ATOM     11  C   UNL d   1      25.584 -15.481  -2.279  0.00  0.00     0.026 A 
BRANCH   8  12
ATOM     12  N   UNL d   1      27.663 -14.490  -5.316  0.00  0.00    -0.115 N 
ATOM     13  O   UNL d   1      27.910 -13.276  -5.309  0.00  0.00    -0.532 OA
ATOM     14  O   UNL d   1      27.794 -15.200  -6.320  0.00  0.00    -0.532 OA
ENDBRANCH   8  12
ENDBRANCH   2   5
BRANCH   1  15
ATOM     15  N   UNL d   1      23.922 -17.979  -0.860  0.00  0.00    -0.249 N 
ATOM     16  C   UNL d   1      22.622 -18.274  -0.477  0.00  0.00     0.334 C 
ATOM     17  N   UNL d   1      21.896 -18.962  -1.429  0.00  0.00    -0.342 N 
ATOM     18  O   UNL d   1      22.155 -17.926   0.606  0.00  0.00    -0.246 OA
ATOM     19  H   UNL d   1      22.322 -19.216  -2.308  0.00  0.00     0.164 HD
ATOM     20  H   UNL d   1      24.348 -18.386  -1.682  0.00  0.00     0.192 HD
BRANCH  17  21
ATOM     21  C   UNL d   1      20.498 -19.322  -1.195  0.00  0.00     0.124 C 
BRANCH  21  22
ATOM     22  C   UNL d   1      20.267 -20.121   0.094  0.00  0.00     0.015 C 
ATOM     23  C   UNL d   1      18.790 -20.450   0.301  0.00  0.00     0.006 C 
ENDBRANCH  21  22
ENDBRANCH  17  21
ENDBRANCH   1  15
TORSDOF 5
ENDMDL
MODEL 4
REMARK VINA RESULT:    -6.054      8.287      9.906
REMARK INTER + INTRA:          -8.398
REMARK INTER:                  -7.546
REMARK INTRA:                  -0.852
REMARK CONF_INDEPENDENT:        1.492
REMARK UNBOUND:                -0.852
REMARK  5 active torsions:
REMARK  status: ('A' for Active; 'I' for Inactive)
REMARK    1  A    between atoms: C_2  and  C_3 
REMARK    2  A    between atoms: C_3  and  N_4 
REMARK       I    between atoms: N_4  and  C_5 
REMARK       I    between atoms: C_5  and  N_7 
REMARK    3  A    between atoms: N_7  and  N_8 
REMARK       I    between atoms: N_8  and  C_9 
REMARK    4  A    between atoms: C_9  and  C_11 
REMARK    5  A    between atoms: C_14  and  N_15 
ROOT
ATOM      1  N   UNL d   1      29.731 -14.464   3.456  0.00  0.00    -0.262 N 
ATOM      2  C   UNL d   1      28.449 -14.088   3.054  0.00  0.00     0.270 C 
ATOM      3  O   UNL d   1      27.682 -14.902   2.542  0.00  0.00    -0.266 OA
ATOM      4  H   UNL d   1      30.036 -15.388   3.147  0.00  0.00     0.190 HD
ENDROOT
BRANCH   2   5
ATOM      5  C   UNL d   1      28.048 -12.642   3.115  0.00  0.00     0.034 A 
ATOM      6  C   UNL d   1      27.858 -11.993   4.344  0.00  0.00     0.019 A 
ATOM      7  C   UNL d   1      27.405 -10.661   4.381  0.00  0.00     0.037 A 
ATOM      8  C   UNL d   1      27.141  -9.945   3.191  0.00  0.00     0.108 A 
ATOM      9  C   UNL d   1      27.325 -10.581   1.951  0.00  0.00    -0.028 A 
ATOM     10  C   UNL d   1      27.127 -10.004   0.578  0.00  0.00     0.050 C 
ATOM     11  C   UNL d   1      27.744 -11.932   1.951  0.00  0.00     0.026 A 
BRANCH   8  12
ATOM     12  N   UNL d   1      26.658  -8.549   3.330  0.00  0.00    -0.115 N 
ATOM     13  O   UNL d   1      27.050  -7.903   4.312  0.00  0.00    -0.532 OA
ATOM     14  O   UNL d   1      25.893  -8.084   2.478  0.00  0.00    -0.532 OA
ENDBRANCH   8  12
ENDBRANCH   2   5
BRANCH   1  15
ATOM     15  N   UNL d   1      30.294 -14.080   4.718  0.00  0.00    -0.249 N 
ATOM     16  C   UNL d   1      29.533 -14.240   5.866  0.00  0.00     0.334 C 
ATOM     17  N   UNL d   1      30.199 -13.927   7.034  0.00  0.00    -0.342 N 
ATOM     18  O   UNL d   1      28.375 -14.654   5.841  0.00  0.00    -0.246 OA
ATOM     19  H   UNL d   1      31.154 -13.601   7.003  0.00  0.00     0.164 HD
ATOM     20  H   UNL d   1      31.188 -13.607   4.726  0.00  0.00     0.192 HD
BRANCH  17  21
ATOM     21  C   UNL d   1      29.548 -14.073   8.335  0.00  0.00     0.124 C 
BRANCH  21  22
ATOM     22  C   UNL d   1      28.545 -12.960   8.659  0.00  0.00     0.015 C 
ATOM     23  C   UNL d   1      28.183 -12.935  10.143  0.00  0.00     0.006 C 
ENDBRANCH  21  22
ENDBRANCH  17  21
ENDBRANCH   1  15
TORSDOF 5
ENDMDL
MODEL 5
REMARK VINA RESULT:    -5.764      6.012      6.903
REMARK INTER + INTRA:          -8.282
REMARK INTER:                  -7.255
REMARK INTRA:                  -1.026
REMARK CONF_INDEPENDENT:        1.492
REMARK UNBOUND:                -1.026
REMARK  5 active torsions:
REMARK  status: ('A' for Active; 'I' for Inactive)
REMARK    1  A    between atoms: C_2  and  C_3 
REMARK    2  A    between atoms: C_3  and  N_4 
REMARK       I    between atoms: N_4  and  C_5 
REMARK       I    between atoms: C_5  and  N_7 
REMARK    3  A    between atoms: N_7  and  N_8 
REMARK       I    between atoms: N_8  and  C_9 
REMARK    4  A    between atoms: C_9  and  C_11 
REMARK    5  A    between atoms: C_14  and  N_15 
ROOT
ATOM      1  N   UNL d   1      27.871 -15.168   1.622  0.00  0.00    -0.262 N 
ATOM      2  C   UNL d   1      28.635 -14.034   1.896  0.00  0.00     0.270 C 
ATOM      3  O   UNL d   1      29.853 -14.113   2.048  0.00  0.00    -0.266 OA
ATOM      4  H   UNL d   1      28.356 -16.061   1.724  0.00  0.00     0.190 HD
ENDROOT
BRANCH   2   5
ATOM      5  C   UNL d   1      27.949 -12.723   2.149  0.00  0.00     0.034 A 
ATOM      6  C   UNL d   1      27.221 -12.078   1.139  0.00  0.00     0.019 A 
ATOM      7  C   UNL d   1      26.651 -10.811   1.371  0.00  0.00     0.037 A 
ATOM      8  C   UNL d   1      26.790 -10.166   2.621  0.00  0.00     0.108 A 
ATOM      9  C   UNL d   1      27.519 -10.798   3.645  0.00  0.00    -0.028 A 
ATOM     10  C   UNL d   1      27.767 -10.305   5.042  0.00  0.00     0.050 C 
ATOM     11  C   UNL d   1      28.109 -12.053   3.364  0.00  0.00     0.026 A 
BRANCH   8  12
ATOM     12  N   UNL d   1      26.164  -8.829   2.769  0.00  0.00    -0.115 N 
ATOM     13  O   UNL d   1      26.656  -8.058   3.605  0.00  0.00    -0.532 OA
ATOM     14  O   UNL d   1      25.191  -8.533   2.068  0.00  0.00    -0.532 OA
ENDBRANCH   8  12
ENDBRANCH   2   5
BRANCH   1  15
ATOM     15  N   UNL d   1      26.854 -15.195   0.610  0.00  0.00    -0.249 N 
ATOM     16  C   UNL d   1      26.365 -16.421   0.187  0.00  0.00     0.334 C 
ATOM     17  N   UNL d   1      25.328 -16.332  -0.721  0.00  0.00    -0.342 N 
ATOM     18  O   UNL d   1      26.803 -17.491   0.608  0.00  0.00    -0.246 OA
ATOM     19  H   UNL d   1      24.996 -15.430  -1.028  0.00  0.00     0.164 HD
ATOM     20  H   UNL d   1      26.595 -14.326   0.161  0.00  0.00     0.192 HD
BRANCH  17  21
ATOM     21  C   UNL d   1      24.679 -17.535  -1.242  0.00  0.00     0.124 C 
BRANCH  21  22
ATOM     22  C   UNL d   1      23.786 -18.254  -0.224  0.00  0.00     0.015 C 
ATOM     23  C   UNL d   1      22.352 -18.397  -0.727  0.00  0.00     0.006 C 
ENDBRANCH  21  22
ENDBRANCH  17  21
ENDBRANCH   1  15
TORSDOF 5
ENDMDL
MODEL 6
REMARK VINA RESULT:    -5.735      3.987      6.924
REMARK INTER + INTRA:          -8.084
REMARK INTER:                  -7.227
REMARK INTRA:                  -0.857
REMARK CONF_INDEPENDENT:        1.492
REMARK UNBOUND:                -0.857
REMARK  5 active torsions:
REMARK  status: ('A' for Active; 'I' for Inactive)
REMARK    1  A    between atoms: C_2  and  C_3 
REMARK    2  A    between atoms: C_3  and  N_4 
REMARK       I    between atoms: N_4  and  C_5 
REMARK       I    between atoms: C_5  and  N_7 
REMARK    3  A    between atoms: N_7  and  N_8 
REMARK       I    between atoms: N_8  and  C_9 
REMARK    4  A    between atoms: C_9  and  C_11 
REMARK    5  A    between atoms: C_14  and  N_15 
ROOT
ATOM      1  N   UNL d   1      29.546 -15.474  -0.373  0.00  0.00    -0.262 N 
ATOM      2  C   UNL d   1      28.940 -16.468  -1.142  0.00  0.00     0.270 C 
ATOM      3  O   UNL d   1      29.566 -17.056  -2.023  0.00  0.00    -0.266 OA
ATOM      4  H   UNL d   1      30.461 -15.161  -0.700  0.00  0.00     0.190 HD
ENDROOT
BRANCH   2   5
ATOM      5  C   UNL d   1      27.469 -16.729  -0.989  0.00  0.00     0.034 A 
ATOM      6  C   UNL d   1      26.998 -17.810  -0.231  0.00  0.00     0.019 A 
ATOM      7  C   UNL d   1      25.619 -18.085  -0.165  0.00  0.00     0.037 A 
ATOM      8  C   UNL d   1      24.680 -17.279  -0.849  0.00  0.00     0.108 A 
ATOM      9  C   UNL d   1      25.135 -16.192  -1.616  0.00  0.00    -0.028 A 
ATOM     10  C   UNL d   1      24.316 -15.204  -2.396  0.00  0.00     0.050 C 
ATOM     11  C   UNL d   1      26.530 -15.968  -1.690  0.00  0.00     0.026 A 
BRANCH   8  12
ATOM     12  N   UNL d   1      23.249 -17.652  -0.729  0.00  0.00    -0.115 N 
ATOM     13  O   UNL d   1      22.884 -18.702  -1.277  0.00  0.00    -0.532 OA
ATOM     14  O   UNL d   1      22.481 -16.918  -0.098  0.00  0.00    -0.532 OA
ENDBRANCH   8  12
ENDBRANCH   2   5
BRANCH   1  15
ATOM     15  N   UNL d   1      29.403 -15.398   1.053  0.00  0.00    -0.249 N 
ATOM     16  C   UNL d   1      28.516 -14.476   1.587  0.00  0.00     0.334 C 
ATOM     17  N   UNL d   1      28.387 -14.547   2.960  0.00  0.00    -0.342 N 
ATOM     18  O   UNL d   1      27.881 -13.686   0.890  0.00  0.00    -0.246 OA
ATOM     19  H   UNL d   1      28.922 -15.220   3.487  0.00  0.00     0.164 HD
ATOM     20  H   UNL d   1      30.027 -15.945   1.631  0.00  0.00     0.192 HD
BRANCH  17  21
ATOM     21  C   UNL d   1      27.467 -13.664   3.676  0.00  0.00     0.124 C 
BRANCH  21  22
ATOM     22  C   UNL d   1      27.438 -13.892   5.192  0.00  0.00     0.015 C 
ATOM     23  C   UNL d   1      28.595 -14.774   5.656  0.00  0.00     0.006 C 
ENDBRANCH  21  22
ENDBRANCH  17  21
ENDBRANCH   1  15
TORSDOF 5
ENDMDL
MODEL 7
REMARK VINA RESULT:    -5.448      4.730      7.442
REMARK INTER + INTRA:          -7.729
REMARK INTER:                  -6.939
REMARK INTRA:                  -0.790
REMARK CONF_INDEPENDENT:        1.492
REMARK UNBOUND:                -0.790
REMARK  5 active torsions:
REMARK  status: ('A' for Active; 'I' for Inactive)
REMARK    1  A    between atoms: C_2  and  C_3 
REMARK    2  A    between atoms: C_3  and  N_4 
REMARK       I    between atoms: N_4  and  C_5 
REMARK       I    between atoms: C_5  and  N_7 
REMARK    3  A    between atoms: N_7  and  N_8 
REMARK       I    between atoms: N_8  and  C_9 
REMARK    4  A    between atoms: C_9  and  C_11 
REMARK    5  A    between atoms: C_14  and  N_15 
ROOT
ATOM      1  N   UNL d   1      28.329 -13.619   0.971  0.00  0.00    -0.262 N 
ATOM      2  C   UNL d   1      28.054 -14.088  -0.314  0.00  0.00     0.270 C 
ATOM      3  O   UNL d   1      28.558 -13.559  -1.303  0.00  0.00    -0.266 OA
ATOM      4  H   UNL d   1      28.825 -12.727   1.017  0.00  0.00     0.190 HD
ENDROOT
BRANCH   2   5
ATOM      5  C   UNL d   1      27.021 -15.162  -0.503  0.00  0.00     0.034 A 
ATOM      6  C   UNL d   1      25.920 -14.968  -1.349  0.00  0.00     0.019 A 
ATOM      7  C   UNL d   1      24.920 -15.954  -1.453  0.00  0.00     0.037 A 
ATOM      8  C   UNL d   1      25.005 -17.160  -0.720  0.00  0.00     0.108 A 
ATOM      9  C   UNL d   1      26.101 -17.369   0.135  0.00  0.00    -0.028 A 
ATOM     10  C   UNL d   1      26.397 -18.575   0.981  0.00  0.00     0.050 C 
ATOM     11  C   UNL d   1      27.067 -16.341   0.244  0.00  0.00     0.026 A 
BRANCH   8  12
ATOM     12  N   UNL d   1      23.900 -18.135  -0.885  0.00  0.00    -0.115 N 
ATOM     13  O   UNL d   1      23.425 -18.641   0.142  0.00  0.00    -0.532 OA
ATOM     14  O   UNL d   1      23.496 -18.408  -2.021  0.00  0.00    -0.532 OA
ENDBRANCH   8  12
ENDBRANCH   2   5
BRANCH   1  15
ATOM     15  N   UNL d   1      28.639 -14.490   2.068  0.00  0.00    -0.249 N 
ATOM     16  C   UNL d   1      28.260 -14.114   3.347  0.00  0.00     0.334 C 
ATOM     17  N   UNL d   1      28.524 -15.062   4.316  0.00  0.00    -0.342 N 
ATOM     18  O   UNL d   1      27.712 -13.039   3.587  0.00  0.00    -0.246 OA
ATOM     19  H   UNL d   1      28.966 -15.934   4.067  0.00  0.00     0.164 HD
ATOM     20  H   UNL d   1      29.214 -15.304   1.892  0.00  0.00     0.192 HD
BRANCH  17  21
ATOM     21  C   UNL d   1      28.156 -14.834   5.713  0.00  0.00     0.124 C 
BRANCH  21  22
ATOM     22  C   UNL d   1      28.657 -13.500   6.279  0.00  0.00     0.015 C 
ATOM     23  C   UNL d   1      29.295 -13.671   7.656  0.00  0.00     0.006 C 
ENDBRANCH  21  22
ENDBRANCH  17  21
ENDBRANCH   1  15
TORSDOF 5
ENDMDL
MODEL 8
REMARK VINA RESULT:    -5.314      2.854      4.332
REMARK INTER + INTRA:          -7.659
REMARK INTER:                  -6.805
REMARK INTRA:                  -0.854
REMARK CONF_INDEPENDENT:        1.492
REMARK UNBOUND:                -0.854
REMARK  5 active torsions:
REMARK  status: ('A' for Active; 'I' for Inactive)
REMARK    1  A    between atoms: C_2  and  C_3 
REMARK    2  A    between atoms: C_3  and  N_4 
REMARK       I    between atoms: N_4  and  C_5 
REMARK       I    between atoms: C_5  and  N_7 
REMARK    3  A    between atoms: N_7  and  N_8 
REMARK       I    between atoms: N_8  and  C_9 
REMARK    4  A    between atoms: C_9  and  C_11 
REMARK    5  A    between atoms: C_14  and  N_15 
ROOT
ATOM      1  N   UNL d   1      29.179 -16.417   0.387  0.00  0.00    -0.262 N 
ATOM      2  C   UNL d   1      30.039 -16.136  -0.675  0.00  0.00     0.270 C 
ATOM      3  O   UNL d   1      31.253 -16.042  -0.498  0.00  0.00    -0.266 OA
ATOM      4  H   UNL d   1      29.598 -16.370   1.317  0.00  0.00     0.190 HD
ENDROOT
BRANCH   2   5
ATOM      5  C   UNL d   1      29.466 -15.804  -2.023  0.00  0.00     0.034 A 
ATOM      6  C   UNL d   1      28.381 -14.926  -2.154  0.00  0.00     0.019 A 
ATOM      7  C   UNL d   1      27.807 -14.690  -3.418  0.00  0.00     0.037 A 
ATOM      8  C   UNL d   1      28.311 -15.318  -4.579  0.00  0.00     0.108 A 
ATOM      9  C   UNL d   1      29.398 -16.204  -4.464  0.00  0.00    -0.028 A 
ATOM     10  C   UNL d   1      30.098 -16.954  -5.562  0.00  0.00     0.050 C 
ATOM     11  C   UNL d   1      29.926 -16.447  -3.175  0.00  0.00     0.026 A 
BRANCH   8  12
ATOM     12  N   UNL d   1      27.636 -15.016  -5.864  0.00  0.00    -0.115 N 
ATOM     13  O   UNL d   1      26.552 -15.575  -6.086  0.00  0.00    -0.532 OA
ATOM     14  O   UNL d   1      28.165 -14.231  -6.658  0.00  0.00    -0.532 OA
ENDBRANCH   8  12
ENDBRANCH   2   5
BRANCH   1  15
ATOM     15  N   UNL d   1      28.121 -17.382   0.297  0.00  0.00    -0.249 N 
ATOM     16  C   UNL d   1      26.821 -16.933   0.123  0.00  0.00     0.334 C 
ATOM     17  N   UNL d   1      25.893 -17.942  -0.043  0.00  0.00    -0.342 N 
ATOM     18  O   UNL d   1      26.530 -15.739   0.091  0.00  0.00    -0.246 OA
ATOM     19  H   UNL d   1      26.183 -18.908  -0.020  0.00  0.00     0.164 HD
ATOM     20  H   UNL d   1      28.338 -18.355   0.466  0.00  0.00     0.192 HD
BRANCH  17  21
ATOM     21  C   UNL d   1      24.481 -17.637  -0.270  0.00  0.00     0.124 C 
BRANCH  21  22
ATOM     22  C   UNL d   1      23.620 -18.865  -0.589  0.00  0.00     0.015 C 
ATOM     23  C   UNL d   1      22.128 -18.555  -0.491  0.00  0.00     0.006 C 
ENDBRANCH  21  22
ENDBRANCH  17  21
ENDBRANCH   1  15
TORSDOF 5
ENDMDL
MODEL 9
REMARK VINA RESULT:    -5.197      8.383     10.587
REMARK INTER + INTRA:          -7.924
REMARK INTER:                  -6.688
REMARK INTRA:                  -1.236
REMARK CONF_INDEPENDENT:        1.492
REMARK UNBOUND:                -1.236
REMARK  5 active torsions:
REMARK  status: ('A' for Active; 'I' for Inactive)
REMARK    1  A    between atoms: C_2  and  C_3 
REMARK    2  A    between atoms: C_3  and  N_4 
REMARK       I    between atoms: N_4  and  C_5 
REMARK       I    between atoms: C_5  and  N_7 
REMARK    3  A    between atoms: N_7  and  N_8 
REMARK       I    between atoms: N_8  and  C_9 
REMARK    4  A    between atoms: C_9  and  C_11 
REMARK    5  A    between atoms: C_14  and  N_15 
ROOT
ATOM      1  N   UNL d   1      29.487 -14.825   4.089  0.00  0.00    -0.262 N 
ATOM      2  C   UNL d   1      28.382 -14.238   4.705  0.00  0.00     0.270 C 
ATOM      3  O   UNL d   1      27.618 -14.903   5.401  0.00  0.00    -0.266 OA
ATOM      4  H   UNL d   1      29.516 -15.845   4.117  0.00  0.00     0.190 HD
ENDROOT
BRANCH   2   5
ATOM      5  C   UNL d   1      28.039 -12.807   4.401  0.00  0.00     0.034 A 
ATOM      6  C   UNL d   1      28.135 -11.814   5.386  0.00  0.00     0.019 A 
ATOM      7  C   UNL d   1      27.733 -10.494   5.105  0.00  0.00     0.037 A 
ATOM      8  C   UNL d   1      27.236 -10.136   3.831  0.00  0.00     0.108 A 
ATOM      9  C   UNL d   1      27.131 -11.121   2.833  0.00  0.00    -0.028 A 
ATOM     10  C   UNL d   1      26.655 -10.956   1.417  0.00  0.00     0.050 C 
ATOM     11  C   UNL d   1      27.508 -12.445   3.161  0.00  0.00     0.026 A 
BRANCH   8  12
ATOM     12  N   UNL d   1      26.828  -8.724   3.631  0.00  0.00    -0.115 N 
ATOM     13  O   UNL d   1      25.911  -8.503   2.828  0.00  0.00    -0.532 OA
ATOM     14  O   UNL d   1      27.405  -7.831   4.261  0.00  0.00    -0.532 OA
ENDBRANCH   8  12
ENDBRANCH   2   5
BRANCH   1  15
ATOM     15  N   UNL d   1      30.791 -14.226   4.095  0.00  0.00    -0.249 N 
ATOM     16  C   UNL d   1      31.091 -13.268   3.139  0.00  0.00     0.334 C 
ATOM     17  N   UNL d   1      32.337 -12.691   3.290  0.00  0.00    -0.342 N 
ATOM     18  O   UNL d   1      30.301 -12.944   2.254  0.00  0.00    -0.246 OA
ATOM     19  H   UNL d   1      32.945 -12.983   4.040  0.00  0.00     0.164 HD
ATOM     20  H   UNL d   1      31.488 -14.593   4.730  0.00  0.00     0.192 HD
BRANCH  17  21
ATOM     21  C   UNL d   1      32.794 -11.639   2.383  0.00  0.00     0.124 C 
BRANCH  21  22
ATOM     22  C   UNL d   1      31.989 -10.338   2.480  0.00  0.00     0.015 C 
ATOM     23  C   UNL d   1      31.549 -10.048   3.914  0.00  0.00     0.006 C 
ENDBRANCH  21  22
ENDBRANCH  17  21
ENDBRANCH   1  15
TORSDOF 5
ENDMDL
