MODEL 1
REMARK VINA RESULT:    -8.952      0.000      0.000
REMARK INTER + INTRA:         -11.368
REMARK INTER:                 -10.444
REMARK INTRA:                  -0.924
REMARK CONF_INDEPENDENT:        1.492
REMARK UNBOUND:                -0.924
REMARK  5 active torsions:
REMARK  status: ('A' for Active; 'I' for Inactive)
REMARK    1  A    between atoms: C_2  and  C_3 
REMARK       I    between atoms: C_2  and  N_15 
REMARK    2  A    between atoms: C_3  and  N_4 
REMARK    3  A    between atoms: N_4  and  C_5 
REMARK    4  A    between atoms: N_15  and  C_16 
REMARK    5  A    between atoms: C_19  and  C_20 
ROOT
ATOM      1  O   UNL d   1      27.351 -15.014  -1.845  0.00  0.00    -0.271 OA
ATOM      2  C   UNL d   1      26.273 -15.616  -1.860  0.00  0.00     0.239 C 
ATOM      3  N   UNL d   1      25.669 -15.947  -0.662  0.00  0.00    -0.326 N 
ATOM      4  H   UNL d   1      26.102 -15.535   0.157  0.00  0.00     0.169 HD
ENDROOT
BRANCH   2   5
ATOM      5  C   UNL d   1      25.528 -15.939  -3.176  0.00  0.00     0.223 C 
BRANCH   5   6
ATOM      6  N   UNL d   1      25.241 -14.734  -3.950  0.00  0.00    -0.381 N 
ATOM      7  H   UNL d   1      24.503 -14.147  -3.568  0.00  0.00     0.160 HD
BRANCH   6   8
ATOM      8  C   UNL d   1      26.243 -14.153  -4.718  0.00  0.00     0.029 A 
ATOM      9  C   UNL d   1      26.255 -12.754  -4.920  0.00  0.00     0.030 A 
ATOM     10  C   UNL d   1      27.181 -12.131  -5.772  0.00  0.00     0.012 A 
ATOM     11  C   UNL d   1      28.121 -12.922  -6.399  0.00  0.00    -0.025 A 
ATOM     12  C   UNL d   1      28.162 -14.290  -6.138  0.00  0.00     0.042 A 
ATOM     13  C   UNL d   1      29.185 -12.555  -7.378  0.00  0.00     0.162 A 
ATOM     14  C   UNL d   1      27.256 -14.922  -5.303  0.00  0.00     0.046 A 
ATOM     15  C   UNL d   1      29.273 -14.856  -6.906  0.00  0.00     0.252 A 
ATOM     16  O   UNL d   1      29.641 -16.020  -6.898  0.00  0.00    -0.268 OA
ATOM     17  N   UNL d   1      29.829 -13.822  -7.625  0.00  0.00    -0.353 N 
ATOM     18  H   UNL d   1      30.618 -13.973  -8.240  0.00  0.00     0.163 HD
ENDBRANCH   6   8
ENDBRANCH   5   6
ENDBRANCH   2   5
BRANCH   3  19
ATOM     19  C   UNL d   1      24.523 -16.736  -0.477  0.00  0.00     0.034 A 
ATOM     20  C   UNL d   1      24.636 -18.021   0.048  0.00  0.00     0.030 A 
ATOM     21  C   UNL d   1      23.484 -18.802   0.209  0.00  0.00     0.014 A 
ATOM     22  C   UNL d   1      22.209 -18.288  -0.083  0.00  0.00    -0.026 A 
ATOM     23  C   UNL d   1      22.120 -17.021  -0.655  0.00  0.00     0.014 A 
ATOM     24  C   UNL d   1      23.270 -16.275  -0.879  0.00  0.00     0.030 A 
BRANCH  22  25
ATOM     25  C   UNL d   1      21.000 -19.064   0.189  0.00  0.00    -0.026 A 
ATOM     26  C   UNL d   1      20.150 -19.447  -0.859  0.00  0.00     0.012 A 
ATOM     27  C   UNL d   1      18.933 -20.072  -0.593  0.00  0.00     0.001 A 
ATOM     28  C   UNL d   1      18.599 -20.410   0.717  0.00  0.00     0.000 A 
ATOM     29  C   UNL d   1      19.461 -20.090   1.763  0.00  0.00     0.001 A 
ATOM     30  C   UNL d   1      20.654 -19.417   1.500  0.00  0.00     0.012 A 
ENDBRANCH  22  25
ENDBRANCH   3  19
TORSDOF 5
ENDMDL
MODEL 2
REMARK VINA RESULT:    -8.602      4.894      7.441
REMARK INTER + INTRA:         -11.133
REMARK INTER:                 -10.093
REMARK INTRA:                  -1.040
REMARK CONF_INDEPENDENT:        1.492
REMARK UNBOUND:                -1.040
REMARK  5 active torsions:
REMARK  status: ('A' for Active; 'I' for Inactive)
REMARK    1  A    between atoms: C_2  and  C_3 
REMARK       I    between atoms: C_2  and  N_15 
REMARK    2  A    between atoms: C_3  and  N_4 
REMARK    3  A    between atoms: N_4  and  C_5 
REMARK    4  A    between atoms: N_15  and  C_16 
REMARK    5  A    between atoms: C_19  and  C_20 
ROOT
ATOM      1  O   UNL d   1      28.761 -15.247  -0.814  0.00  0.00    -0.271 OA
ATOM      2  C   UNL d   1      27.667 -15.635  -0.392  0.00  0.00     0.239 C 
ATOM      3  N   UNL d   1      26.975 -16.599  -1.098  0.00  0.00    -0.326 N 
ATOM      4  H   UNL d   1      27.499 -17.026  -1.854  0.00  0.00     0.169 HD
ENDROOT
BRANCH   2   5
ATOM      5  C   UNL d   1      27.080 -15.140   0.950  0.00  0.00     0.223 C 
BRANCH   5   6
ATOM      6  N   UNL d   1      28.075 -15.154   2.020  0.00  0.00    -0.381 N 
ATOM      7  H   UNL d   1      28.966 -15.575   1.768  0.00  0.00     0.160 HD
BRANCH   6   8
ATOM      8  C   UNL d   1      28.039 -14.177   3.007  0.00  0.00     0.029 A 
ATOM      9  C   UNL d   1      27.700 -12.847   2.670  0.00  0.00     0.030 A 
ATOM     10  C   UNL d   1      27.752 -11.803   3.608  0.00  0.00     0.012 A 
ATOM     11  C   UNL d   1      28.118 -12.110   4.902  0.00  0.00    -0.025 A 
ATOM     12  C   UNL d   1      28.374 -13.434   5.255  0.00  0.00     0.042 A 
ATOM     13  C   UNL d   1      28.303 -11.220   6.084  0.00  0.00     0.162 A 
ATOM     14  C   UNL d   1      28.330 -14.476   4.344  0.00  0.00     0.046 A 
ATOM     15  C   UNL d   1      28.697 -13.458   6.683  0.00  0.00     0.252 A 
ATOM     16  O   UNL d   1      28.938 -14.449   7.354  0.00  0.00    -0.268 OA
ATOM     17  N   UNL d   1      28.663 -12.155   7.123  0.00  0.00    -0.353 N 
ATOM     18  H   UNL d   1      28.860 -11.919   8.087  0.00  0.00     0.163 HD
ENDBRANCH   6   8
ENDBRANCH   5   6
ENDBRANCH   2   5
BRANCH   3  19
ATOM     19  C   UNL d   1      25.674 -17.066  -0.851  0.00  0.00     0.034 A 
ATOM     20  C   UNL d   1      24.579 -16.409  -1.407  0.00  0.00     0.030 A 
ATOM     21  C   UNL d   1      23.286 -16.877  -1.135  0.00  0.00     0.014 A 
ATOM     22  C   UNL d   1      23.078 -18.037  -0.369  0.00  0.00    -0.026 A 
ATOM     23  C   UNL d   1      24.181 -18.649   0.220  0.00  0.00     0.014 A 
ATOM     24  C   UNL d   1      25.456 -18.143   0.006  0.00  0.00     0.030 A 
BRANCH  22  25
ATOM     25  C   UNL d   1      21.736 -18.585  -0.179  0.00  0.00    -0.026 A 
ATOM     26  C   UNL d   1      21.292 -18.950   1.101  0.00  0.00     0.012 A 
ATOM     27  C   UNL d   1      20.067 -19.593   1.271  0.00  0.00     0.001 A 
ATOM     28  C   UNL d   1      19.229 -19.789   0.175  0.00  0.00     0.000 A 
ATOM     29  C   UNL d   1      19.630 -19.378  -1.094  0.00  0.00     0.001 A 
ATOM     30  C   UNL d   1      20.879 -18.783  -1.270  0.00  0.00     0.012 A 
ENDBRANCH  22  25
ENDBRANCH   3  19
TORSDOF 5
ENDMDL
MODEL 3
REMARK VINA RESULT:    -8.590      4.641      7.007
REMARK INTER + INTRA:         -11.046
REMARK INTER:                 -10.081
REMARK INTRA:                  -0.965
REMARK CONF_INDEPENDENT:        1.492
REMARK UNBOUND:                -0.965
REMARK  5 active torsions:
REMARK  status: ('A' for Active; 'I' for Inactive)
REMARK    1  A    between atoms: C_2  and  C_3 
REMARK       I    between atoms: C_2  and  N_15 
REMARK    2  A    between atoms: C_3  and  N_4 
REMARK    3  A    between atoms: N_4  and  C_5 
REMARK    4  A    between atoms: N_15  and  C_16 
REMARK    5  A    between atoms: C_19  and  C_20 
ROOT
ATOM      1  O   UNL d   1      28.517 -14.750  -0.931  0.00  0.00    -0.271 OA
ATOM      2  C   UNL d   1      27.479 -15.246  -0.482  0.00  0.00     0.239 C 
ATOM      3  N   UNL d   1      26.813 -16.202  -1.224  0.00  0.00    -0.326 N 
ATOM      4  H   UNL d   1      27.319 -16.532  -2.038  0.00  0.00     0.169 HD
ENDROOT
BRANCH   2   5
ATOM      5  C   UNL d   1      26.941 -14.896   0.924  0.00  0.00     0.223 C 
BRANCH   5   6
ATOM      6  N   UNL d   1      27.954 -15.084   1.960  0.00  0.00    -0.381 N 
ATOM      7  H   UNL d   1      28.727 -15.690   1.695  0.00  0.00     0.160 HD
BRANCH   6   8
ATOM      8  C   UNL d   1      28.163 -14.090   2.907  0.00  0.00     0.029 A 
ATOM      9  C   UNL d   1      28.894 -14.378   4.082  0.00  0.00     0.030 A 
ATOM     10  C   UNL d   1      29.043 -13.441   5.118  0.00  0.00     0.012 A 
ATOM     11  C   UNL d   1      28.475 -12.195   4.952  0.00  0.00    -0.025 A 
ATOM     12  C   UNL d   1      27.823 -11.882   3.762  0.00  0.00     0.042 A 
ATOM     13  C   UNL d   1      28.429 -11.030   5.883  0.00  0.00     0.162 A 
ATOM     14  C   UNL d   1      27.665 -12.793   2.730  0.00  0.00     0.046 A 
ATOM     15  C   UNL d   1      27.363 -10.495   3.858  0.00  0.00     0.252 A 
ATOM     16  O   UNL d   1      26.786  -9.861   2.989  0.00  0.00    -0.268 OA
ATOM     17  N   UNL d   1      27.717 -10.042   5.109  0.00  0.00    -0.353 N 
ATOM     18  H   UNL d   1      27.497  -9.102   5.410  0.00  0.00     0.163 HD
ENDBRANCH   6   8
ENDBRANCH   5   6
ENDBRANCH   2   5
BRANCH   3  19
ATOM     19  C   UNL d   1      25.565 -16.778  -0.944  0.00  0.00     0.034 A 
ATOM     20  C   UNL d   1      24.407 -16.248  -1.511  0.00  0.00     0.030 A 
ATOM     21  C   UNL d   1      23.167 -16.824  -1.206  0.00  0.00     0.014 A 
ATOM     22  C   UNL d   1      23.075 -17.969  -0.397  0.00  0.00    -0.026 A 
ATOM     23  C   UNL d   1      24.235 -18.453   0.201  0.00  0.00     0.014 A 
ATOM     24  C   UNL d   1      25.455 -17.839  -0.046  0.00  0.00     0.030 A 
BRANCH  22  25
ATOM     25  C   UNL d   1      21.791 -18.632  -0.171  0.00  0.00    -0.026 A 
ATOM     26  C   UNL d   1      20.949 -18.937  -1.250  0.00  0.00     0.012 A 
ATOM     27  C   UNL d   1      19.671 -19.448  -1.031  0.00  0.00     0.001 A 
ATOM     28  C   UNL d   1      19.259 -19.754   0.265  0.00  0.00     0.000 A 
ATOM     29  C   UNL d   1      20.108 -19.513   1.343  0.00  0.00     0.001 A 
ATOM     30  C   UNL d   1      21.366 -18.951   1.126  0.00  0.00     0.012 A 
ENDBRANCH  22  25
ENDBRANCH   3  19
TORSDOF 5
ENDMDL
MODEL 4
REMARK VINA RESULT:    -8.267      1.834      2.502
REMARK INTER + INTRA:         -10.503
REMARK INTER:                  -9.759
REMARK INTRA:                  -0.744
REMARK CONF_INDEPENDENT:        1.492
REMARK UNBOUND:                -0.744
REMARK  5 active torsions:
REMARK  status: ('A' for Active; 'I' for Inactive)
REMARK    1  A    between atoms: C_2  and  C_3 
REMARK       I    between atoms: C_2  and  N_15 
REMARK    2  A    between atoms: C_3  and  N_4 
REMARK    3  A    between atoms: N_4  and  C_5 
REMARK    4  A    between atoms: N_15  and  C_16 
REMARK    5  A    between atoms: C_19  and  C_20 
ROOT
ATOM      1  O   UNL d   1      27.758 -15.680  -2.010  0.00  0.00    -0.271 OA
ATOM      2  C   UNL d   1      26.570 -16.008  -1.934  0.00  0.00     0.239 C 
ATOM      3  N   UNL d   1      26.135 -16.717  -0.831  0.00  0.00    -0.326 N 
ATOM      4  H   UNL d   1      26.815 -16.794  -0.083  0.00  0.00     0.169 HD
ENDROOT
BRANCH   2   5
ATOM      5  C   UNL d   1      25.528 -15.578  -2.992  0.00  0.00     0.223 C 
BRANCH   5   6
ATOM      6  N   UNL d   1      26.158 -14.989  -4.171  0.00  0.00    -0.381 N 
ATOM      7  H   UNL d   1      26.142 -15.576  -5.002  0.00  0.00     0.160 HD
BRANCH   6   8
ATOM      8  C   UNL d   1      26.192 -13.607  -4.315  0.00  0.00     0.029 A 
ATOM      9  C   UNL d   1      25.603 -12.781  -3.332  0.00  0.00     0.030 A 
ATOM     10  C   UNL d   1      25.517 -11.387  -3.481  0.00  0.00     0.012 A 
ATOM     11  C   UNL d   1      26.058 -10.821  -4.617  0.00  0.00    -0.025 A 
ATOM     12  C   UNL d   1      26.711 -11.625  -5.549  0.00  0.00     0.042 A 
ATOM     13  C   UNL d   1      26.076  -9.399  -5.065  0.00  0.00     0.162 A 
ATOM     14  C   UNL d   1      26.804 -13.001  -5.420  0.00  0.00     0.046 A 
ATOM     15  C   UNL d   1      27.209 -10.754  -6.616  0.00  0.00     0.252 A 
ATOM     16  O   UNL d   1      27.867 -11.099  -7.584  0.00  0.00    -0.268 OA
ATOM     17  N   UNL d   1      26.806  -9.475  -6.308  0.00  0.00    -0.353 N 
ATOM     18  H   UNL d   1      27.032  -8.693  -6.908  0.00  0.00     0.163 HD
ENDBRANCH   6   8
ENDBRANCH   5   6
ENDBRANCH   2   5
BRANCH   3  19
ATOM     19  C   UNL d   1      24.867 -17.285  -0.631  0.00  0.00     0.034 A 
ATOM     20  C   UNL d   1      24.749 -18.638  -0.318  0.00  0.00     0.030 A 
ATOM     21  C   UNL d   1      23.475 -19.193  -0.140  0.00  0.00     0.014 A 
ATOM     22  C   UNL d   1      22.318 -18.397  -0.201  0.00  0.00    -0.026 A 
ATOM     23  C   UNL d   1      22.453 -17.060  -0.564  0.00  0.00     0.014 A 
ATOM     24  C   UNL d   1      23.712 -16.527  -0.809  0.00  0.00     0.030 A 
BRANCH  22  25
ATOM     25  C   UNL d   1      21.000 -18.956   0.095  0.00  0.00    -0.026 A 
ATOM     26  C   UNL d   1      20.668 -19.343   1.402  0.00  0.00     0.012 A 
ATOM     27  C   UNL d   1      19.466 -19.995   1.665  0.00  0.00     0.001 A 
ATOM     28  C   UNL d   1      18.538 -20.180   0.642  0.00  0.00     0.000 A 
ATOM     29  C   UNL d   1      18.828 -19.748  -0.650  0.00  0.00     0.001 A 
ATOM     30  C   UNL d   1      20.055 -19.143  -0.923  0.00  0.00     0.012 A 
ENDBRANCH  22  25
ENDBRANCH   3  19
TORSDOF 5
ENDMDL
MODEL 5
REMARK VINA RESULT:    -7.731      2.322      4.152
REMARK INTER + INTRA:         -10.889
REMARK INTER:                  -9.223
REMARK INTRA:                  -1.667
REMARK CONF_INDEPENDENT:        1.492
REMARK UNBOUND:                -1.667
REMARK  5 active torsions:
REMARK  status: ('A' for Active; 'I' for Inactive)
REMARK    1  A    between atoms: C_2  and  C_3 
REMARK       I    between atoms: C_2  and  N_15 
REMARK    2  A    between atoms: C_3  and  N_4 
REMARK    3  A    between atoms: N_4  and  C_5 
REMARK    4  A    between atoms: N_15  and  C_16 
REMARK    5  A    between atoms: C_19  and  C_20 
ROOT
ATOM      1  O   UNL d   1      31.713 -15.278  -2.872  0.00  0.00    -0.271 OA
ATOM      2  C   UNL d   1      30.587 -15.776  -2.784  0.00  0.00     0.239 C 
ATOM      3  N   UNL d   1      29.666 -15.214  -1.922  0.00  0.00    -0.326 N 
ATOM      4  H   UNL d   1      29.951 -14.327  -1.520  0.00  0.00     0.169 HD
ENDROOT
BRANCH   2   5
ATOM      5  C   UNL d   1      30.138 -16.960  -3.672  0.00  0.00     0.223 C 
BRANCH   5   6
ATOM      6  N   UNL d   1      29.737 -16.521  -5.006  0.00  0.00    -0.381 N 
ATOM      7  H   UNL d   1      29.609 -17.271  -5.682  0.00  0.00     0.160 HD
BRANCH   6   8
ATOM      8  C   UNL d   1      29.020 -15.341  -5.156  0.00  0.00     0.029 A 
ATOM      9  C   UNL d   1      29.671 -14.173  -5.616  0.00  0.00     0.030 A 
ATOM     10  C   UNL d   1      29.019 -12.931  -5.684  0.00  0.00     0.012 A 
ATOM     11  C   UNL d   1      27.690 -12.875  -5.315  0.00  0.00    -0.025 A 
ATOM     12  C   UNL d   1      27.025 -14.040  -4.939  0.00  0.00     0.042 A 
ATOM     13  C   UNL d   1      26.764 -11.708  -5.241  0.00  0.00     0.162 A 
ATOM     14  C   UNL d   1      27.652 -15.272  -4.864  0.00  0.00     0.046 A 
ATOM     15  C   UNL d   1      25.636 -13.682  -4.643  0.00  0.00     0.252 A 
ATOM     16  O   UNL d   1      24.743 -14.450  -4.320  0.00  0.00    -0.268 OA
ATOM     17  N   UNL d   1      25.529 -12.320  -4.812  0.00  0.00    -0.353 N 
ATOM     18  H   UNL d   1      24.654 -11.837  -4.658  0.00  0.00     0.163 HD
ENDBRANCH   6   8
ENDBRANCH   5   6
ENDBRANCH   2   5
BRANCH   3  19
ATOM     19  C   UNL d   1      28.396 -15.710  -1.591  0.00  0.00     0.034 A 
ATOM     20  C   UNL d   1      27.257 -14.955  -1.864  0.00  0.00     0.030 A 
ATOM     21  C   UNL d   1      25.998 -15.457  -1.511  0.00  0.00     0.014 A 
ATOM     22  C   UNL d   1      25.856 -16.738  -0.951  0.00  0.00    -0.026 A 
ATOM     23  C   UNL d   1      27.007 -17.456  -0.639  0.00  0.00     0.014 A 
ATOM     24  C   UNL d   1      28.259 -16.927  -0.926  0.00  0.00     0.030 A 
BRANCH  22  25
ATOM     25  C   UNL d   1      24.534 -17.304  -0.685  0.00  0.00    -0.026 A 
ATOM     26  C   UNL d   1      24.385 -18.678  -0.442  0.00  0.00     0.012 A 
ATOM     27  C   UNL d   1      23.117 -19.242  -0.319  0.00  0.00     0.001 A 
ATOM     28  C   UNL d   1      21.989 -18.425  -0.339  0.00  0.00     0.000 A 
ATOM     29  C   UNL d   1      22.124 -17.051  -0.520  0.00  0.00     0.001 A 
ATOM     30  C   UNL d   1      23.391 -16.494  -0.697  0.00  0.00     0.012 A 
ENDBRANCH  22  25
ENDBRANCH   3  19
TORSDOF 5
ENDMDL
MODEL 6
REMARK VINA RESULT:    -7.631      2.635      3.775
REMARK INTER + INTRA:         -10.500
REMARK INTER:                  -9.122
REMARK INTRA:                  -1.377
REMARK CONF_INDEPENDENT:        1.492
REMARK UNBOUND:                -1.377
REMARK  5 active torsions:
REMARK  status: ('A' for Active; 'I' for Inactive)
REMARK    1  A    between atoms: C_2  and  C_3 
REMARK       I    between atoms: C_2  and  N_15 
REMARK    2  A    between atoms: C_3  and  N_4 
REMARK    3  A    between atoms: N_4  and  C_5 
REMARK    4  A    between atoms: N_15  and  C_16 
REMARK    5  A    between atoms: C_19  and  C_20 
ROOT
ATOM      1  O   UNL d   1      29.928 -15.622  -0.895  0.00  0.00    -0.271 OA
ATOM      2  C   UNL d   1      28.798 -15.942  -0.514  0.00  0.00     0.239 C 
ATOM      3  N   UNL d   1      28.062 -16.838  -1.264  0.00  0.00    -0.326 N 
ATOM      4  H   UNL d   1      28.577 -17.281  -2.016  0.00  0.00     0.169 HD
ENDROOT
BRANCH   2   5
ATOM      5  C   UNL d   1      28.208 -15.440   0.824  0.00  0.00     0.223 C 
BRANCH   5   6
ATOM      6  N   UNL d   1      27.460 -14.196   0.659  0.00  0.00    -0.381 N 
ATOM      7  H   UNL d   1      27.446 -13.594   1.479  0.00  0.00     0.160 HD
BRANCH   6   8
ATOM      8  C   UNL d   1      27.340 -13.627  -0.603  0.00  0.00     0.029 A 
ATOM      9  C   UNL d   1      28.326 -12.728  -1.069  0.00  0.00     0.030 A 
ATOM     10  C   UNL d   1      28.198 -12.046  -2.290  0.00  0.00     0.012 A 
ATOM     11  C   UNL d   1      27.082 -12.298  -3.060  0.00  0.00    -0.025 A 
ATOM     12  C   UNL d   1      26.149 -13.243  -2.641  0.00  0.00     0.042 A 
ATOM     13  C   UNL d   1      26.658 -11.700  -4.359  0.00  0.00     0.162 A 
ATOM     14  C   UNL d   1      26.257 -13.924  -1.440  0.00  0.00     0.046 A 
ATOM     15  C   UNL d   1      25.106 -13.323  -3.667  0.00  0.00     0.252 A 
ATOM     16  O   UNL d   1      24.144 -14.075  -3.664  0.00  0.00    -0.268 OA
ATOM     17  N   UNL d   1      25.428 -12.401  -4.636  0.00  0.00    -0.353 N 
ATOM     18  H   UNL d   1      24.845 -12.270  -5.452  0.00  0.00     0.163 HD
ENDBRANCH   6   8
ENDBRANCH   5   6
ENDBRANCH   2   5
BRANCH   3  19
ATOM     19  C   UNL d   1      26.725 -17.217  -1.065  0.00  0.00     0.034 A 
ATOM     20  C   UNL d   1      25.737 -16.785  -1.947  0.00  0.00     0.030 A 
ATOM     21  C   UNL d   1      24.405 -17.157  -1.723  0.00  0.00     0.014 A 
ATOM     22  C   UNL d   1      24.057 -18.017  -0.667  0.00  0.00    -0.026 A 
ATOM     23  C   UNL d   1      25.050 -18.397   0.232  0.00  0.00     0.014 A 
ATOM     24  C   UNL d   1      26.358 -17.970   0.049  0.00  0.00     0.030 A 
BRANCH  22  25
ATOM     25  C   UNL d   1      22.684 -18.493  -0.502  0.00  0.00    -0.026 A 
ATOM     26  C   UNL d   1      22.110 -18.575   0.775  0.00  0.00     0.012 A 
ATOM     27  C   UNL d   1      20.852 -19.149   0.952  0.00  0.00     0.001 A 
ATOM     28  C   UNL d   1      20.114 -19.558  -0.158  0.00  0.00     0.000 A 
ATOM     29  C   UNL d   1      20.647 -19.428  -1.438  0.00  0.00     0.001 A 
ATOM     30  C   UNL d   1      21.928 -18.902  -1.608  0.00  0.00     0.012 A 
ENDBRANCH  22  25
ENDBRANCH   3  19
TORSDOF 5
ENDMDL
MODEL 7
REMARK VINA RESULT:    -7.107      3.260      5.275
REMARK INTER + INTRA:         -10.300
REMARK INTER:                  -8.599
REMARK INTRA:                  -1.701
REMARK CONF_INDEPENDENT:        1.492
REMARK UNBOUND:                -1.701
REMARK  5 active torsions:
REMARK  status: ('A' for Active; 'I' for Inactive)
REMARK    1  A    between atoms: C_2  and  C_3 
REMARK       I    between atoms: C_2  and  N_15 
REMARK    2  A    between atoms: C_3  and  N_4 
REMARK    3  A    between atoms: N_4  and  C_5 
REMARK    4  A    between atoms: N_15  and  C_16 
REMARK    5  A    between atoms: C_19  and  C_20 
ROOT
ATOM      1  O   UNL d   1      26.463 -10.535  -6.644  0.00  0.00    -0.271 OA
ATOM      2  C   UNL d   1      26.668 -11.511  -5.916  0.00  0.00     0.239 C 
ATOM      3  N   UNL d   1      25.599 -12.121  -5.288  0.00  0.00    -0.326 N 
ATOM      4  H   UNL d   1      24.688 -11.796  -5.594  0.00  0.00     0.169 HD
ENDROOT
BRANCH   2   5
ATOM      5  C   UNL d   1      28.074 -12.131  -5.747  0.00  0.00     0.223 C 
BRANCH   5   6
ATOM      6  N   UNL d   1      28.190 -13.417  -6.431  0.00  0.00    -0.381 N 
ATOM      7  H   UNL d   1      28.281 -13.355  -7.443  0.00  0.00     0.160 HD
BRANCH   6   8
ATOM      8  C   UNL d   1      28.738 -14.505  -5.764  0.00  0.00     0.029 A 
ATOM      9  C   UNL d   1      28.717 -14.549  -4.351  0.00  0.00     0.030 A 
ATOM     10  C   UNL d   1      29.350 -15.573  -3.627  0.00  0.00     0.012 A 
ATOM     11  C   UNL d   1      29.981 -16.575  -4.335  0.00  0.00    -0.025 A 
ATOM     12  C   UNL d   1      29.933 -16.575  -5.727  0.00  0.00     0.042 A 
ATOM     13  C   UNL d   1      30.763 -17.747  -3.848  0.00  0.00     0.162 A 
ATOM     14  C   UNL d   1      29.316 -15.575  -6.459  0.00  0.00     0.046 A 
ATOM     15  C   UNL d   1      30.648 -17.765  -6.195  0.00  0.00     0.252 A 
ATOM     16  O   UNL d   1      30.779 -18.122  -7.356  0.00  0.00    -0.268 OA
ATOM     17  N   UNL d   1      31.129 -18.408  -5.078  0.00  0.00    -0.353 N 
ATOM     18  H   UNL d   1      31.666 -19.262  -5.151  0.00  0.00     0.163 HD
ENDBRANCH   6   8
ENDBRANCH   5   6
ENDBRANCH   2   5
BRANCH   3  19
ATOM     19  C   UNL d   1      25.646 -13.147  -4.332  0.00  0.00     0.034 A 
ATOM     20  C   UNL d   1      25.872 -12.843  -2.991  0.00  0.00     0.030 A 
ATOM     21  C   UNL d   1      25.935 -13.881  -2.052  0.00  0.00     0.014 A 
ATOM     22  C   UNL d   1      25.704 -15.216  -2.426  0.00  0.00    -0.026 A 
ATOM     23  C   UNL d   1      25.530 -15.505  -3.776  0.00  0.00     0.014 A 
ATOM     24  C   UNL d   1      25.538 -14.482  -4.715  0.00  0.00     0.030 A 
BRANCH  22  25
ATOM     25  C   UNL d   1      25.660 -16.283  -1.427  0.00  0.00    -0.026 A 
ATOM     26  C   UNL d   1      24.460 -16.956  -1.158  0.00  0.00     0.012 A 
ATOM     27  C   UNL d   1      24.382 -17.881  -0.118  0.00  0.00     0.001 A 
ATOM     28  C   UNL d   1      25.529 -18.215   0.600  0.00  0.00     0.000 A 
ATOM     29  C   UNL d   1      26.742 -17.598   0.305  0.00  0.00     0.001 A 
ATOM     30  C   UNL d   1      26.806 -16.633  -0.700  0.00  0.00     0.012 A 
ENDBRANCH  22  25
ENDBRANCH   3  19
TORSDOF 5
ENDMDL
MODEL 8
REMARK VINA RESULT:    -6.910      3.025      4.702
REMARK INTER + INTRA:         -10.615
REMARK INTER:                  -8.401
REMARK INTRA:                  -2.214
REMARK CONF_INDEPENDENT:        1.492
REMARK UNBOUND:                -2.214
REMARK  5 active torsions:
REMARK  status: ('A' for Active; 'I' for Inactive)
REMARK    1  A    between atoms: C_2  and  C_3 
REMARK       I    between atoms: C_2  and  N_15 
REMARK    2  A    between atoms: C_3  and  N_4 
REMARK    3  A    between atoms: N_4  and  C_5 
REMARK    4  A    between atoms: N_15  and  C_16 
REMARK    5  A    between atoms: C_19  and  C_20 
ROOT
ATOM      1  O   UNL d   1      32.637 -15.168   0.245  0.00  0.00    -0.271 OA
ATOM      2  C   UNL d   1      31.437 -15.172  -0.046  0.00  0.00     0.239 C 
ATOM      3  N   UNL d   1      30.592 -16.061   0.588  0.00  0.00    -0.326 N 
ATOM      4  H   UNL d   1      31.010 -16.560   1.366  0.00  0.00     0.169 HD
ENDROOT
BRANCH   2   5
ATOM      5  C   UNL d   1      30.828 -14.154  -1.038  0.00  0.00     0.223 C 
BRANCH   5   6
ATOM      6  N   UNL d   1      30.111 -14.814  -2.126  0.00  0.00    -0.381 N 
ATOM      7  H   UNL d   1      30.351 -15.793  -2.264  0.00  0.00     0.160 HD
BRANCH   6   8
ATOM      8  C   UNL d   1      28.845 -14.368  -2.487  0.00  0.00     0.029 A 
ATOM      9  C   UNL d   1      28.216 -13.350  -1.734  0.00  0.00     0.030 A 
ATOM     10  C   UNL d   1      26.898 -12.938  -1.991  0.00  0.00     0.012 A 
ATOM     11  C   UNL d   1      26.223 -13.536  -3.035  0.00  0.00    -0.025 A 
ATOM     12  C   UNL d   1      26.869 -14.482  -3.828  0.00  0.00     0.042 A 
ATOM     13  C   UNL d   1      24.822 -13.341  -3.508  0.00  0.00     0.162 A 
ATOM     14  C   UNL d   1      28.166 -14.902  -3.589  0.00  0.00     0.046 A 
ATOM     15  C   UNL d   1      25.928 -14.908  -4.866  0.00  0.00     0.252 A 
ATOM     16  O   UNL d   1      26.155 -15.698  -5.769  0.00  0.00    -0.268 OA
ATOM     17  N   UNL d   1      24.748 -14.238  -4.636  0.00  0.00    -0.353 N 
ATOM     18  H   UNL d   1      23.940 -14.376  -5.229  0.00  0.00     0.163 HD
ENDBRANCH   6   8
ENDBRANCH   5   6
ENDBRANCH   2   5
BRANCH   3  19
ATOM     19  C   UNL d   1      29.240 -16.302   0.300  0.00  0.00     0.034 A 
ATOM     20  C   UNL d   1      28.883 -17.317  -0.585  0.00  0.00     0.030 A 
ATOM     21  C   UNL d   1      27.530 -17.532  -0.876  0.00  0.00     0.014 A 
ATOM     22  C   UNL d   1      26.521 -16.790  -0.238  0.00  0.00    -0.026 A 
ATOM     23  C   UNL d   1      26.898 -15.747   0.604  0.00  0.00     0.014 A 
ATOM     24  C   UNL d   1      28.242 -15.490   0.837  0.00  0.00     0.030 A 
BRANCH  22  25
ATOM     25  C   UNL d   1      25.107 -17.090  -0.460  0.00  0.00    -0.026 A 
ATOM     26  C   UNL d   1      24.211 -16.070  -0.811  0.00  0.00     0.012 A 
ATOM     27  C   UNL d   1      22.843 -16.326  -0.895  0.00  0.00     0.001 A 
ATOM     28  C   UNL d   1      22.369 -17.625  -0.726  0.00  0.00     0.000 A 
ATOM     29  C   UNL d   1      23.254 -18.660  -0.435  0.00  0.00     0.001 A 
ATOM     30  C   UNL d   1      24.616 -18.393  -0.299  0.00  0.00     0.012 A 
ENDBRANCH  22  25
ENDBRANCH   3  19
TORSDOF 5
ENDMDL
MODEL 9
REMARK VINA RESULT:    -6.429      2.828      5.640
REMARK INTER + INTRA:         -10.335
REMARK INTER:                  -7.920
REMARK INTRA:                  -2.415
REMARK CONF_INDEPENDENT:        1.492
REMARK UNBOUND:                -2.415
REMARK  5 active torsions:
REMARK  status: ('A' for Active; 'I' for Inactive)
REMARK    1  A    between atoms: C_2  and  C_3 
REMARK       I    between atoms: C_2  and  N_15 
REMARK    2  A    between atoms: C_3  and  N_4 
REMARK    3  A    between atoms: N_4  and  C_5 
REMARK    4  A    between atoms: N_15  and  C_16 
REMARK    5  A    between atoms: C_19  and  C_20 
ROOT
ATOM      1  O   UNL d   1      27.073 -11.019  -6.805  0.00  0.00    -0.271 OA
ATOM      2  C   UNL d   1      27.025 -12.031  -6.099  0.00  0.00     0.239 C 
ATOM      3  N   UNL d   1      25.936 -12.226  -5.272  0.00  0.00    -0.326 N 
ATOM      4  H   UNL d   1      25.174 -11.573  -5.417  0.00  0.00     0.169 HD
ENDROOT
BRANCH   2   5
ATOM      5  C   UNL d   1      28.103 -13.137  -6.171  0.00  0.00     0.223 C 
BRANCH   5   6
ATOM      6  N   UNL d   1      29.095 -13.002  -5.108  0.00  0.00    -0.381 N 
ATOM      7  H   UNL d   1      29.313 -12.043  -4.846  0.00  0.00     0.160 HD
BRANCH   6   8
ATOM      8  C   UNL d   1      29.235 -14.012  -4.164  0.00  0.00     0.029 A 
ATOM      9  C   UNL d   1      29.488 -15.339  -4.584  0.00  0.00     0.030 A 
ATOM     10  C   UNL d   1      29.532 -16.412  -3.679  0.00  0.00     0.012 A 
ATOM     11  C   UNL d   1      29.352 -16.140  -2.339  0.00  0.00    -0.025 A 
ATOM     12  C   UNL d   1      29.183 -14.823  -1.916  0.00  0.00     0.042 A 
ATOM     13  C   UNL d   1      29.301 -17.065  -1.170  0.00  0.00     0.162 A 
ATOM     14  C   UNL d   1      29.134 -13.753  -2.792  0.00  0.00     0.046 A 
ATOM     15  C   UNL d   1      29.054 -14.839  -0.456  0.00  0.00     0.252 A 
ATOM     16  O   UNL d   1      28.934 -13.866   0.271  0.00  0.00    -0.268 OA
ATOM     17  N   UNL d   1      29.110 -16.158  -0.065  0.00  0.00    -0.353 N 
ATOM     18  H   UNL d   1      29.037 -16.421   0.909  0.00  0.00     0.163 HD
ENDBRANCH   6   8
ENDBRANCH   5   6
ENDBRANCH   2   5
BRANCH   3  19
ATOM     19  C   UNL d   1      25.765 -13.236  -4.313  0.00  0.00     0.034 A 
ATOM     20  C   UNL d   1      25.681 -12.909  -2.961  0.00  0.00     0.030 A 
ATOM     21  C   UNL d   1      25.530 -13.931  -2.015  0.00  0.00     0.014 A 
ATOM     22  C   UNL d   1      25.392 -15.273  -2.408  0.00  0.00    -0.026 A 
ATOM     23  C   UNL d   1      25.530 -15.585  -3.758  0.00  0.00     0.014 A 
ATOM     24  C   UNL d   1      25.749 -14.578  -4.688  0.00  0.00     0.030 A 
BRANCH  22  25
ATOM     25  C   UNL d   1      25.124 -16.324  -1.427  0.00  0.00    -0.026 A 
ATOM     26  C   UNL d   1      23.808 -16.735  -1.168  0.00  0.00     0.012 A 
ATOM     27  C   UNL d   1      23.537 -17.641  -0.144  0.00  0.00     0.001 A 
ATOM     28  C   UNL d   1      24.587 -18.219   0.567  0.00  0.00     0.000 A 
ATOM     29  C   UNL d   1      25.903 -17.865   0.281  0.00  0.00     0.001 A 
ATOM     30  C   UNL d   1      26.169 -16.919  -0.708  0.00  0.00     0.012 A 
ENDBRANCH  22  25
ENDBRANCH   3  19
TORSDOF 5
ENDMDL
