MODEL 1
REMARK VINA RESULT:   -32.519      0.000      0.000
REMARK INTER + INTRA:         -37.003
REMARK INTER:                 -35.502
REMARK INTRA:                  -1.502
REMARK CONF_INDEPENDENT:        2.983
REMARK UNBOUND:                -1.502
REMARK  10 active torsions:
REMARK  status: ('A' for Active; 'I' for Inactive)
REMARK    1  A    between atoms: O_2  and  C_3 
REMARK    2  A    between atoms: C_5  and  C_6 
REMARK    3  A    between atoms: C_7  and  N_8 
REMARK    4  A    between atoms: C_7  and  C_17 
REMARK       I    between atoms: N_8  and  C_9 
REMARK    5  A    between atoms: C_9  and  C_11 
REMARK       I    between atoms: C_17  and  N_19 
REMARK    6  A    between atoms: N_19  and  C_20 
REMARK    7  A    between atoms: C_20  and  C_21 
REMARK    8  A    between atoms: C_21  and  C_22 
REMARK    9  A    between atoms: C_32  and  O_33 
REMARK   10  A    between atoms: C_35  and  O_36 
ROOT
ATOM      1  C   UNL d   1      26.106 -13.786  -3.068  0.00  0.00     0.046 C 
ATOM      2  C   UNL d   1      26.898 -14.936  -3.071  0.00  0.00     0.104 C 
ENDROOT
BRANCH   2   3
ATOM      3  N   UNL d   1      28.152 -15.033  -3.729  0.00  0.00    -0.318 N 
ATOM      4  C   UNL d   1      28.360 -15.371  -5.056  0.00  0.00     0.256 C 
ATOM      5  O   UNL d   1      27.431 -15.241  -5.918  0.00  0.00    -0.267 OA
ATOM      6  H   UNL d   1      28.924 -14.532  -3.313  0.00  0.00     0.169 HD
BRANCH   4   7
ATOM      7  C   UNL d   1      29.672 -15.938  -5.557  0.00  0.00     0.032 A 
ATOM      8  C   UNL d   1      30.395 -16.745  -4.657  0.00  0.00     0.017 A 
ATOM      9  C   UNL d   1      31.693 -17.201  -4.915  0.00  0.00     0.001 A 
ATOM     10  C   UNL d   1      32.260 -16.973  -6.152  0.00  0.00     0.000 A 
ATOM     11  C   UNL d   1      31.559 -16.204  -7.082  0.00  0.00     0.001 A 
ATOM     12  C   UNL d   1      30.296 -15.637  -6.774  0.00  0.00     0.017 A 
ENDBRANCH   4   7
ENDBRANCH   2   3
BRANCH   2  13
ATOM     13  C   UNL d   1      26.341 -16.293  -2.312  0.00  0.00     0.268 C 
ATOM     14  O   UNL d   1      27.157 -17.030  -1.755  0.00  0.00    -0.266 OA
ATOM     15  N   UNL d   1      24.936 -16.609  -2.318  0.00  0.00    -0.355 N 
ATOM     16  H   UNL d   1      24.321 -15.922  -2.709  0.00  0.00     0.162 HD
BRANCH  15  17
ATOM     17  C   UNL d   1      24.186 -17.922  -1.702  0.00  0.00     0.127 C 
BRANCH  17  18
ATOM     18  C   UNL d   1      22.961 -17.634  -0.414  0.00  0.00     0.056 C 
BRANCH  18  19
ATOM     19  C   UNL d   1      21.414 -18.429  -0.004  0.00  0.00    -0.047 C 
ATOM     20  C   UNL d   1      21.240 -19.298  -1.085  0.00  0.00     0.112 C 
ATOM     21  N   UNL d   1      19.905 -19.017  -1.228  0.00  0.00    -0.282 NA
ATOM     22  C   UNL d   1      19.354 -19.708  -0.200  0.00  0.00     0.019 A 
ATOM     23  H   UNL d   1      19.500 -18.104  -1.375  0.00  0.00     0.128 HD
ATOM     24  C   UNL d   1      18.216 -20.545  -0.373  0.00  0.00     0.024 A 
ATOM     25  C   UNL d   1      20.225 -19.454   0.841  0.00  0.00    -0.011 A 
ATOM     26  C   UNL d   1      17.720 -21.385   0.584  0.00  0.00     0.002 A 
ATOM     27  C   UNL d   1      18.444 -21.354   1.729  0.00  0.00     0.001 A 
ATOM     28  C   UNL d   1      19.682 -20.403   1.938  0.00  0.00     0.013 A 
ENDBRANCH  18  19
ENDBRANCH  17  18
ENDBRANCH  15  17
ENDBRANCH   2  13
BRANCH   1  29
ATOM     29  C   UNL d   1      26.279 -12.380  -3.719  0.00  0.00    -0.028 C 
ATOM     30  C   UNL d   1      26.266 -12.042  -5.099  0.00  0.00     0.051 C 
ATOM     31  C   UNL d   1      26.017 -10.693  -5.551  0.00  0.00     0.105 C 
ATOM     32  C   UNL d   1      25.696  -9.717  -4.598  0.00  0.00     0.135 C 
ATOM     33  C   UNL d   1      25.942  -9.998  -3.258  0.00  0.00     0.105 C 
ATOM     34  C   UNL d   1      26.426 -11.269  -2.892  0.00  0.00     0.051 C 
BRANCH  31  35
ATOM     35  O   UNL d   1      25.930 -10.517  -6.917  0.00  0.00    -0.353 OA
ATOM     36  C   UNL d   1      26.469  -9.303  -7.455  0.00  0.00     0.210 C 
ENDBRANCH  31  35
BRANCH  32  37
ATOM     37  O   UNL d   1      25.045  -8.542  -4.754  0.00  0.00    -0.351 OA
ATOM     38  C   UNL d   1      24.125  -8.320  -5.763  0.00  0.00     0.210 C 
ENDBRANCH  32  37
BRANCH  33  39
ATOM     39  O   UNL d   1      25.702  -9.113  -2.220  0.00  0.00    -0.353 OA
ATOM     40  C   UNL d   1      26.696  -8.127  -1.870  0.00  0.00     0.210 C 
ENDBRANCH  33  39
ENDBRANCH   1  29
TORSDOF 10
ENDMDL
MODEL 2
REMARK VINA RESULT:   -31.914      3.308      5.959
REMARK INTER + INTRA:         -36.912
REMARK INTER:                 -34.897
REMARK INTRA:                  -2.015
REMARK CONF_INDEPENDENT:        2.983
REMARK UNBOUND:                -2.015
REMARK  10 active torsions:
REMARK  status: ('A' for Active; 'I' for Inactive)
REMARK    1  A    between atoms: O_2  and  C_3 
REMARK    2  A    between atoms: C_5  and  C_6 
REMARK    3  A    between atoms: C_7  and  N_8 
REMARK    4  A    between atoms: C_7  and  C_17 
REMARK       I    between atoms: N_8  and  C_9 
REMARK    5  A    between atoms: C_9  and  C_11 
REMARK       I    between atoms: C_17  and  N_19 
REMARK    6  A    between atoms: N_19  and  C_20 
REMARK    7  A    between atoms: C_20  and  C_21 
REMARK    8  A    between atoms: C_21  and  C_22 
REMARK    9  A    between atoms: C_32  and  O_33 
REMARK   10  A    between atoms: C_35  and  O_36 
ROOT
ATOM      1  C   UNL d   1      27.619 -15.573  -4.489  0.00  0.00     0.046 C 
ATOM      2  C   UNL d   1      27.183 -15.300  -3.192  0.00  0.00     0.104 C 
ENDROOT
BRANCH   2   3
ATOM      3  N   UNL d   1      28.054 -15.040  -2.101  0.00  0.00    -0.318 N 
ATOM      4  C   UNL d   1      28.020 -15.651  -0.859  0.00  0.00     0.256 C 
ATOM      5  O   UNL d   1      27.461 -16.785  -0.701  0.00  0.00    -0.267 OA
ATOM      6  H   UNL d   1      28.946 -14.619  -2.322  0.00  0.00     0.169 HD
BRANCH   4   7
ATOM      7  C   UNL d   1      28.607 -15.009   0.381  0.00  0.00     0.032 A 
ATOM      8  C   UNL d   1      29.982 -15.212   0.608  0.00  0.00     0.017 A 
ATOM      9  C   UNL d   1      30.626 -14.823   1.788  0.00  0.00     0.001 A 
ATOM     10  C   UNL d   1      29.934 -14.092   2.731  0.00  0.00     0.000 A 
ATOM     11  C   UNL d   1      28.576 -13.843   2.526  0.00  0.00     0.001 A 
ATOM     12  C   UNL d   1      27.894 -14.345   1.388  0.00  0.00     0.017 A 
ENDBRANCH   4   7
ENDBRANCH   2   3
BRANCH   2  13
ATOM     13  C   UNL d   1      25.564 -15.325  -2.870  0.00  0.00     0.268 C 
ATOM     14  O   UNL d   1      24.820 -14.614  -3.548  0.00  0.00    -0.266 OA
ATOM     15  N   UNL d   1      25.041 -16.149  -1.811  0.00  0.00    -0.355 N 
ATOM     16  H   UNL d   1      25.687 -16.769  -1.362  0.00  0.00     0.162 HD
BRANCH  15  17
ATOM     17  C   UNL d   1      23.503 -16.268  -1.278  0.00  0.00     0.127 C 
BRANCH  17  18
ATOM     18  C   UNL d   1      23.039 -17.802  -0.456  0.00  0.00     0.056 C 
BRANCH  18  19
ATOM     19  C   UNL d   1      21.462 -18.527  -0.028  0.00  0.00    -0.047 C 
ATOM     20  C   UNL d   1      21.225 -19.367  -1.119  0.00  0.00     0.112 C 
ATOM     21  N   UNL d   1      19.903 -19.018  -1.231  0.00  0.00    -0.282 NA
ATOM     22  C   UNL d   1      19.338 -19.698  -0.204  0.00  0.00     0.019 A 
ATOM     23  H   UNL d   1      19.542 -18.084  -1.356  0.00  0.00     0.128 HD
ATOM     24  C   UNL d   1      18.156 -20.474  -0.368  0.00  0.00     0.024 A 
ATOM     25  C   UNL d   1      20.240 -19.504   0.824  0.00  0.00    -0.011 A 
ATOM     26  C   UNL d   1      17.637 -21.304   0.586  0.00  0.00     0.002 A 
ATOM     27  C   UNL d   1      18.382 -21.327   1.717  0.00  0.00     0.001 A 
ATOM     28  C   UNL d   1      19.670 -20.442   1.917  0.00  0.00     0.013 A 
ENDBRANCH  18  19
ENDBRANCH  17  18
ENDBRANCH  15  17
ENDBRANCH   2  13
BRANCH   1  29
ATOM     29  C   UNL d   1      29.037 -15.696  -5.127  0.00  0.00    -0.028 C 
ATOM     30  C   UNL d   1      29.757 -16.878  -5.448  0.00  0.00     0.051 C 
ATOM     31  C   UNL d   1      30.847 -16.873  -6.395  0.00  0.00     0.105 C 
ATOM     32  C   UNL d   1      31.136 -15.682  -7.075  0.00  0.00     0.135 C 
ATOM     33  C   UNL d   1      30.594 -14.496  -6.589  0.00  0.00     0.105 C 
ATOM     34  C   UNL d   1      29.715 -14.535  -5.488  0.00  0.00     0.051 C 
BRANCH  31  35
ATOM     35  O   UNL d   1      31.397 -18.103  -6.696  0.00  0.00    -0.353 OA
ATOM     36  C   UNL d   1      31.007 -18.709  -7.934  0.00  0.00     0.210 C 
ENDBRANCH  31  35
BRANCH  32  37
ATOM     37  O   UNL d   1      31.784 -15.495  -8.248  0.00  0.00    -0.351 OA
ATOM     38  C   UNL d   1      32.842 -14.615  -8.390  0.00  0.00     0.210 C 
ENDBRANCH  32  37
BRANCH  33  39
ATOM     39  O   UNL d   1      30.825 -13.249  -7.144  0.00  0.00    -0.353 OA
ATOM     40  C   UNL d   1      30.289 -12.930  -8.445  0.00  0.00     0.210 C 
ENDBRANCH  33  39
ENDBRANCH   1  29
TORSDOF 10
ENDMDL
MODEL 3
REMARK VINA RESULT:   -31.874      2.428      5.592
REMARK INTER + INTRA:         -37.052
REMARK INTER:                 -34.857
REMARK INTRA:                  -2.195
REMARK CONF_INDEPENDENT:        2.983
REMARK UNBOUND:                -2.195
REMARK  10 active torsions:
REMARK  status: ('A' for Active; 'I' for Inactive)
REMARK    1  A    between atoms: O_2  and  C_3 
REMARK    2  A    between atoms: C_5  and  C_6 
REMARK    3  A    between atoms: C_7  and  N_8 
REMARK    4  A    between atoms: C_7  and  C_17 
REMARK       I    between atoms: N_8  and  C_9 
REMARK    5  A    between atoms: C_9  and  C_11 
REMARK       I    between atoms: C_17  and  N_19 
REMARK    6  A    between atoms: N_19  and  C_20 
REMARK    7  A    between atoms: C_20  and  C_21 
REMARK    8  A    between atoms: C_21  and  C_22 
REMARK    9  A    between atoms: C_32  and  O_33 
REMARK   10  A    between atoms: C_35  and  O_36 
ROOT
ATOM      1  C   UNL d   1      28.808 -16.456  -3.410  0.00  0.00     0.046 C 
ATOM      2  C   UNL d   1      27.783 -15.558  -3.108  0.00  0.00     0.104 C 
ENDROOT
BRANCH   2   3
ATOM      3  N   UNL d   1      27.541 -14.360  -3.830  0.00  0.00    -0.318 N 
ATOM      4  C   UNL d   1      27.236 -14.261  -5.178  0.00  0.00     0.256 C 
ATOM      5  O   UNL d   1      26.754 -15.252  -5.816  0.00  0.00    -0.267 OA
ATOM      6  H   UNL d   1      27.263 -13.552  -3.292  0.00  0.00     0.169 HD
BRANCH   4   7
ATOM      7  C   UNL d   1      27.483 -12.998  -5.978  0.00  0.00     0.032 A 
ATOM      8  C   UNL d   1      26.640 -11.903  -5.706  0.00  0.00     0.017 A 
ATOM      9  C   UNL d   1      26.639 -10.733  -6.474  0.00  0.00     0.001 A 
ATOM     10  C   UNL d   1      27.584 -10.569  -7.465  0.00  0.00     0.000 A 
ATOM     11  C   UNL d   1      28.459 -11.621  -7.742  0.00  0.00     0.001 A 
ATOM     12  C   UNL d   1      28.378 -12.855  -7.047  0.00  0.00     0.017 A 
ENDBRANCH   4   7
ENDBRANCH   2   3
BRANCH   2  13
ATOM     13  C   UNL d   1      26.812 -15.859  -1.807  0.00  0.00     0.268 C 
ATOM     14  O   UNL d   1      27.095 -15.332  -0.729  0.00  0.00    -0.266 OA
ATOM     15  N   UNL d   1      25.671 -16.729  -1.932  0.00  0.00    -0.355 N 
ATOM     16  H   UNL d   1      25.447 -17.049  -2.854  0.00  0.00     0.162 HD
BRANCH  15  17
ATOM     17  C   UNL d   1      24.632 -17.217  -0.771  0.00  0.00     0.127 C 
BRANCH  17  18
ATOM     18  C   UNL d   1      22.925 -17.502  -1.270  0.00  0.00     0.056 C 
BRANCH  18  19
ATOM     19  C   UNL d   1      21.522 -18.242  -0.446  0.00  0.00    -0.047 C 
ATOM     20  C   UNL d   1      21.234 -19.325  -1.280  0.00  0.00     0.112 C 
ATOM     21  N   UNL d   1      19.878 -19.124  -1.245  0.00  0.00    -0.282 NA
ATOM     22  C   UNL d   1      19.549 -19.598  -0.019  0.00  0.00     0.019 A 
ATOM     23  H   UNL d   1      19.394 -18.276  -1.503  0.00  0.00     0.128 HD
ATOM     24  C   UNL d   1      18.456 -20.489   0.181  0.00  0.00     0.024 A 
ATOM     25  C   UNL d   1      20.558 -19.101   0.783  0.00  0.00    -0.011 A 
ATOM     26  C   UNL d   1      18.180 -21.122   1.361  0.00  0.00     0.002 A 
ATOM     27  C   UNL d   1      19.076 -20.825   2.332  0.00  0.00     0.001 A 
ATOM     28  C   UNL d   1      20.265 -19.812   2.127  0.00  0.00     0.013 A 
ENDBRANCH  18  19
ENDBRANCH  17  18
ENDBRANCH  15  17
ENDBRANCH   2  13
BRANCH   1  29
ATOM     29  C   UNL d   1      29.926 -16.461  -4.496  0.00  0.00    -0.028 C 
ATOM     30  C   UNL d   1      30.330 -17.533  -5.337  0.00  0.00     0.051 C 
ATOM     31  C   UNL d   1      31.063 -17.308  -6.560  0.00  0.00     0.105 C 
ATOM     32  C   UNL d   1      31.302 -15.987  -6.963  0.00  0.00     0.135 C 
ATOM     33  C   UNL d   1      31.117 -14.970  -6.032  0.00  0.00     0.105 C 
ATOM     34  C   UNL d   1      30.623 -15.284  -4.750  0.00  0.00     0.051 C 
BRANCH  31  35
ATOM     35  O   UNL d   1      31.307 -18.423  -7.337  0.00  0.00    -0.353 OA
ATOM     36  C   UNL d   1      31.166 -19.702  -6.707  0.00  0.00     0.210 C 
ENDBRANCH  31  35
BRANCH  32  37
ATOM     37  O   UNL d   1      31.577 -15.498  -8.194  0.00  0.00    -0.351 OA
ATOM     38  C   UNL d   1      32.680 -14.708  -8.459  0.00  0.00     0.210 C 
ENDBRANCH  32  37
BRANCH  33  39
ATOM     39  O   UNL d   1      31.347 -13.629  -6.288  0.00  0.00    -0.353 OA
ATOM     40  C   UNL d   1      31.970 -12.800  -5.284  0.00  0.00     0.210 C 
ENDBRANCH  33  39
ENDBRANCH   1  29
TORSDOF 10
ENDMDL
MODEL 4
REMARK VINA RESULT:   -31.760      2.764      4.522
REMARK INTER + INTRA:         -36.967
REMARK INTER:                 -34.743
REMARK INTRA:                  -2.224
REMARK CONF_INDEPENDENT:        2.983
REMARK UNBOUND:                -2.224
REMARK  10 active torsions:
REMARK  status: ('A' for Active; 'I' for Inactive)
REMARK    1  A    between atoms: O_2  and  C_3 
REMARK    2  A    between atoms: C_5  and  C_6 
REMARK    3  A    between atoms: C_7  and  N_8 
REMARK    4  A    between atoms: C_7  and  C_17 
REMARK       I    between atoms: N_8  and  C_9 
REMARK    5  A    between atoms: C_9  and  C_11 
REMARK       I    between atoms: C_17  and  N_19 
REMARK    6  A    between atoms: N_19  and  C_20 
REMARK    7  A    between atoms: C_20  and  C_21 
REMARK    8  A    between atoms: C_21  and  C_22 
REMARK    9  A    between atoms: C_32  and  O_33 
REMARK   10  A    between atoms: C_35  and  O_36 
ROOT
ATOM      1  C   UNL d   1      26.806 -14.808  -4.129  0.00  0.00     0.046 C 
ATOM      2  C   UNL d   1      26.910 -15.229  -2.803  0.00  0.00     0.104 C 
ENDROOT
BRANCH   2   3
ATOM      3  N   UNL d   1      28.076 -15.066  -2.009  0.00  0.00    -0.318 N 
ATOM      4  C   UNL d   1      28.729 -16.057  -1.295  0.00  0.00     0.256 C 
ATOM      5  O   UNL d   1      28.581 -17.287  -1.595  0.00  0.00    -0.267 OA
ATOM      6  H   UNL d   1      28.656 -14.264  -2.212  0.00  0.00     0.169 HD
BRANCH   4   7
ATOM      7  C   UNL d   1      29.620 -15.754  -0.109  0.00  0.00     0.032 A 
ATOM      8  C   UNL d   1      29.286 -14.621   0.659  0.00  0.00     0.017 A 
ATOM      9  C   UNL d   1      30.105 -14.122   1.678  0.00  0.00     0.001 A 
ATOM     10  C   UNL d   1      31.229 -14.827   2.054  0.00  0.00     0.000 A 
ATOM     11  C   UNL d   1      31.575 -15.973   1.336  0.00  0.00     0.001 A 
ATOM     12  C   UNL d   1      30.813 -16.409   0.222  0.00  0.00     0.017 A 
ENDBRANCH   4   7
ENDBRANCH   2   3
BRANCH   2  13
ATOM     13  C   UNL d   1      25.632 -16.011  -2.108  0.00  0.00     0.268 C 
ATOM     14  O   UNL d   1      24.492 -15.667  -2.424  0.00  0.00    -0.266 OA
ATOM     15  N   UNL d   1      25.853 -17.060  -1.146  0.00  0.00    -0.355 N 
ATOM     16  H   UNL d   1      26.801 -17.350  -1.005  0.00  0.00     0.162 HD
BRANCH  15  17
ATOM     17  C   UNL d   1      24.748 -17.904  -0.290  0.00  0.00     0.127 C 
BRANCH  17  18
ATOM     18  C   UNL d   1      23.016 -17.640  -0.707  0.00  0.00     0.056 C 
BRANCH  18  19
ATOM     19  C   UNL d   1      21.498 -18.398  -0.146  0.00  0.00    -0.047 C 
ATOM     20  C   UNL d   1      21.245 -19.325  -1.160  0.00  0.00     0.112 C 
ATOM     21  N   UNL d   1      19.905 -19.042  -1.225  0.00  0.00    -0.282 NA
ATOM     22  C   UNL d   1      19.424 -19.668  -0.124  0.00  0.00     0.019 A 
ATOM     23  H   UNL d   1      19.495 -18.135  -1.396  0.00  0.00     0.128 HD
ATOM     24  C   UNL d   1      18.273 -20.504  -0.169  0.00  0.00     0.024 A 
ATOM     25  C   UNL d   1      20.367 -19.362   0.838  0.00  0.00    -0.011 A 
ATOM     26  C   UNL d   1      17.842 -21.284   0.867  0.00  0.00     0.002 A 
ATOM     27  C   UNL d   1      18.644 -21.193   1.955  0.00  0.00     0.001 A 
ATOM     28  C   UNL d   1      19.898 -20.242   2.023  0.00  0.00     0.013 A 
ENDBRANCH  18  19
ENDBRANCH  17  18
ENDBRANCH  15  17
ENDBRANCH   2  13
BRANCH   1  29
ATOM     29  C   UNL d   1      27.807 -14.113  -5.103  0.00  0.00    -0.028 C 
ATOM     30  C   UNL d   1      28.997 -14.646  -5.667  0.00  0.00     0.051 C 
ATOM     31  C   UNL d   1      29.599 -14.080  -6.851  0.00  0.00     0.105 C 
ATOM     32  C   UNL d   1      28.935 -13.032  -7.503  0.00  0.00     0.135 C 
ATOM     33  C   UNL d   1      27.917 -12.372  -6.822  0.00  0.00     0.105 C 
ATOM     34  C   UNL d   1      27.531 -12.823  -5.544  0.00  0.00     0.051 C 
BRANCH  31  35
ATOM     35  O   UNL d   1      30.695 -14.752  -7.356  0.00  0.00    -0.353 OA
ATOM     36  C   UNL d   1      30.812 -16.143  -7.038  0.00  0.00     0.210 C 
ENDBRANCH  31  35
BRANCH  32  37
ATOM     37  O   UNL d   1      29.039 -12.611  -8.784  0.00  0.00    -0.351 OA
ATOM     38  C   UNL d   1      29.903 -11.605  -9.177  0.00  0.00     0.210 C 
ENDBRANCH  32  37
BRANCH  33  39
ATOM     39  O   UNL d   1      27.203 -11.302  -7.336  0.00  0.00    -0.353 OA
ATOM     40  C   UNL d   1      26.166 -10.683  -6.546  0.00  0.00     0.210 C 
ENDBRANCH  33  39
ENDBRANCH   1  29
TORSDOF 10
ENDMDL
MODEL 5
REMARK VINA RESULT:   -31.435      2.415      5.164
REMARK INTER + INTRA:         -36.961
REMARK INTER:                 -34.418
REMARK INTRA:                  -2.542
REMARK CONF_INDEPENDENT:        2.983
REMARK UNBOUND:                -2.542
REMARK  10 active torsions:
REMARK  status: ('A' for Active; 'I' for Inactive)
REMARK    1  A    between atoms: O_2  and  C_3 
REMARK    2  A    between atoms: C_5  and  C_6 
REMARK    3  A    between atoms: C_7  and  N_8 
REMARK    4  A    between atoms: C_7  and  C_17 
REMARK       I    between atoms: N_8  and  C_9 
REMARK    5  A    between atoms: C_9  and  C_11 
REMARK       I    between atoms: C_17  and  N_19 
REMARK    6  A    between atoms: N_19  and  C_20 
REMARK    7  A    between atoms: C_20  and  C_21 
REMARK    8  A    between atoms: C_21  and  C_22 
REMARK    9  A    between atoms: C_32  and  O_33 
REMARK   10  A    between atoms: C_35  and  O_36 
ROOT
ATOM      1  C   UNL d   1      28.141 -16.319  -3.038  0.00  0.00     0.046 C 
ATOM      2  C   UNL d   1      26.950 -15.592  -3.085  0.00  0.00     0.104 C 
ENDROOT
BRANCH   2   3
ATOM      3  N   UNL d   1      26.779 -14.400  -3.837  0.00  0.00    -0.318 N 
ATOM      4  C   UNL d   1      27.100 -14.217  -5.172  0.00  0.00     0.256 C 
ATOM      5  O   UNL d   1      27.212 -15.211  -5.961  0.00  0.00    -0.267 OA
ATOM      6  H   UNL d   1      26.102 -13.736  -3.488  0.00  0.00     0.169 HD
BRANCH   4   7
ATOM      7  C   UNL d   1      27.368 -12.849  -5.765  0.00  0.00     0.032 A 
ATOM      8  C   UNL d   1      28.323 -12.785  -6.799  0.00  0.00     0.017 A 
ATOM      9  C   UNL d   1      28.794 -11.578  -7.327  0.00  0.00     0.001 A 
ATOM     10  C   UNL d   1      28.220 -10.390  -6.926  0.00  0.00     0.000 A 
ATOM     11  C   UNL d   1      27.247 -10.417  -5.926  0.00  0.00     0.001 A 
ATOM     12  C   UNL d   1      26.859 -11.630  -5.302  0.00  0.00     0.017 A 
ENDBRANCH   4   7
ENDBRANCH   2   3
BRANCH   2  13
ATOM     13  C   UNL d   1      25.666 -16.101  -2.181  0.00  0.00     0.268 C 
ATOM     14  O   UNL d   1      24.607 -15.476  -2.262  0.00  0.00    -0.266 OA
ATOM     15  N   UNL d   1      25.791 -17.241  -1.309  0.00  0.00    -0.355 N 
ATOM     16  H   UNL d   1      26.649 -17.756  -1.361  0.00  0.00     0.162 HD
BRANCH  15  17
ATOM     17  C   UNL d   1      24.685 -17.863  -0.283  0.00  0.00     0.127 C 
BRANCH  17  18
ATOM     18  C   UNL d   1      22.951 -17.574  -0.677  0.00  0.00     0.056 C 
BRANCH  18  19
ATOM     19  C   UNL d   1      21.435 -18.360  -0.150  0.00  0.00    -0.047 C 
ATOM     20  C   UNL d   1      21.249 -19.325  -1.144  0.00  0.00     0.112 C 
ATOM     21  N   UNL d   1      19.905 -19.084  -1.270  0.00  0.00    -0.282 NA
ATOM     22  C   UNL d   1      19.400 -19.691  -0.169  0.00  0.00     0.019 A 
ATOM     23  H   UNL d   1      19.476 -18.196  -1.485  0.00  0.00     0.128 HD
ATOM     24  C   UNL d   1      18.275 -20.562  -0.232  0.00  0.00     0.024 A 
ATOM     25  C   UNL d   1      20.294 -19.328   0.819  0.00  0.00    -0.011 A 
ATOM     26  C   UNL d   1      17.826 -21.323   0.811  0.00  0.00     0.002 A 
ATOM     27  C   UNL d   1      18.582 -21.174   1.926  0.00  0.00     0.001 A 
ATOM     28  C   UNL d   1      19.804 -20.184   2.012  0.00  0.00     0.013 A 
ENDBRANCH  18  19
ENDBRANCH  17  18
ENDBRANCH  15  17
ENDBRANCH   2  13
BRANCH   1  29
ATOM     29  C   UNL d   1      29.540 -16.105  -3.694  0.00  0.00    -0.028 C 
ATOM     30  C   UNL d   1      30.127 -16.826  -4.769  0.00  0.00     0.051 C 
ATOM     31  C   UNL d   1      31.215 -16.283  -5.547  0.00  0.00     0.105 C 
ATOM     32  C   UNL d   1      31.636 -14.972  -5.284  0.00  0.00     0.135 C 
ATOM     33  C   UNL d   1      31.226 -14.374  -4.096  0.00  0.00     0.105 C 
ATOM     34  C   UNL d   1      30.343 -15.062  -3.241  0.00  0.00     0.051 C 
BRANCH  31  35
ATOM     35  O   UNL d   1      31.627 -17.039  -6.626  0.00  0.00    -0.353 OA
ATOM     36  C   UNL d   1      31.183 -18.400  -6.678  0.00  0.00     0.210 C 
ENDBRANCH  31  35
BRANCH  32  37
ATOM     37  O   UNL d   1      32.305 -14.107  -6.078  0.00  0.00    -0.351 OA
ATOM     38  C   UNL d   1      32.003 -13.925  -7.415  0.00  0.00     0.210 C 
ENDBRANCH  32  37
BRANCH  33  39
ATOM     39  O   UNL d   1      31.595 -13.100  -3.699  0.00  0.00    -0.353 OA
ATOM     40  C   UNL d   1      31.945 -12.849  -2.321  0.00  0.00     0.210 C 
ENDBRANCH  33  39
ENDBRANCH   1  29
TORSDOF 10
ENDMDL
MODEL 6
REMARK VINA RESULT:   -31.372      2.540      6.502
REMARK INTER + INTRA:         -36.792
REMARK INTER:                 -34.355
REMARK INTRA:                  -2.437
REMARK CONF_INDEPENDENT:        2.983
REMARK UNBOUND:                -2.437
REMARK  10 active torsions:
REMARK  status: ('A' for Active; 'I' for Inactive)
REMARK    1  A    between atoms: O_2  and  C_3 
REMARK    2  A    between atoms: C_5  and  C_6 
REMARK    3  A    between atoms: C_7  and  N_8 
REMARK    4  A    between atoms: C_7  and  C_17 
REMARK       I    between atoms: N_8  and  C_9 
REMARK    5  A    between atoms: C_9  and  C_11 
REMARK       I    between atoms: C_17  and  N_19 
REMARK    6  A    between atoms: N_19  and  C_20 
REMARK    7  A    between atoms: C_20  and  C_21 
REMARK    8  A    between atoms: C_21  and  C_22 
REMARK    9  A    between atoms: C_32  and  O_33 
REMARK   10  A    between atoms: C_35  and  O_36 
ROOT
ATOM      1  C   UNL d   1      28.592 -16.792  -2.077  0.00  0.00     0.046 C 
ATOM      2  C   UNL d   1      27.626 -15.799  -2.249  0.00  0.00     0.104 C 
ENDROOT
BRANCH   2   3
ATOM      3  N   UNL d   1      27.750 -14.725  -3.169  0.00  0.00    -0.318 N 
ATOM      4  C   UNL d   1      26.888 -14.434  -4.213  0.00  0.00     0.256 C 
ATOM      5  O   UNL d   1      25.688 -14.863  -4.212  0.00  0.00    -0.267 OA
ATOM      6  H   UNL d   1      28.311 -13.937  -2.876  0.00  0.00     0.169 HD
BRANCH   4   7
ATOM      7  C   UNL d   1      27.316 -13.629  -5.423  0.00  0.00     0.032 A 
ATOM      8  C   UNL d   1      28.114 -14.295  -6.375  0.00  0.00     0.017 A 
ATOM      9  C   UNL d   1      28.719 -13.641  -7.453  0.00  0.00     0.001 A 
ATOM     10  C   UNL d   1      28.433 -12.313  -7.691  0.00  0.00     0.000 A 
ATOM     11  C   UNL d   1      27.620 -11.628  -6.786  0.00  0.00     0.001 A 
ATOM     12  C   UNL d   1      27.107 -12.259  -5.624  0.00  0.00     0.017 A 
ENDBRANCH   4   7
ENDBRANCH   2   3
BRANCH   2  13
ATOM     13  C   UNL d   1      26.274 -15.825  -1.302  0.00  0.00     0.268 C 
ATOM     14  O   UNL d   1      26.407 -15.682  -0.085  0.00  0.00    -0.266 OA
ATOM     15  N   UNL d   1      24.974 -16.024  -1.890  0.00  0.00    -0.355 N 
ATOM     16  H   UNL d   1      24.929 -16.041  -2.890  0.00  0.00     0.162 HD
BRANCH  15  17
ATOM     17  C   UNL d   1      23.529 -16.157  -1.142  0.00  0.00     0.127 C 
BRANCH  17  18
ATOM     18  C   UNL d   1      23.056 -17.797  -0.566  0.00  0.00     0.056 C 
BRANCH  18  19
ATOM     19  C   UNL d   1      21.488 -18.520  -0.103  0.00  0.00    -0.047 C 
ATOM     20  C   UNL d   1      21.219 -19.350  -1.194  0.00  0.00     0.112 C 
ATOM     21  N   UNL d   1      19.896 -18.996  -1.269  0.00  0.00    -0.282 NA
ATOM     22  C   UNL d   1      19.356 -19.683  -0.233  0.00  0.00     0.019 A 
ATOM     23  H   UNL d   1      19.535 -18.059  -1.376  0.00  0.00     0.128 HD
ATOM     24  C   UNL d   1      18.167 -20.454  -0.373  0.00  0.00     0.024 A 
ATOM     25  C   UNL d   1      20.285 -19.501   0.772  0.00  0.00    -0.011 A 
ATOM     26  C   UNL d   1      17.670 -21.290   0.586  0.00  0.00     0.002 A 
ATOM     27  C   UNL d   1      18.446 -21.326   1.697  0.00  0.00     0.001 A 
ATOM     28  C   UNL d   1      19.741 -20.448   1.871  0.00  0.00     0.013 A 
ENDBRANCH  18  19
ENDBRANCH  17  18
ENDBRANCH  15  17
ENDBRANCH   2  13
BRANCH   1  29
ATOM     29  C   UNL d   1      29.985 -17.040  -2.732  0.00  0.00    -0.028 C 
ATOM     30  C   UNL d   1      31.176 -17.512  -2.116  0.00  0.00     0.051 C 
ATOM     31  C   UNL d   1      32.254 -18.090  -2.883  0.00  0.00     0.105 C 
ATOM     32  C   UNL d   1      32.074 -18.266  -4.261  0.00  0.00     0.135 C 
ATOM     33  C   UNL d   1      31.023 -17.596  -4.881  0.00  0.00     0.105 C 
ATOM     34  C   UNL d   1      30.131 -16.833  -4.101  0.00  0.00     0.051 C 
BRANCH  31  35
ATOM     35  O   UNL d   1      33.310 -18.602  -2.156  0.00  0.00    -0.353 OA
ATOM     36  C   UNL d   1      33.165 -18.641  -0.731  0.00  0.00     0.210 C 
ENDBRANCH  31  35
BRANCH  32  37
ATOM     37  O   UNL d   1      32.703 -19.109  -5.112  0.00  0.00    -0.351 OA
ATOM     38  C   UNL d   1      34.056 -19.029  -5.386  0.00  0.00     0.210 C 
ENDBRANCH  32  37
BRANCH  33  39
ATOM     39  O   UNL d   1      30.753 -17.655  -6.237  0.00  0.00    -0.353 OA
ATOM     40  C   UNL d   1      30.407 -16.453  -6.956  0.00  0.00     0.210 C 
ENDBRANCH  33  39
ENDBRANCH   1  29
TORSDOF 10
ENDMDL
MODEL 7
REMARK VINA RESULT:   -31.312      4.908      6.732
REMARK INTER + INTRA:         -36.624
REMARK INTER:                 -34.295
REMARK INTRA:                  -2.330
REMARK CONF_INDEPENDENT:        2.983
REMARK UNBOUND:                -2.330
REMARK  10 active torsions:
REMARK  status: ('A' for Active; 'I' for Inactive)
REMARK    1  A    between atoms: O_2  and  C_3 
REMARK    2  A    between atoms: C_5  and  C_6 
REMARK    3  A    between atoms: C_7  and  N_8 
REMARK    4  A    between atoms: C_7  and  C_17 
REMARK       I    between atoms: N_8  and  C_9 
REMARK    5  A    between atoms: C_9  and  C_11 
REMARK       I    between atoms: C_17  and  N_19 
REMARK    6  A    between atoms: N_19  and  C_20 
REMARK    7  A    between atoms: C_20  and  C_21 
REMARK    8  A    between atoms: C_21  and  C_22 
REMARK    9  A    between atoms: C_32  and  O_33 
REMARK   10  A    between atoms: C_35  and  O_36 
ROOT
ATOM      1  C   UNL d   1      28.079 -14.071  -0.386  0.00  0.00     0.046 C 
ATOM      2  C   UNL d   1      27.743 -15.063   0.537  0.00  0.00     0.104 C 
ENDROOT
BRANCH   2   3
ATOM      3  N   UNL d   1      27.978 -14.958   1.933  0.00  0.00    -0.318 N 
ATOM      4  C   UNL d   1      27.518 -13.955   2.771  0.00  0.00     0.256 C 
ATOM      5  O   UNL d   1      26.512 -13.242   2.449  0.00  0.00    -0.267 OA
ATOM      6  H   UNL d   1      28.225 -15.809   2.418  0.00  0.00     0.169 HD
BRANCH   4   7
ATOM      7  C   UNL d   1      28.189 -13.621   4.087  0.00  0.00     0.032 A 
ATOM      8  C   UNL d   1      28.258 -14.655   5.041  0.00  0.00     0.017 A 
ATOM      9  C   UNL d   1      28.697 -14.452   6.354  0.00  0.00     0.001 A 
ATOM     10  C   UNL d   1      29.212 -13.226   6.718  0.00  0.00     0.000 A 
ATOM     11  C   UNL d   1      29.190 -12.185   5.788  0.00  0.00     0.001 A 
ATOM     12  C   UNL d   1      28.630 -12.356   4.496  0.00  0.00     0.017 A 
ENDBRANCH   4   7
ENDBRANCH   2   3
BRANCH   2  13
ATOM     13  C   UNL d   1      27.079 -16.473  -0.009  0.00  0.00     0.268 C 
ATOM     14  O   UNL d   1      27.827 -17.323  -0.495  0.00  0.00    -0.266 OA
ATOM     15  N   UNL d   1      25.658 -16.691   0.072  0.00  0.00    -0.355 N 
ATOM     16  H   UNL d   1      25.123 -16.000   0.561  0.00  0.00     0.162 HD
BRANCH  15  17
ATOM     17  C   UNL d   1      24.792 -17.964  -0.469  0.00  0.00     0.127 C 
BRANCH  17  18
ATOM     18  C   UNL d   1      23.054 -17.671  -0.840  0.00  0.00     0.056 C 
BRANCH  18  19
ATOM     19  C   UNL d   1      21.539 -18.402  -0.235  0.00  0.00    -0.047 C 
ATOM     20  C   UNL d   1      21.241 -19.325  -1.241  0.00  0.00     0.112 C 
ATOM     21  N   UNL d   1      19.905 -19.018  -1.270  0.00  0.00    -0.282 NA
ATOM     22  C   UNL d   1      19.444 -19.636  -0.155  0.00  0.00     0.019 A 
ATOM     23  H   UNL d   1      19.507 -18.105  -1.430  0.00  0.00     0.128 HD
ATOM     24  C   UNL d   1      18.277 -20.451  -0.167  0.00  0.00     0.024 A 
ATOM     25  C   UNL d   1      20.419 -19.346   0.780  0.00  0.00    -0.011 A 
ATOM     26  C   UNL d   1      17.861 -21.223   0.881  0.00  0.00     0.002 A 
ATOM     27  C   UNL d   1      18.695 -21.146   1.946  0.00  0.00     0.001 A 
ATOM     28  C   UNL d   1      19.967 -20.217   1.978  0.00  0.00     0.013 A 
ENDBRANCH  18  19
ENDBRANCH  17  18
ENDBRANCH  15  17
ENDBRANCH   2  13
BRANCH   1  29
ATOM     29  C   UNL d   1      28.761 -12.676  -0.241  0.00  0.00    -0.028 C 
ATOM     30  C   UNL d   1      28.168 -11.390  -0.362  0.00  0.00     0.051 C 
ATOM     31  C   UNL d   1      28.786 -10.210   0.195  0.00  0.00     0.105 C 
ATOM     32  C   UNL d   1      29.959 -10.362   0.948  0.00  0.00     0.135 C 
ATOM     33  C   UNL d   1      30.648 -11.568   0.859  0.00  0.00     0.105 C 
ATOM     34  C   UNL d   1      30.112 -12.619   0.090  0.00  0.00     0.051 C 
BRANCH  31  35
ATOM     35  O   UNL d   1      28.060  -9.041   0.099  0.00  0.00    -0.353 OA
ATOM     36  C   UNL d   1      27.471  -8.740  -1.172  0.00  0.00     0.210 C 
ENDBRANCH  31  35
BRANCH  32  37
ATOM     37  O   UNL d   1      30.495  -9.543   1.881  0.00  0.00    -0.351 OA
ATOM     38  C   UNL d   1      29.740  -8.654   2.624  0.00  0.00     0.210 C 
ENDBRANCH  32  37
BRANCH  33  39
ATOM     39  O   UNL d   1      31.833 -11.837   1.523  0.00  0.00    -0.353 OA
ATOM     40  C   UNL d   1      31.803 -12.374   2.862  0.00  0.00     0.210 C 
ENDBRANCH  33  39
ENDBRANCH   1  29
TORSDOF 10
ENDMDL
MODEL 8
REMARK VINA RESULT:   -31.293      1.925      5.652
REMARK INTER + INTRA:         -36.796
REMARK INTER:                 -34.276
REMARK INTRA:                  -2.519
REMARK CONF_INDEPENDENT:        2.983
REMARK UNBOUND:                -2.519
REMARK  10 active torsions:
REMARK  status: ('A' for Active; 'I' for Inactive)
REMARK    1  A    between atoms: O_2  and  C_3 
REMARK    2  A    between atoms: C_5  and  C_6 
REMARK    3  A    between atoms: C_7  and  N_8 
REMARK    4  A    between atoms: C_7  and  C_17 
REMARK       I    between atoms: N_8  and  C_9 
REMARK    5  A    between atoms: C_9  and  C_11 
REMARK       I    between atoms: C_17  and  N_19 
REMARK    6  A    between atoms: N_19  and  C_20 
REMARK    7  A    between atoms: C_20  and  C_21 
REMARK    8  A    between atoms: C_21  and  C_22 
REMARK    9  A    between atoms: C_32  and  O_33 
REMARK   10  A    between atoms: C_35  and  O_36 
ROOT
ATOM      1  C   UNL d   1      28.336 -15.859  -3.944  0.00  0.00     0.046 C 
ATOM      2  C   UNL d   1      27.484 -15.139  -3.104  0.00  0.00     0.104 C 
ENDROOT
BRANCH   2   3
ATOM      3  N   UNL d   1      27.233 -13.748  -3.234  0.00  0.00    -0.318 N 
ATOM      4  C   UNL d   1      26.068 -13.163  -3.702  0.00  0.00     0.256 C 
ATOM      5  O   UNL d   1      24.964 -13.800  -3.688  0.00  0.00    -0.267 OA
ATOM      6  H   UNL d   1      27.800 -13.129  -2.672  0.00  0.00     0.169 HD
BRANCH   4   7
ATOM      7  C   UNL d   1      26.034 -11.764  -4.282  0.00  0.00     0.032 A 
ATOM      8  C   UNL d   1      25.797 -11.661  -5.667  0.00  0.00     0.017 A 
ATOM      9  C   UNL d   1      25.901 -10.455  -6.370  0.00  0.00     0.001 A 
ATOM     10  C   UNL d   1      26.116  -9.281  -5.679  0.00  0.00     0.000 A 
ATOM     11  C   UNL d   1      26.323  -9.341  -4.300  0.00  0.00     0.001 A 
ATOM     12  C   UNL d   1      26.342 -10.577  -3.605  0.00  0.00     0.017 A 
ENDBRANCH   4   7
ENDBRANCH   2   3
BRANCH   2  13
ATOM     13  C   UNL d   1      26.753 -15.919  -1.846  0.00  0.00     0.268 C 
ATOM     14  O   UNL d   1      27.459 -16.551  -1.058  0.00  0.00    -0.266 OA
ATOM     15  N   UNL d   1      25.322 -15.868  -1.686  0.00  0.00    -0.355 N 
ATOM     16  H   UNL d   1      24.821 -15.262  -2.306  0.00  0.00     0.162 HD
BRANCH  15  17
ATOM     17  C   UNL d   1      24.396 -16.618  -0.571  0.00  0.00     0.127 C 
BRANCH  17  18
ATOM     18  C   UNL d   1      23.027 -17.615  -1.184  0.00  0.00     0.056 C 
BRANCH  18  19
ATOM     19  C   UNL d   1      21.575 -18.303  -0.401  0.00  0.00    -0.047 C 
ATOM     20  C   UNL d   1      21.250 -19.353  -1.264  0.00  0.00     0.112 C 
ATOM     21  N   UNL d   1      19.905 -19.087  -1.248  0.00  0.00    -0.282 NA
ATOM     22  C   UNL d   1      19.530 -19.570  -0.039  0.00  0.00     0.019 A 
ATOM     23  H   UNL d   1      19.468 -18.211  -1.497  0.00  0.00     0.128 HD
ATOM     24  C   UNL d   1      18.392 -20.410   0.122  0.00  0.00     0.024 A 
ATOM     25  C   UNL d   1      20.547 -19.139   0.791  0.00  0.00    -0.011 A 
ATOM     26  C   UNL d   1      18.064 -21.054   1.282  0.00  0.00     0.002 A 
ATOM     27  C   UNL d   1      18.954 -20.821   2.276  0.00  0.00     0.001 A 
ATOM     28  C   UNL d   1      20.195 -19.863   2.114  0.00  0.00     0.013 A 
ENDBRANCH  18  19
ENDBRANCH  17  18
ENDBRANCH  15  17
ENDBRANCH   2  13
BRANCH   1  29
ATOM     29  C   UNL d   1      29.220 -15.448  -5.160  0.00  0.00    -0.028 C 
ATOM     30  C   UNL d   1      29.029 -14.365  -6.060  0.00  0.00     0.051 C 
ATOM     31  C   UNL d   1      30.108 -13.843  -6.865  0.00  0.00     0.105 C 
ATOM     32  C   UNL d   1      31.394 -14.369  -6.681  0.00  0.00     0.135 C 
ATOM     33  C   UNL d   1      31.524 -15.568  -5.985  0.00  0.00     0.105 C 
ATOM     34  C   UNL d   1      30.381 -16.170  -5.423  0.00  0.00     0.051 C 
BRANCH  31  35
ATOM     35  O   UNL d   1      29.817 -12.726  -7.622  0.00  0.00    -0.353 OA
ATOM     36  C   UNL d   1      28.723 -11.909  -7.188  0.00  0.00     0.210 C 
ENDBRANCH  31  35
BRANCH  32  37
ATOM     37  O   UNL d   1      32.598 -13.825  -6.972  0.00  0.00    -0.351 OA
ATOM     38  C   UNL d   1      33.288 -14.107  -8.137  0.00  0.00     0.210 C 
ENDBRANCH  32  37
BRANCH  33  39
ATOM     39  O   UNL d   1      32.729 -16.211  -5.761  0.00  0.00    -0.353 OA
ATOM     40  C   UNL d   1      33.117 -17.324  -6.594  0.00  0.00     0.210 C 
ENDBRANCH  33  39
ENDBRANCH   1  29
TORSDOF 10
ENDMDL
MODEL 9
REMARK VINA RESULT:   -31.281      2.670      4.710
REMARK INTER + INTRA:         -36.722
REMARK INTER:                 -34.264
REMARK INTRA:                  -2.458
REMARK CONF_INDEPENDENT:        2.983
REMARK UNBOUND:                -2.458
REMARK  10 active torsions:
REMARK  status: ('A' for Active; 'I' for Inactive)
REMARK    1  A    between atoms: O_2  and  C_3 
REMARK    2  A    between atoms: C_5  and  C_6 
REMARK    3  A    between atoms: C_7  and  N_8 
REMARK    4  A    between atoms: C_7  and  C_17 
REMARK       I    between atoms: N_8  and  C_9 
REMARK    5  A    between atoms: C_9  and  C_11 
REMARK       I    between atoms: C_17  and  N_19 
REMARK    6  A    between atoms: N_19  and  C_20 
REMARK    7  A    between atoms: C_20  and  C_21 
REMARK    8  A    between atoms: C_21  and  C_22 
REMARK    9  A    between atoms: C_32  and  O_33 
REMARK   10  A    between atoms: C_35  and  O_36 
ROOT
ATOM      1  C   UNL d   1      26.689 -14.942  -4.360  0.00  0.00     0.046 C 
ATOM      2  C   UNL d   1      26.899 -15.250  -3.015  0.00  0.00     0.104 C 
ENDROOT
BRANCH   2   3
ATOM      3  N   UNL d   1      28.143 -15.089  -2.349  0.00  0.00    -0.318 N 
ATOM      4  C   UNL d   1      28.881 -16.086  -1.734  0.00  0.00     0.256 C 
ATOM      5  O   UNL d   1      28.715 -17.311  -2.045  0.00  0.00    -0.267 OA
ATOM      6  H   UNL d   1      28.688 -14.275  -2.595  0.00  0.00     0.169 HD
BRANCH   4   7
ATOM      7  C   UNL d   1      29.893 -15.797  -0.645  0.00  0.00     0.032 A 
ATOM      8  C   UNL d   1      29.753 -14.573   0.038  0.00  0.00     0.017 A 
ATOM      9  C   UNL d   1      30.703 -14.095   0.948  0.00  0.00     0.001 A 
ATOM     10  C   UNL d   1      31.765 -14.898   1.307  0.00  0.00     0.000 A 
ATOM     11  C   UNL d   1      31.919 -16.132   0.674  0.00  0.00     0.001 A 
ATOM     12  C   UNL d   1      31.026 -16.563  -0.339  0.00  0.00     0.017 A 
ENDBRANCH   4   7
ENDBRANCH   2   3
BRANCH   2  13
ATOM     13  C   UNL d   1      25.655 -15.888  -2.136  0.00  0.00     0.268 C 
ATOM     14  O   UNL d   1      24.617 -15.234  -2.028  0.00  0.00    -0.266 OA
ATOM     15  N   UNL d   1      25.792 -17.175  -1.503  0.00  0.00    -0.355 N 
ATOM     16  H   UNL d   1      26.625 -17.692  -1.708  0.00  0.00     0.162 HD
BRANCH  15  17
ATOM     17  C   UNL d   1      24.730 -17.952  -0.538  0.00  0.00     0.127 C 
BRANCH  17  18
ATOM     18  C   UNL d   1      22.983 -17.589  -0.787  0.00  0.00     0.056 C 
BRANCH  18  19
ATOM     19  C   UNL d   1      21.483 -18.365  -0.205  0.00  0.00    -0.047 C 
ATOM     20  C   UNL d   1      21.251 -19.325  -1.194  0.00  0.00     0.112 C 
ATOM     21  N   UNL d   1      19.905 -19.074  -1.268  0.00  0.00    -0.282 NA
ATOM     22  C   UNL d   1      19.438 -19.682  -0.150  0.00  0.00     0.019 A 
ATOM     23  H   UNL d   1      19.475 -18.182  -1.464  0.00  0.00     0.128 HD
ATOM     24  C   UNL d   1      18.305 -20.544  -0.174  0.00  0.00     0.024 A 
ATOM     25  C   UNL d   1      20.372 -19.329   0.803  0.00  0.00    -0.011 A 
ATOM     26  C   UNL d   1      17.891 -21.305   0.883  0.00  0.00     0.002 A 
ATOM     27  C   UNL d   1      18.690 -21.167   1.968  0.00  0.00     0.001 A 
ATOM     28  C   UNL d   1      19.922 -20.187   2.011  0.00  0.00     0.013 A 
ENDBRANCH  18  19
ENDBRANCH  17  18
ENDBRANCH  15  17
ENDBRANCH   2  13
BRANCH   1  29
ATOM     29  C   UNL d   1      27.627 -14.398  -5.481  0.00  0.00    -0.028 C 
ATOM     30  C   UNL d   1      27.718 -13.071  -5.984  0.00  0.00     0.051 C 
ATOM     31  C   UNL d   1      28.881 -12.607  -6.701  0.00  0.00     0.105 C 
ATOM     32  C   UNL d   1      29.980 -13.468  -6.822  0.00  0.00     0.135 C 
ATOM     33  C   UNL d   1      29.795 -14.818  -6.542  0.00  0.00     0.105 C 
ATOM     34  C   UNL d   1      28.544 -15.263  -6.071  0.00  0.00     0.051 C 
BRANCH  31  35
ATOM     35  O   UNL d   1      28.888 -11.271  -7.048  0.00  0.00    -0.353 OA
ATOM     36  C   UNL d   1      27.963 -10.414  -6.368  0.00  0.00     0.210 C 
ENDBRANCH  31  35
BRANCH  32  37
ATOM     37  O   UNL d   1      31.280 -13.178  -7.061  0.00  0.00    -0.351 OA
ATOM     38  C   UNL d   1      31.841 -13.223  -8.324  0.00  0.00     0.210 C 
ENDBRANCH  32  37
BRANCH  33  39
ATOM     39  O   UNL d   1      30.785 -15.780  -6.652  0.00  0.00    -0.353 OA
ATOM     40  C   UNL d   1      31.015 -16.703  -5.567  0.00  0.00     0.210 C 
ENDBRANCH  33  39
ENDBRANCH   1  29
TORSDOF 10
ENDMDL
