MODEL 1
REMARK VINA RESULT:   -29.444      0.000      0.000
REMARK INTER + INTRA:         -31.999
REMARK INTER:                 -30.936
REMARK INTRA:                  -1.063
REMARK CONF_INDEPENDENT:        1.492
REMARK UNBOUND:                -1.063
REMARK  5 active torsions:
REMARK  status: ('A' for Active; 'I' for Inactive)
REMARK    1  A    between atoms: C_2  and  N_8 
REMARK    2  A    between atoms: C_2  and  C_3 
REMARK    3  A    between atoms: C_3  and  C_4 
REMARK       I    between atoms: C_4  and  N_6 
REMARK    4  A    between atoms: N_6  and  N_7 
REMARK    5  A    between atoms: N_8  and  C_9 
ROOT
ATOM      1  N   UNL d   1      24.911 -17.127  -0.164  0.00  0.00    -0.385 N 
ATOM      2  H   UNL d   1      24.979 -17.584   0.750  0.00  0.00     0.160 HD
ENDROOT
BRANCH   1   3
ATOM      3  C   UNL d   1      23.719 -17.515  -0.936  0.00  0.00     0.086 C 
ATOM      4  C   UNL d   1      22.587 -16.512  -0.672  0.00  0.00     0.032 C 
BRANCH   3   5
ATOM      5  C   UNL d   1      23.209 -18.938  -0.541  0.00  0.00     0.128 C 
BRANCH   5   6
ATOM      6  C   UNL d   1      21.710 -19.079  -0.327  0.00  0.00     0.233 C 
ATOM      7  O   UNL d   1      21.148 -18.995   0.775  0.00  0.00    -0.272 OA
ATOM      8  N   UNL d   1      20.940 -19.325  -1.447  0.00  0.00    -0.294 N 
ATOM      9  H   UNL d   1      21.327 -19.314  -2.388  0.00  0.00     0.183 HD
BRANCH   8  10
ATOM     10  N   UNL d   1      19.530 -19.311  -1.270  0.00  0.00    -0.247 NA
ATOM     11  H   UNL d   1      19.218 -18.377  -1.600  0.00  0.00     0.143 HD
ATOM     12  H   UNL d   1      19.330 -19.279  -0.269  0.00  0.00     0.143 HD
ENDBRANCH   8  10
ENDBRANCH   5   6
ENDBRANCH   3   5
ENDBRANCH   1   3
BRANCH   1  13
ATOM     13  C   UNL d   1      26.173 -16.893  -0.711  0.00  0.00     0.039 A 
ATOM     14  C   UNL d   1      27.277 -17.493  -0.102  0.00  0.00     0.030 A 
ATOM     15  C   UNL d   1      28.569 -17.317  -0.558  0.00  0.00     0.003 A 
ATOM     16  C   UNL d   1      28.784 -16.577  -1.706  0.00  0.00     0.012 A 
ATOM     17  C   UNL d   1      27.707 -16.018  -2.408  0.00  0.00    -0.024 A 
ATOM     18  C   UNL d   1      27.955 -15.350  -3.616  0.00  0.00     0.012 A 
ATOM     19  C   UNL d   1      26.380 -16.144  -1.911  0.00  0.00     0.001 A 
ATOM     20  C   UNL d   1      26.915 -14.788  -4.352  0.00  0.00     0.001 A 
ATOM     21  C   UNL d   1      25.613 -14.876  -3.881  0.00  0.00     0.001 A 
ATOM     22  C   UNL d   1      25.350 -15.537  -2.676  0.00  0.00     0.014 A 
ENDBRANCH   1  13
TORSDOF 5
ENDMDL
MODEL 2
REMARK VINA RESULT:   -29.254      1.666      2.002
REMARK INTER + INTRA:         -32.390
REMARK INTER:                 -30.745
REMARK INTRA:                  -1.645
REMARK CONF_INDEPENDENT:        1.492
REMARK UNBOUND:                -1.645
REMARK  5 active torsions:
REMARK  status: ('A' for Active; 'I' for Inactive)
REMARK    1  A    between atoms: C_2  and  N_8 
REMARK    2  A    between atoms: C_2  and  C_3 
REMARK    3  A    between atoms: C_3  and  C_4 
REMARK       I    between atoms: C_4  and  N_6 
REMARK    4  A    between atoms: N_6  and  N_7 
REMARK    5  A    between atoms: N_8  and  C_9 
ROOT
ATOM      1  N   UNL d   1      24.509 -16.593  -1.262  0.00  0.00    -0.385 N 
ATOM      2  H   UNL d   1      23.594 -16.250  -1.570  0.00  0.00     0.160 HD
ENDROOT
BRANCH   1   3
ATOM      3  C   UNL d   1      24.437 -17.600  -0.190  0.00  0.00     0.086 C 
ATOM      4  C   UNL d   1      25.784 -18.328  -0.078  0.00  0.00     0.032 C 
BRANCH   3   5
ATOM      5  C   UNL d   1      23.330 -18.666  -0.468  0.00  0.00     0.128 C 
BRANCH   5   6
ATOM      6  C   UNL d   1      21.919 -18.133  -0.664  0.00  0.00     0.233 C 
ATOM      7  O   UNL d   1      21.643 -16.945  -0.890  0.00  0.00    -0.272 OA
ATOM      8  N   UNL d   1      20.888 -19.047  -0.569  0.00  0.00    -0.294 N 
ATOM      9  H   UNL d   1      21.052 -20.046  -0.476  0.00  0.00     0.183 HD
BRANCH   8  10
ATOM     10  N   UNL d   1      19.586 -18.579  -0.895  0.00  0.00    -0.247 NA
ATOM     11  H   UNL d   1      19.275 -19.158  -1.698  0.00  0.00     0.143 HD
ATOM     12  H   UNL d   1      19.670 -17.647  -1.303  0.00  0.00     0.143 HD
ENDBRANCH   8  10
ENDBRANCH   5   6
ENDBRANCH   3   5
ENDBRANCH   1   3
BRANCH   1  13
ATOM     13  C   UNL d   1      25.484 -15.600  -1.358  0.00  0.00     0.039 A 
ATOM     14  C   UNL d   1      26.046 -15.112  -0.177  0.00  0.00     0.030 A 
ATOM     15  C   UNL d   1      27.010 -14.122  -0.161  0.00  0.00     0.003 A 
ATOM     16  C   UNL d   1      27.498 -13.638  -1.361  0.00  0.00     0.012 A 
ATOM     17  C   UNL d   1      27.031 -14.147  -2.580  0.00  0.00    -0.024 A 
ATOM     18  C   UNL d   1      27.613 -13.696  -3.774  0.00  0.00     0.012 A 
ATOM     19  C   UNL d   1      25.996 -15.122  -2.604  0.00  0.00     0.001 A 
ATOM     20  C   UNL d   1      27.188 -14.181  -5.008  0.00  0.00     0.001 A 
ATOM     21  C   UNL d   1      26.165 -15.117  -5.064  0.00  0.00     0.001 A 
ATOM     22  C   UNL d   1      25.573 -15.575  -3.882  0.00  0.00     0.014 A 
ENDBRANCH   1  13
TORSDOF 5
ENDMDL
MODEL 3
REMARK VINA RESULT:   -29.093      0.940      2.710
REMARK INTER + INTRA:         -31.611
REMARK INTER:                 -30.584
REMARK INTRA:                  -1.026
REMARK CONF_INDEPENDENT:        1.492
REMARK UNBOUND:                -1.026
REMARK  5 active torsions:
REMARK  status: ('A' for Active; 'I' for Inactive)
REMARK    1  A    between atoms: C_2  and  N_8 
REMARK    2  A    between atoms: C_2  and  C_3 
REMARK    3  A    between atoms: C_3  and  C_4 
REMARK       I    between atoms: C_4  and  N_6 
REMARK    4  A    between atoms: N_6  and  N_7 
REMARK    5  A    between atoms: N_8  and  C_9 
ROOT
ATOM      1  N   UNL d   1      24.822 -16.132  -0.269  0.00  0.00    -0.385 N 
ATOM      2  H   UNL d   1      25.306 -15.824   0.580  0.00  0.00     0.160 HD
ENDROOT
BRANCH   1   3
ATOM      3  C   UNL d   1      23.945 -17.297  -0.064  0.00  0.00     0.086 C 
ATOM      4  C   UNL d   1      24.677 -18.574  -0.500  0.00  0.00     0.032 C 
BRANCH   3   5
ATOM      5  C   UNL d   1      22.627 -17.185  -0.896  0.00  0.00     0.128 C 
BRANCH   5   6
ATOM      6  C   UNL d   1      21.723 -18.408  -0.889  0.00  0.00     0.233 C 
ATOM      7  O   UNL d   1      22.091 -19.550  -0.576  0.00  0.00    -0.272 OA
ATOM      8  N   UNL d   1      20.410 -18.215  -1.270  0.00  0.00    -0.294 N 
ATOM      9  H   UNL d   1      20.024 -17.291  -1.450  0.00  0.00     0.183 HD
BRANCH   8  10
ATOM     10  N   UNL d   1      19.532 -19.323  -1.123  0.00  0.00    -0.247 NA
ATOM     11  H   UNL d   1      20.140 -20.164  -1.136  0.00  0.00     0.143 HD
ATOM     12  H   UNL d   1      18.987 -19.420  -1.981  0.00  0.00     0.143 HD
ENDBRANCH   8  10
ENDBRANCH   5   6
ENDBRANCH   3   5
ENDBRANCH   1   3
BRANCH   1  13
ATOM     13  C   UNL d   1      25.598 -15.909  -1.406  0.00  0.00     0.039 A 
ATOM     14  C   UNL d   1      25.050 -15.146  -2.438  0.00  0.00     0.030 A 
ATOM     15  C   UNL d   1      25.731 -14.876  -3.610  0.00  0.00     0.003 A 
ATOM     16  C   UNL d   1      27.035 -15.314  -3.749  0.00  0.00     0.012 A 
ATOM     17  C   UNL d   1      27.667 -16.016  -2.713  0.00  0.00    -0.024 A 
ATOM     18  C   UNL d   1      29.018 -16.366  -2.853  0.00  0.00     0.012 A 
ATOM     19  C   UNL d   1      26.952 -16.349  -1.529  0.00  0.00     0.001 A 
ATOM     20  C   UNL d   1      29.689 -17.055  -1.846  0.00  0.00     0.001 A 
ATOM     21  C   UNL d   1      29.012 -17.413  -0.689  0.00  0.00     0.001 A 
ATOM     22  C   UNL d   1      27.664 -17.072  -0.535  0.00  0.00     0.014 A 
ENDBRANCH   1  13
TORSDOF 5
ENDMDL
MODEL 4
REMARK VINA RESULT:   -28.878      1.484      2.845
REMARK INTER + INTRA:         -32.006
REMARK INTER:                 -30.369
REMARK INTRA:                  -1.636
REMARK CONF_INDEPENDENT:        1.492
REMARK UNBOUND:                -1.636
REMARK  5 active torsions:
REMARK  status: ('A' for Active; 'I' for Inactive)
REMARK    1  A    between atoms: C_2  and  N_8 
REMARK    2  A    between atoms: C_2  and  C_3 
REMARK    3  A    between atoms: C_3  and  C_4 
REMARK       I    between atoms: C_4  and  N_6 
REMARK    4  A    between atoms: N_6  and  N_7 
REMARK    5  A    between atoms: N_8  and  C_9 
ROOT
ATOM      1  N   UNL d   1      24.721 -17.407  -1.546  0.00  0.00    -0.385 N 
ATOM      2  H   UNL d   1      23.970 -17.733  -2.161  0.00  0.00     0.160 HD
ENDROOT
BRANCH   1   3
ATOM      3  C   UNL d   1      24.519 -17.749  -0.128  0.00  0.00     0.086 C 
ATOM      4  C   UNL d   1      25.858 -18.166   0.496  0.00  0.00     0.032 C 
BRANCH   3   5
ATOM      5  C   UNL d   1      23.512 -18.931   0.047  0.00  0.00     0.128 C 
BRANCH   5   6
ATOM      6  C   UNL d   1      22.249 -18.867  -0.797  0.00  0.00     0.233 C 
ATOM      7  O   UNL d   1      22.215 -19.049  -2.023  0.00  0.00    -0.272 OA
ATOM      8  N   UNL d   1      21.072 -18.575  -0.137  0.00  0.00    -0.294 N 
ATOM      9  H   UNL d   1      21.018 -18.506   0.876  0.00  0.00     0.183 HD
BRANCH   8  10
ATOM     10  N   UNL d   1      19.874 -18.659  -0.898  0.00  0.00    -0.247 NA
ATOM     11  H   UNL d   1      20.035 -19.418  -1.587  0.00  0.00     0.143 HD
ATOM     12  H   UNL d   1      19.804 -17.826  -1.484  0.00  0.00     0.143 HD
ENDBRANCH   8  10
ENDBRANCH   5   6
ENDBRANCH   3   5
ENDBRANCH   1   3
BRANCH   1  13
ATOM     13  C   UNL d   1      25.274 -16.213  -2.006  0.00  0.00     0.039 A 
ATOM     14  C   UNL d   1      24.406 -15.201  -2.420  0.00  0.00     0.030 A 
ATOM     15  C   UNL d   1      24.851 -13.985  -2.902  0.00  0.00     0.003 A 
ATOM     16  C   UNL d   1      26.208 -13.720  -2.913  0.00  0.00     0.012 A 
ATOM     17  C   UNL d   1      27.125 -14.666  -2.434  0.00  0.00    -0.024 A 
ATOM     18  C   UNL d   1      28.485 -14.329  -2.378  0.00  0.00     0.012 A 
ATOM     19  C   UNL d   1      26.678 -15.943  -1.994  0.00  0.00     0.001 A 
ATOM     20  C   UNL d   1      29.430 -15.233  -1.901  0.00  0.00     0.001 A 
ATOM     21  C   UNL d   1      29.026 -16.494  -1.484  0.00  0.00     0.001 A 
ATOM     22  C   UNL d   1      27.674 -16.846  -1.536  0.00  0.00     0.014 A 
ENDBRANCH   1  13
TORSDOF 5
ENDMDL
MODEL 5
REMARK VINA RESULT:   -28.841      1.789      2.865
REMARK INTER + INTRA:         -31.897
REMARK INTER:                 -30.333
REMARK INTRA:                  -1.564
REMARK CONF_INDEPENDENT:        1.492
REMARK UNBOUND:                -1.564
REMARK  5 active torsions:
REMARK  status: ('A' for Active; 'I' for Inactive)
REMARK    1  A    between atoms: C_2  and  N_8 
REMARK    2  A    between atoms: C_2  and  C_3 
REMARK    3  A    between atoms: C_3  and  C_4 
REMARK       I    between atoms: C_4  and  N_6 
REMARK    4  A    between atoms: N_6  and  N_7 
REMARK    5  A    between atoms: N_8  and  C_9 
ROOT
ATOM      1  N   UNL d   1      24.349 -16.799  -1.567  0.00  0.00    -0.385 N 
ATOM      2  H   UNL d   1      23.439 -16.364  -1.743  0.00  0.00     0.160 HD
ENDROOT
BRANCH   1   3
ATOM      3  C   UNL d   1      24.409 -17.566  -0.311  0.00  0.00     0.086 C 
ATOM      4  C   UNL d   1      25.749 -18.310  -0.228  0.00  0.00     0.032 C 
BRANCH   3   5
ATOM      5  C   UNL d   1      23.261 -18.623  -0.222  0.00  0.00     0.128 C 
BRANCH   5   6
ATOM      6  C   UNL d   1      21.862 -18.123  -0.550  0.00  0.00     0.233 C 
ATOM      7  O   UNL d   1      21.595 -16.961  -0.888  0.00  0.00    -0.272 OA
ATOM      8  N   UNL d   1      20.833 -19.039  -0.449  0.00  0.00    -0.294 N 
ATOM      9  H   UNL d   1      20.998 -20.026  -0.267  0.00  0.00     0.183 HD
BRANCH   8  10
ATOM     10  N   UNL d   1      19.553 -18.613  -0.895  0.00  0.00    -0.247 NA
ATOM     11  H   UNL d   1      19.271 -19.296  -1.625  0.00  0.00     0.143 HD
ATOM     12  H   UNL d   1      19.665 -17.746  -1.423  0.00  0.00     0.143 HD
ENDBRANCH   8  10
ENDBRANCH   5   6
ENDBRANCH   3   5
ENDBRANCH   1   3
BRANCH   1  13
ATOM     13  C   UNL d   1      25.390 -16.023  -2.076  0.00  0.00     0.039 A 
ATOM     14  C   UNL d   1      25.538 -15.947  -3.462  0.00  0.00     0.030 A 
ATOM     15  C   UNL d   1      26.542 -15.215  -4.068  0.00  0.00     0.003 A 
ATOM     16  C   UNL d   1      27.398 -14.467  -3.282  0.00  0.00     0.012 A 
ATOM     17  C   UNL d   1      27.250 -14.440  -1.889  0.00  0.00    -0.024 A 
ATOM     18  C   UNL d   1      28.080 -13.600  -1.132  0.00  0.00     0.012 A 
ATOM     19  C   UNL d   1      26.257 -15.238  -1.255  0.00  0.00     0.001 A 
ATOM     20  C   UNL d   1      27.962 -13.533   0.254  0.00  0.00     0.001 A 
ATOM     21  C   UNL d   1      27.016 -14.316   0.902  0.00  0.00     0.001 A 
ATOM     22  C   UNL d   1      26.183 -15.160   0.161  0.00  0.00     0.014 A 
ENDBRANCH   1  13
TORSDOF 5
ENDMDL
MODEL 6
REMARK VINA RESULT:   -28.210      2.031      2.584
REMARK INTER + INTRA:         -30.837
REMARK INTER:                 -29.701
REMARK INTRA:                  -1.136
REMARK CONF_INDEPENDENT:        1.492
REMARK UNBOUND:                -1.136
REMARK  5 active torsions:
REMARK  status: ('A' for Active; 'I' for Inactive)
REMARK    1  A    between atoms: C_2  and  N_8 
REMARK    2  A    between atoms: C_2  and  C_3 
REMARK    3  A    between atoms: C_3  and  C_4 
REMARK       I    between atoms: C_4  and  N_6 
REMARK    4  A    between atoms: N_6  and  N_7 
REMARK    5  A    between atoms: N_8  and  C_9 
ROOT
ATOM      1  N   UNL d   1      25.256 -17.174   0.041  0.00  0.00    -0.385 N 
ATOM      2  H   UNL d   1      25.060 -17.773   0.849  0.00  0.00     0.160 HD
ENDROOT
BRANCH   1   3
ATOM      3  C   UNL d   1      24.402 -17.454  -1.126  0.00  0.00     0.086 C 
ATOM      4  C   UNL d   1      24.787 -16.517  -2.280  0.00  0.00     0.032 C 
BRANCH   3   5
ATOM      5  C   UNL d   1      22.889 -17.233  -0.805  0.00  0.00     0.128 C 
BRANCH   5   6
ATOM      6  C   UNL d   1      21.986 -18.447  -0.961  0.00  0.00     0.233 C 
ATOM      7  O   UNL d   1      22.364 -19.622  -0.844  0.00  0.00    -0.272 OA
ATOM      8  N   UNL d   1      20.661 -18.203  -1.265  0.00  0.00    -0.294 N 
ATOM      9  H   UNL d   1      20.269 -17.264  -1.284  0.00  0.00     0.183 HD
BRANCH   8  10
ATOM     10  N   UNL d   1      19.788 -19.325  -1.267  0.00  0.00    -0.247 NA
ATOM     11  H   UNL d   1      20.366 -20.127  -0.952  0.00  0.00     0.143 HD
ATOM     12  H   UNL d   1      19.571 -19.564  -2.235  0.00  0.00     0.143 HD
ENDBRANCH   8  10
ENDBRANCH   5   6
ENDBRANCH   3   5
ENDBRANCH   1   3
BRANCH   1  13
ATOM     13  C   UNL d   1      26.606 -16.832  -0.024  0.00  0.00     0.039 A 
ATOM     14  C   UNL d   1      27.515 -17.809  -0.435  0.00  0.00     0.030 A 
ATOM     15  C   UNL d   1      28.874 -17.577  -0.524  0.00  0.00     0.003 A 
ATOM     16  C   UNL d   1      29.358 -16.308  -0.266  0.00  0.00     0.012 A 
ATOM     17  C   UNL d   1      28.486 -15.264   0.073  0.00  0.00    -0.024 A 
ATOM     18  C   UNL d   1      29.003 -13.971   0.240  0.00  0.00     0.012 A 
ATOM     19  C   UNL d   1      27.093 -15.511   0.224  0.00  0.00     0.001 A 
ATOM     20  C   UNL d   1      28.172 -12.902   0.566  0.00  0.00     0.001 A 
ATOM     21  C   UNL d   1      26.812 -13.117   0.742  0.00  0.00     0.001 A 
ATOM     22  C   UNL d   1      26.282 -14.402   0.581  0.00  0.00     0.014 A 
ENDBRANCH   1  13
TORSDOF 5
ENDMDL
