MODEL 1
REMARK VINA RESULT:    -7.467      0.000      0.000
REMARK INTER + INTRA:         -12.844
REMARK INTER:                 -10.152
REMARK INTRA:                  -2.692
REMARK CONF_INDEPENDENT:        2.685
REMARK UNBOUND:                -2.692
REMARK  9 active torsions:
REMARK  status: ('A' for Active; 'I' for Inactive)
REMARK    1  A    between atoms: C_2  and  C_3 
REMARK       I    between atoms: C_2  and  N_24 
REMARK    2  A    between atoms: C_3  and  O_4 
REMARK    3  A    between atoms: O_4  and  C_5 
REMARK    4  A    between atoms: C_5  and  C_7 
REMARK    5  A    between atoms: C_12  and  N_13 
REMARK    6  A    between atoms: N_13  and  C_14 
REMARK    7  A    between atoms: C_18  and  C_19 
REMARK    8  A    between atoms: N_24  and  N_25 
REMARK       I    between atoms: N_25  and  C_26 
REMARK    9  A    between atoms: C_26  and  C_28 
ROOT
ATOM      1  C   UNL d   1      27.342 -12.511  -1.237  0.00  0.00     0.297 C 
ATOM      2  O   UNL d   1      28.408 -11.943  -1.470  0.00  0.00    -0.259 OA
ENDROOT
BRANCH   1   3
ATOM      3  O   UNL d   1      26.830 -12.694   0.012  0.00  0.00    -0.308 OA
BRANCH   3   4
ATOM      4  C   UNL d   1      27.816 -12.965   1.035  0.00  0.00     0.283 C 
BRANCH   4   5
ATOM      5  C   UNL d   1      27.896 -14.444   1.452  0.00  0.00     0.260 C 
ATOM      6  O   UNL d   1      27.792 -15.349   0.619  0.00  0.00    -0.269 OA
ATOM      7  N   UNL d   1      28.088 -14.772   2.784  0.00  0.00    -0.265 N 
ATOM      8  H   UNL d   1      28.142 -15.766   3.016  0.00  0.00     0.190 HD
BRANCH   7   9
ATOM      9  N   UNL d   1      28.336 -13.877   3.849  0.00  0.00    -0.263 N 
ATOM     10  C   UNL d   1      28.485 -14.380   5.141  0.00  0.00     0.273 C 
ATOM     11  O   UNL d   1      28.423 -15.575   5.416  0.00  0.00    -0.266 OA
ATOM     12  H   UNL d   1      28.486 -12.897   3.650  0.00  0.00     0.190 HD
BRANCH  10  13
ATOM     13  C   UNL d   1      28.719 -13.390   6.234  0.00  0.00     0.072 A 
ATOM     14  C   UNL d   1      29.281 -13.792   7.458  0.00  0.00     0.020 A 
ATOM     15  C   UNL d   1      29.346 -12.895   8.537  0.00  0.00     0.001 A 
ATOM     16  C   UNL d   1      28.906 -11.581   8.386  0.00  0.00     0.003 A 
ATOM     17  C   UNL d   1      28.362 -11.174   7.168  0.00  0.00     0.043 A 
ATOM     18  C   UNL d   1      28.269 -12.076   6.107  0.00  0.00     0.132 A 
ATOM     19  F   UNL d   1      27.719 -11.653   4.960  0.00  0.00    -0.205 F 
ENDBRANCH  10  13
ENDBRANCH   7   9
ENDBRANCH   4   5
ENDBRANCH   3   4
ENDBRANCH   1   3
BRANCH   1  20
ATOM     20  C   UNL d   1      26.459 -13.058  -2.302  0.00  0.00     0.085 A 
ATOM     21  C   UNL d   1      26.495 -12.398  -3.532  0.00  0.00     0.023 A 
ATOM     22  C   UNL d   1      25.889 -12.971  -4.644  0.00  0.00     0.020 A 
ATOM     23  C   UNL d   1      25.239 -14.181  -4.482  0.00  0.00     0.119 A 
ATOM     24  N   UNL d   1      25.141 -14.828  -3.296  0.00  0.00    -0.242 NA
ATOM     25  C   UNL d   1      25.749 -14.276  -2.207  0.00  0.00     0.144 A 
BRANCH  25  26
ATOM     26  N   UNL d   1      25.614 -15.016  -1.025  0.00  0.00    -0.340 N 
ATOM     27  H   UNL d   1      25.980 -14.551  -0.201  0.00  0.00     0.167 HD
BRANCH  26  28
ATOM     28  C   UNL d   1      25.195 -16.343  -0.895  0.00  0.00     0.034 A 
ATOM     29  C   UNL d   1      26.062 -17.317  -0.396  0.00  0.00     0.029 A 
ATOM     30  C   UNL d   1      25.568 -18.572  -0.030  0.00  0.00     0.003 A 
ATOM     31  C   UNL d   1      24.203 -18.854  -0.143  0.00  0.00     0.016 A 
ATOM     32  C   UNL d   1      23.333 -17.916  -0.718  0.00  0.00     0.050 A 
ATOM     33  C   UNL d   1      23.847 -16.670  -1.096  0.00  0.00     0.045 A 
BRANCH  32  34
ATOM     34  C   UNL d   1      21.856 -18.195  -0.864  0.00  0.00     0.417 C 
ATOM     35  F   UNL d   1      21.602 -19.166  -1.775  0.00  0.00    -0.166 F 
ATOM     36  F   UNL d   1      21.276 -18.631   0.288  0.00  0.00    -0.166 F 
ATOM     37  F   UNL d   1      21.137 -17.103  -1.242  0.00  0.00    -0.166 F 
ENDBRANCH  32  34
ENDBRANCH  26  28
ENDBRANCH  25  26
ENDBRANCH   1  20
TORSDOF 9
ENDMDL
MODEL 2
REMARK VINA RESULT:    -7.354      1.444      2.020
REMARK INTER + INTRA:         -12.974
REMARK INTER:                 -10.039
REMARK INTRA:                  -2.935
REMARK CONF_INDEPENDENT:        2.685
REMARK UNBOUND:                -2.935
REMARK  9 active torsions:
REMARK  status: ('A' for Active; 'I' for Inactive)
REMARK    1  A    between atoms: C_2  and  C_3 
REMARK       I    between atoms: C_2  and  N_24 
REMARK    2  A    between atoms: C_3  and  O_4 
REMARK    3  A    between atoms: O_4  and  C_5 
REMARK    4  A    between atoms: C_5  and  C_7 
REMARK    5  A    between atoms: C_12  and  N_13 
REMARK    6  A    between atoms: N_13  and  C_14 
REMARK    7  A    between atoms: C_18  and  C_19 
REMARK    8  A    between atoms: N_24  and  N_25 
REMARK       I    between atoms: N_25  and  C_26 
REMARK    9  A    between atoms: C_26  and  C_28 
ROOT
ATOM      1  C   UNL d   1      27.339 -12.449  -1.444  0.00  0.00     0.297 C 
ATOM      2  O   UNL d   1      26.909 -11.974  -0.395  0.00  0.00    -0.259 OA
ENDROOT
BRANCH   1   3
ATOM      3  O   UNL d   1      28.660 -12.522  -1.766  0.00  0.00    -0.308 OA
BRANCH   3   4
ATOM      4  C   UNL d   1      29.432 -13.433  -0.950  0.00  0.00     0.283 C 
BRANCH   4   5
ATOM      5  C   UNL d   1      29.000 -14.905  -1.075  0.00  0.00     0.260 C 
ATOM      6  O   UNL d   1      28.921 -15.456  -2.176  0.00  0.00    -0.269 OA
ATOM      7  N   UNL d   1      28.694 -15.630   0.066  0.00  0.00    -0.265 N 
ATOM      8  H   UNL d   1      28.418 -16.605  -0.063  0.00  0.00     0.190 HD
BRANCH   7   9
ATOM      9  N   UNL d   1      28.834 -15.200   1.404  0.00  0.00    -0.263 N 
ATOM     10  C   UNL d   1      27.859 -14.372   1.959  0.00  0.00     0.273 C 
ATOM     11  O   UNL d   1      26.861 -13.994   1.351  0.00  0.00    -0.266 OA
ATOM     12  H   UNL d   1      29.591 -15.564   1.967  0.00  0.00     0.190 HD
BRANCH  10  13
ATOM     13  C   UNL d   1      28.067 -13.925   3.369  0.00  0.00     0.072 A 
ATOM     14  C   UNL d   1      28.488 -14.833   4.355  0.00  0.00     0.020 A 
ATOM     15  C   UNL d   1      28.522 -14.448   5.706  0.00  0.00     0.001 A 
ATOM     16  C   UNL d   1      28.193 -13.144   6.073  0.00  0.00     0.003 A 
ATOM     17  C   UNL d   1      27.789 -12.236   5.095  0.00  0.00     0.043 A 
ATOM     18  C   UNL d   1      27.724 -12.631   3.757  0.00  0.00     0.132 A 
ATOM     19  F   UNL d   1      27.310 -11.735   2.850  0.00  0.00    -0.205 F 
ENDBRANCH  10  13
ENDBRANCH   7   9
ENDBRANCH   4   5
ENDBRANCH   3   4
ENDBRANCH   1   3
BRANCH   1  20
ATOM     20  C   UNL d   1      26.461 -13.026  -2.498  0.00  0.00     0.085 A 
ATOM     21  C   UNL d   1      26.516 -12.414  -3.751  0.00  0.00     0.023 A 
ATOM     22  C   UNL d   1      25.914 -13.022  -4.847  0.00  0.00     0.020 A 
ATOM     23  C   UNL d   1      25.249 -14.218  -4.646  0.00  0.00     0.119 A 
ATOM     24  N   UNL d   1      25.132 -14.818  -3.437  0.00  0.00    -0.242 NA
ATOM     25  C   UNL d   1      25.736 -14.232  -2.364  0.00  0.00     0.144 A 
BRANCH  25  26
ATOM     26  N   UNL d   1      25.581 -14.926  -1.156  0.00  0.00    -0.340 N 
ATOM     27  H   UNL d   1      25.898 -14.413  -0.341  0.00  0.00     0.167 HD
BRANCH  26  28
ATOM     28  C   UNL d   1      25.203 -16.261  -0.984  0.00  0.00     0.034 A 
ATOM     29  C   UNL d   1      26.114 -17.200  -0.496  0.00  0.00     0.029 A 
ATOM     30  C   UNL d   1      25.668 -18.459  -0.086  0.00  0.00     0.003 A 
ATOM     31  C   UNL d   1      24.309 -18.780  -0.145  0.00  0.00     0.016 A 
ATOM     32  C   UNL d   1      23.393 -17.878  -0.706  0.00  0.00     0.050 A 
ATOM     33  C   UNL d   1      23.859 -16.627  -1.129  0.00  0.00     0.045 A 
BRANCH  32  34
ATOM     34  C   UNL d   1      21.920 -18.200  -0.794  0.00  0.00     0.417 C 
ATOM     35  F   UNL d   1      21.664 -19.225  -1.643  0.00  0.00    -0.166 F 
ATOM     36  F   UNL d   1      21.384 -18.586   0.398  0.00  0.00    -0.166 F 
ATOM     37  F   UNL d   1      21.163 -17.147  -1.209  0.00  0.00    -0.166 F 
ENDBRANCH  32  34
ENDBRANCH  26  28
ENDBRANCH  25  26
ENDBRANCH   1  20
TORSDOF 9
ENDMDL
MODEL 3
REMARK VINA RESULT:    -7.349      3.200      5.486
REMARK INTER + INTRA:         -13.093
REMARK INTER:                 -10.033
REMARK INTRA:                  -3.060
REMARK CONF_INDEPENDENT:        2.685
REMARK UNBOUND:                -3.060
REMARK  9 active torsions:
REMARK  status: ('A' for Active; 'I' for Inactive)
REMARK    1  A    between atoms: C_2  and  C_3 
REMARK       I    between atoms: C_2  and  N_24 
REMARK    2  A    between atoms: C_3  and  O_4 
REMARK    3  A    between atoms: O_4  and  C_5 
REMARK    4  A    between atoms: C_5  and  C_7 
REMARK    5  A    between atoms: C_12  and  N_13 
REMARK    6  A    between atoms: N_13  and  C_14 
REMARK    7  A    between atoms: C_18  and  C_19 
REMARK    8  A    between atoms: N_24  and  N_25 
REMARK       I    between atoms: N_25  and  C_26 
REMARK    9  A    between atoms: C_26  and  C_28 
ROOT
ATOM      1  C   UNL d   1      26.750 -17.952   0.411  0.00  0.00     0.297 C 
ATOM      2  O   UNL d   1      27.008 -19.004   0.994  0.00  0.00    -0.259 OA
ENDROOT
BRANCH   1   3
ATOM      3  O   UNL d   1      27.652 -16.953   0.202  0.00  0.00    -0.308 OA
BRANCH   3   4
ATOM      4  C   UNL d   1      28.419 -17.078  -1.018  0.00  0.00     0.283 C 
BRANCH   4   5
ATOM      5  C   UNL d   1      29.187 -15.802  -1.408  0.00  0.00     0.260 C 
ATOM      6  O   UNL d   1      29.407 -15.525  -2.591  0.00  0.00    -0.269 OA
ATOM      7  N   UNL d   1      29.641 -14.945  -0.419  0.00  0.00    -0.265 N 
ATOM      8  H   UNL d   1      30.140 -14.107  -0.723  0.00  0.00     0.190 HD
BRANCH   7   9
ATOM      9  N   UNL d   1      29.388 -15.043   0.967  0.00  0.00    -0.263 N 
ATOM     10  C   UNL d   1      29.292 -13.878   1.726  0.00  0.00     0.273 C 
ATOM     11  O   UNL d   1      29.407 -12.749   1.256  0.00  0.00    -0.266 OA
ATOM     12  H   UNL d   1      29.195 -15.949   1.375  0.00  0.00     0.190 HD
BRANCH  10  13
ATOM     13  C   UNL d   1      29.049 -14.037   3.191  0.00  0.00     0.072 A 
ATOM     14  C   UNL d   1      30.083 -14.450   4.049  0.00  0.00     0.020 A 
ATOM     15  C   UNL d   1      29.809 -14.756   5.393  0.00  0.00     0.001 A 
ATOM     16  C   UNL d   1      28.520 -14.600   5.901  0.00  0.00     0.003 A 
ATOM     17  C   UNL d   1      27.495 -14.175   5.056  0.00  0.00     0.043 A 
ATOM     18  C   UNL d   1      27.763 -13.902   3.713  0.00  0.00     0.132 A 
ATOM     19  F   UNL d   1      26.747 -13.519   2.928  0.00  0.00    -0.205 F 
ENDBRANCH  10  13
ENDBRANCH   7   9
ENDBRANCH   4   5
ENDBRANCH   3   4
ENDBRANCH   1   3
BRANCH   1  20
ATOM     20  C   UNL d   1      25.412 -17.644  -0.161  0.00  0.00     0.085 A 
ATOM     21  C   UNL d   1      24.403 -18.575   0.093  0.00  0.00     0.023 A 
ATOM     22  C   UNL d   1      23.081 -18.261  -0.198  0.00  0.00     0.020 A 
ATOM     23  C   UNL d   1      22.812 -17.028  -0.764  0.00  0.00     0.119 A 
ATOM     24  N   UNL d   1      23.768 -16.118  -1.069  0.00  0.00    -0.242 NA
ATOM     25  C   UNL d   1      25.064 -16.417  -0.769  0.00  0.00     0.144 A 
BRANCH  25  26
ATOM     26  N   UNL d   1      25.987 -15.416  -1.102  0.00  0.00    -0.340 N 
ATOM     27  H   UNL d   1      26.583 -15.130  -0.334  0.00  0.00     0.167 HD
BRANCH  26  28
ATOM     28  C   UNL d   1      26.054 -14.683  -2.291  0.00  0.00     0.034 A 
ATOM     29  C   UNL d   1      25.707 -15.271  -3.509  0.00  0.00     0.029 A 
ATOM     30  C   UNL d   1      25.529 -14.475  -4.644  0.00  0.00     0.003 A 
ATOM     31  C   UNL d   1      25.679 -13.088  -4.564  0.00  0.00     0.016 A 
ATOM     32  C   UNL d   1      26.106 -12.490  -3.369  0.00  0.00     0.050 A 
ATOM     33  C   UNL d   1      26.297 -13.304  -2.245  0.00  0.00     0.045 A 
BRANCH  32  34
ATOM     34  C   UNL d   1      26.288 -10.996  -3.253  0.00  0.00     0.417 C 
ATOM     35  F   UNL d   1      26.692 -10.619  -2.016  0.00  0.00    -0.166 F 
ATOM     36  F   UNL d   1      27.236 -10.504  -4.099  0.00  0.00    -0.166 F 
ATOM     37  F   UNL d   1      25.155 -10.293  -3.528  0.00  0.00    -0.166 F 
ENDBRANCH  32  34
ENDBRANCH  26  28
ENDBRANCH  25  26
ENDBRANCH   1  20
TORSDOF 9
ENDMDL
MODEL 4
REMARK VINA RESULT:    -7.275      4.901      7.072
REMARK INTER + INTRA:         -13.315
REMARK INTER:                  -9.959
REMARK INTRA:                  -3.356
REMARK CONF_INDEPENDENT:        2.685
REMARK UNBOUND:                -3.356
REMARK  9 active torsions:
REMARK  status: ('A' for Active; 'I' for Inactive)
REMARK    1  A    between atoms: C_2  and  C_3 
REMARK       I    between atoms: C_2  and  N_24 
REMARK    2  A    between atoms: C_3  and  O_4 
REMARK    3  A    between atoms: O_4  and  C_5 
REMARK    4  A    between atoms: C_5  and  C_7 
REMARK    5  A    between atoms: C_12  and  N_13 
REMARK    6  A    between atoms: N_13  and  C_14 
REMARK    7  A    between atoms: C_18  and  C_19 
REMARK    8  A    between atoms: N_24  and  N_25 
REMARK       I    between atoms: N_25  and  C_26 
REMARK    9  A    between atoms: C_26  and  C_28 
ROOT
ATOM      1  C   UNL d   1      25.906 -13.360  -4.646  0.00  0.00     0.297 C 
ATOM      2  O   UNL d   1      25.154 -14.262  -5.012  0.00  0.00    -0.259 OA
ENDROOT
BRANCH   1   3
ATOM      3  O   UNL d   1      26.327 -12.342  -5.447  0.00  0.00    -0.308 OA
BRANCH   3   4
ATOM      4  C   UNL d   1      27.748 -12.332  -5.715  0.00  0.00     0.283 C 
BRANCH   4   5
ATOM      5  C   UNL d   1      28.132 -12.932  -7.080  0.00  0.00     0.260 C 
ATOM      6  O   UNL d   1      27.780 -12.395  -8.135  0.00  0.00    -0.269 OA
ATOM      7  N   UNL d   1      28.885 -14.093  -7.133  0.00  0.00    -0.265 N 
ATOM      8  H   UNL d   1      29.122 -14.452  -8.059  0.00  0.00     0.190 HD
BRANCH   7   9
ATOM      9  N   UNL d   1      29.463 -14.776  -6.040  0.00  0.00    -0.263 N 
ATOM     10  C   UNL d   1      28.643 -15.511  -5.185  0.00  0.00     0.273 C 
ATOM     11  O   UNL d   1      27.427 -15.612  -5.329  0.00  0.00    -0.266 OA
ATOM     12  H   UNL d   1      30.470 -14.794  -5.940  0.00  0.00     0.190 HD
BRANCH  10  13
ATOM     13  C   UNL d   1      29.299 -16.193  -4.030  0.00  0.00     0.072 A 
ATOM     14  C   UNL d   1      29.303 -15.603  -2.755  0.00  0.00     0.020 A 
ATOM     15  C   UNL d   1      30.061 -16.166  -1.714  0.00  0.00     0.001 A 
ATOM     16  C   UNL d   1      30.771 -17.348  -1.923  0.00  0.00     0.003 A 
ATOM     17  C   UNL d   1      30.758 -17.945  -3.183  0.00  0.00     0.043 A 
ATOM     18  C   UNL d   1      30.030 -17.365  -4.224  0.00  0.00     0.132 A 
ATOM     19  F   UNL d   1      30.061 -17.957  -5.427  0.00  0.00    -0.205 F 
ENDBRANCH  10  13
ENDBRANCH   7   9
ENDBRANCH   4   5
ENDBRANCH   3   4
ENDBRANCH   1   3
BRANCH   1  20
ATOM     20  C   UNL d   1      26.442 -13.257  -3.261  0.00  0.00     0.085 A 
ATOM     21  C   UNL d   1      26.799 -11.977  -2.831  0.00  0.00     0.023 A 
ATOM     22  C   UNL d   1      27.084 -11.751  -1.490  0.00  0.00     0.020 A 
ATOM     23  C   UNL d   1      27.030 -12.826  -0.621  0.00  0.00     0.119 A 
ATOM     24  N   UNL d   1      26.735 -14.090  -1.008  0.00  0.00    -0.242 NA
ATOM     25  C   UNL d   1      26.438 -14.311  -2.320  0.00  0.00     0.144 A 
BRANCH  25  26
ATOM     26  N   UNL d   1      26.128 -15.642  -2.633  0.00  0.00    -0.340 N 
ATOM     27  H   UNL d   1      26.074 -15.832  -3.627  0.00  0.00     0.167 HD
BRANCH  26  28
ATOM     28  C   UNL d   1      25.738 -16.654  -1.751  0.00  0.00     0.034 A 
ATOM     29  C   UNL d   1      26.630 -17.148  -0.797  0.00  0.00     0.029 A 
ATOM     30  C   UNL d   1      26.165 -17.965   0.238  0.00  0.00     0.003 A 
ATOM     31  C   UNL d   1      24.806 -18.277   0.334  0.00  0.00     0.016 A 
ATOM     32  C   UNL d   1      23.911 -17.856  -0.660  0.00  0.00     0.050 A 
ATOM     33  C   UNL d   1      24.396 -17.053  -1.700  0.00  0.00     0.045 A 
BRANCH  32  34
ATOM     34  C   UNL d   1      22.440 -18.187  -0.591  0.00  0.00     0.417 C 
ATOM     35  F   UNL d   1      22.055 -18.573   0.650  0.00  0.00    -0.166 F 
ATOM     36  F   UNL d   1      21.638 -17.128  -0.895  0.00  0.00    -0.166 F 
ATOM     37  F   UNL d   1      22.070 -19.180  -1.444  0.00  0.00    -0.166 F 
ENDBRANCH  32  34
ENDBRANCH  26  28
ENDBRANCH  25  26
ENDBRANCH   1  20
TORSDOF 9
ENDMDL
MODEL 5
REMARK VINA RESULT:    -7.215      5.392      8.893
REMARK INTER + INTRA:         -13.093
REMARK INTER:                  -9.899
REMARK INTRA:                  -3.194
REMARK CONF_INDEPENDENT:        2.685
REMARK UNBOUND:                -3.194
REMARK  9 active torsions:
REMARK  status: ('A' for Active; 'I' for Inactive)
REMARK    1  A    between atoms: C_2  and  C_3 
REMARK       I    between atoms: C_2  and  N_24 
REMARK    2  A    between atoms: C_3  and  O_4 
REMARK    3  A    between atoms: O_4  and  C_5 
REMARK    4  A    between atoms: C_5  and  C_7 
REMARK    5  A    between atoms: C_12  and  N_13 
REMARK    6  A    between atoms: N_13  and  C_14 
REMARK    7  A    between atoms: C_18  and  C_19 
REMARK    8  A    between atoms: N_24  and  N_25 
REMARK       I    between atoms: N_25  and  C_26 
REMARK    9  A    between atoms: C_26  and  C_28 
ROOT
ATOM      1  C   UNL d   1      28.021 -15.290  -5.074  0.00  0.00     0.297 C 
ATOM      2  O   UNL d   1      28.733 -16.160  -4.575  0.00  0.00    -0.259 OA
ENDROOT
BRANCH   1   3
ATOM      3  O   UNL d   1      28.189 -14.791  -6.330  0.00  0.00    -0.308 OA
BRANCH   3   4
ATOM      4  C   UNL d   1      28.912 -13.539  -6.390  0.00  0.00     0.283 C 
BRANCH   4   5
ATOM      5  C   UNL d   1      30.089 -13.543  -7.381  0.00  0.00     0.260 C 
ATOM      6  O   UNL d   1      30.449 -12.507  -7.949  0.00  0.00    -0.269 OA
ATOM      7  N   UNL d   1      30.761 -14.725  -7.645  0.00  0.00    -0.265 N 
ATOM      8  H   UNL d   1      31.540 -14.681  -8.304  0.00  0.00     0.190 HD
BRANCH   7   9
ATOM      9  N   UNL d   1      30.560 -15.971  -7.011  0.00  0.00    -0.263 N 
ATOM     10  C   UNL d   1      31.289 -17.080  -7.441  0.00  0.00     0.273 C 
ATOM     11  O   UNL d   1      32.118 -17.038  -8.346  0.00  0.00    -0.266 OA
ATOM     12  H   UNL d   1      29.955 -16.027  -6.202  0.00  0.00     0.190 HD
BRANCH  10  13
ATOM     13  C   UNL d   1      31.021 -18.379  -6.755  0.00  0.00     0.072 A 
ATOM     14  C   UNL d   1      30.638 -18.412  -5.404  0.00  0.00     0.020 A 
ATOM     15  C   UNL d   1      30.548 -19.637  -4.721  0.00  0.00     0.001 A 
ATOM     16  C   UNL d   1      30.784 -20.835  -5.395  0.00  0.00     0.003 A 
ATOM     17  C   UNL d   1      31.148 -20.807  -6.740  0.00  0.00     0.043 A 
ATOM     18  C   UNL d   1      31.268 -19.586  -7.408  0.00  0.00     0.132 A 
ATOM     19  F   UNL d   1      31.644 -19.600  -8.694  0.00  0.00    -0.205 F 
ENDBRANCH  10  13
ENDBRANCH   7   9
ENDBRANCH   4   5
ENDBRANCH   3   4
ENDBRANCH   1   3
BRANCH   1  20
ATOM     20  C   UNL d   1      26.861 -14.682  -4.367  0.00  0.00     0.085 A 
ATOM     21  C   UNL d   1      26.228 -13.622  -5.019  0.00  0.00     0.023 A 
ATOM     22  C   UNL d   1      25.008 -13.150  -4.550  0.00  0.00     0.020 A 
ATOM     23  C   UNL d   1      24.470 -13.739  -3.421  0.00  0.00     0.119 A 
ATOM     24  N   UNL d   1      25.077 -14.736  -2.733  0.00  0.00    -0.242 NA
ATOM     25  C   UNL d   1      26.266 -15.212  -3.200  0.00  0.00     0.144 A 
BRANCH  25  26
ATOM     26  N   UNL d   1      26.818 -16.253  -2.440  0.00  0.00    -0.340 N 
ATOM     27  H   UNL d   1      27.763 -16.505  -2.708  0.00  0.00     0.167 HD
BRANCH  26  28
ATOM     28  C   UNL d   1      26.167 -17.058  -1.501  0.00  0.00     0.034 A 
ATOM     29  C   UNL d   1      26.845 -17.527  -0.375  0.00  0.00     0.029 A 
ATOM     30  C   UNL d   1      26.133 -18.108   0.679  0.00  0.00     0.003 A 
ATOM     31  C   UNL d   1      24.741 -18.206   0.620  0.00  0.00     0.016 A 
ATOM     32  C   UNL d   1      24.052 -17.813  -0.537  0.00  0.00     0.050 A 
ATOM     33  C   UNL d   1      24.782 -17.250  -1.591  0.00  0.00     0.045 A 
BRANCH  32  34
ATOM     34  C   UNL d   1      22.549 -17.917  -0.636  0.00  0.00     0.417 C 
ATOM     35  F   UNL d   1      21.964 -16.720  -0.884  0.00  0.00    -0.166 F 
ATOM     36  F   UNL d   1      22.133 -18.729  -1.648  0.00  0.00    -0.166 F 
ATOM     37  F   UNL d   1      21.968 -18.413   0.490  0.00  0.00    -0.166 F 
ENDBRANCH  32  34
ENDBRANCH  26  28
ENDBRANCH  25  26
ENDBRANCH   1  20
TORSDOF 9
ENDMDL
MODEL 6
REMARK VINA RESULT:    -7.125      3.409      5.539
REMARK INTER + INTRA:         -13.341
REMARK INTER:                  -9.810
REMARK INTRA:                  -3.531
REMARK CONF_INDEPENDENT:        2.685
REMARK UNBOUND:                -3.531
REMARK  9 active torsions:
REMARK  status: ('A' for Active; 'I' for Inactive)
REMARK    1  A    between atoms: C_2  and  C_3 
REMARK       I    between atoms: C_2  and  N_24 
REMARK    2  A    between atoms: C_3  and  O_4 
REMARK    3  A    between atoms: O_4  and  C_5 
REMARK    4  A    between atoms: C_5  and  C_7 
REMARK    5  A    between atoms: C_12  and  N_13 
REMARK    6  A    between atoms: N_13  and  C_14 
REMARK    7  A    between atoms: C_18  and  C_19 
REMARK    8  A    between atoms: N_24  and  N_25 
REMARK       I    between atoms: N_25  and  C_26 
REMARK    9  A    between atoms: C_26  and  C_28 
ROOT
ATOM      1  C   UNL d   1      27.118 -17.586   0.296  0.00  0.00     0.297 C 
ATOM      2  O   UNL d   1      27.384 -17.073   1.381  0.00  0.00    -0.259 OA
ENDROOT
BRANCH   1   3
ATOM      3  O   UNL d   1      28.039 -18.172  -0.519  0.00  0.00    -0.308 OA
BRANCH   3   4
ATOM      4  C   UNL d   1      29.296 -17.464  -0.616  0.00  0.00     0.283 C 
BRANCH   4   5
ATOM      5  C   UNL d   1      29.168 -16.030  -1.160  0.00  0.00     0.260 C 
ATOM      6  O   UNL d   1      29.077 -15.812  -2.372  0.00  0.00    -0.269 OA
ATOM      7  N   UNL d   1      29.153 -14.961  -0.279  0.00  0.00    -0.265 N 
ATOM      8  H   UNL d   1      29.059 -14.027  -0.683  0.00  0.00     0.190 HD
BRANCH   7   9
ATOM      9  N   UNL d   1      29.136 -15.028   1.131  0.00  0.00    -0.263 N 
ATOM     10  C   UNL d   1      28.911 -13.864   1.866  0.00  0.00     0.273 C 
ATOM     11  O   UNL d   1      28.712 -12.765   1.354  0.00  0.00    -0.266 OA
ATOM     12  H   UNL d   1      29.202 -15.928   1.588  0.00  0.00     0.190 HD
BRANCH  10  13
ATOM     13  C   UNL d   1      28.928 -13.984   3.354  0.00  0.00     0.072 A 
ATOM     14  C   UNL d   1      30.073 -14.448   4.024  0.00  0.00     0.020 A 
ATOM     15  C   UNL d   1      30.030 -14.715   5.403  0.00  0.00     0.001 A 
ATOM     16  C   UNL d   1      28.866 -14.467   6.129  0.00  0.00     0.003 A 
ATOM     17  C   UNL d   1      27.732 -13.992   5.472  0.00  0.00     0.043 A 
ATOM     18  C   UNL d   1      27.768 -13.758   4.095  0.00  0.00     0.132 A 
ATOM     19  F   UNL d   1      26.651 -13.323   3.495  0.00  0.00    -0.205 F 
ENDBRANCH  10  13
ENDBRANCH   7   9
ENDBRANCH   4   5
ENDBRANCH   3   4
ENDBRANCH   1   3
BRANCH   1  20
ATOM     20  C   UNL d   1      25.739 -17.648  -0.261  0.00  0.00     0.085 A 
ATOM     21  C   UNL d   1      24.762 -18.200   0.570  0.00  0.00     0.023 A 
ATOM     22  C   UNL d   1      23.419 -18.087   0.230  0.00  0.00     0.020 A 
ATOM     23  C   UNL d   1      23.096 -17.445  -0.952  0.00  0.00     0.119 A 
ATOM     24  N   UNL d   1      24.017 -16.940  -1.807  0.00  0.00    -0.242 NA
ATOM     25  C   UNL d   1      25.335 -17.035  -1.469  0.00  0.00     0.144 A 
BRANCH  25  26
ATOM     26  N   UNL d   1      26.220 -16.473  -2.399  0.00  0.00    -0.340 N 
ATOM     27  H   UNL d   1      27.167 -16.829  -2.337  0.00  0.00     0.167 HD
BRANCH  26  28
ATOM     28  C   UNL d   1      25.979 -15.398  -3.259  0.00  0.00     0.034 A 
ATOM     29  C   UNL d   1      24.967 -14.477  -2.981  0.00  0.00     0.029 A 
ATOM     30  C   UNL d   1      24.898 -13.276  -3.693  0.00  0.00     0.003 A 
ATOM     31  C   UNL d   1      25.851 -12.981  -4.672  0.00  0.00     0.016 A 
ATOM     32  C   UNL d   1      26.825 -13.929  -5.020  0.00  0.00     0.050 A 
ATOM     33  C   UNL d   1      26.869 -15.134  -4.309  0.00  0.00     0.045 A 
BRANCH  32  34
ATOM     34  C   UNL d   1      27.861 -13.644  -6.081  0.00  0.00     0.417 C 
ATOM     35  F   UNL d   1      27.473 -12.663  -6.931  0.00  0.00    -0.166 F 
ATOM     36  F   UNL d   1      29.050 -13.219  -5.570  0.00  0.00    -0.166 F 
ATOM     37  F   UNL d   1      28.160 -14.730  -6.845  0.00  0.00    -0.166 F 
ENDBRANCH  32  34
ENDBRANCH  26  28
ENDBRANCH  25  26
ENDBRANCH   1  20
TORSDOF 9
ENDMDL
MODEL 7
REMARK VINA RESULT:    -6.324      3.995      5.553
REMARK INTER + INTRA:         -12.987
REMARK INTER:                  -9.009
REMARK INTRA:                  -3.978
REMARK CONF_INDEPENDENT:        2.685
REMARK UNBOUND:                -3.978
REMARK  9 active torsions:
REMARK  status: ('A' for Active; 'I' for Inactive)
REMARK    1  A    between atoms: C_2  and  C_3 
REMARK       I    between atoms: C_2  and  N_24 
REMARK    2  A    between atoms: C_3  and  O_4 
REMARK    3  A    between atoms: O_4  and  C_5 
REMARK    4  A    between atoms: C_5  and  C_7 
REMARK    5  A    between atoms: C_12  and  N_13 
REMARK    6  A    between atoms: N_13  and  C_14 
REMARK    7  A    between atoms: C_18  and  C_19 
REMARK    8  A    between atoms: N_24  and  N_25 
REMARK       I    between atoms: N_25  and  C_26 
REMARK    9  A    between atoms: C_26  and  C_28 
ROOT
ATOM      1  C   UNL d   1      26.713 -14.525  -5.190  0.00  0.00     0.297 C 
ATOM      2  O   UNL d   1      25.497 -14.525  -5.006  0.00  0.00    -0.259 OA
ENDROOT
BRANCH   1   3
ATOM      3  O   UNL d   1      27.341 -13.785  -6.146  0.00  0.00    -0.308 OA
BRANCH   3   4
ATOM      4  C   UNL d   1      27.368 -12.362  -5.888  0.00  0.00     0.283 C 
BRANCH   4   5
ATOM      5  C   UNL d   1      26.005 -11.773  -5.485  0.00  0.00     0.260 C 
ATOM      6  O   UNL d   1      25.173 -11.445  -6.337  0.00  0.00    -0.269 OA
ATOM      7  N   UNL d   1      25.699 -11.604  -4.145  0.00  0.00    -0.265 N 
ATOM      8  H   UNL d   1      24.780 -11.215  -3.922  0.00  0.00     0.190 HD
BRANCH   7   9
ATOM      9  N   UNL d   1      26.476 -12.021  -3.041  0.00  0.00    -0.263 N 
ATOM     10  C   UNL d   1      26.025 -13.078  -2.251  0.00  0.00     0.273 C 
ATOM     11  O   UNL d   1      24.981 -13.688  -2.464  0.00  0.00    -0.266 OA
ATOM     12  H   UNL d   1      27.386 -11.606  -2.888  0.00  0.00     0.190 HD
BRANCH  10  13
ATOM     13  C   UNL d   1      26.870 -13.462  -1.082  0.00  0.00     0.072 A 
ATOM     14  C   UNL d   1      26.280 -13.842   0.136  0.00  0.00     0.020 A 
ATOM     15  C   UNL d   1      27.075 -14.043   1.278  0.00  0.00     0.001 A 
ATOM     16  C   UNL d   1      28.461 -13.921   1.198  0.00  0.00     0.003 A 
ATOM     17  C   UNL d   1      29.052 -13.559  -0.012  0.00  0.00     0.043 A 
ATOM     18  C   UNL d   1      28.257 -13.329  -1.137  0.00  0.00     0.132 A 
ATOM     19  F   UNL d   1      28.860 -12.961  -2.276  0.00  0.00    -0.205 F 
ENDBRANCH  10  13
ENDBRANCH   7   9
ENDBRANCH   4   5
ENDBRANCH   3   4
ENDBRANCH   1   3
BRANCH   1  20
ATOM     20  C   UNL d   1      27.662 -15.326  -4.370  0.00  0.00     0.085 A 
ATOM     21  C   UNL d   1      28.999 -15.299  -4.772  0.00  0.00     0.023 A 
ATOM     22  C   UNL d   1      29.983 -15.821  -3.941  0.00  0.00     0.020 A 
ATOM     23  C   UNL d   1      29.592 -16.382  -2.739  0.00  0.00     0.119 A 
ATOM     24  N   UNL d   1      28.301 -16.470  -2.336  0.00  0.00    -0.242 NA
ATOM     25  C   UNL d   1      27.336 -15.943  -3.142  0.00  0.00     0.144 A 
BRANCH  25  26
ATOM     26  N   UNL d   1      26.031 -16.061  -2.644  0.00  0.00    -0.340 N 
ATOM     27  H   UNL d   1      25.392 -15.351  -2.983  0.00  0.00     0.167 HD
BRANCH  26  28
ATOM     28  C   UNL d   1      25.578 -16.923  -1.640  0.00  0.00     0.034 A 
ATOM     29  C   UNL d   1      26.394 -17.237  -0.552  0.00  0.00     0.029 A 
ATOM     30  C   UNL d   1      25.853 -17.883   0.564  0.00  0.00     0.003 A 
ATOM     31  C   UNL d   1      24.493 -18.200   0.605  0.00  0.00     0.016 A 
ATOM     32  C   UNL d   1      23.677 -17.964  -0.511  0.00  0.00     0.050 A 
ATOM     33  C   UNL d   1      24.238 -17.333  -1.628  0.00  0.00     0.045 A 
BRANCH  32  34
ATOM     34  C   UNL d   1      22.206 -18.306  -0.502  0.00  0.00     0.417 C 
ATOM     35  F   UNL d   1      21.432 -17.266  -0.895  0.00  0.00    -0.166 F 
ATOM     36  F   UNL d   1      21.887 -19.324  -1.350  0.00  0.00    -0.166 F 
ATOM     37  F   UNL d   1      21.752 -18.696   0.720  0.00  0.00    -0.166 F 
ENDBRANCH  32  34
ENDBRANCH  26  28
ENDBRANCH  25  26
ENDBRANCH   1  20
TORSDOF 9
ENDMDL
MODEL 8
REMARK VINA RESULT:    -6.044      4.746      7.243
REMARK INTER + INTRA:         -12.817
REMARK INTER:                  -8.729
REMARK INTRA:                  -4.088
REMARK CONF_INDEPENDENT:        2.685
REMARK UNBOUND:                -4.088
REMARK  9 active torsions:
REMARK  status: ('A' for Active; 'I' for Inactive)
REMARK    1  A    between atoms: C_2  and  C_3 
REMARK       I    between atoms: C_2  and  N_24 
REMARK    2  A    between atoms: C_3  and  O_4 
REMARK    3  A    between atoms: O_4  and  C_5 
REMARK    4  A    between atoms: C_5  and  C_7 
REMARK    5  A    between atoms: C_12  and  N_13 
REMARK    6  A    between atoms: N_13  and  C_14 
REMARK    7  A    between atoms: C_18  and  C_19 
REMARK    8  A    between atoms: N_24  and  N_25 
REMARK       I    between atoms: N_25  and  C_26 
REMARK    9  A    between atoms: C_26  and  C_28 
ROOT
ATOM      1  C   UNL d   1      29.750 -14.180  -3.665  0.00  0.00     0.297 C 
ATOM      2  O   UNL d   1      30.497 -13.438  -4.300  0.00  0.00    -0.259 OA
ENDROOT
BRANCH   1   3
ATOM      3  O   UNL d   1      29.548 -15.494  -3.958  0.00  0.00    -0.308 OA
BRANCH   3   4
ATOM      4  C   UNL d   1      30.600 -16.109  -4.738  0.00  0.00     0.283 C 
BRANCH   4   5
ATOM      5  C   UNL d   1      30.262 -16.267  -6.231  0.00  0.00     0.260 C 
ATOM      6  O   UNL d   1      30.710 -17.210  -6.891  0.00  0.00    -0.269 OA
ATOM      7  N   UNL d   1      29.441 -15.339  -6.851  0.00  0.00    -0.265 N 
ATOM      8  H   UNL d   1      29.238 -15.486  -7.842  0.00  0.00     0.190 HD
BRANCH   7   9
ATOM      9  N   UNL d   1      28.756 -14.269  -6.234  0.00  0.00    -0.263 N 
ATOM     10  C   UNL d   1      27.483 -14.488  -5.709  0.00  0.00     0.273 C 
ATOM     11  O   UNL d   1      26.913 -15.575  -5.740  0.00  0.00    -0.266 OA
ATOM     12  H   UNL d   1      29.229 -13.384  -6.105  0.00  0.00     0.190 HD
BRANCH  10  13
ATOM     13  C   UNL d   1      26.792 -13.319  -5.090  0.00  0.00     0.072 A 
ATOM     14  C   UNL d   1      27.277 -12.014  -5.281  0.00  0.00     0.020 A 
ATOM     15  C   UNL d   1      26.723 -10.938  -4.565  0.00  0.00     0.001 A 
ATOM     16  C   UNL d   1      25.650 -11.149  -3.701  0.00  0.00     0.003 A 
ATOM     17  C   UNL d   1      25.155 -12.440  -3.520  0.00  0.00     0.043 A 
ATOM     18  C   UNL d   1      25.728 -13.512  -4.208  0.00  0.00     0.132 A 
ATOM     19  F   UNL d   1      25.240 -14.741  -3.990  0.00  0.00    -0.205 F 
ENDBRANCH  10  13
ENDBRANCH   7   9
ENDBRANCH   4   5
ENDBRANCH   3   4
ENDBRANCH   1   3
BRANCH   1  20
ATOM     20  C   UNL d   1      28.980 -13.735  -2.472  0.00  0.00     0.085 A 
ATOM     21  C   UNL d   1      29.333 -12.493  -1.939  0.00  0.00     0.023 A 
ATOM     22  C   UNL d   1      28.523 -11.896  -0.980  0.00  0.00     0.020 A 
ATOM     23  C   UNL d   1      27.394 -12.577  -0.563  0.00  0.00     0.119 A 
ATOM     24  N   UNL d   1      27.045 -13.804  -1.021  0.00  0.00    -0.242 NA
ATOM     25  C   UNL d   1      27.828 -14.384  -1.974  0.00  0.00     0.144 A 
BRANCH  25  26
ATOM     26  N   UNL d   1      27.388 -15.643  -2.405  0.00  0.00    -0.340 N 
ATOM     27  H   UNL d   1      27.444 -15.781  -3.408  0.00  0.00     0.167 HD
BRANCH  26  28
ATOM     28  C   UNL d   1      26.751 -16.628  -1.644  0.00  0.00     0.034 A 
ATOM     29  C   UNL d   1      27.463 -17.365  -0.696  0.00  0.00     0.029 A 
ATOM     30  C   UNL d   1      26.779 -18.157   0.232  0.00  0.00     0.003 A 
ATOM     31  C   UNL d   1      25.382 -18.200   0.228  0.00  0.00     0.016 A 
ATOM     32  C   UNL d   1      24.656 -17.530  -0.767  0.00  0.00     0.050 A 
ATOM     33  C   UNL d   1      25.357 -16.755  -1.700  0.00  0.00     0.045 A 
BRANCH  32  34
ATOM     34  C   UNL d   1      23.147 -17.566  -0.804  0.00  0.00     0.417 C 
ATOM     35  F   UNL d   1      22.613 -16.407  -1.259  0.00  0.00    -0.166 F 
ATOM     36  F   UNL d   1      22.654 -18.530  -1.632  0.00  0.00    -0.166 F 
ATOM     37  F   UNL d   1      22.584 -17.809   0.411  0.00  0.00    -0.166 F 
ENDBRANCH  32  34
ENDBRANCH  26  28
ENDBRANCH  25  26
ENDBRANCH   1  20
TORSDOF 9
ENDMDL
MODEL 9
REMARK VINA RESULT:    -6.032      3.760      4.807
REMARK INTER + INTRA:         -12.941
REMARK INTER:                  -8.716
REMARK INTRA:                  -4.225
REMARK CONF_INDEPENDENT:        2.685
REMARK UNBOUND:                -4.225
REMARK  9 active torsions:
REMARK  status: ('A' for Active; 'I' for Inactive)
REMARK    1  A    between atoms: C_2  and  C_3 
REMARK       I    between atoms: C_2  and  N_24 
REMARK    2  A    between atoms: C_3  and  O_4 
REMARK    3  A    between atoms: O_4  and  C_5 
REMARK    4  A    between atoms: C_5  and  C_7 
REMARK    5  A    between atoms: C_12  and  N_13 
REMARK    6  A    between atoms: N_13  and  C_14 
REMARK    7  A    between atoms: C_18  and  C_19 
REMARK    8  A    between atoms: N_24  and  N_25 
REMARK       I    between atoms: N_25  and  C_26 
REMARK    9  A    between atoms: C_26  and  C_28 
ROOT
ATOM      1  C   UNL d   1      28.093 -15.202  -5.159  0.00  0.00     0.297 C 
ATOM      2  O   UNL d   1      28.147 -15.273  -6.386  0.00  0.00    -0.259 OA
ENDROOT
BRANCH   1   3
ATOM      3  O   UNL d   1      29.079 -15.631  -4.324  0.00  0.00    -0.308 OA
BRANCH   3   4
ATOM      4  C   UNL d   1      29.754 -16.836  -4.755  0.00  0.00     0.283 C 
BRANCH   4   5
ATOM      5  C   UNL d   1      30.671 -17.457  -3.686  0.00  0.00     0.260 C 
ATOM      6  O   UNL d   1      31.568 -18.246  -3.994  0.00  0.00    -0.269 OA
ATOM      7  N   UNL d   1      30.491 -17.128  -2.352  0.00  0.00    -0.265 N 
ATOM      8  H   UNL d   1      31.125 -17.558  -1.677  0.00  0.00     0.190 HD
BRANCH   7   9
ATOM      9  N   UNL d   1      29.595 -16.168  -1.831  0.00  0.00    -0.263 N 
ATOM     10  C   UNL d   1      29.709 -15.783  -0.496  0.00  0.00     0.273 C 
ATOM     11  O   UNL d   1      30.562 -16.228   0.269  0.00  0.00    -0.266 OA
ATOM     12  H   UNL d   1      28.940 -15.710  -2.452  0.00  0.00     0.190 HD
BRANCH  10  13
ATOM     13  C   UNL d   1      28.723 -14.785   0.012  0.00  0.00     0.072 A 
ATOM     14  C   UNL d   1      28.187 -14.899   1.307  0.00  0.00     0.020 A 
ATOM     15  C   UNL d   1      27.141 -14.057   1.719  0.00  0.00     0.001 A 
ATOM     16  C   UNL d   1      26.662 -13.063   0.867  0.00  0.00     0.003 A 
ATOM     17  C   UNL d   1      27.201 -12.936  -0.413  0.00  0.00     0.043 A 
ATOM     18  C   UNL d   1      28.219 -13.795  -0.832  0.00  0.00     0.132 A 
ATOM     19  F   UNL d   1      28.696 -13.656  -2.077  0.00  0.00    -0.205 F 
ENDBRANCH  10  13
ENDBRANCH   7   9
ENDBRANCH   4   5
ENDBRANCH   3   4
ENDBRANCH   1   3
BRANCH   1  20
ATOM     20  C   UNL d   1      26.938 -14.614  -4.427  0.00  0.00     0.085 A 
ATOM     21  C   UNL d   1      26.339 -13.498  -5.015  0.00  0.00     0.023 A 
ATOM     22  C   UNL d   1      25.123 -13.029  -4.530  0.00  0.00     0.020 A 
ATOM     23  C   UNL d   1      24.557 -13.679  -3.449  0.00  0.00     0.119 A 
ATOM     24  N   UNL d   1      25.131 -14.734  -2.822  0.00  0.00    -0.242 NA
ATOM     25  C   UNL d   1      26.315 -15.207  -3.306  0.00  0.00     0.144 A 
BRANCH  25  26
ATOM     26  N   UNL d   1      26.832 -16.309  -2.611  0.00  0.00    -0.340 N 
ATOM     27  H   UNL d   1      27.725 -16.637  -2.961  0.00  0.00     0.167 HD
BRANCH  26  28
ATOM     28  C   UNL d   1      26.191 -17.074  -1.632  0.00  0.00     0.034 A 
ATOM     29  C   UNL d   1      26.892 -17.530  -0.514  0.00  0.00     0.029 A 
ATOM     30  C   UNL d   1      26.199 -18.066   0.575  0.00  0.00     0.003 A 
ATOM     31  C   UNL d   1      24.803 -18.133   0.559  0.00  0.00     0.016 A 
ATOM     32  C   UNL d   1      24.090 -17.754  -0.587  0.00  0.00     0.050 A 
ATOM     33  C   UNL d   1      24.800 -17.235  -1.676  0.00  0.00     0.045 A 
BRANCH  32  34
ATOM     34  C   UNL d   1      22.582 -17.825  -0.639  0.00  0.00     0.417 C 
ATOM     35  F   UNL d   1      22.016 -16.614  -0.859  0.00  0.00    -0.166 F 
ATOM     36  F   UNL d   1      22.117 -18.620  -1.643  0.00  0.00    -0.166 F 
ATOM     37  F   UNL d   1      22.027 -18.317   0.502  0.00  0.00    -0.166 F 
ENDBRANCH  32  34
ENDBRANCH  26  28
ENDBRANCH  25  26
ENDBRANCH   1  20
TORSDOF 9
ENDMDL
