MODEL 1
REMARK VINA RESULT:   -11.353      0.000      0.000
REMARK INTER + INTRA:         -16.960
REMARK INTER:                 -14.932
REMARK INTRA:                  -2.028
REMARK CONF_INDEPENDENT:        3.580
REMARK UNBOUND:                -2.028
REMARK  12 active torsions:
REMARK  status: ('A' for Active; 'I' for Inactive)
REMARK    1  A    between atoms: C_2  and  C_3 
REMARK    2  A    between atoms: C_3  and  C_4 
REMARK    3  A    between atoms: C_4  and  O_5 
REMARK    4  A    between atoms: O_5  and  C_6 
REMARK    5  A    between atoms: C_6  and  C_8 
REMARK    6  A    between atoms: C_11  and  N_12 
REMARK    7  A    between atoms: N_12  and  N_13 
REMARK    8  A    between atoms: N_13  and  C_14 
REMARK    9  A    between atoms: C_18  and  C_19 
REMARK   10  A    between atoms: C_19  and  C_20 
REMARK   11  A    between atoms: N_28  and  C_29 
REMARK   12  A    between atoms: C_29  and  C_30 
ROOT
ATOM      1  C   UNL d   1      28.854 -16.048  -1.888  0.00  0.00     0.720 A 
ATOM      2  N   UNL d   1      30.140 -16.292  -1.883  0.00  0.00    -0.068 NA
ATOM      3  C   UNL d   1      30.824 -16.425  -3.070  0.00  0.00     0.061 A 
ATOM      4  C   UNL d   1      32.284 -16.802  -2.954  0.00  0.00     0.072 C 
ATOM      5  C   UNL d   1      30.273 -16.283  -4.287  0.00  0.00     0.040 A 
ATOM      6  C   UNL d   1      28.820 -16.006  -4.298  0.00  0.00     0.270 A 
ATOM      7  O   UNL d   1      28.174 -15.928  -5.340  0.00  0.00    -0.267 OA
ATOM      8  N   UNL d   1      28.182 -15.835  -3.083  0.00  0.00    -0.140 N 
ENDROOT
BRANCH   1   9
ATOM      9  N   UNL d   1      28.239 -15.892  -0.644  0.00  0.00    -0.147 N 
ATOM     10  H   UNL d   1      28.770 -15.253  -0.059  0.00  0.00     0.200 HD
BRANCH   9  11
ATOM     11  N   UNL d   1      27.510 -16.873   0.077  0.00  0.00    -0.191 NA
ATOM     12  H   UNL d   1      28.027 -17.754   0.139  0.00  0.00     0.153 HD
BRANCH  11  13
ATOM     13  C   UNL d   1      26.131 -17.166  -0.246  0.00  0.00     0.028 A 
ATOM     14  C   UNL d   1      25.274 -16.204  -0.827  0.00  0.00     0.026 A 
ATOM     15  C   UNL d   1      23.875 -16.448  -0.965  0.00  0.00     0.019 A 
ATOM     16  C   UNL d   1      23.322 -17.702  -0.648  0.00  0.00     0.039 A 
ATOM     17  C   UNL d   1      24.180 -18.670  -0.131  0.00  0.00     0.019 A 
ATOM     18  C   UNL d   1      25.553 -18.406   0.062  0.00  0.00     0.026 A 
BRANCH  16  19
ATOM     19  C   UNL d   1      21.853 -17.984  -0.841  0.00  0.00     0.293 C 
ATOM     20  O   UNL d   1      21.031 -17.102  -0.901  0.00  0.00    -0.259 OA
BRANCH  19  21
ATOM     21  O   UNL d   1      21.588 -19.330  -0.986  0.00  0.00    -0.318 OA
BRANCH  21  22
ATOM     22  C   UNL d   1      20.207 -19.628  -1.314  0.00  0.00     0.179 C 
BRANCH  22  23
ATOM     23  C   UNL d   1      19.270 -19.409  -0.114  0.00  0.00     0.026 C 
BRANCH  23  24
ATOM     24  C   UNL d   1      19.531 -20.427   1.010  0.00  0.00    -0.002 C 
ATOM     25  C   UNL d   1      18.506 -21.554   1.008  0.00  0.00     0.005 C 
ENDBRANCH  23  24
ENDBRANCH  22  23
ENDBRANCH  21  22
ENDBRANCH  19  21
ENDBRANCH  16  19
ENDBRANCH  11  13
ENDBRANCH   9  11
ENDBRANCH   1   9
BRANCH   8  26
ATOM     26  C   UNL d   1      26.821 -15.352  -3.304  0.00  0.00     0.189 C 
BRANCH  26  27
ATOM     27  C   UNL d   1      26.580 -13.904  -3.525  0.00  0.00    -0.039 C 
ATOM     28  C   UNL d   1      26.901 -12.980  -2.527  0.00  0.00     0.010 C 
ATOM     29  C   UNL d   1      26.570 -11.645  -2.718  0.00  0.00     0.024 C 
ATOM     30  C   UNL d   1      26.005 -11.235  -3.932  0.00  0.00     0.034 C 
ATOM     31 CL   UNL d   1      25.529  -9.601  -4.175  0.00  0.00    -0.084 Cl
ATOM     32  C   UNL d   1      25.891 -12.125  -4.995  0.00  0.00     0.024 C 
ATOM     33  C   UNL d   1      26.088 -13.472  -4.766  0.00  0.00     0.010 C 
ENDBRANCH  26  27
ENDBRANCH   8  26
BRANCH   5  34
ATOM     34  C   UNL d   1      31.080 -16.415  -5.561  0.00  0.00     0.084 C 
BRANCH  34  35
ATOM     35  C   UNL d   1      30.924 -17.687  -6.349  0.00  0.00    -0.054 A 
ATOM     36  C   UNL d   1      31.200 -17.715  -7.720  0.00  0.00     0.007 A 
ATOM     37  C   UNL d   1      31.116 -18.918  -8.415  0.00  0.00     0.001 A 
ATOM     38  C   UNL d   1      30.879 -20.109  -7.727  0.00  0.00     0.000 A 
ATOM     39  C   UNL d   1      30.632 -20.093  -6.357  0.00  0.00     0.001 A 
ATOM     40  C   UNL d   1      30.595 -18.879  -5.682  0.00  0.00     0.007 A 
ENDBRANCH  34  35
ENDBRANCH   5  34
TORSDOF 12
ENDMDL
MODEL 2
REMARK VINA RESULT:   -11.057      6.096      8.412
REMARK INTER + INTRA:         -16.255
REMARK INTER:                 -14.637
REMARK INTRA:                  -1.619
REMARK CONF_INDEPENDENT:        3.580
REMARK UNBOUND:                -1.619
REMARK  12 active torsions:
REMARK  status: ('A' for Active; 'I' for Inactive)
REMARK    1  A    between atoms: C_2  and  C_3 
REMARK    2  A    between atoms: C_3  and  C_4 
REMARK    3  A    between atoms: C_4  and  O_5 
REMARK    4  A    between atoms: O_5  and  C_6 
REMARK    5  A    between atoms: C_6  and  C_8 
REMARK    6  A    between atoms: C_11  and  N_12 
REMARK    7  A    between atoms: N_12  and  N_13 
REMARK    8  A    between atoms: N_13  and  C_14 
REMARK    9  A    between atoms: C_18  and  C_19 
REMARK   10  A    between atoms: C_19  and  C_20 
REMARK   11  A    between atoms: N_28  and  C_29 
REMARK   12  A    between atoms: C_29  and  C_30 
ROOT
ATOM      1  C   UNL d   1      26.736 -14.489   0.032  0.00  0.00     0.720 A 
ATOM      2  N   UNL d   1      26.767 -13.307  -0.529  0.00  0.00    -0.068 NA
ATOM      3  C   UNL d   1      26.465 -13.166  -1.864  0.00  0.00     0.061 A 
ATOM      4  C   UNL d   1      26.626 -11.776  -2.437  0.00  0.00     0.072 C 
ATOM      5  C   UNL d   1      26.088 -14.173  -2.671  0.00  0.00     0.040 A 
ATOM      6  C   UNL d   1      26.050 -15.510  -2.041  0.00  0.00     0.270 A 
ATOM      7  O   UNL d   1      25.796 -16.530  -2.679  0.00  0.00    -0.267 OA
ATOM      8  N   UNL d   1      26.316 -15.599  -0.687  0.00  0.00    -0.140 N 
ENDROOT
BRANCH   1   9
ATOM      9  N   UNL d   1      27.020 -14.544   1.398  0.00  0.00    -0.147 N 
ATOM     10  H   UNL d   1      26.405 -13.925   1.918  0.00  0.00     0.200 HD
BRANCH   9  11
ATOM     11  N   UNL d   1      28.291 -14.742   1.998  0.00  0.00    -0.191 NA
ATOM     12  H   UNL d   1      28.599 -15.713   1.913  0.00  0.00     0.153 HD
BRANCH  11  13
ATOM     13  C   UNL d   1      28.559 -14.285   3.345  0.00  0.00     0.028 A 
ATOM     14  C   UNL d   1      29.838 -14.393   3.935  0.00  0.00     0.026 A 
ATOM     15  C   UNL d   1      30.039 -14.113   5.319  0.00  0.00     0.019 A 
ATOM     16  C   UNL d   1      29.000 -13.596   6.113  0.00  0.00     0.039 A 
ATOM     17  C   UNL d   1      27.754 -13.432   5.514  0.00  0.00     0.019 A 
ATOM     18  C   UNL d   1      27.541 -13.769   4.160  0.00  0.00     0.026 A 
BRANCH  16  19
ATOM     19  C   UNL d   1      29.220 -13.247   7.565  0.00  0.00     0.293 C 
ATOM     20  O   UNL d   1      30.323 -13.190   8.053  0.00  0.00    -0.259 OA
BRANCH  19  21
ATOM     21  O   UNL d   1      28.042 -12.963   8.224  0.00  0.00    -0.318 OA
BRANCH  21  22
ATOM     22  C   UNL d   1      28.208 -12.117   9.390  0.00  0.00     0.179 C 
BRANCH  22  23
ATOM     23  C   UNL d   1      28.349 -12.940  10.682  0.00  0.00     0.026 C 
BRANCH  23  24
ATOM     24  C   UNL d   1      28.155 -14.445  10.429  0.00  0.00    -0.002 C 
ATOM     25  C   UNL d   1      29.478 -15.200  10.432  0.00  0.00     0.005 C 
ENDBRANCH  23  24
ENDBRANCH  22  23
ENDBRANCH  21  22
ENDBRANCH  19  21
ENDBRANCH  16  19
ENDBRANCH  11  13
ENDBRANCH   9  11
ENDBRANCH   1   9
BRANCH   8  26
ATOM     26  C   UNL d   1      26.011 -16.946  -0.212  0.00  0.00     0.189 C 
BRANCH  26  27
ATOM     27  C   UNL d   1      24.622 -17.463  -0.302  0.00  0.00    -0.039 C 
ATOM     28  C   UNL d   1      24.373 -18.830  -0.154  0.00  0.00     0.010 C 
ATOM     29  C   UNL d   1      23.079 -19.299  -0.345  0.00  0.00     0.024 C 
ATOM     30  C   UNL d   1      22.040 -18.394  -0.594  0.00  0.00     0.034 C 
ATOM     31 CL   UNL d   1      20.441 -18.949  -0.896  0.00  0.00    -0.084 Cl
ATOM     32  C   UNL d   1      22.265 -17.023  -0.524  0.00  0.00     0.024 C 
ATOM     33  C   UNL d   1      23.564 -16.558  -0.472  0.00  0.00     0.010 C 
ENDBRANCH  26  27
ENDBRANCH   8  26
BRANCH   5  34
ATOM     34  C   UNL d   1      25.743 -13.955  -4.129  0.00  0.00     0.084 C 
BRANCH  34  35
ATOM     35  C   UNL d   1      26.873 -13.999  -5.120  0.00  0.00    -0.054 A 
ATOM     36  C   UNL d   1      27.281 -12.842  -5.791  0.00  0.00     0.007 A 
ATOM     37  C   UNL d   1      28.373 -12.892  -6.652  0.00  0.00     0.001 A 
ATOM     38  C   UNL d   1      29.133 -14.059  -6.751  0.00  0.00     0.000 A 
ATOM     39  C   UNL d   1      28.751 -15.207  -6.064  0.00  0.00     0.001 A 
ATOM     40  C   UNL d   1      27.591 -15.194  -5.300  0.00  0.00     0.007 A 
ENDBRANCH  34  35
ENDBRANCH   5  34
TORSDOF 12
ENDMDL
MODEL 3
REMARK VINA RESULT:   -10.890      1.849      2.932
REMARK INTER + INTRA:         -16.499
REMARK INTER:                 -14.470
REMARK INTRA:                  -2.030
REMARK CONF_INDEPENDENT:        3.580
REMARK UNBOUND:                -2.030
REMARK  12 active torsions:
REMARK  status: ('A' for Active; 'I' for Inactive)
REMARK    1  A    between atoms: C_2  and  C_3 
REMARK    2  A    between atoms: C_3  and  C_4 
REMARK    3  A    between atoms: C_4  and  O_5 
REMARK    4  A    between atoms: O_5  and  C_6 
REMARK    5  A    between atoms: C_6  and  C_8 
REMARK    6  A    between atoms: C_11  and  N_12 
REMARK    7  A    between atoms: N_12  and  N_13 
REMARK    8  A    between atoms: N_13  and  C_14 
REMARK    9  A    between atoms: C_18  and  C_19 
REMARK   10  A    between atoms: C_19  and  C_20 
REMARK   11  A    between atoms: N_28  and  C_29 
REMARK   12  A    between atoms: C_29  and  C_30 
ROOT
ATOM      1  C   UNL d   1      27.011 -15.642  -2.621  0.00  0.00     0.720 A 
ATOM      2  N   UNL d   1      28.170 -16.222  -2.435  0.00  0.00    -0.068 NA
ATOM      3  C   UNL d   1      29.034 -16.397  -3.491  0.00  0.00     0.061 A 
ATOM      4  C   UNL d   1      30.302 -17.164  -3.190  0.00  0.00     0.072 C 
ATOM      5  C   UNL d   1      28.801 -15.973  -4.745  0.00  0.00     0.040 A 
ATOM      6  C   UNL d   1      27.493 -15.316  -4.960  0.00  0.00     0.270 A 
ATOM      7  O   UNL d   1      27.118 -14.948  -6.071  0.00  0.00    -0.267 OA
ATOM      8  N   UNL d   1      26.676 -15.120  -3.862  0.00  0.00    -0.140 N 
ENDROOT
BRANCH   1   9
ATOM      9  N   UNL d   1      26.206 -15.469  -1.493  0.00  0.00    -0.147 N 
ATOM     10  H   UNL d   1      26.308 -14.530  -1.120  0.00  0.00     0.200 HD
BRANCH   9  11
ATOM     11  N   UNL d   1      25.877 -16.450  -0.521  0.00  0.00    -0.191 NA
ATOM     12  H   UNL d   1      26.614 -17.154  -0.435  0.00  0.00     0.153 HD
BRANCH  11  13
ATOM     13  C   UNL d   1      24.594 -17.119  -0.541  0.00  0.00     0.028 A 
ATOM     14  C   UNL d   1      24.476 -18.522  -0.423  0.00  0.00     0.026 A 
ATOM     15  C   UNL d   1      23.227 -19.179  -0.632  0.00  0.00     0.019 A 
ATOM     16  C   UNL d   1      22.045 -18.443  -0.835  0.00  0.00     0.039 A 
ATOM     17  C   UNL d   1      22.154 -17.056  -0.891  0.00  0.00     0.019 A 
ATOM     18  C   UNL d   1      23.402 -16.411  -0.746  0.00  0.00     0.026 A 
BRANCH  16  19
ATOM     19  C   UNL d   1      20.712 -19.128  -1.004  0.00  0.00     0.293 C 
ATOM     20  O   UNL d   1      20.408 -19.701  -2.022  0.00  0.00    -0.259 OA
BRANCH  19  21
ATOM     21  O   UNL d   1      19.935 -19.059   0.134  0.00  0.00    -0.318 OA
BRANCH  21  22
ATOM     22  C   UNL d   1      20.656 -19.347   1.359  0.00  0.00     0.179 C 
BRANCH  22  23
ATOM     23  C   UNL d   1      19.764 -20.039   2.403  0.00  0.00     0.026 C 
BRANCH  23  24
ATOM     24  C   UNL d   1      18.381 -20.396   1.830  0.00  0.00    -0.002 C 
ATOM     25  C   UNL d   1      18.453 -21.560   0.850  0.00  0.00     0.005 C 
ENDBRANCH  23  24
ENDBRANCH  22  23
ENDBRANCH  21  22
ENDBRANCH  19  21
ENDBRANCH  16  19
ENDBRANCH  11  13
ENDBRANCH   9  11
ENDBRANCH   1   9
BRANCH   8  26
ATOM     26  C   UNL d   1      25.549 -14.266  -4.232  0.00  0.00     0.189 C 
BRANCH  26  27
ATOM     27  C   UNL d   1      25.732 -12.795  -4.303  0.00  0.00    -0.039 C 
ATOM     28  C   UNL d   1      25.869 -12.166  -5.544  0.00  0.00     0.010 C 
ATOM     29  C   UNL d   1      26.142 -10.804  -5.577  0.00  0.00     0.024 C 
ATOM     30  C   UNL d   1      26.188 -10.073  -4.383  0.00  0.00     0.034 C 
ATOM     31 CL   UNL d   1      26.583  -8.401  -4.388  0.00  0.00    -0.084 Cl
ATOM     32  C   UNL d   1      25.836 -10.669  -3.176  0.00  0.00     0.024 C 
ATOM     33  C   UNL d   1      25.701 -12.042  -3.120  0.00  0.00     0.010 C 
ENDBRANCH  26  27
ENDBRANCH   8  26
BRANCH   5  34
ATOM     34  C   UNL d   1      29.800 -16.171  -5.865  0.00  0.00     0.084 C 
BRANCH  34  35
ATOM     35  C   UNL d   1      30.358 -14.938  -6.520  0.00  0.00    -0.054 A 
ATOM     36  C   UNL d   1      31.644 -14.941  -7.070  0.00  0.00     0.007 A 
ATOM     37  C   UNL d   1      32.113 -13.811  -7.732  0.00  0.00     0.001 A 
ATOM     38  C   UNL d   1      31.263 -12.726  -7.955  0.00  0.00     0.000 A 
ATOM     39  C   UNL d   1      29.971 -12.728  -7.437  0.00  0.00     0.001 A 
ATOM     40  C   UNL d   1      29.542 -13.803  -6.670  0.00  0.00     0.007 A 
ENDBRANCH  34  35
ENDBRANCH   5  34
TORSDOF 12
ENDMDL
MODEL 4
REMARK VINA RESULT:   -10.838      3.516      5.423
REMARK INTER + INTRA:         -16.496
REMARK INTER:                 -14.417
REMARK INTRA:                  -2.079
REMARK CONF_INDEPENDENT:        3.580
REMARK UNBOUND:                -2.079
REMARK  12 active torsions:
REMARK  status: ('A' for Active; 'I' for Inactive)
REMARK    1  A    between atoms: C_2  and  C_3 
REMARK    2  A    between atoms: C_3  and  C_4 
REMARK    3  A    between atoms: C_4  and  O_5 
REMARK    4  A    between atoms: O_5  and  C_6 
REMARK    5  A    between atoms: C_6  and  C_8 
REMARK    6  A    between atoms: C_11  and  N_12 
REMARK    7  A    between atoms: N_12  and  N_13 
REMARK    8  A    between atoms: N_13  and  C_14 
REMARK    9  A    between atoms: C_18  and  C_19 
REMARK   10  A    between atoms: C_19  and  C_20 
REMARK   11  A    between atoms: N_28  and  C_29 
REMARK   12  A    between atoms: C_29  and  C_30 
ROOT
ATOM      1  C   UNL d   1      29.763 -17.079  -1.444  0.00  0.00     0.720 A 
ATOM      2  N   UNL d   1      29.017 -16.422  -2.296  0.00  0.00    -0.068 NA
ATOM      3  C   UNL d   1      29.342 -16.407  -3.633  0.00  0.00     0.061 A 
ATOM      4  C   UNL d   1      28.474 -15.541  -4.517  0.00  0.00     0.072 C 
ATOM      5  C   UNL d   1      30.382 -17.067  -4.172  0.00  0.00     0.040 A 
ATOM      6  C   UNL d   1      31.227 -17.811  -3.213  0.00  0.00     0.270 A 
ATOM      7  O   UNL d   1      32.252 -18.395  -3.557  0.00  0.00    -0.267 OA
ATOM      8  N   UNL d   1      30.837 -17.836  -1.886  0.00  0.00    -0.140 N 
ENDROOT
BRANCH   1   9
ATOM      9  N   UNL d   1      29.346 -17.076  -0.111  0.00  0.00    -0.147 N 
ATOM     10  H   UNL d   1      29.584 -17.952   0.342  0.00  0.00     0.200 HD
BRANCH   9  11
ATOM     11  N   UNL d   1      28.195 -16.439   0.422  0.00  0.00    -0.191 NA
ATOM     12  H   UNL d   1      28.259 -16.336   1.437  0.00  0.00     0.153 HD
BRANCH  11  13
ATOM     13  C   UNL d   1      26.865 -16.898   0.084  0.00  0.00     0.028 A 
ATOM     14  C   UNL d   1      26.282 -18.029   0.696  0.00  0.00     0.026 A 
ATOM     15  C   UNL d   1      25.053 -18.576   0.220  0.00  0.00     0.019 A 
ATOM     16  C   UNL d   1      24.315 -17.932  -0.790  0.00  0.00     0.039 A 
ATOM     17  C   UNL d   1      24.862 -16.781  -1.351  0.00  0.00     0.019 A 
ATOM     18  C   UNL d   1      26.109 -16.277  -0.921  0.00  0.00     0.026 A 
BRANCH  16  19
ATOM     19  C   UNL d   1      22.988 -18.475  -1.261  0.00  0.00     0.293 C 
ATOM     20  O   UNL d   1      22.904 -19.272  -2.165  0.00  0.00    -0.259 OA
BRANCH  19  21
ATOM     21  O   UNL d   1      21.928 -17.997  -0.520  0.00  0.00    -0.318 OA
BRANCH  21  22
ATOM     22  C   UNL d   1      21.400 -18.951   0.436  0.00  0.00     0.179 C 
BRANCH  22  23
ATOM     23  C   UNL d   1      20.152 -19.673  -0.100  0.00  0.00     0.026 C 
BRANCH  23  24
ATOM     24  C   UNL d   1      19.106 -19.908   1.003  0.00  0.00    -0.002 C 
ATOM     25  C   UNL d   1      18.340 -21.208   0.797  0.00  0.00     0.005 C 
ENDBRANCH  23  24
ENDBRANCH  22  23
ENDBRANCH  21  22
ENDBRANCH  19  21
ENDBRANCH  16  19
ENDBRANCH  11  13
ENDBRANCH   9  11
ENDBRANCH   1   9
BRANCH   8  26
ATOM     26  C   UNL d   1      31.658 -18.795  -1.150  0.00  0.00     0.189 C 
BRANCH  26  27
ATOM     27  C   UNL d   1      31.317 -20.239  -1.186  0.00  0.00    -0.039 C 
ATOM     28  C   UNL d   1      31.570 -20.989  -2.338  0.00  0.00     0.010 C 
ATOM     29  C   UNL d   1      31.146 -22.312  -2.381  0.00  0.00     0.024 C 
ATOM     30  C   UNL d   1      30.559 -22.892  -1.250  0.00  0.00     0.034 C 
ATOM     31 CL   UNL d   1      29.970 -24.507  -1.295  0.00  0.00    -0.084 Cl
ATOM     32  C   UNL d   1      30.511 -22.201  -0.045  0.00  0.00     0.024 C 
ATOM     33  C   UNL d   1      30.801 -20.851  -0.034  0.00  0.00     0.010 C 
ENDBRANCH  26  27
ENDBRANCH   8  26
BRANCH   5  34
ATOM     34  C   UNL d   1      30.679 -17.035  -5.656  0.00  0.00     0.084 C 
BRANCH  34  35
ATOM     35  C   UNL d   1      30.762 -18.354  -6.373  0.00  0.00    -0.054 A 
ATOM     36  C   UNL d   1      31.167 -18.415  -7.711  0.00  0.00     0.007 A 
ATOM     37  C   UNL d   1      31.302 -19.652  -8.334  0.00  0.00     0.001 A 
ATOM     38  C   UNL d   1      31.156 -20.827  -7.595  0.00  0.00     0.000 A 
ATOM     39  C   UNL d   1      30.782 -20.774  -6.255  0.00  0.00     0.001 A 
ATOM     40  C   UNL d   1      30.526 -19.544  -5.664  0.00  0.00     0.007 A 
ENDBRANCH  34  35
ENDBRANCH   5  34
TORSDOF 12
ENDMDL
MODEL 5
REMARK VINA RESULT:   -10.354      1.625      2.271
REMARK INTER + INTRA:         -16.442
REMARK INTER:                 -13.933
REMARK INTRA:                  -2.508
REMARK CONF_INDEPENDENT:        3.580
REMARK UNBOUND:                -2.508
REMARK  12 active torsions:
REMARK  status: ('A' for Active; 'I' for Inactive)
REMARK    1  A    between atoms: C_2  and  C_3 
REMARK    2  A    between atoms: C_3  and  C_4 
REMARK    3  A    between atoms: C_4  and  O_5 
REMARK    4  A    between atoms: O_5  and  C_6 
REMARK    5  A    between atoms: C_6  and  C_8 
REMARK    6  A    between atoms: C_11  and  N_12 
REMARK    7  A    between atoms: N_12  and  N_13 
REMARK    8  A    between atoms: N_13  and  C_14 
REMARK    9  A    between atoms: C_18  and  C_19 
REMARK   10  A    between atoms: C_19  and  C_20 
REMARK   11  A    between atoms: N_28  and  C_29 
REMARK   12  A    between atoms: C_29  and  C_30 
ROOT
ATOM      1  C   UNL d   1      30.396 -17.666  -1.356  0.00  0.00     0.720 A 
ATOM      2  N   UNL d   1      31.039 -18.785  -1.576  0.00  0.00    -0.068 NA
ATOM      3  C   UNL d   1      31.799 -18.935  -2.714  0.00  0.00     0.061 A 
ATOM      4  C   UNL d   1      32.420 -20.298  -2.921  0.00  0.00     0.072 C 
ATOM      5  C   UNL d   1      31.978 -17.979  -3.641  0.00  0.00     0.040 A 
ATOM      6  C   UNL d   1      31.255 -16.712  -3.396  0.00  0.00     0.270 A 
ATOM      7  O   UNL d   1      31.268 -15.782  -4.200  0.00  0.00    -0.267 OA
ATOM      8  N   UNL d   1      30.540 -16.589  -2.218  0.00  0.00    -0.140 N 
ENDROOT
BRANCH   1   9
ATOM      9  N   UNL d   1      29.677 -17.579  -0.162  0.00  0.00    -0.147 N 
ATOM     10  H   UNL d   1      29.496 -18.504   0.216  0.00  0.00     0.200 HD
BRANCH   9  11
ATOM     11  N   UNL d   1      28.695 -16.611   0.174  0.00  0.00    -0.191 NA
ATOM     12  H   UNL d   1      28.775 -16.319   1.151  0.00  0.00     0.153 HD
BRANCH  11  13
ATOM     13  C   UNL d   1      27.298 -16.826  -0.134  0.00  0.00     0.028 A 
ATOM     14  C   UNL d   1      26.476 -15.804  -0.658  0.00  0.00     0.026 A 
ATOM     15  C   UNL d   1      25.065 -15.977  -0.779  0.00  0.00     0.019 A 
ATOM     16  C   UNL d   1      24.461 -17.217  -0.502  0.00  0.00     0.039 A 
ATOM     17  C   UNL d   1      25.282 -18.244  -0.043  0.00  0.00     0.019 A 
ATOM     18  C   UNL d   1      26.669 -18.051   0.135  0.00  0.00     0.026 A 
BRANCH  16  19
ATOM     19  C   UNL d   1      22.977 -17.424  -0.678  0.00  0.00     0.293 C 
ATOM     20  O   UNL d   1      22.180 -16.531  -0.519  0.00  0.00    -0.259 OA
BRANCH  19  21
ATOM     21  O   UNL d   1      22.666 -18.707  -1.079  0.00  0.00    -0.318 OA
BRANCH  21  22
ATOM     22  C   UNL d   1      21.244 -18.951  -1.225  0.00  0.00     0.179 C 
BRANCH  22  23
ATOM     23  C   UNL d   1      20.632 -19.568   0.044  0.00  0.00     0.026 C 
BRANCH  23  24
ATOM     24  C   UNL d   1      19.139 -19.889  -0.138  0.00  0.00    -0.002 C 
ATOM     25  C   UNL d   1      18.652 -20.926   0.867  0.00  0.00     0.005 C 
ENDBRANCH  23  24
ENDBRANCH  22  23
ENDBRANCH  21  22
ENDBRANCH  19  21
ENDBRANCH  16  19
ENDBRANCH  11  13
ENDBRANCH   9  11
ENDBRANCH   1   9
BRANCH   8  26
ATOM     26  C   UNL d   1      30.092 -15.208  -2.056  0.00  0.00     0.189 C 
BRANCH  26  27
ATOM     27  C   UNL d   1      28.804 -14.776  -2.653  0.00  0.00    -0.039 C 
ATOM     28  C   UNL d   1      28.268 -13.526  -2.331  0.00  0.00     0.010 C 
ATOM     29  C   UNL d   1      27.012 -13.190  -2.822  0.00  0.00     0.024 C 
ATOM     30  C   UNL d   1      26.349 -14.062  -3.694  0.00  0.00     0.034 C 
ATOM     31 CL   UNL d   1      24.770 -13.701  -4.269  0.00  0.00    -0.084 Cl
ATOM     32  C   UNL d   1      26.987 -15.200  -4.176  0.00  0.00     0.024 C 
ATOM     33  C   UNL d   1      28.169 -15.606  -3.588  0.00  0.00     0.010 C 
ENDBRANCH  26  27
ENDBRANCH   8  26
BRANCH   5  34
ATOM     34  C   UNL d   1      32.846 -18.191  -4.864  0.00  0.00     0.084 C 
BRANCH  34  35
ATOM     35  C   UNL d   1      32.191 -18.777  -6.084  0.00  0.00    -0.054 A 
ATOM     36  C   UNL d   1      31.413 -19.935  -5.989  0.00  0.00     0.007 A 
ATOM     37  C   UNL d   1      30.760 -20.421  -7.119  0.00  0.00     0.001 A 
ATOM     38  C   UNL d   1      30.780 -19.689  -8.307  0.00  0.00     0.000 A 
ATOM     39  C   UNL d   1      31.529 -18.519  -8.401  0.00  0.00     0.001 A 
ATOM     40  C   UNL d   1      32.281 -18.099  -7.312  0.00  0.00     0.007 A 
ENDBRANCH  34  35
ENDBRANCH   5  34
TORSDOF 12
ENDMDL
MODEL 6
REMARK VINA RESULT:   -10.312      3.797      8.483
REMARK INTER + INTRA:         -16.694
REMARK INTER:                 -13.892
REMARK INTRA:                  -2.802
REMARK CONF_INDEPENDENT:        3.580
REMARK UNBOUND:                -2.802
REMARK  12 active torsions:
REMARK  status: ('A' for Active; 'I' for Inactive)
REMARK    1  A    between atoms: C_2  and  C_3 
REMARK    2  A    between atoms: C_3  and  C_4 
REMARK    3  A    between atoms: C_4  and  O_5 
REMARK    4  A    between atoms: O_5  and  C_6 
REMARK    5  A    between atoms: C_6  and  C_8 
REMARK    6  A    between atoms: C_11  and  N_12 
REMARK    7  A    between atoms: N_12  and  N_13 
REMARK    8  A    between atoms: N_13  and  C_14 
REMARK    9  A    between atoms: C_18  and  C_19 
REMARK   10  A    between atoms: C_19  and  C_20 
REMARK   11  A    between atoms: N_28  and  C_29 
REMARK   12  A    between atoms: C_29  and  C_30 
ROOT
ATOM      1  C   UNL d   1      29.770 -16.459  -0.013  0.00  0.00     0.720 A 
ATOM      2  N   UNL d   1      30.357 -15.840   0.980  0.00  0.00    -0.068 NA
ATOM      3  C   UNL d   1      29.806 -14.694   1.505  0.00  0.00     0.061 A 
ATOM      4  C   UNL d   1      30.612 -14.004   2.582  0.00  0.00     0.072 C 
ATOM      5  C   UNL d   1      28.647 -14.149   1.095  0.00  0.00     0.040 A 
ATOM      6  C   UNL d   1      27.980 -14.845  -0.027  0.00  0.00     0.270 A 
ATOM      7  O   UNL d   1      26.955 -14.414  -0.550  0.00  0.00    -0.267 OA
ATOM      8  N   UNL d   1      28.545 -16.018  -0.492  0.00  0.00    -0.140 N 
ENDROOT
BRANCH   1   9
ATOM      9  N   UNL d   1      30.372 -17.634  -0.466  0.00  0.00    -0.147 N 
ATOM     10  H   UNL d   1      30.716 -18.185   0.315  0.00  0.00     0.200 HD
BRANCH   9  11
ATOM     11  N   UNL d   1      31.104 -17.810  -1.670  0.00  0.00    -0.191 NA
ATOM     12  H   UNL d   1      32.107 -17.676  -1.522  0.00  0.00     0.153 HD
BRANCH  11  13
ATOM     13  C   UNL d   1      30.717 -17.126  -2.885  0.00  0.00     0.028 A 
ATOM     14  C   UNL d   1      30.709 -15.717  -2.985  0.00  0.00     0.026 A 
ATOM     15  C   UNL d   1      30.148 -15.060  -4.120  0.00  0.00     0.019 A 
ATOM     16  C   UNL d   1      29.703 -15.792  -5.236  0.00  0.00     0.039 A 
ATOM     17  C   UNL d   1      29.767 -17.181  -5.160  0.00  0.00     0.019 A 
ATOM     18  C   UNL d   1      30.265 -17.831  -4.010  0.00  0.00     0.026 A 
BRANCH  16  19
ATOM     19  C   UNL d   1      29.158 -15.102  -6.462  0.00  0.00     0.293 C 
ATOM     20  O   UNL d   1      29.880 -14.627  -7.306  0.00  0.00    -0.259 OA
BRANCH  19  21
ATOM     21  O   UNL d   1      27.780 -15.127  -6.515  0.00  0.00    -0.318 OA
BRANCH  21  22
ATOM     22  C   UNL d   1      27.136 -14.423  -5.423  0.00  0.00     0.179 C 
BRANCH  22  23
ATOM     23  C   UNL d   1      25.924 -15.196  -4.875  0.00  0.00     0.026 C 
BRANCH  23  24
ATOM     24  C   UNL d   1      25.155 -14.384  -3.819  0.00  0.00    -0.002 C 
ATOM     25  C   UNL d   1      25.511 -12.903  -3.866  0.00  0.00     0.005 C 
ENDBRANCH  23  24
ENDBRANCH  22  23
ENDBRANCH  21  22
ENDBRANCH  19  21
ENDBRANCH  16  19
ENDBRANCH  11  13
ENDBRANCH   9  11
ENDBRANCH   1   9
BRANCH   8  26
ATOM     26  C   UNL d   1      27.632 -16.666  -1.432  0.00  0.00     0.189 C 
BRANCH  26  27
ATOM     27  C   UNL d   1      26.282 -17.083  -0.978  0.00  0.00    -0.039 C 
ATOM     28  C   UNL d   1      26.125 -17.728   0.252  0.00  0.00     0.010 C 
ATOM     29  C   UNL d   1      24.867 -18.200   0.605  0.00  0.00     0.024 C 
ATOM     30  C   UNL d   1      23.770 -17.947  -0.228  0.00  0.00     0.034 C 
ATOM     31 CL   UNL d   1      22.213 -18.570   0.152  0.00  0.00    -0.084 Cl
ATOM     32  C   UNL d   1      23.901 -17.120  -1.338  0.00  0.00     0.024 C 
ATOM     33  C   UNL d   1      25.165 -16.766  -1.766  0.00  0.00     0.010 C 
ENDBRANCH  26  27
ENDBRANCH   8  26
BRANCH   5  34
ATOM     34  C   UNL d   1      28.075 -12.897   1.726  0.00  0.00     0.084 C 
BRANCH  34  35
ATOM     35  C   UNL d   1      27.879 -12.903   3.217  0.00  0.00    -0.054 A 
ATOM     36  C   UNL d   1      27.520 -14.077   3.886  0.00  0.00     0.007 A 
ATOM     37  C   UNL d   1      27.412 -14.075   5.273  0.00  0.00     0.001 A 
ATOM     38  C   UNL d   1      27.779 -12.943   6.002  0.00  0.00     0.000 A 
ATOM     39  C   UNL d   1      28.166 -11.778   5.345  0.00  0.00     0.001 A 
ATOM     40  C   UNL d   1      28.157 -11.740   3.957  0.00  0.00     0.007 A 
ENDBRANCH  34  35
ENDBRANCH   5  34
TORSDOF 12
ENDMDL
MODEL 7
REMARK VINA RESULT:   -10.079      4.648      7.415
REMARK INTER + INTRA:         -16.026
REMARK INTER:                 -13.659
REMARK INTRA:                  -2.367
REMARK CONF_INDEPENDENT:        3.580
REMARK UNBOUND:                -2.367
REMARK  12 active torsions:
REMARK  status: ('A' for Active; 'I' for Inactive)
REMARK    1  A    between atoms: C_2  and  C_3 
REMARK    2  A    between atoms: C_3  and  C_4 
REMARK    3  A    between atoms: C_4  and  O_5 
REMARK    4  A    between atoms: O_5  and  C_6 
REMARK    5  A    between atoms: C_6  and  C_8 
REMARK    6  A    between atoms: C_11  and  N_12 
REMARK    7  A    between atoms: N_12  and  N_13 
REMARK    8  A    between atoms: N_13  and  C_14 
REMARK    9  A    between atoms: C_18  and  C_19 
REMARK   10  A    between atoms: C_19  and  C_20 
REMARK   11  A    between atoms: N_28  and  C_29 
REMARK   12  A    between atoms: C_29  and  C_30 
ROOT
ATOM      1  C   UNL d   1      28.444 -14.682   1.188  0.00  0.00     0.720 A 
ATOM      2  N   UNL d   1      28.057 -14.987   2.401  0.00  0.00    -0.068 NA
ATOM      3  C   UNL d   1      27.776 -13.993   3.309  0.00  0.00     0.061 A 
ATOM      4  C   UNL d   1      27.432 -14.451   4.708  0.00  0.00     0.072 C 
ATOM      5  C   UNL d   1      27.830 -12.677   3.040  0.00  0.00     0.040 A 
ATOM      6  C   UNL d   1      28.267 -12.326   1.671  0.00  0.00     0.270 A 
ATOM      7  O   UNL d   1      28.433 -11.163   1.312  0.00  0.00    -0.267 OA
ATOM      8  N   UNL d   1      28.494 -13.358   0.777  0.00  0.00    -0.140 N 
ENDROOT
BRANCH   1   9
ATOM      9  N   UNL d   1      28.676 -15.746   0.315  0.00  0.00    -0.147 N 
ATOM     10  H   UNL d   1      28.876 -15.406  -0.621  0.00  0.00     0.200 HD
BRANCH   9  11
ATOM     11  N   UNL d   1      28.066 -17.028   0.351  0.00  0.00    -0.191 NA
ATOM     12  H   UNL d   1      28.633 -17.726  -0.135  0.00  0.00     0.153 HD
BRANCH  11  13
ATOM     13  C   UNL d   1      26.681 -17.206  -0.028  0.00  0.00     0.028 A 
ATOM     14  C   UNL d   1      25.948 -16.200  -0.695  0.00  0.00     0.026 A 
ATOM     15  C   UNL d   1      24.540 -16.319  -0.893  0.00  0.00     0.019 A 
ATOM     16  C   UNL d   1      23.856 -17.498  -0.547  0.00  0.00     0.039 A 
ATOM     17  C   UNL d   1      24.592 -18.514   0.057  0.00  0.00     0.019 A 
ATOM     18  C   UNL d   1      25.974 -18.370   0.308  0.00  0.00     0.026 A 
BRANCH  16  19
ATOM     19  C   UNL d   1      22.377 -17.652  -0.802  0.00  0.00     0.293 C 
ATOM     20  O   UNL d   1      21.639 -16.701  -0.897  0.00  0.00    -0.259 OA
BRANCH  19  21
ATOM     21  O   UNL d   1      22.001 -18.970  -0.956  0.00  0.00    -0.318 OA
BRANCH  21  22
ATOM     22  C   UNL d   1      20.568 -19.185  -0.896  0.00  0.00     0.179 C 
BRANCH  22  23
ATOM     23  C   UNL d   1      20.209 -20.448  -0.095  0.00  0.00     0.026 C 
BRANCH  23  24
ATOM     24  C   UNL d   1      19.152 -20.161   0.985  0.00  0.00    -0.002 C 
ATOM     25  C   UNL d   1      18.040 -21.202   0.986  0.00  0.00     0.005 C 
ENDBRANCH  23  24
ENDBRANCH  22  23
ENDBRANCH  21  22
ENDBRANCH  19  21
ENDBRANCH  16  19
ENDBRANCH  11  13
ENDBRANCH   9  11
ENDBRANCH   1   9
BRANCH   8  26
ATOM     26  C   UNL d   1      28.692 -12.813  -0.564  0.00  0.00     0.189 C 
BRANCH  26  27
ATOM     27  C   UNL d   1      27.994 -13.429  -1.720  0.00  0.00    -0.039 C 
ATOM     28  C   UNL d   1      26.653 -13.126  -1.971  0.00  0.00     0.010 C 
ATOM     29  C   UNL d   1      25.996 -13.795  -2.996  0.00  0.00     0.024 C 
ATOM     30  C   UNL d   1      26.704 -14.688  -3.810  0.00  0.00     0.034 C 
ATOM     31 CL   UNL d   1      25.904 -15.575  -5.047  0.00  0.00    -0.084 Cl
ATOM     32  C   UNL d   1      28.083 -14.815  -3.687  0.00  0.00     0.024 C 
ATOM     33  C   UNL d   1      28.712 -14.263  -2.589  0.00  0.00     0.010 C 
ENDBRANCH  26  27
ENDBRANCH   8  26
BRANCH   5  34
ATOM     34  C   UNL d   1      27.486 -11.625   4.073  0.00  0.00     0.084 C 
BRANCH  34  35
ATOM     35  C   UNL d   1      28.359 -11.544   5.295  0.00  0.00    -0.054 A 
ATOM     36  C   UNL d   1      27.848 -11.852   6.560  0.00  0.00     0.007 A 
ATOM     37  C   UNL d   1      28.691 -11.837   7.667  0.00  0.00     0.001 A 
ATOM     38  C   UNL d   1      30.063 -11.639   7.499  0.00  0.00     0.000 A 
ATOM     39  C   UNL d   1      30.584 -11.362   6.238  0.00  0.00     0.001 A 
ATOM     40  C   UNL d   1      29.727 -11.254   5.151  0.00  0.00     0.007 A 
ENDBRANCH  34  35
ENDBRANCH   5  34
TORSDOF 12
ENDMDL
MODEL 8
REMARK VINA RESULT:    -9.936      4.145      7.728
REMARK INTER + INTRA:         -15.891
REMARK INTER:                 -13.516
REMARK INTRA:                  -2.375
REMARK CONF_INDEPENDENT:        3.580
REMARK UNBOUND:                -2.375
REMARK  12 active torsions:
REMARK  status: ('A' for Active; 'I' for Inactive)
REMARK    1  A    between atoms: C_2  and  C_3 
REMARK    2  A    between atoms: C_3  and  C_4 
REMARK    3  A    between atoms: C_4  and  O_5 
REMARK    4  A    between atoms: O_5  and  C_6 
REMARK    5  A    between atoms: C_6  and  C_8 
REMARK    6  A    between atoms: C_11  and  N_12 
REMARK    7  A    between atoms: N_12  and  N_13 
REMARK    8  A    between atoms: N_13  and  C_14 
REMARK    9  A    between atoms: C_18  and  C_19 
REMARK   10  A    between atoms: C_19  and  C_20 
REMARK   11  A    between atoms: N_28  and  C_29 
REMARK   12  A    between atoms: C_29  and  C_30 
ROOT
ATOM      1  C   UNL d   1      27.677 -16.309  -2.011  0.00  0.00     0.720 A 
ATOM      2  N   UNL d   1      28.348 -15.930  -3.069  0.00  0.00    -0.068 NA
ATOM      3  C   UNL d   1      27.748 -15.143  -4.025  0.00  0.00     0.061 A 
ATOM      4  C   UNL d   1      28.578 -14.842  -5.252  0.00  0.00     0.072 C 
ATOM      5  C   UNL d   1      26.489 -14.678  -3.948  0.00  0.00     0.040 A 
ATOM      6  C   UNL d   1      25.726 -15.103  -2.755  0.00  0.00     0.270 A 
ATOM      7  O   UNL d   1      24.543 -14.814  -2.594  0.00  0.00    -0.267 OA
ATOM      8  N   UNL d   1      26.384 -15.855  -1.797  0.00  0.00    -0.140 N 
ENDROOT
BRANCH   1   9
ATOM      9  N   UNL d   1      28.367 -17.075  -1.070  0.00  0.00    -0.147 N 
ATOM     10  H   UNL d   1      27.873 -17.942  -0.881  0.00  0.00     0.200 HD
BRANCH   9  11
ATOM     11  N   UNL d   1      29.140 -16.596   0.020  0.00  0.00    -0.191 NA
ATOM     12  H   UNL d   1      29.277 -17.320   0.729  0.00  0.00     0.153 HD
BRANCH  11  13
ATOM     13  C   UNL d   1      28.807 -15.353   0.682  0.00  0.00     0.028 A 
ATOM     14  C   UNL d   1      27.706 -15.240   1.559  0.00  0.00     0.026 A 
ATOM     15  C   UNL d   1      27.282 -13.970   2.053  0.00  0.00     0.019 A 
ATOM     16  C   UNL d   1      28.023 -12.805   1.789  0.00  0.00     0.039 A 
ATOM     17  C   UNL d   1      29.144 -12.928   0.972  0.00  0.00     0.019 A 
ATOM     18  C   UNL d   1      29.527 -14.176   0.433  0.00  0.00     0.026 A 
BRANCH  16  19
ATOM     19  C   UNL d   1      27.611 -11.467   2.352  0.00  0.00     0.293 C 
ATOM     20  O   UNL d   1      27.441 -10.499   1.650  0.00  0.00    -0.259 OA
BRANCH  19  21
ATOM     21  O   UNL d   1      27.414 -11.506   3.716  0.00  0.00    -0.318 OA
BRANCH  21  22
ATOM     22  C   UNL d   1      28.429 -12.249   4.438  0.00  0.00     0.179 C 
BRANCH  22  23
ATOM     23  C   UNL d   1      27.816 -13.205   5.474  0.00  0.00     0.026 C 
BRANCH  23  24
ATOM     24  C   UNL d   1      28.066 -14.680   5.113  0.00  0.00    -0.002 C 
ATOM     25  C   UNL d   1      29.549 -15.028   5.129  0.00  0.00     0.005 C 
ENDBRANCH  23  24
ENDBRANCH  22  23
ENDBRANCH  21  22
ENDBRANCH  19  21
ENDBRANCH  16  19
ENDBRANCH  11  13
ENDBRANCH   9  11
ENDBRANCH   1   9
BRANCH   8  26
ATOM     26  C   UNL d   1      25.544 -15.981  -0.608  0.00  0.00     0.189 C 
BRANCH  26  27
ATOM     27  C   UNL d   1      24.364 -16.881  -0.630  0.00  0.00    -0.039 C 
ATOM     28  C   UNL d   1      23.091 -16.359  -0.877  0.00  0.00     0.010 C 
ATOM     29  C   UNL d   1      21.993 -17.206  -0.789  0.00  0.00     0.024 C 
ATOM     30  C   UNL d   1      22.184 -18.572  -0.546  0.00  0.00     0.034 C 
ATOM     31 CL   UNL d   1      20.842 -19.631  -0.372  0.00  0.00    -0.084 Cl
ATOM     32  C   UNL d   1      23.465 -19.112  -0.518  0.00  0.00     0.024 C 
ATOM     33  C   UNL d   1      24.551 -18.261  -0.466  0.00  0.00     0.010 C 
ENDBRANCH  26  27
ENDBRANCH   8  26
BRANCH   5  34
ATOM     34  C   UNL d   1      25.887 -13.794  -5.020  0.00  0.00     0.084 C 
BRANCH  34  35
ATOM     35  C   UNL d   1      25.952 -12.307  -4.807  0.00  0.00    -0.054 A 
ATOM     36  C   UNL d   1      26.108 -11.437  -5.891  0.00  0.00     0.007 A 
ATOM     37  C   UNL d   1      26.097 -10.061  -5.678  0.00  0.00     0.001 A 
ATOM     38  C   UNL d   1      25.808  -9.552  -4.411  0.00  0.00     0.000 A 
ATOM     39  C   UNL d   1      25.621 -10.412  -3.333  0.00  0.00     0.001 A 
ATOM     40  C   UNL d   1      25.754 -11.782  -3.519  0.00  0.00     0.007 A 
ENDBRANCH  34  35
ENDBRANCH   5  34
TORSDOF 12
ENDMDL
MODEL 9
REMARK VINA RESULT:    -9.634      3.460      8.347
REMARK INTER + INTRA:         -16.681
REMARK INTER:                 -13.214
REMARK INTRA:                  -3.468
REMARK CONF_INDEPENDENT:        3.580
REMARK UNBOUND:                -3.468
REMARK  12 active torsions:
REMARK  status: ('A' for Active; 'I' for Inactive)
REMARK    1  A    between atoms: C_2  and  C_3 
REMARK    2  A    between atoms: C_3  and  C_4 
REMARK    3  A    between atoms: C_4  and  O_5 
REMARK    4  A    between atoms: O_5  and  C_6 
REMARK    5  A    between atoms: C_6  and  C_8 
REMARK    6  A    between atoms: C_11  and  N_12 
REMARK    7  A    between atoms: N_12  and  N_13 
REMARK    8  A    between atoms: N_13  and  C_14 
REMARK    9  A    between atoms: C_18  and  C_19 
REMARK   10  A    between atoms: C_19  and  C_20 
REMARK   11  A    between atoms: N_28  and  C_29 
REMARK   12  A    between atoms: C_29  and  C_30 
ROOT
ATOM      1  C   UNL d   1      29.146 -15.451   0.664  0.00  0.00     0.720 A 
ATOM      2  N   UNL d   1      29.482 -14.838   1.771  0.00  0.00    -0.068 NA
ATOM      3  C   UNL d   1      28.680 -13.845   2.284  0.00  0.00     0.061 A 
ATOM      4  C   UNL d   1      29.207 -13.135   3.511  0.00  0.00     0.072 C 
ATOM      5  C   UNL d   1      27.510 -13.457   1.747  0.00  0.00     0.040 A 
ATOM      6  C   UNL d   1      27.125 -14.147   0.497  0.00  0.00     0.270 A 
ATOM      7  O   UNL d   1      26.121 -13.839  -0.140  0.00  0.00    -0.267 OA
ATOM      8  N   UNL d   1      27.938 -15.170   0.042  0.00  0.00    -0.140 N 
ENDROOT
BRANCH   1   9
ATOM      9  N   UNL d   1      29.993 -16.471   0.228  0.00  0.00    -0.147 N 
ATOM     10  H   UNL d   1      30.421 -16.945   1.017  0.00  0.00     0.200 HD
BRANCH   9  11
ATOM     11  N   UNL d   1      30.782 -16.479  -0.953  0.00  0.00    -0.191 NA
ATOM     12  H   UNL d   1      31.687 -16.026  -0.802  0.00  0.00     0.153 HD
BRANCH  11  13
ATOM     13  C   UNL d   1      30.240 -16.026  -2.216  0.00  0.00     0.028 A 
ATOM     14  C   UNL d   1      29.937 -14.668  -2.460  0.00  0.00     0.026 A 
ATOM     15  C   UNL d   1      29.232 -14.267  -3.635  0.00  0.00     0.019 A 
ATOM     16  C   UNL d   1      28.929 -15.193  -4.649  0.00  0.00     0.039 A 
ATOM     17  C   UNL d   1      29.281 -16.523  -4.433  0.00  0.00     0.019 A 
ATOM     18  C   UNL d   1      29.924 -16.927  -3.243  0.00  0.00     0.026 A 
BRANCH  16  19
ATOM     19  C   UNL d   1      28.231 -14.767  -5.918  0.00  0.00     0.293 C 
ATOM     20  O   UNL d   1      28.791 -14.132  -6.778  0.00  0.00    -0.259 OA
BRANCH  19  21
ATOM     21  O   UNL d   1      26.931 -15.225  -5.984  0.00  0.00    -0.318 OA
BRANCH  21  22
ATOM     22  C   UNL d   1      26.233 -15.206  -4.713  0.00  0.00     0.179 C 
BRANCH  22  23
ATOM     23  C   UNL d   1      25.416 -13.916  -4.525  0.00  0.00     0.026 C 
BRANCH  23  24
ATOM     24  C   UNL d   1      25.563 -13.347  -3.103  0.00  0.00    -0.002 C 
ATOM     25  C   UNL d   1      26.331 -12.031  -3.092  0.00  0.00     0.005 C 
ENDBRANCH  23  24
ENDBRANCH  22  23
ENDBRANCH  21  22
ENDBRANCH  19  21
ENDBRANCH  16  19
ENDBRANCH  11  13
ENDBRANCH   9  11
ENDBRANCH   1   9
BRANCH   8  26
ATOM     26  C   UNL d   1      27.281 -15.868  -1.060  0.00  0.00     0.189 C 
BRANCH  26  27
ATOM     27  C   UNL d   1      25.999 -16.577  -0.824  0.00  0.00    -0.039 C 
ATOM     28  C   UNL d   1      25.932 -17.608   0.117  0.00  0.00     0.010 C 
ATOM     29  C   UNL d   1      24.748 -18.323   0.244  0.00  0.00     0.024 C 
ATOM     30  C   UNL d   1      23.624 -17.946  -0.502  0.00  0.00     0.034 C 
ATOM     31 CL   UNL d   1      22.164 -18.849  -0.411  0.00  0.00    -0.084 Cl
ATOM     32  C   UNL d   1      23.641 -16.787  -1.270  0.00  0.00     0.024 C 
ATOM     33  C   UNL d   1      24.847 -16.157  -1.506  0.00  0.00     0.010 C 
ENDBRANCH  26  27
ENDBRANCH   8  26
BRANCH   5  34
ATOM     34  C   UNL d   1      26.655 -12.374   2.370  0.00  0.00     0.084 C 
BRANCH  34  35
ATOM     35  C   UNL d   1      26.733 -10.999   1.766  0.00  0.00    -0.054 A 
ATOM     36  C   UNL d   1      27.407 -10.786   0.559  0.00  0.00     0.007 A 
ATOM     37  C   UNL d   1      27.407  -9.519  -0.016  0.00  0.00     0.001 A 
ATOM     38  C   UNL d   1      26.639  -8.496   0.542  0.00  0.00     0.000 A 
ATOM     39  C   UNL d   1      25.941  -8.708   1.728  0.00  0.00     0.001 A 
ATOM     40  C   UNL d   1      26.038  -9.936   2.369  0.00  0.00     0.007 A 
ENDBRANCH  34  35
ENDBRANCH   5  34
TORSDOF 12
ENDMDL
