MODEL 1
REMARK VINA RESULT:   -28.105      0.000      0.000
REMARK INTER + INTRA:         -32.949
REMARK INTER:                 -30.491
REMARK INTRA:                  -2.457
REMARK CONF_INDEPENDENT:        2.386
REMARK UNBOUND:                -2.457
REMARK  8 active torsions:
REMARK  status: ('A' for Active; 'I' for Inactive)
REMARK    1  A    between atoms: C_2  and  C_3 
REMARK    2  A    between atoms: C_3  and  C_4 
REMARK    3  A    between atoms: C_4  and  N_5 
REMARK    4  A    between atoms: C_11  and  C_12 
REMARK       I    between atoms: C_12  and  N_14 
REMARK    5  A    between atoms: N_14  and  N_15 
REMARK    6  A    between atoms: N_18  and  C_19 
REMARK    7  A    between atoms: C_19  and  C_20 
REMARK       I    between atoms: C_20  and  N_22 
REMARK    8  A    between atoms: N_22  and  C_23 
ROOT
ATOM      1  N   UNL d   1      27.696 -16.306  -0.809  0.00  0.00    -0.265 N 
ATOM      2  C   UNL d   1      26.822 -17.388  -0.573  0.00  0.00     0.265 C 
ATOM      3  O   UNL d   1      27.176 -18.488  -0.189  0.00  0.00    -0.267 OA
ATOM      4  C   UNL d   1      25.405 -17.102  -0.846  0.00  0.00     0.074 A 
ATOM      5  C   UNL d   1      24.170 -17.924  -0.664  0.00  0.00    -0.021 A 
ATOM      6  C   UNL d   1      24.162 -19.337  -0.091  0.00  0.00     0.051 C 
ATOM      7  C   UNL d   1      23.032 -17.197  -1.099  0.00  0.00     0.083 A 
ATOM      8  S   UNL d   1      23.487 -15.640  -1.659  0.00  0.00    -0.065 SA
ATOM      9  C   UNL d   1      25.110 -15.871  -1.362  0.00  0.00     0.098 A 
ATOM     10  N   UNL d   1      26.000 -14.847  -1.676  0.00  0.00    -0.283 N 
ATOM     11  C   UNL d   1      27.338 -15.143  -1.469  0.00  0.00     0.333 C 
ATOM     12  O   UNL d   1      28.276 -14.456  -1.881  0.00  0.00    -0.246 OA
ENDROOT
BRANCH  10  13
ATOM     13  C   UNL d   1      25.546 -13.545  -2.282  0.00  0.00     0.237 C 
BRANCH  13  14
ATOM     14  C   UNL d   1      25.957 -13.146  -3.715  0.00  0.00     0.240 C 
ATOM     15  O   UNL d   1      25.158 -13.062  -4.645  0.00  0.00    -0.271 OA
ATOM     16  N   UNL d   1      27.301 -13.023  -4.032  0.00  0.00    -0.326 N 
ATOM     17  H   UNL d   1      27.948 -13.655  -3.578  0.00  0.00     0.169 HD
BRANCH  16  18
ATOM     18  C   UNL d   1      27.570 -12.647  -5.386  0.00  0.00     0.034 A 
ATOM     19  C   UNL d   1      28.367 -13.448  -6.197  0.00  0.00     0.031 A 
ATOM     20  C   UNL d   1      28.560 -13.095  -7.540  0.00  0.00     0.021 A 
ATOM     21  C   UNL d   1      27.962 -11.948  -8.068  0.00  0.00     0.011 A 
ATOM     22 BR   UNL d   1      28.295 -11.449  -9.860  0.00  0.00    -0.051 Br
ATOM     23  C   UNL d   1      27.132 -11.162  -7.280  0.00  0.00     0.021 A 
ATOM     24  C   UNL d   1      26.936 -11.517  -5.947  0.00  0.00     0.031 A 
ENDBRANCH  16  18
ENDBRANCH  13  14
ENDBRANCH  10  13
BRANCH   1  25
ATOM     25  C   UNL d   1      29.165 -16.389  -0.626  0.00  0.00     0.137 C 
BRANCH  25  26
ATOM     26  C   UNL d   1      29.848 -17.325  -1.576  0.00  0.00     0.020 C 
BRANCH  26  27
ATOM     27  C   UNL d   1      30.384 -16.646  -2.822  0.00  0.00    -0.003 C 
ATOM     28  C   UNL d   1      29.196 -16.419  -3.738  0.00  0.00     0.005 C 
ENDBRANCH  26  27
ENDBRANCH  25  26
ENDBRANCH   1  25
BRANCH   7  29
ATOM     29  C   UNL d   1      21.574 -17.482  -1.173  0.00  0.00     0.273 C 
ATOM     30  O   UNL d   1      20.701 -16.619  -1.269  0.00  0.00    -0.266 OA
ATOM     31  N   UNL d   1      21.219 -18.860  -1.108  0.00  0.00    -0.289 N 
ATOM     32  H   UNL d   1      21.962 -19.560  -1.109  0.00  0.00     0.183 HD
BRANCH  31  33
ATOM     33  N   UNL d   1      19.889 -19.324  -1.270  0.00  0.00    -0.247 NA
ATOM     34  H   UNL d   1      19.747 -19.523  -2.267  0.00  0.00     0.143 HD
ATOM     35  H   UNL d   1      19.238 -18.564  -1.052  0.00  0.00     0.143 HD
ENDBRANCH  31  33
ENDBRANCH   7  29
TORSDOF 8
ENDMDL
MODEL 2
REMARK VINA RESULT:   -27.932      1.772      2.486
REMARK INTER + INTRA:         -32.674
REMARK INTER:                 -30.318
REMARK INTRA:                  -2.355
REMARK CONF_INDEPENDENT:        2.386
REMARK UNBOUND:                -2.355
REMARK  8 active torsions:
REMARK  status: ('A' for Active; 'I' for Inactive)
REMARK    1  A    between atoms: C_2  and  C_3 
REMARK    2  A    between atoms: C_3  and  C_4 
REMARK    3  A    between atoms: C_4  and  N_5 
REMARK    4  A    between atoms: C_11  and  C_12 
REMARK       I    between atoms: C_12  and  N_14 
REMARK    5  A    between atoms: N_14  and  N_15 
REMARK    6  A    between atoms: N_18  and  C_19 
REMARK    7  A    between atoms: C_19  and  C_20 
REMARK       I    between atoms: C_20  and  N_22 
REMARK    8  A    between atoms: N_22  and  C_23 
ROOT
ATOM      1  N   UNL d   1      27.367 -14.778  -0.471  0.00  0.00    -0.265 N 
ATOM      2  C   UNL d   1      26.946 -15.974   0.148  0.00  0.00     0.265 C 
ATOM      3  O   UNL d   1      27.611 -16.606   0.949  0.00  0.00    -0.267 OA
ATOM      4  C   UNL d   1      25.612 -16.438  -0.260  0.00  0.00     0.074 A 
ATOM      5  C   UNL d   1      24.775 -17.590   0.194  0.00  0.00    -0.021 A 
ATOM      6  C   UNL d   1      25.197 -18.574   1.281  0.00  0.00     0.051 C 
ATOM      7  C   UNL d   1      23.556 -17.623  -0.529  0.00  0.00     0.083 A 
ATOM      8  S   UNL d   1      23.480 -16.323  -1.648  0.00  0.00    -0.065 SA
ATOM      9  C   UNL d   1      24.976 -15.717  -1.232  0.00  0.00     0.098 A 
ATOM     10  N   UNL d   1      25.449 -14.590  -1.899  0.00  0.00    -0.283 N 
ATOM     11  C   UNL d   1      26.729 -14.190  -1.549  0.00  0.00     0.333 C 
ATOM     12  O   UNL d   1      27.394 -13.357  -2.171  0.00  0.00    -0.246 OA
ENDROOT
BRANCH  10  13
ATOM     13  C   UNL d   1      24.660 -13.908  -2.987  0.00  0.00     0.237 C 
BRANCH  13  14
ATOM     14  C   UNL d   1      25.316 -13.532  -4.331  0.00  0.00     0.240 C 
ATOM     15  O   UNL d   1      25.394 -14.306  -5.282  0.00  0.00    -0.271 OA
ATOM     16  N   UNL d   1      25.994 -12.327  -4.448  0.00  0.00    -0.326 N 
ATOM     17  H   UNL d   1      26.496 -11.993  -3.635  0.00  0.00     0.169 HD
BRANCH  16  18
ATOM     18  C   UNL d   1      26.561 -12.077  -5.737  0.00  0.00     0.034 A 
ATOM     19  C   UNL d   1      26.085 -11.038  -6.530  0.00  0.00     0.031 A 
ATOM     20  C   UNL d   1      26.701 -10.769  -7.759  0.00  0.00     0.021 A 
ATOM     21  C   UNL d   1      27.786 -11.534  -8.195  0.00  0.00     0.011 A 
ATOM     22 BR   UNL d   1      28.556 -11.203  -9.889  0.00  0.00    -0.051 Br
ATOM     23  C   UNL d   1      28.297 -12.549  -7.396  0.00  0.00     0.021 A 
ATOM     24  C   UNL d   1      27.686 -12.812  -6.171  0.00  0.00     0.031 A 
ENDBRANCH  16  18
ENDBRANCH  13  14
ENDBRANCH  10  13
BRANCH   1  25
ATOM     25  C   UNL d   1      28.689 -14.153  -0.224  0.00  0.00     0.137 C 
BRANCH  25  26
ATOM     26  C   UNL d   1      28.790 -13.431   1.086  0.00  0.00     0.020 C 
BRANCH  26  27
ATOM     27  C   UNL d   1      27.549 -13.557   1.948  0.00  0.00    -0.003 C 
ATOM     28  C   UNL d   1      26.625 -12.423   1.548  0.00  0.00     0.005 C 
ENDBRANCH  26  27
ENDBRANCH  25  26
ENDBRANCH   1  25
BRANCH   7  29
ATOM     29  C   UNL d   1      22.363 -18.513  -0.530  0.00  0.00     0.273 C 
ATOM     30  O   UNL d   1      22.375 -19.692  -0.176  0.00  0.00    -0.266 OA
ATOM     31  N   UNL d   1      21.157 -17.913  -0.994  0.00  0.00    -0.289 N 
ATOM     32  H   UNL d   1      21.154 -16.915  -1.205  0.00  0.00     0.183 HD
BRANCH  31  33
ATOM     33  N   UNL d   1      19.904 -18.575  -0.963  0.00  0.00    -0.247 NA
ATOM     34  H   UNL d   1      19.172 -17.856  -0.930  0.00  0.00     0.143 HD
ATOM     35  H   UNL d   1      19.816 -19.090  -0.082  0.00  0.00     0.143 HD
ENDBRANCH  31  33
ENDBRANCH   7  29
TORSDOF 8
ENDMDL
MODEL 3
REMARK VINA RESULT:   -27.639      1.890      2.562
REMARK INTER + INTRA:         -32.368
REMARK INTER:                 -30.026
REMARK INTRA:                  -2.343
REMARK CONF_INDEPENDENT:        2.386
REMARK UNBOUND:                -2.343
REMARK  8 active torsions:
REMARK  status: ('A' for Active; 'I' for Inactive)
REMARK    1  A    between atoms: C_2  and  C_3 
REMARK    2  A    between atoms: C_3  and  C_4 
REMARK    3  A    between atoms: C_4  and  N_5 
REMARK    4  A    between atoms: C_11  and  C_12 
REMARK       I    between atoms: C_12  and  N_14 
REMARK    5  A    between atoms: N_14  and  N_15 
REMARK    6  A    between atoms: N_18  and  C_19 
REMARK    7  A    between atoms: C_19  and  C_20 
REMARK       I    between atoms: C_20  and  N_22 
REMARK    8  A    between atoms: N_22  and  C_23 
ROOT
ATOM      1  N   UNL d   1      28.039 -16.699  -0.522  0.00  0.00    -0.265 N 
ATOM      2  C   UNL d   1      26.984 -17.432   0.061  0.00  0.00     0.265 C 
ATOM      3  O   UNL d   1      27.129 -18.286   0.917  0.00  0.00    -0.267 OA
ATOM      4  C   UNL d   1      25.648 -17.102  -0.459  0.00  0.00     0.074 A 
ATOM      5  C   UNL d   1      24.284 -17.578  -0.075  0.00  0.00    -0.021 A 
ATOM      6  C   UNL d   1      24.012 -18.577   1.045  0.00  0.00     0.051 C 
ATOM      7  C   UNL d   1      23.305 -16.968  -0.900  0.00  0.00     0.083 A 
ATOM      8  S   UNL d   1      24.040 -15.899  -2.023  0.00  0.00    -0.065 SA
ATOM      9  C   UNL d   1      25.588 -16.199  -1.483  0.00  0.00     0.098 A 
ATOM     10  N   UNL d   1      26.652 -15.554  -2.109  0.00  0.00    -0.283 N 
ATOM     11  C   UNL d   1      27.911 -15.911  -1.652  0.00  0.00     0.333 C 
ATOM     12  O   UNL d   1      28.967 -15.614  -2.216  0.00  0.00    -0.246 OA
ENDROOT
BRANCH  10  13
ATOM     13  C   UNL d   1      26.450 -14.604  -3.261  0.00  0.00     0.237 C 
BRANCH  13  14
ATOM     14  C   UNL d   1      27.443 -14.562  -4.442  0.00  0.00     0.240 C 
ATOM     15  O   UNL d   1      27.290 -15.212  -5.473  0.00  0.00    -0.271 OA
ATOM     16  N   UNL d   1      28.648 -13.890  -4.299  0.00  0.00    -0.326 N 
ATOM     17  H   UNL d   1      29.090 -13.912  -3.389  0.00  0.00     0.169 HD
BRANCH  16  18
ATOM     18  C   UNL d   1      29.491 -13.911  -5.455  0.00  0.00     0.034 A 
ATOM     19  C   UNL d   1      29.541 -12.818  -6.313  0.00  0.00     0.031 A 
ATOM     20  C   UNL d   1      30.426 -12.834  -7.400  0.00  0.00     0.021 A 
ATOM     21  C   UNL d   1      31.253 -13.937  -7.630  0.00  0.00     0.011 A 
ATOM     22 BR   UNL d   1      32.383 -13.970  -9.144  0.00  0.00    -0.051 Br
ATOM     23  C   UNL d   1      31.240 -15.018  -6.759  0.00  0.00     0.021 A 
ATOM     24  C   UNL d   1      30.365 -14.998  -5.675  0.00  0.00     0.031 A 
ENDBRANCH  16  18
ENDBRANCH  13  14
ENDBRANCH  10  13
BRANCH   1  25
ATOM     25  C   UNL d   1      29.465 -16.896  -0.164  0.00  0.00     0.137 C 
BRANCH  25  26
ATOM     26  C   UNL d   1      30.156 -15.651   0.303  0.00  0.00     0.020 C 
BRANCH  26  27
ATOM     27  C   UNL d   1      29.341 -14.833   1.286  0.00  0.00    -0.003 C 
ATOM     28  C   UNL d   1      30.229 -13.692   1.743  0.00  0.00     0.005 C 
ENDBRANCH  26  27
ENDBRANCH  25  26
ENDBRANCH   1  25
BRANCH   7  29
ATOM     29  C   UNL d   1      21.823 -17.051  -1.001  0.00  0.00     0.273 C 
ATOM     30  O   UNL d   1      21.090 -16.098  -1.268  0.00  0.00    -0.266 OA
ATOM     31  N   UNL d   1      21.266 -18.337  -0.747  0.00  0.00    -0.289 N 
ATOM     32  H   UNL d   1      21.897 -19.127  -0.607  0.00  0.00     0.183 HD
BRANCH  31  33
ATOM     33  N   UNL d   1      19.887 -18.626  -0.902  0.00  0.00    -0.247 NA
ATOM     34  H   UNL d   1      19.807 -19.451  -1.507  0.00  0.00     0.143 HD
ATOM     35  H   UNL d   1      19.439 -17.866  -1.423  0.00  0.00     0.143 HD
ENDBRANCH  31  33
ENDBRANCH   7  29
TORSDOF 8
ENDMDL
MODEL 4
REMARK VINA RESULT:   -27.591      1.834      2.100
REMARK INTER + INTRA:         -32.338
REMARK INTER:                 -29.978
REMARK INTRA:                  -2.361
REMARK CONF_INDEPENDENT:        2.386
REMARK UNBOUND:                -2.361
REMARK  8 active torsions:
REMARK  status: ('A' for Active; 'I' for Inactive)
REMARK    1  A    between atoms: C_2  and  C_3 
REMARK    2  A    between atoms: C_3  and  C_4 
REMARK    3  A    between atoms: C_4  and  N_5 
REMARK    4  A    between atoms: C_11  and  C_12 
REMARK       I    between atoms: C_12  and  N_14 
REMARK    5  A    between atoms: N_14  and  N_15 
REMARK    6  A    between atoms: N_18  and  C_19 
REMARK    7  A    between atoms: C_19  and  C_20 
REMARK       I    between atoms: C_20  and  N_22 
REMARK    8  A    between atoms: N_22  and  C_23 
ROOT
ATOM      1  N   UNL d   1      27.675 -15.454  -1.501  0.00  0.00    -0.265 N 
ATOM      2  C   UNL d   1      27.194 -16.487  -0.671  0.00  0.00     0.265 C 
ATOM      3  O   UNL d   1      27.898 -17.188   0.034  0.00  0.00    -0.267 OA
ATOM      4  C   UNL d   1      25.738 -16.687  -0.720  0.00  0.00     0.074 A 
ATOM      5  C   UNL d   1      24.830 -17.602   0.037  0.00  0.00    -0.021 A 
ATOM      6  C   UNL d   1      25.303 -18.574   1.112  0.00  0.00     0.051 C 
ATOM      7  C   UNL d   1      23.491 -17.427  -0.395  0.00  0.00     0.083 A 
ATOM      8  S   UNL d   1      23.399 -16.222  -1.613  0.00  0.00    -0.065 SA
ATOM      9  C   UNL d   1      25.038 -15.917  -1.608  0.00  0.00     0.098 A 
ATOM     10  N   UNL d   1      25.544 -14.965  -2.489  0.00  0.00    -0.283 N 
ATOM     11  C   UNL d   1      26.923 -14.821  -2.475  0.00  0.00     0.333 C 
ATOM     12  O   UNL d   1      27.566 -14.193  -3.320  0.00  0.00    -0.246 OA
ENDROOT
BRANCH  10  13
ATOM     13  C   UNL d   1      24.663 -14.210  -3.449  0.00  0.00     0.237 C 
BRANCH  13  14
ATOM     14  C   UNL d   1      25.175 -12.949  -4.178  0.00  0.00     0.240 C 
ATOM     15  O   UNL d   1      25.039 -12.770  -5.386  0.00  0.00    -0.271 OA
ATOM     16  N   UNL d   1      25.961 -12.035  -3.494  0.00  0.00    -0.326 N 
ATOM     17  H   UNL d   1      26.601 -12.398  -2.798  0.00  0.00     0.169 HD
BRANCH  16  18
ATOM     18  C   UNL d   1      26.379 -10.904  -4.263  0.00  0.00     0.034 A 
ATOM     19  C   UNL d   1      27.399 -11.024  -5.201  0.00  0.00     0.031 A 
ATOM     20  C   UNL d   1      27.744  -9.919  -5.991  0.00  0.00     0.021 A 
ATOM     21  C   UNL d   1      27.075  -8.701  -5.843  0.00  0.00     0.011 A 
ATOM     22 BR   UNL d   1      27.606  -7.202  -6.865  0.00  0.00    -0.051 Br
ATOM     23  C   UNL d   1      26.029  -8.578  -4.939  0.00  0.00     0.021 A 
ATOM     24  C   UNL d   1      25.683  -9.680  -4.158  0.00  0.00     0.031 A 
ENDBRANCH  16  18
ENDBRANCH  13  14
ENDBRANCH  10  13
BRANCH   1  25
ATOM     25  C   UNL d   1      29.112 -15.106  -1.623  0.00  0.00     0.137 C 
BRANCH  25  26
ATOM     26  C   UNL d   1      29.940 -16.156  -2.299  0.00  0.00     0.020 C 
BRANCH  26  27
ATOM     27  C   UNL d   1      29.790 -16.174  -3.807  0.00  0.00    -0.003 C 
ATOM     28  C   UNL d   1      30.332 -17.509  -4.282  0.00  0.00     0.005 C 
ENDBRANCH  26  27
ENDBRANCH  25  26
ENDBRANCH   1  25
BRANCH   7  29
ATOM     29  C   UNL d   1      22.186 -18.042  -0.031  0.00  0.00     0.273 C 
ATOM     30  O   UNL d   1      21.911 -18.479   1.086  0.00  0.00    -0.266 OA
ATOM     31  N   UNL d   1      21.234 -18.119  -1.088  0.00  0.00    -0.289 N 
ATOM     32  H   UNL d   1      21.455 -17.679  -1.982  0.00  0.00     0.183 HD
BRANCH  31  33
ATOM     33  N   UNL d   1      19.905 -18.575  -0.899  0.00  0.00    -0.247 NA
ATOM     34  H   UNL d   1      19.298 -18.041  -1.532  0.00  0.00     0.143 HD
ATOM     35  H   UNL d   1      19.594 -18.326   0.045  0.00  0.00     0.143 HD
ENDBRANCH  31  33
ENDBRANCH   7  29
TORSDOF 8
ENDMDL
MODEL 5
REMARK VINA RESULT:   -27.122      2.306      2.931
REMARK INTER + INTRA:         -32.236
REMARK INTER:                 -29.508
REMARK INTRA:                  -2.728
REMARK CONF_INDEPENDENT:        2.386
REMARK UNBOUND:                -2.728
REMARK  8 active torsions:
REMARK  status: ('A' for Active; 'I' for Inactive)
REMARK    1  A    between atoms: C_2  and  C_3 
REMARK    2  A    between atoms: C_3  and  C_4 
REMARK    3  A    between atoms: C_4  and  N_5 
REMARK    4  A    between atoms: C_11  and  C_12 
REMARK       I    between atoms: C_12  and  N_14 
REMARK    5  A    between atoms: N_14  and  N_15 
REMARK    6  A    between atoms: N_18  and  C_19 
REMARK    7  A    between atoms: C_19  and  C_20 
REMARK       I    between atoms: C_20  and  N_22 
REMARK    8  A    between atoms: N_22  and  C_23 
ROOT
ATOM      1  N   UNL d   1      27.639 -15.318  -1.155  0.00  0.00    -0.265 N 
ATOM      2  C   UNL d   1      27.158 -16.383  -0.364  0.00  0.00     0.265 C 
ATOM      3  O   UNL d   1      27.851 -17.059   0.375  0.00  0.00    -0.267 OA
ATOM      4  C   UNL d   1      25.718 -16.648  -0.502  0.00  0.00     0.074 A 
ATOM      5  C   UNL d   1      24.811 -17.613   0.191  0.00  0.00    -0.021 A 
ATOM      6  C   UNL d   1      25.264 -18.575   1.284  0.00  0.00     0.051 C 
ATOM      7  C   UNL d   1      23.493 -17.494  -0.318  0.00  0.00     0.083 A 
ATOM      8  S   UNL d   1      23.418 -16.280  -1.529  0.00  0.00    -0.065 SA
ATOM      9  C   UNL d   1      25.037 -15.901  -1.423  0.00  0.00     0.098 A 
ATOM     10  N   UNL d   1      25.550 -14.916  -2.263  0.00  0.00    -0.283 N 
ATOM     11  C   UNL d   1      26.917 -14.709  -2.166  0.00  0.00     0.333 C 
ATOM     12  O   UNL d   1      27.579 -14.042  -2.965  0.00  0.00    -0.246 OA
ENDROOT
BRANCH  10  13
ATOM     13  C   UNL d   1      24.693 -14.191  -3.268  0.00  0.00     0.237 C 
BRANCH  13  14
ATOM     14  C   UNL d   1      25.159 -12.863  -3.903  0.00  0.00     0.240 C 
ATOM     15  O   UNL d   1      25.117 -12.644  -5.111  0.00  0.00    -0.271 OA
ATOM     16  N   UNL d   1      25.801 -11.918  -3.117  0.00  0.00    -0.326 N 
ATOM     17  H   UNL d   1      26.404 -12.256  -2.378  0.00  0.00     0.169 HD
BRANCH  16  18
ATOM     18  C   UNL d   1      26.187 -10.725  -3.805  0.00  0.00     0.034 A 
ATOM     19  C   UNL d   1      25.316  -9.644  -3.890  0.00  0.00     0.031 A 
ATOM     20  C   UNL d   1      25.742  -8.460  -4.509  0.00  0.00     0.021 A 
ATOM     21  C   UNL d   1      27.030  -8.359  -5.041  0.00  0.00     0.011 A 
ATOM     22 BR   UNL d   1      27.559  -6.781  -5.938  0.00  0.00    -0.051 Br
ATOM     23  C   UNL d   1      27.922  -9.416  -4.929  0.00  0.00     0.021 A 
ATOM     24  C   UNL d   1      27.500 -10.590  -4.308  0.00  0.00     0.031 A 
ENDBRANCH  16  18
ENDBRANCH  13  14
ENDBRANCH  10  13
BRANCH   1  25
ATOM     25  C   UNL d   1      29.063 -14.904  -1.188  0.00  0.00     0.137 C 
BRANCH  25  26
ATOM     26  C   UNL d   1      29.434 -13.907  -0.132  0.00  0.00     0.020 C 
BRANCH  26  27
ATOM     27  C   UNL d   1      28.434 -12.778   0.020  0.00  0.00    -0.003 C 
ATOM     28  C   UNL d   1      27.401 -13.245   1.029  0.00  0.00     0.005 C 
ENDBRANCH  26  27
ENDBRANCH  25  26
ENDBRANCH   1  25
BRANCH   7  29
ATOM     29  C   UNL d   1      22.199 -18.173  -0.039  0.00  0.00     0.273 C 
ATOM     30  O   UNL d   1      21.947 -18.791   0.996  0.00  0.00    -0.266 OA
ATOM     31  N   UNL d   1      21.227 -18.082  -1.076  0.00  0.00    -0.289 N 
ATOM     32  H   UNL d   1      21.429 -17.498  -1.889  0.00  0.00     0.183 HD
BRANCH  31  33
ATOM     33  N   UNL d   1      19.905 -18.575  -0.942  0.00  0.00    -0.247 NA
ATOM     34  H   UNL d   1      19.264 -17.843  -1.270  0.00  0.00     0.143 HD
ATOM     35  H   UNL d   1      19.689 -18.696   0.052  0.00  0.00     0.143 HD
ENDBRANCH  31  33
ENDBRANCH   7  29
TORSDOF 8
ENDMDL
MODEL 6
REMARK VINA RESULT:   -26.398      3.292      6.106
REMARK INTER + INTRA:         -30.449
REMARK INTER:                 -28.784
REMARK INTRA:                  -1.664
REMARK CONF_INDEPENDENT:        2.386
REMARK UNBOUND:                -1.664
REMARK  8 active torsions:
REMARK  status: ('A' for Active; 'I' for Inactive)
REMARK    1  A    between atoms: C_2  and  C_3 
REMARK    2  A    between atoms: C_3  and  C_4 
REMARK    3  A    between atoms: C_4  and  N_5 
REMARK    4  A    between atoms: C_11  and  C_12 
REMARK       I    between atoms: C_12  and  N_14 
REMARK    5  A    between atoms: N_14  and  N_15 
REMARK    6  A    between atoms: N_18  and  C_19 
REMARK    7  A    between atoms: C_19  and  C_20 
REMARK       I    between atoms: C_20  and  N_22 
REMARK    8  A    between atoms: N_22  and  C_23 
ROOT
ATOM      1  N   UNL d   1      26.875 -14.540  -2.050  0.00  0.00    -0.265 N 
ATOM      2  C   UNL d   1      25.468 -14.487  -1.967  0.00  0.00     0.265 C 
ATOM      3  O   UNL d   1      24.795 -13.524  -2.289  0.00  0.00    -0.267 OA
ATOM      4  C   UNL d   1      24.838 -15.705  -1.435  0.00  0.00     0.074 A 
ATOM      5  C   UNL d   1      23.405 -16.088  -1.254  0.00  0.00    -0.021 A 
ATOM      6  C   UNL d   1      22.228 -15.200  -1.645  0.00  0.00     0.051 C 
ATOM      7  C   UNL d   1      23.315 -17.379  -0.674  0.00  0.00     0.083 A 
ATOM      8  S   UNL d   1      24.879 -18.033  -0.407  0.00  0.00    -0.065 SA
ATOM      9  C   UNL d   1      25.675 -16.701  -1.013  0.00  0.00     0.098 A 
ATOM     10  N   UNL d   1      27.067 -16.696  -1.016  0.00  0.00    -0.283 N 
ATOM     11  C   UNL d   1      27.654 -15.525  -1.468  0.00  0.00     0.333 C 
ATOM     12  O   UNL d   1      28.851 -15.254  -1.346  0.00  0.00    -0.246 OA
ENDROOT
BRANCH  10  13
ATOM     13  C   UNL d   1      27.875 -17.851  -0.482  0.00  0.00     0.237 C 
BRANCH  13  14
ATOM     14  C   UNL d   1      29.415 -17.860  -0.583  0.00  0.00     0.240 C 
ATOM     15  O   UNL d   1      30.045 -18.730  -1.179  0.00  0.00    -0.271 OA
ATOM     16  N   UNL d   1      30.155 -16.945   0.151  0.00  0.00    -0.326 N 
ATOM     17  H   UNL d   1      29.803 -16.684   1.064  0.00  0.00     0.169 HD
BRANCH  16  18
ATOM     18  C   UNL d   1      31.572 -17.039  -0.019  0.00  0.00     0.034 A 
ATOM     19  C   UNL d   1      32.172 -16.617  -1.201  0.00  0.00     0.031 A 
ATOM     20  C   UNL d   1      33.568 -16.655  -1.319  0.00  0.00     0.021 A 
ATOM     21  C   UNL d   1      34.359 -17.115  -0.263  0.00  0.00     0.011 A 
ATOM     22 BR   UNL d   1      36.235 -17.229  -0.470  0.00  0.00    -0.051 Br
ATOM     23  C   UNL d   1      33.776 -17.502   0.935  0.00  0.00     0.021 A 
ATOM     24  C   UNL d   1      32.388 -17.458   1.053  0.00  0.00     0.031 A 
ENDBRANCH  16  18
ENDBRANCH  13  14
ENDBRANCH  10  13
BRANCH   1  25
ATOM     25  C   UNL d   1      27.708 -13.411  -2.530  0.00  0.00     0.137 C 
BRANCH  25  26
ATOM     26  C   UNL d   1      27.805 -13.314  -4.022  0.00  0.00     0.020 C 
BRANCH  26  27
ATOM     27  C   UNL d   1      26.637 -13.949  -4.752  0.00  0.00    -0.003 C 
ATOM     28  C   UNL d   1      25.625 -12.845  -4.995  0.00  0.00     0.005 C 
ENDBRANCH  26  27
ENDBRANCH  25  26
ENDBRANCH   1  25
BRANCH   7  29
ATOM     29  C   UNL d   1      22.193 -18.264  -0.259  0.00  0.00     0.273 C 
ATOM     30  O   UNL d   1      22.173 -18.919   0.783  0.00  0.00    -0.266 OA
ATOM     31  N   UNL d   1      21.103 -18.333  -1.173  0.00  0.00    -0.289 N 
ATOM     32  H   UNL d   1      21.106 -17.721  -1.990  0.00  0.00     0.183 HD
BRANCH  31  33
ATOM     33  N   UNL d   1      19.905 -19.039  -0.895  0.00  0.00    -0.247 NA
ATOM     34  H   UNL d   1      19.123 -18.382  -1.001  0.00  0.00     0.143 HD
ATOM     35  H   UNL d   1      19.896 -19.312   0.093  0.00  0.00     0.143 HD
ENDBRANCH  31  33
ENDBRANCH   7  29
TORSDOF 8
ENDMDL
MODEL 7
REMARK VINA RESULT:   -25.140      3.665      6.381
REMARK INTER + INTRA:         -29.104
REMARK INTER:                 -27.527
REMARK INTRA:                  -1.577
REMARK CONF_INDEPENDENT:        2.386
REMARK UNBOUND:                -1.577
REMARK  8 active torsions:
REMARK  status: ('A' for Active; 'I' for Inactive)
REMARK    1  A    between atoms: C_2  and  C_3 
REMARK    2  A    between atoms: C_3  and  C_4 
REMARK    3  A    between atoms: C_4  and  N_5 
REMARK    4  A    between atoms: C_11  and  C_12 
REMARK       I    between atoms: C_12  and  N_14 
REMARK    5  A    between atoms: N_14  and  N_15 
REMARK    6  A    between atoms: N_18  and  C_19 
REMARK    7  A    between atoms: C_19  and  C_20 
REMARK       I    between atoms: C_20  and  N_22 
REMARK    8  A    between atoms: N_22  and  C_23 
ROOT
ATOM      1  N   UNL d   1      27.098 -14.515  -1.797  0.00  0.00    -0.265 N 
ATOM      2  C   UNL d   1      25.689 -14.467  -1.768  0.00  0.00     0.265 C 
ATOM      3  O   UNL d   1      25.028 -13.477  -2.029  0.00  0.00    -0.267 OA
ATOM      4  C   UNL d   1      25.040 -15.726  -1.374  0.00  0.00     0.074 A 
ATOM      5  C   UNL d   1      23.601 -16.122  -1.286  0.00  0.00    -0.021 A 
ATOM      6  C   UNL d   1      22.440 -15.200  -1.644  0.00  0.00     0.051 C 
ATOM      7  C   UNL d   1      23.490 -17.459  -0.829  0.00  0.00     0.083 A 
ATOM      8  S   UNL d   1      25.044 -18.137  -0.557  0.00  0.00    -0.065 SA
ATOM      9  C   UNL d   1      25.861 -16.757  -1.009  0.00  0.00     0.098 A 
ATOM     10  N   UNL d   1      27.252 -16.755  -0.954  0.00  0.00    -0.283 N 
ATOM     11  C   UNL d   1      27.855 -15.549  -1.274  0.00  0.00     0.333 C 
ATOM     12  O   UNL d   1      29.045 -15.292  -1.080  0.00  0.00    -0.246 OA
ENDROOT
BRANCH  10  13
ATOM     13  C   UNL d   1      28.040 -17.954  -0.493  0.00  0.00     0.237 C 
BRANCH  13  14
ATOM     14  C   UNL d   1      29.486 -18.192  -0.978  0.00  0.00     0.240 C 
ATOM     15  O   UNL d   1      29.981 -17.597  -1.931  0.00  0.00    -0.271 OA
ATOM     16  N   UNL d   1      30.229 -19.227  -0.431  0.00  0.00    -0.326 N 
ATOM     17  H   UNL d   1      29.735 -20.073  -0.175  0.00  0.00     0.169 HD
BRANCH  16  18
ATOM     18  C   UNL d   1      31.555 -19.357  -0.951  0.00  0.00     0.034 A 
ATOM     19  C   UNL d   1      32.654 -18.983  -0.184  0.00  0.00     0.031 A 
ATOM     20  C   UNL d   1      33.947 -19.182  -0.687  0.00  0.00     0.021 A 
ATOM     21  C   UNL d   1      34.140 -19.751  -1.949  0.00  0.00     0.011 A 
ATOM     22 BR   UNL d   1      35.889 -19.943  -2.641  0.00  0.00    -0.051 Br
ATOM     23  C   UNL d   1      33.054 -20.165  -2.708  0.00  0.00     0.021 A 
ATOM     24  C   UNL d   1      31.769 -19.971  -2.204  0.00  0.00     0.031 A 
ENDBRANCH  16  18
ENDBRANCH  13  14
ENDBRANCH  10  13
BRANCH   1  25
ATOM     25  C   UNL d   1      27.948 -13.348  -2.140  0.00  0.00     0.137 C 
BRANCH  25  26
ATOM     26  C   UNL d   1      28.159 -12.391  -1.007  0.00  0.00     0.020 C 
BRANCH  26  27
ATOM     27  C   UNL d   1      27.758 -12.949   0.345  0.00  0.00    -0.003 C 
ATOM     28  C   UNL d   1      27.160 -11.797   1.130  0.00  0.00     0.005 C 
ENDBRANCH  26  27
ENDBRANCH  25  26
ENDBRANCH   1  25
BRANCH   7  29
ATOM     29  C   UNL d   1      22.354 -18.376  -0.541  0.00  0.00     0.273 C 
ATOM     30  O   UNL d   1      22.438 -19.391   0.150  0.00  0.00    -0.266 OA
ATOM     31  N   UNL d   1      21.115 -18.017  -1.144  0.00  0.00    -0.289 N 
ATOM     32  H   UNL d   1      21.051 -17.130  -1.646  0.00  0.00     0.183 HD
BRANCH  31  33
ATOM     33  N   UNL d   1      19.904 -18.711  -0.895  0.00  0.00    -0.247 NA
ATOM     34  H   UNL d   1      20.146 -19.639  -0.527  0.00  0.00     0.143 HD
ATOM     35  H   UNL d   1      19.429 -18.891  -1.785  0.00  0.00     0.143 HD
ENDBRANCH  31  33
ENDBRANCH   7  29
TORSDOF 8
ENDMDL
