MODEL 1
REMARK VINA RESULT:    -7.876      0.000      0.000
REMARK INTER + INTRA:         -14.692
REMARK INTER:                 -11.455
REMARK INTRA:                  -3.237
REMARK CONF_INDEPENDENT:        3.580
REMARK UNBOUND:                -3.237
REMARK  12 active torsions:
REMARK  status: ('A' for Active; 'I' for Inactive)
REMARK    1  A    between atoms: C_15  and  O_16 
REMARK    2  A    between atoms: C_15  and  C_17 
REMARK    3  A    between atoms: C_17  and  C_19 
REMARK    4  A    between atoms: C_19  and  O_20 
REMARK    5  A    between atoms: O_20  and  C_21 
REMARK    6  A    between atoms: C_21  and  C_23 
REMARK    7  A    between atoms: C_23  and  C_24 
REMARK    8  A    between atoms: C_24  and  C_25 
REMARK       I    between atoms: C_25  and  N_27 
REMARK    9  A    between atoms: N_27  and  C_28 
REMARK   10  A    between atoms: C_28  and  C_29 
REMARK   11  A    between atoms: C_29  and  C_30 
REMARK   12  A    between atoms: C_30  and  N_31 
ROOT
ATOM      1  C   UNL d   1      27.630 -15.467  -3.819  0.00  0.00     0.016 C 
ATOM      2  C   UNL d   1      27.801 -15.700  -2.291  0.00  0.00    -0.027 C 
ATOM      3  C   UNL d   1      28.313 -14.361  -1.678  0.00  0.00     0.018 C 
ATOM      4  C   UNL d   1      28.109 -14.466  -0.182  0.00  0.00     0.083 C 
ATOM      5  C   UNL d   1      26.676 -14.043  -0.175  0.00  0.00     0.146 C 
ATOM      6  O   UNL d   1      26.258 -13.198   0.622  0.00  0.00    -0.294 OA
ATOM      7  C   UNL d   1      25.829 -14.825  -1.245  0.00  0.00     0.035 C 
ATOM      8  C   UNL d   1      26.448 -15.979  -1.612  0.00  0.00     0.000 C 
ATOM      9  C   UNL d   1      26.434 -16.959  -0.423  0.00  0.00     0.016 C 
ATOM     10  C   UNL d   1      27.708 -17.857  -0.133  0.00  0.00     0.006 C 
ATOM     11  C   UNL d   1      29.134 -17.375  -0.771  0.00  0.00    -0.005 C 
ATOM     12  C   UNL d   1      30.609 -18.325  -0.893  0.00  0.00     0.002 C 
ATOM     13  C   UNL d   1      32.506 -18.442  -1.619  0.00  0.00     0.009 C 
ATOM     14  C   UNL d   1      33.549 -18.477  -0.492  0.00  0.00     0.047 C 
ATOM     15  C   UNL d   1      32.307 -18.821   0.130  0.00  0.00     0.128 C 
ATOM     16  C   UNL d   1      31.524 -17.312  -0.561  0.00  0.00    -0.002 C 
ATOM     17  C   UNL d   1      31.637 -16.102   0.307  0.00  0.00     0.019 C 
ATOM     18  C   UNL d   1      31.247 -16.921  -2.329  0.00  0.00     0.013 C 
ATOM     19  C   UNL d   1      30.101 -16.118  -2.609  0.00  0.00     0.007 C 
ATOM     20  C   UNL d   1      28.850 -16.788  -2.126  0.00  0.00    -0.001 C 
ENDROOT
BRANCH  15  21
ATOM     21  O   UNL d   1      32.377 -18.848   1.518  0.00  0.00    -0.381 OA
ATOM     22  H   UNL d   1      31.734 -19.517   1.805  0.00  0.00     0.211 HD
ENDBRANCH  15  21
BRANCH  15  23
ATOM     23  C   UNL d   1      31.836 -20.392  -0.686  0.00  0.00     0.185 C 
ATOM     24  O   UNL d   1      32.458 -20.943  -1.609  0.00  0.00    -0.292 OA
BRANCH  23  25
ATOM     25  C   UNL d   1      30.791 -21.181   0.008  0.00  0.00     0.260 C 
BRANCH  25  26
ATOM     26  O   UNL d   1      31.400 -21.522   1.260  0.00  0.00    -0.314 OA
BRANCH  26  27
ATOM     27  C   UNL d   1      30.509 -21.578   2.275  0.00  0.00     0.259 C 
ATOM     28  O   UNL d   1      29.382 -21.965   2.154  0.00  0.00    -0.265 OA
BRANCH  27  29
ATOM     29  C   UNL d   1      31.153 -21.097   3.559  0.00  0.00     0.120 C 
BRANCH  29  30
ATOM     30  C   UNL d   1      30.327 -21.611   4.737  0.00  0.00     0.112 C 
BRANCH  30  31
ATOM     31  C   UNL d   1      31.150 -21.690   6.009  0.00  0.00     0.217 C 
ATOM     32  O   UNL d   1      30.662 -21.575   7.128  0.00  0.00    -0.274 OA
ATOM     33  N   UNL d   1      32.504 -21.906   5.824  0.00  0.00    -0.361 N 
ATOM     34  H   UNL d   1      32.870 -21.981   4.882  0.00  0.00     0.162 HD
BRANCH  33  35
ATOM     35  C   UNL d   1      33.382 -21.985   6.981  0.00  0.00     0.124 C 
BRANCH  35  36
ATOM     36  C   UNL d   1      34.858 -21.874   6.619  0.00  0.00     0.040 C 
BRANCH  36  37
ATOM     37  C   UNL d   1      35.106 -20.746   5.618  0.00  0.00     0.130 C 
BRANCH  37  38
ATOM     38  N   UNL d   1      34.758 -21.145   4.241  0.00  0.00    -0.352 N 
ATOM     39  C   UNL d   1      34.910 -22.413   3.682  0.00  0.00     0.108 A 
ATOM     40  C   UNL d   1      34.357 -22.363   2.432  0.00  0.00     0.106 A 
ATOM     41  N   UNL d   1      33.912 -21.076   2.257  0.00  0.00    -0.361 N 
ATOM     42  C   UNL d   1      34.159 -20.343   3.345  0.00  0.00     0.182 A 
ATOM     43  H   UNL d   1      33.447 -20.720   1.425  0.00  0.00     0.166 HD
ENDBRANCH  37  38
ENDBRANCH  36  37
ENDBRANCH  35  36
ENDBRANCH  33  35
ENDBRANCH  30  31
ENDBRANCH  29  30
ENDBRANCH  27  29
ENDBRANCH  26  27
ENDBRANCH  25  26
ENDBRANCH  23  25
ENDBRANCH  15  23
TORSDOF 12
ENDMDL
MODEL 2
REMARK VINA RESULT:    -7.599      5.875      9.056
REMARK INTER + INTRA:         -14.321
REMARK INTER:                 -11.179
REMARK INTRA:                  -3.142
REMARK CONF_INDEPENDENT:        3.580
REMARK UNBOUND:                -3.142
REMARK  12 active torsions:
REMARK  status: ('A' for Active; 'I' for Inactive)
REMARK    1  A    between atoms: C_15  and  O_16 
REMARK    2  A    between atoms: C_15  and  C_17 
REMARK    3  A    between atoms: C_17  and  C_19 
REMARK    4  A    between atoms: C_19  and  O_20 
REMARK    5  A    between atoms: O_20  and  C_21 
REMARK    6  A    between atoms: C_21  and  C_23 
REMARK    7  A    between atoms: C_23  and  C_24 
REMARK    8  A    between atoms: C_24  and  C_25 
REMARK       I    between atoms: C_25  and  N_27 
REMARK    9  A    between atoms: N_27  and  C_28 
REMARK   10  A    between atoms: C_28  and  C_29 
REMARK   11  A    between atoms: C_29  and  C_30 
REMARK   12  A    between atoms: C_30  and  N_31 
ROOT
ATOM      1  C   UNL d   1      27.441 -10.639   3.860  0.00  0.00     0.016 C 
ATOM      2  C   UNL d   1      28.249 -11.931   4.168  0.00  0.00    -0.027 C 
ATOM      3  C   UNL d   1      29.709 -11.490   4.493  0.00  0.00     0.018 C 
ATOM      4  C   UNL d   1      30.378 -12.674   5.159  0.00  0.00     0.083 C 
ATOM      5  C   UNL d   1      29.877 -12.402   6.539  0.00  0.00     0.146 C 
ATOM      6  O   UNL d   1      30.631 -12.431   7.515  0.00  0.00    -0.294 OA
ATOM      7  C   UNL d   1      28.327 -12.130   6.556  0.00  0.00     0.035 C 
ATOM      8  C   UNL d   1      27.730 -12.627   5.439  0.00  0.00     0.000 C 
ATOM      9  C   UNL d   1      27.780 -14.166   5.482  0.00  0.00     0.016 C 
ATOM     10  C   UNL d   1      28.066 -14.977   4.151  0.00  0.00     0.006 C 
ATOM     11  C   UNL d   1      28.775 -14.178   2.915  0.00  0.00    -0.005 C 
ATOM     12  C   UNL d   1      28.904 -14.717   1.246  0.00  0.00     0.002 C 
ATOM     13  C   UNL d   1      29.442 -14.249  -0.659  0.00  0.00     0.009 C 
ATOM     14  C   UNL d   1      30.617 -15.108  -1.151  0.00  0.00     0.047 C 
ATOM     15  C   UNL d   1      30.084 -15.805  -0.019  0.00  0.00     0.128 C 
ATOM     16  C   UNL d   1      30.218 -14.284   1.000  0.00  0.00    -0.002 C 
ATOM     17  C   UNL d   1      31.527 -14.121   1.702  0.00  0.00     0.019 C 
ATOM     18  C   UNL d   1      29.316 -12.708   0.759  0.00  0.00     0.013 C 
ATOM     19  C   UNL d   1      29.045 -11.966   1.948  0.00  0.00     0.007 C 
ATOM     20  C   UNL d   1      28.225 -12.777   2.905  0.00  0.00    -0.001 C 
ENDROOT
BRANCH  15  21
ATOM     21  O   UNL d   1      30.889 -16.855   0.407  0.00  0.00    -0.381 OA
ATOM     22  H   UNL d   1      30.705 -16.964   1.355  0.00  0.00     0.211 HD
ENDBRANCH  15  21
BRANCH  15  23
ATOM     23  C   UNL d   1      28.387 -16.248  -0.545  0.00  0.00     0.185 C 
ATOM     24  O   UNL d   1      27.925 -16.113  -1.690  0.00  0.00    -0.292 OA
BRANCH  23  25
ATOM     25  C   UNL d   1      27.622 -17.080   0.413  0.00  0.00     0.260 C 
BRANCH  25  26
ATOM     26  O   UNL d   1      26.300 -16.528   0.361  0.00  0.00    -0.314 OA
BRANCH  26  27
ATOM     27  C   UNL d   1      25.383 -17.410  -0.095  0.00  0.00     0.259 C 
ATOM     28  O   UNL d   1      25.381 -18.575   0.184  0.00  0.00    -0.265 OA
BRANCH  27  29
ATOM     29  C   UNL d   1      24.377 -16.704  -0.980  0.00  0.00     0.120 C 
BRANCH  29  30
ATOM     30  C   UNL d   1      24.982 -16.551  -2.374  0.00  0.00     0.112 C 
BRANCH  30  31
ATOM     31  C   UNL d   1      25.218 -15.095  -2.728  0.00  0.00     0.217 C 
ATOM     32  O   UNL d   1      24.780 -14.576  -3.749  0.00  0.00    -0.274 OA
ATOM     33  N   UNL d   1      25.967 -14.378  -1.810  0.00  0.00    -0.361 N 
ATOM     34  H   UNL d   1      26.324 -14.848  -0.986  0.00  0.00     0.162 HD
BRANCH  33  35
ATOM     35  C   UNL d   1      26.260 -12.977  -2.063  0.00  0.00     0.124 C 
BRANCH  35  36
ATOM     36  C   UNL d   1      27.449 -12.773  -2.994  0.00  0.00     0.040 C 
BRANCH  36  37
ATOM     37  C   UNL d   1      27.010 -12.716  -4.458  0.00  0.00     0.130 C 
BRANCH  37  38
ATOM     38  N   UNL d   1      27.832 -13.590  -5.315  0.00  0.00    -0.352 N 
ATOM     39  C   UNL d   1      28.327 -14.850  -4.980  0.00  0.00     0.108 A 
ATOM     40  C   UNL d   1      28.932 -15.348  -6.102  0.00  0.00     0.106 A 
ATOM     41  N   UNL d   1      28.813 -14.379  -7.068  0.00  0.00    -0.361 N 
ATOM     42  C   UNL d   1      28.155 -13.320  -6.591  0.00  0.00     0.182 A 
ATOM     43  H   UNL d   1      29.160 -14.450  -8.021  0.00  0.00     0.166 HD
ENDBRANCH  37  38
ENDBRANCH  36  37
ENDBRANCH  35  36
ENDBRANCH  33  35
ENDBRANCH  30  31
ENDBRANCH  29  30
ENDBRANCH  27  29
ENDBRANCH  26  27
ENDBRANCH  25  26
ENDBRANCH  23  25
ENDBRANCH  15  23
TORSDOF 12
ENDMDL
MODEL 3
REMARK VINA RESULT:    -7.157      6.546      9.389
REMARK INTER + INTRA:         -14.406
REMARK INTER:                 -10.737
REMARK INTRA:                  -3.670
REMARK CONF_INDEPENDENT:        3.580
REMARK UNBOUND:                -3.670
REMARK  12 active torsions:
REMARK  status: ('A' for Active; 'I' for Inactive)
REMARK    1  A    between atoms: C_15  and  O_16 
REMARK    2  A    between atoms: C_15  and  C_17 
REMARK    3  A    between atoms: C_17  and  C_19 
REMARK    4  A    between atoms: C_19  and  O_20 
REMARK    5  A    between atoms: O_20  and  C_21 
REMARK    6  A    between atoms: C_21  and  C_23 
REMARK    7  A    between atoms: C_23  and  C_24 
REMARK    8  A    between atoms: C_24  and  C_25 
REMARK       I    between atoms: C_25  and  N_27 
REMARK    9  A    between atoms: N_27  and  C_28 
REMARK   10  A    between atoms: C_28  and  C_29 
REMARK   11  A    between atoms: C_29  and  C_30 
REMARK   12  A    between atoms: C_30  and  N_31 
ROOT
ATOM      1  C   UNL d   1      24.693 -16.218  -1.972  0.00  0.00     0.016 C 
ATOM      2  C   UNL d   1      25.752 -15.157  -2.384  0.00  0.00    -0.027 C 
ATOM      3  C   UNL d   1      27.049 -15.931  -2.769  0.00  0.00     0.018 C 
ATOM      4  C   UNL d   1      27.925 -14.955  -3.524  0.00  0.00     0.083 C 
ATOM      5  C   UNL d   1      27.287 -15.149  -4.861  0.00  0.00     0.146 C 
ATOM      6  O   UNL d   1      27.963 -15.325  -5.878  0.00  0.00    -0.294 OA
ATOM      7  C   UNL d   1      25.718 -15.058  -4.779  0.00  0.00     0.035 C 
ATOM      8  C   UNL d   1      25.323 -14.402  -3.655  0.00  0.00     0.000 C 
ATOM      9  C   UNL d   1      25.718 -12.918  -3.772  0.00  0.00     0.016 C 
ATOM     10  C   UNL d   1      26.267 -12.151  -2.498  0.00  0.00     0.006 C 
ATOM     11  C   UNL d   1      26.854 -13.052  -1.267  0.00  0.00    -0.005 C 
ATOM     12  C   UNL d   1      27.210 -12.503   0.365  0.00  0.00     0.002 C 
ATOM     13  C   UNL d   1      27.749 -13.020   2.258  0.00  0.00     0.009 C 
ATOM     14  C   UNL d   1      29.118 -12.438   2.643  0.00  0.00     0.047 C 
ATOM     15  C   UNL d   1      28.685 -11.675   1.512  0.00  0.00     0.128 C 
ATOM     16  C   UNL d   1      28.404 -13.218   0.558  0.00  0.00    -0.002 C 
ATOM     17  C   UNL d   1      29.594 -13.699  -0.207  0.00  0.00     0.019 C 
ATOM     18  C   UNL d   1      27.185 -14.535   0.921  0.00  0.00     0.013 C 
ATOM     19  C   UNL d   1      26.676 -15.233  -0.215  0.00  0.00     0.007 C 
ATOM     20  C   UNL d   1      26.002 -14.287  -1.162  0.00  0.00    -0.001 C 
ENDROOT
BRANCH  15  21
ATOM     21  O   UNL d   1      29.678 -10.851   0.993  0.00  0.00    -0.381 OA
ATOM     22  H   UNL d   1      29.225 -10.052   0.677  0.00  0.00     0.211 HD
ENDBRANCH  15  21
BRANCH  15  23
ATOM     23  C   UNL d   1      27.170 -10.836   2.109  0.00  0.00     0.185 C 
ATOM     24  O   UNL d   1      26.660 -10.979   3.233  0.00  0.00    -0.292 OA
BRANCH  23  25
ATOM     25  C   UNL d   1      26.698  -9.706   1.276  0.00  0.00     0.260 C 
BRANCH  25  26
ATOM     26  O   UNL d   1      27.713  -8.710   1.449  0.00  0.00    -0.314 OA
BRANCH  26  27
ATOM     27  C   UNL d   1      27.409  -7.819   2.420  0.00  0.00     0.259 C 
ATOM     28  O   UNL d   1      26.303  -7.646   2.844  0.00  0.00    -0.265 OA
BRANCH  27  29
ATOM     29  C   UNL d   1      28.663  -7.105   2.882  0.00  0.00     0.120 C 
BRANCH  29  30
ATOM     30  C   UNL d   1      28.523  -6.795   4.371  0.00  0.00     0.112 C 
BRANCH  30  31
ATOM     31  C   UNL d   1      28.745  -8.027   5.226  0.00  0.00     0.217 C 
ATOM     32  O   UNL d   1      29.479  -8.036   6.208  0.00  0.00    -0.274 OA
ATOM     33  N   UNL d   1      28.053  -9.157   4.824  0.00  0.00    -0.361 N 
ATOM     34  H   UNL d   1      27.468  -9.113   3.997  0.00  0.00     0.162 HD
BRANCH  33  35
ATOM     35  C   UNL d   1      28.207 -10.396   5.570  0.00  0.00     0.124 C 
BRANCH  35  36
ATOM     36  C   UNL d   1      29.652 -10.873   5.644  0.00  0.00     0.040 C 
BRANCH  36  37
ATOM     37  C   UNL d   1      29.788 -12.110   6.532  0.00  0.00     0.130 C 
BRANCH  37  38
ATOM     38  N   UNL d   1      29.185 -13.304   5.910  0.00  0.00    -0.352 N 
ATOM     39  C   UNL d   1      27.824 -13.582   5.801  0.00  0.00     0.108 A 
ATOM     40  C   UNL d   1      27.712 -14.726   5.058  0.00  0.00     0.106 A 
ATOM     41  N   UNL d   1      28.994 -15.121   4.761  0.00  0.00    -0.361 N 
ATOM     42  C   UNL d   1      29.879 -14.266   5.280  0.00  0.00     0.182 A 
ATOM     43  H   UNL d   1      29.248 -15.939   4.213  0.00  0.00     0.166 HD
ENDBRANCH  37  38
ENDBRANCH  36  37
ENDBRANCH  35  36
ENDBRANCH  33  35
ENDBRANCH  30  31
ENDBRANCH  29  30
ENDBRANCH  27  29
ENDBRANCH  26  27
ENDBRANCH  25  26
ENDBRANCH  23  25
ENDBRANCH  15  23
TORSDOF 12
ENDMDL
MODEL 4
REMARK VINA RESULT:    -7.152      6.447      8.659
REMARK INTER + INTRA:         -14.560
REMARK INTER:                 -10.731
REMARK INTRA:                  -3.828
REMARK CONF_INDEPENDENT:        3.580
REMARK UNBOUND:                -3.828
REMARK  12 active torsions:
REMARK  status: ('A' for Active; 'I' for Inactive)
REMARK    1  A    between atoms: C_15  and  O_16 
REMARK    2  A    between atoms: C_15  and  C_17 
REMARK    3  A    between atoms: C_17  and  C_19 
REMARK    4  A    between atoms: C_19  and  O_20 
REMARK    5  A    between atoms: O_20  and  C_21 
REMARK    6  A    between atoms: C_21  and  C_23 
REMARK    7  A    between atoms: C_23  and  C_24 
REMARK    8  A    between atoms: C_24  and  C_25 
REMARK       I    between atoms: C_25  and  N_27 
REMARK    9  A    between atoms: N_27  and  C_28 
REMARK   10  A    between atoms: C_28  and  C_29 
REMARK   11  A    between atoms: C_29  and  C_30 
REMARK   12  A    between atoms: C_30  and  N_31 
ROOT
ATOM      1  C   UNL d   1      24.559 -16.464  -1.698  0.00  0.00     0.016 C 
ATOM      2  C   UNL d   1      25.708 -15.461  -1.999  0.00  0.00    -0.027 C 
ATOM      3  C   UNL d   1      26.880 -16.281  -2.621  0.00  0.00     0.018 C 
ATOM      4  C   UNL d   1      27.816 -15.277  -3.259  0.00  0.00     0.083 C 
ATOM      5  C   UNL d   1      27.078 -15.151  -4.552  0.00  0.00     0.146 C 
ATOM      6  O   UNL d   1      27.666 -15.204  -5.636  0.00  0.00    -0.294 OA
ATOM      7  C   UNL d   1      25.539 -14.914  -4.327  0.00  0.00     0.035 C 
ATOM      8  C   UNL d   1      25.294 -14.442  -3.075  0.00  0.00     0.000 C 
ATOM      9  C   UNL d   1      25.853 -13.011  -2.957  0.00  0.00     0.016 C 
ATOM     10  C   UNL d   1      26.566 -12.557  -1.616  0.00  0.00     0.006 C 
ATOM     11  C   UNL d   1      27.117 -13.728  -0.618  0.00  0.00    -0.005 C 
ATOM     12  C   UNL d   1      27.635 -13.534   1.051  0.00  0.00     0.002 C 
ATOM     13  C   UNL d   1      28.225 -14.448   2.770  0.00  0.00     0.009 C 
ATOM     14  C   UNL d   1      29.674 -14.095   3.139  0.00  0.00     0.047 C 
ATOM     15  C   UNL d   1      29.265 -13.093   2.202  0.00  0.00     0.128 C 
ATOM     16  C   UNL d   1      28.746 -14.392   1.015  0.00  0.00    -0.002 C 
ATOM     17  C   UNL d   1      29.822 -14.844   0.081  0.00  0.00     0.019 C 
ATOM     18  C   UNL d   1      27.406 -15.620   1.235  0.00  0.00     0.013 C 
ATOM     19  C   UNL d   1      26.749 -16.037   0.038  0.00  0.00     0.007 C 
ATOM     20  C   UNL d   1      26.134 -14.866  -0.666  0.00  0.00    -0.001 C 
ENDROOT
BRANCH  15  21
ATOM     21  O   UNL d   1      30.314 -12.295   1.759  0.00  0.00    -0.381 OA
ATOM     22  H   UNL d   1      30.077 -11.384   1.998  0.00  0.00     0.211 HD
ENDBRANCH  15  21
BRANCH  15  23
ATOM     23  C   UNL d   1      27.899 -12.227   3.062  0.00  0.00     0.185 C 
ATOM     24  O   UNL d   1      27.484 -12.486   4.204  0.00  0.00    -0.292 OA
BRANCH  23  25
ATOM     25  C   UNL d   1      27.462 -10.955   2.441  0.00  0.00     0.260 C 
BRANCH  25  26
ATOM     26  O   UNL d   1      28.604 -10.101   2.578  0.00  0.00    -0.314 OA
BRANCH  26  27
ATOM     27  C   UNL d   1      29.170 -10.180   3.804  0.00  0.00     0.259 C 
ATOM     28  O   UNL d   1      30.239 -10.678   4.015  0.00  0.00    -0.265 OA
BRANCH  27  29
ATOM     29  C   UNL d   1      28.265  -9.541   4.837  0.00  0.00     0.120 C 
BRANCH  29  30
ATOM     30  C   UNL d   1      29.056  -9.365   6.131  0.00  0.00     0.112 C 
BRANCH  30  31
ATOM     31  C   UNL d   1      28.938 -10.578   7.033  0.00  0.00     0.217 C 
ATOM     32  O   UNL d   1      28.865 -10.497   8.255  0.00  0.00    -0.274 OA
ATOM     33  N   UNL d   1      28.913 -11.798   6.381  0.00  0.00    -0.361 N 
ATOM     34  H   UNL d   1      28.990 -11.822   5.371  0.00  0.00     0.162 HD
BRANCH  33  35
ATOM     35  C   UNL d   1      28.813 -13.024   7.158  0.00  0.00     0.124 C 
BRANCH  35  36
ATOM     36  C   UNL d   1      30.170 -13.587   7.562  0.00  0.00     0.040 C 
BRANCH  36  37
ATOM     37  C   UNL d   1      30.079 -14.388   8.861  0.00  0.00     0.130 C 
BRANCH  37  38
ATOM     38  N   UNL d   1      29.248 -13.708   9.872  0.00  0.00    -0.352 N 
ATOM     39  C   UNL d   1      28.184 -14.264  10.579  0.00  0.00     0.108 A 
ATOM     40  C   UNL d   1      27.777 -13.323  11.486  0.00  0.00     0.106 A 
ATOM     41  N   UNL d   1      28.579 -12.226  11.290  0.00  0.00    -0.361 N 
ATOM     42  C   UNL d   1      29.460 -12.457  10.315  0.00  0.00     0.182 A 
ATOM     43  H   UNL d   1      28.529 -11.356  11.816  0.00  0.00     0.166 HD
ENDBRANCH  37  38
ENDBRANCH  36  37
ENDBRANCH  35  36
ENDBRANCH  33  35
ENDBRANCH  30  31
ENDBRANCH  29  30
ENDBRANCH  27  29
ENDBRANCH  26  27
ENDBRANCH  25  26
ENDBRANCH  23  25
ENDBRANCH  15  23
TORSDOF 12
ENDMDL
MODEL 5
REMARK VINA RESULT:    -6.762      6.135     10.246
REMARK INTER + INTRA:         -13.826
REMARK INTER:                 -10.342
REMARK INTRA:                  -3.484
REMARK CONF_INDEPENDENT:        3.580
REMARK UNBOUND:                -3.484
REMARK  12 active torsions:
REMARK  status: ('A' for Active; 'I' for Inactive)
REMARK    1  A    between atoms: C_15  and  O_16 
REMARK    2  A    between atoms: C_15  and  C_17 
REMARK    3  A    between atoms: C_17  and  C_19 
REMARK    4  A    between atoms: C_19  and  O_20 
REMARK    5  A    between atoms: O_20  and  C_21 
REMARK    6  A    between atoms: C_21  and  C_23 
REMARK    7  A    between atoms: C_23  and  C_24 
REMARK    8  A    between atoms: C_24  and  C_25 
REMARK       I    between atoms: C_25  and  N_27 
REMARK    9  A    between atoms: N_27  and  C_28 
REMARK   10  A    between atoms: C_28  and  C_29 
REMARK   11  A    between atoms: C_29  and  C_30 
REMARK   12  A    between atoms: C_30  and  N_31 
ROOT
ATOM      1  C   UNL d   1      28.847 -16.855  -1.852  0.00  0.00     0.016 C 
ATOM      2  C   UNL d   1      27.614 -16.009  -1.425  0.00  0.00    -0.027 C 
ATOM      3  C   UNL d   1      26.355 -16.697  -2.035  0.00  0.00     0.018 C 
ATOM      4  C   UNL d   1      25.156 -16.117  -1.314  0.00  0.00     0.083 C 
ATOM      5  C   UNL d   1      25.211 -17.027  -0.131  0.00  0.00     0.146 C 
ATOM      6  O   UNL d   1      24.199 -17.594   0.292  0.00  0.00    -0.294 OA
ATOM      7  C   UNL d   1      26.660 -17.112   0.477  0.00  0.00     0.035 C 
ATOM      8  C   UNL d   1      27.412 -16.044   0.100  0.00  0.00     0.000 C 
ATOM      9  C   UNL d   1      26.861 -14.774   0.777  0.00  0.00     0.016 C 
ATOM     10  C   UNL d   1      26.807 -13.414  -0.036  0.00  0.00     0.006 C 
ATOM     11  C   UNL d   1      26.863 -13.505  -1.667  0.00  0.00    -0.005 C 
ATOM     12  C   UNL d   1      27.152 -12.180  -2.787  0.00  0.00     0.002 C 
ATOM     13  C   UNL d   1      27.483 -11.619  -4.714  0.00  0.00     0.009 C 
ATOM     14  C   UNL d   1      26.341 -10.752  -5.264  0.00  0.00     0.047 C 
ATOM     15  C   UNL d   1      26.198 -10.711  -3.840  0.00  0.00     0.128 C 
ATOM     16  C   UNL d   1      26.215 -12.544  -3.770  0.00  0.00    -0.002 C 
ATOM     17  C   UNL d   1      24.870 -13.182  -3.897  0.00  0.00     0.019 C 
ATOM     18  C   UNL d   1      27.599 -13.656  -4.223  0.00  0.00     0.013 C 
ATOM     19  C   UNL d   1      27.666 -14.883  -3.498  0.00  0.00     0.007 C 
ATOM     20  C   UNL d   1      27.800 -14.625  -2.028  0.00  0.00    -0.001 C 
ENDROOT
BRANCH  15  21
ATOM     21  O   UNL d   1      25.005 -10.131  -3.424  0.00  0.00    -0.381 OA
ATOM     22  H   UNL d   1      25.232  -9.233  -3.132  0.00  0.00     0.211 HD
ENDBRANCH  15  21
BRANCH  15  23
ATOM     23  C   UNL d   1      27.736  -9.891  -3.275  0.00  0.00     0.185 C 
ATOM     24  O   UNL d   1      28.578  -9.347  -4.010  0.00  0.00    -0.292 OA
BRANCH  23  25
ATOM     25  C   UNL d   1      27.818  -9.628  -1.820  0.00  0.00     0.260 C 
BRANCH  25  26
ATOM     26  O   UNL d   1      26.496  -9.193  -1.479  0.00  0.00    -0.314 OA
BRANCH  26  27
ATOM     27  C   UNL d   1      26.326  -7.862  -1.641  0.00  0.00     0.259 C 
ATOM     28  O   UNL d   1      25.658  -7.374  -2.507  0.00  0.00    -0.265 OA
BRANCH  27  29
ATOM     29  C   UNL d   1      27.087  -7.106  -0.571  0.00  0.00     0.120 C 
BRANCH  29  30
ATOM     30  C   UNL d   1      26.108  -6.713   0.533  0.00  0.00     0.112 C 
BRANCH  30  31
ATOM     31  C   UNL d   1      26.213  -7.634   1.733  0.00  0.00     0.217 C 
ATOM     32  O   UNL d   1      26.505  -7.238   2.856  0.00  0.00    -0.274 OA
ATOM     33  N   UNL d   1      25.952  -8.969   1.477  0.00  0.00    -0.361 N 
ATOM     34  H   UNL d   1      25.728  -9.258   0.531  0.00  0.00     0.162 HD
BRANCH  33  35
ATOM     35  C   UNL d   1      26.038  -9.937   2.559  0.00  0.00     0.124 C 
BRANCH  35  36
ATOM     36  C   UNL d   1      26.774 -11.211   2.164  0.00  0.00     0.040 C 
BRANCH  36  37
ATOM     37  C   UNL d   1      28.144 -11.297   2.837  0.00  0.00     0.130 C 
BRANCH  37  38
ATOM     38  N   UNL d   1      28.337 -12.584   3.532  0.00  0.00    -0.352 N 
ATOM     39  C   UNL d   1      27.790 -12.953   4.759  0.00  0.00     0.108 A 
ATOM     40  C   UNL d   1      28.130 -14.261   4.967  0.00  0.00     0.106 A 
ATOM     41  N   UNL d   1      28.888 -14.640   3.886  0.00  0.00    -0.361 N 
ATOM     42  C   UNL d   1      29.015 -13.628   3.025  0.00  0.00     0.182 A 
ATOM     43  H   UNL d   1      29.290 -15.563   3.742  0.00  0.00     0.166 HD
ENDBRANCH  37  38
ENDBRANCH  36  37
ENDBRANCH  35  36
ENDBRANCH  33  35
ENDBRANCH  30  31
ENDBRANCH  29  30
ENDBRANCH  27  29
ENDBRANCH  26  27
ENDBRANCH  25  26
ENDBRANCH  23  25
ENDBRANCH  15  23
TORSDOF 12
ENDMDL
MODEL 6
REMARK VINA RESULT:    -6.520      5.900      8.912
REMARK INTER + INTRA:         -13.800
REMARK INTER:                 -10.099
REMARK INTRA:                  -3.700
REMARK CONF_INDEPENDENT:        3.580
REMARK UNBOUND:                -3.700
REMARK  12 active torsions:
REMARK  status: ('A' for Active; 'I' for Inactive)
REMARK    1  A    between atoms: C_15  and  O_16 
REMARK    2  A    between atoms: C_15  and  C_17 
REMARK    3  A    between atoms: C_17  and  C_19 
REMARK    4  A    between atoms: C_19  and  O_20 
REMARK    5  A    between atoms: O_20  and  C_21 
REMARK    6  A    between atoms: C_21  and  C_23 
REMARK    7  A    between atoms: C_23  and  C_24 
REMARK    8  A    between atoms: C_24  and  C_25 
REMARK       I    between atoms: C_25  and  N_27 
REMARK    9  A    between atoms: N_27  and  C_28 
REMARK   10  A    between atoms: C_28  and  C_29 
REMARK   11  A    between atoms: C_29  and  C_30 
REMARK   12  A    between atoms: C_30  and  N_31 
ROOT
ATOM      1  C   UNL d   1      31.131 -17.868  -5.437  0.00  0.00     0.016 C 
ATOM      2  C   UNL d   1      30.474 -16.482  -5.181  0.00  0.00    -0.027 C 
ATOM      3  C   UNL d   1      31.584 -15.549  -4.607  0.00  0.00     0.018 C 
ATOM      4  C   UNL d   1      31.060 -14.134  -4.727  0.00  0.00     0.083 C 
ATOM      5  C   UNL d   1      31.467 -13.919  -6.148  0.00  0.00     0.146 C 
ATOM      6  O   UNL d   1      32.053 -12.892  -6.501  0.00  0.00    -0.294 OA
ATOM      7  C   UNL d   1      31.022 -15.113  -7.072  0.00  0.00     0.035 C 
ATOM      8  C   UNL d   1      30.018 -15.828  -6.498  0.00  0.00     0.000 C 
ATOM      9  C   UNL d   1      28.741 -14.965  -6.462  0.00  0.00     0.016 C 
ATOM     10  C   UNL d   1      27.795 -15.020  -5.191  0.00  0.00     0.006 C 
ATOM     11  C   UNL d   1      28.433 -15.581  -3.796  0.00  0.00    -0.005 C 
ATOM     12  C   UNL d   1      27.553 -16.058  -2.350  0.00  0.00     0.002 C 
ATOM     13  C   UNL d   1      27.642 -16.902  -0.501  0.00  0.00     0.009 C 
ATOM     14  C   UNL d   1      27.286 -15.898   0.605  0.00  0.00     0.047 C 
ATOM     15  C   UNL d   1      26.783 -15.323  -0.605  0.00  0.00     0.128 C 
ATOM     16  C   UNL d   1      28.428 -15.511  -1.396  0.00  0.00    -0.002 C 
ATOM     17  C   UNL d   1      29.343 -14.344  -1.209  0.00  0.00     0.019 C 
ATOM     18  C   UNL d   1      29.304 -17.075  -1.769  0.00  0.00     0.013 C 
ATOM     19  C   UNL d   1      30.157 -17.046  -2.913  0.00  0.00     0.007 C 
ATOM     20  C   UNL d   1      29.381 -16.696  -4.146  0.00  0.00    -0.001 C 
ENDROOT
BRANCH  15  21
ATOM     21  O   UNL d   1      26.365 -14.005  -0.455  0.00  0.00    -0.381 OA
ATOM     22  H   UNL d   1      25.671 -13.868  -1.122  0.00  0.00     0.211 HD
ENDBRANCH  15  21
BRANCH  15  23
ATOM     23  C   UNL d   1      25.509 -16.518  -1.154  0.00  0.00     0.185 C 
ATOM     24  O   UNL d   1      25.058 -17.458  -0.478  0.00  0.00    -0.292 OA
BRANCH  23  25
ATOM     25  C   UNL d   1      24.782 -16.150  -2.392  0.00  0.00     0.260 C 
BRANCH  25  26
ATOM     26  O   UNL d   1      24.809 -14.717  -2.386  0.00  0.00    -0.314 OA
BRANCH  26  27
ATOM     27  C   UNL d   1      24.969 -14.193  -3.623  0.00  0.00     0.259 C 
ATOM     28  O   UNL d   1      24.836 -14.819  -4.635  0.00  0.00    -0.265 OA
BRANCH  27  29
ATOM     29  C   UNL d   1      25.319 -12.723  -3.524  0.00  0.00     0.120 C 
BRANCH  29  30
ATOM     30  C   UNL d   1      26.781 -12.601  -3.100  0.00  0.00     0.112 C 
BRANCH  30  31
ATOM     31  C   UNL d   1      27.029 -11.343  -2.290  0.00  0.00     0.217 C 
ATOM     32  O   UNL d   1      26.801 -10.217  -2.718  0.00  0.00    -0.274 OA
ATOM     33  N   UNL d   1      27.533 -11.550  -1.017  0.00  0.00    -0.361 N 
ATOM     34  H   UNL d   1      27.722 -12.496  -0.707  0.00  0.00     0.162 HD
BRANCH  33  35
ATOM     35  C   UNL d   1      27.817 -10.407  -0.164  0.00  0.00     0.124 C 
BRANCH  35  36
ATOM     36  C   UNL d   1      28.113 -10.798   1.279  0.00  0.00     0.040 C 
BRANCH  36  37
ATOM     37  C   UNL d   1      27.105 -11.822   1.800  0.00  0.00     0.130 C 
BRANCH  37  38
ATOM     38  N   UNL d   1      27.762 -12.911   2.548  0.00  0.00    -0.352 N 
ATOM     39  C   UNL d   1      27.297 -13.511   3.716  0.00  0.00     0.108 A 
ATOM     40  C   UNL d   1      28.151 -14.543   3.998  0.00  0.00     0.106 A 
ATOM     41  N   UNL d   1      29.114 -14.525   3.019  0.00  0.00    -0.361 N 
ATOM     42  C   UNL d   1      28.881 -13.540   2.150  0.00  0.00     0.182 A 
ATOM     43  H   UNL d   1      29.893 -15.175   2.947  0.00  0.00     0.166 HD
ENDBRANCH  37  38
ENDBRANCH  36  37
ENDBRANCH  35  36
ENDBRANCH  33  35
ENDBRANCH  30  31
ENDBRANCH  29  30
ENDBRANCH  27  29
ENDBRANCH  26  27
ENDBRANCH  25  26
ENDBRANCH  23  25
ENDBRANCH  15  23
TORSDOF 12
ENDMDL
MODEL 7
REMARK VINA RESULT:    -5.864      5.595      9.071
REMARK INTER + INTRA:         -13.857
REMARK INTER:                  -9.443
REMARK INTRA:                  -4.414
REMARK CONF_INDEPENDENT:        3.580
REMARK UNBOUND:                -4.414
REMARK  12 active torsions:
REMARK  status: ('A' for Active; 'I' for Inactive)
REMARK    1  A    between atoms: C_15  and  O_16 
REMARK    2  A    between atoms: C_15  and  C_17 
REMARK    3  A    between atoms: C_17  and  C_19 
REMARK    4  A    between atoms: C_19  and  O_20 
REMARK    5  A    between atoms: O_20  and  C_21 
REMARK    6  A    between atoms: C_21  and  C_23 
REMARK    7  A    between atoms: C_23  and  C_24 
REMARK    8  A    between atoms: C_24  and  C_25 
REMARK       I    between atoms: C_25  and  N_27 
REMARK    9  A    between atoms: N_27  and  C_28 
REMARK   10  A    between atoms: C_28  and  C_29 
REMARK   11  A    between atoms: C_29  and  C_30 
REMARK   12  A    between atoms: C_30  and  N_31 
ROOT
ATOM      1  C   UNL d   1      28.363 -10.482   4.455  0.00  0.00     0.016 C 
ATOM      2  C   UNL d   1      28.787 -11.958   4.701  0.00  0.00    -0.027 C 
ATOM      3  C   UNL d   1      30.158 -11.922   5.443  0.00  0.00     0.018 C 
ATOM      4  C   UNL d   1      30.373 -13.307   6.016  0.00  0.00     0.083 C 
ATOM      5  C   UNL d   1      29.575 -13.103   7.262  0.00  0.00     0.146 C 
ATOM      6  O   UNL d   1      30.010 -13.436   8.368  0.00  0.00    -0.294 OA
ATOM      7  C   UNL d   1      28.164 -12.476   6.958  0.00  0.00     0.035 C 
ATOM      8  C   UNL d   1      27.813 -12.668   5.658  0.00  0.00     0.000 C 
ATOM      9  C   UNL d   1      27.547 -14.167   5.424  0.00  0.00     0.016 C 
ATOM     10  C   UNL d   1      28.024 -14.845   4.072  0.00  0.00     0.006 C 
ATOM     11  C   UNL d   1      29.188 -14.084   3.214  0.00  0.00    -0.005 C 
ATOM     12  C   UNL d   1      29.663 -14.419   1.554  0.00  0.00     0.002 C 
ATOM     13  C   UNL d   1      30.785 -13.851  -0.045  0.00  0.00     0.009 C 
ATOM     14  C   UNL d   1      31.858 -14.894  -0.392  0.00  0.00     0.047 C 
ATOM     15  C   UNL d   1      30.910 -15.584   0.428  0.00  0.00     0.128 C 
ATOM     16  C   UNL d   1      31.052 -14.283   1.715  0.00  0.00    -0.002 C 
ATOM     17  C   UNL d   1      32.123 -14.527   2.728  0.00  0.00     0.019 C 
ATOM     18  C   UNL d   1      30.577 -12.520   1.564  0.00  0.00     0.013 C 
ATOM     19  C   UNL d   1      30.140 -11.895   2.770  0.00  0.00     0.007 C 
ATOM     20  C   UNL d   1      28.946 -12.604   3.334  0.00  0.00    -0.001 C 
ENDROOT
BRANCH  15  21
ATOM     21  O   UNL d   1      31.344 -16.841   0.832  0.00  0.00    -0.381 OA
ATOM     22  H   UNL d   1      30.788 -17.085   1.590  0.00  0.00     0.211 HD
ENDBRANCH  15  21
BRANCH  15  23
ATOM     23  C   UNL d   1      29.369 -15.540  -0.562  0.00  0.00     0.185 C 
ATOM     24  O   UNL d   1      29.217 -14.935  -1.636  0.00  0.00    -0.292 OA
BRANCH  23  25
ATOM     25  C   UNL d   1      28.336 -16.528  -0.175  0.00  0.00     0.260 C 
BRANCH  25  26
ATOM     26  O   UNL d   1      27.239 -16.231  -1.048  0.00  0.00    -0.314 OA
BRANCH  26  27
ATOM     27  C   UNL d   1      26.042 -16.553  -0.510  0.00  0.00     0.259 C 
ATOM     28  O   UNL d   1      25.900 -16.968   0.605  0.00  0.00    -0.265 OA
BRANCH  27  29
ATOM     29  C   UNL d   1      24.935 -16.296  -1.512  0.00  0.00     0.120 C 
BRANCH  29  30
ATOM     30  C   UNL d   1      25.538 -16.317  -2.915  0.00  0.00     0.112 C 
BRANCH  30  31
ATOM     31  C   UNL d   1      25.664 -14.920  -3.493  0.00  0.00     0.217 C 
ATOM     32  O   UNL d   1      24.808 -14.414  -4.211  0.00  0.00    -0.274 OA
ATOM     33  N   UNL d   1      26.822 -14.242  -3.152  0.00  0.00    -0.361 N 
ATOM     34  H   UNL d   1      27.512 -14.702  -2.569  0.00  0.00     0.162 HD
BRANCH  33  35
ATOM     35  C   UNL d   1      27.045 -12.900  -3.666  0.00  0.00     0.124 C 
BRANCH  35  36
ATOM     36  C   UNL d   1      26.471 -11.813  -2.765  0.00  0.00     0.040 C 
BRANCH  36  37
ATOM     37  C   UNL d   1      27.402 -11.511  -1.591  0.00  0.00     0.130 C 
BRANCH  37  38
ATOM     38  N   UNL d   1      27.033 -12.276  -0.384  0.00  0.00    -0.352 N 
ATOM     39  C   UNL d   1      26.892 -11.769   0.906  0.00  0.00     0.108 A 
ATOM     40  C   UNL d   1      26.430 -12.795   1.685  0.00  0.00     0.106 A 
ATOM     41  N   UNL d   1      26.329 -13.890   0.863  0.00  0.00    -0.361 N 
ATOM     42  C   UNL d   1      26.698 -13.577  -0.382  0.00  0.00     0.182 A 
ATOM     43  H   UNL d   1      26.008 -14.813   1.145  0.00  0.00     0.166 HD
ENDBRANCH  37  38
ENDBRANCH  36  37
ENDBRANCH  35  36
ENDBRANCH  33  35
ENDBRANCH  30  31
ENDBRANCH  29  30
ENDBRANCH  27  29
ENDBRANCH  26  27
ENDBRANCH  25  26
ENDBRANCH  23  25
ENDBRANCH  15  23
TORSDOF 12
ENDMDL
MODEL 8
REMARK VINA RESULT:    -5.515      6.711      9.970
REMARK INTER + INTRA:         -13.831
REMARK INTER:                  -9.094
REMARK INTRA:                  -4.736
REMARK CONF_INDEPENDENT:        3.580
REMARK UNBOUND:                -4.736
REMARK  12 active torsions:
REMARK  status: ('A' for Active; 'I' for Inactive)
REMARK    1  A    between atoms: C_15  and  O_16 
REMARK    2  A    between atoms: C_15  and  C_17 
REMARK    3  A    between atoms: C_17  and  C_19 
REMARK    4  A    between atoms: C_19  and  O_20 
REMARK    5  A    between atoms: O_20  and  C_21 
REMARK    6  A    between atoms: C_21  and  C_23 
REMARK    7  A    between atoms: C_23  and  C_24 
REMARK    8  A    between atoms: C_24  and  C_25 
REMARK       I    between atoms: C_25  and  N_27 
REMARK    9  A    between atoms: N_27  and  C_28 
REMARK   10  A    between atoms: C_28  and  C_29 
REMARK   11  A    between atoms: C_29  and  C_30 
REMARK   12  A    between atoms: C_30  and  N_31 
ROOT
ATOM      1  C   UNL d   1      24.446 -16.206  -1.519  0.00  0.00     0.016 C 
ATOM      2  C   UNL d   1      25.671 -15.308  -1.856  0.00  0.00    -0.027 C 
ATOM      3  C   UNL d   1      26.756 -16.233  -2.486  0.00  0.00     0.018 C 
ATOM      4  C   UNL d   1      27.762 -15.322  -3.155  0.00  0.00     0.083 C 
ATOM      5  C   UNL d   1      27.014 -15.151  -4.436  0.00  0.00     0.146 C 
ATOM      6  O   UNL d   1      27.574 -15.268  -5.530  0.00  0.00    -0.294 OA
ATOM      7  C   UNL d   1      25.504 -14.780  -4.188  0.00  0.00     0.035 C 
ATOM      8  C   UNL d   1      25.324 -14.272  -2.939  0.00  0.00     0.000 C 
ATOM      9  C   UNL d   1      26.005 -12.893  -2.852  0.00  0.00     0.016 C 
ATOM     10  C   UNL d   1      26.779 -12.484  -1.530  0.00  0.00     0.006 C 
ATOM     11  C   UNL d   1      27.247 -13.684  -0.526  0.00  0.00    -0.005 C 
ATOM     12  C   UNL d   1      27.811 -13.512   1.131  0.00  0.00     0.002 C 
ATOM     13  C   UNL d   1      28.354 -14.451   2.853  0.00  0.00     0.009 C 
ATOM     14  C   UNL d   1      29.834 -14.218   3.191  0.00  0.00     0.047 C 
ATOM     15  C   UNL d   1      29.495 -13.197   2.247  0.00  0.00     0.128 C 
ATOM     16  C   UNL d   1      28.845 -14.463   1.088  0.00  0.00    -0.002 C 
ATOM     17  C   UNL d   1      29.860 -15.017   0.142  0.00  0.00     0.019 C 
ATOM     18  C   UNL d   1      27.409 -15.569   1.350  0.00  0.00     0.013 C 
ATOM     19  C   UNL d   1      26.697 -15.944   0.171  0.00  0.00     0.007 C 
ATOM     20  C   UNL d   1      26.170 -14.734  -0.539  0.00  0.00    -0.001 C 
ENDROOT
BRANCH  15  21
ATOM     21  O   UNL d   1      30.599 -12.498   1.773  0.00  0.00    -0.381 OA
ATOM     22  H   UNL d   1      30.735 -11.762   2.393  0.00  0.00     0.211 HD
ENDBRANCH  15  21
BRANCH  15  23
ATOM     23  C   UNL d   1      28.224 -12.207   3.118  0.00  0.00     0.185 C 
ATOM     24  O   UNL d   1      27.127 -11.862   2.647  0.00  0.00    -0.292 OA
BRANCH  23  25
ATOM     25  C   UNL d   1      28.425 -12.056   4.578  0.00  0.00     0.260 C 
BRANCH  25  26
ATOM     26  O   UNL d   1      28.464 -10.636   4.769  0.00  0.00    -0.314 OA
BRANCH  26  27
ATOM     27  C   UNL d   1      29.556 -10.065   4.212  0.00  0.00     0.259 C 
ATOM     28  O   UNL d   1      30.473 -10.684   3.754  0.00  0.00    -0.265 OA
BRANCH  27  29
ATOM     29  C   UNL d   1      29.429  -8.556   4.247  0.00  0.00     0.120 C 
BRANCH  29  30
ATOM     30  C   UNL d   1      28.040  -8.199   4.774  0.00  0.00     0.112 C 
BRANCH  30  31
ATOM     31  C   UNL d   1      27.032  -8.055   3.650  0.00  0.00     0.217 C 
ATOM     32  O   UNL d   1      26.628  -6.968   3.250  0.00  0.00    -0.274 OA
ATOM     33  N   UNL d   1      26.593  -9.244   3.095  0.00  0.00    -0.361 N 
ATOM     34  H   UNL d   1      26.940 -10.122   3.464  0.00  0.00     0.162 HD
BRANCH  33  35
ATOM     35  C   UNL d   1      25.616  -9.215   2.018  0.00  0.00     0.124 C 
BRANCH  35  36
ATOM     36  C   UNL d   1      25.995  -8.260   0.892  0.00  0.00     0.040 C 
BRANCH  36  37
ATOM     37  C   UNL d   1      26.917  -8.933  -0.125  0.00  0.00     0.130 C 
BRANCH  37  38
ATOM     38  N   UNL d   1      28.315  -8.980   0.344  0.00  0.00    -0.352 N 
ATOM     39  C   UNL d   1      29.180  -7.896   0.479  0.00  0.00     0.108 A 
ATOM     40  C   UNL d   1      30.327  -8.375   1.051  0.00  0.00     0.106 A 
ATOM     41  N   UNL d   1      30.140  -9.725   1.222  0.00  0.00    -0.361 N 
ATOM     42  C   UNL d   1      28.930 -10.088   0.791  0.00  0.00     0.182 A 
ATOM     43  H   UNL d   1      30.814 -10.367   1.630  0.00  0.00     0.166 HD
ENDBRANCH  37  38
ENDBRANCH  36  37
ENDBRANCH  35  36
ENDBRANCH  33  35
ENDBRANCH  30  31
ENDBRANCH  29  30
ENDBRANCH  27  29
ENDBRANCH  26  27
ENDBRANCH  25  26
ENDBRANCH  23  25
ENDBRANCH  15  23
TORSDOF 12
ENDMDL
MODEL 9
REMARK VINA RESULT:    -5.199      7.733     11.320
REMARK INTER + INTRA:         -14.236
REMARK INTER:                  -8.779
REMARK INTRA:                  -5.457
REMARK CONF_INDEPENDENT:        3.580
REMARK UNBOUND:                -5.457
REMARK  12 active torsions:
REMARK  status: ('A' for Active; 'I' for Inactive)
REMARK    1  A    between atoms: C_15  and  O_16 
REMARK    2  A    between atoms: C_15  and  C_17 
REMARK    3  A    between atoms: C_17  and  C_19 
REMARK    4  A    between atoms: C_19  and  O_20 
REMARK    5  A    between atoms: O_20  and  C_21 
REMARK    6  A    between atoms: C_21  and  C_23 
REMARK    7  A    between atoms: C_23  and  C_24 
REMARK    8  A    between atoms: C_24  and  C_25 
REMARK       I    between atoms: C_25  and  N_27 
REMARK    9  A    between atoms: N_27  and  C_28 
REMARK   10  A    between atoms: C_28  and  C_29 
REMARK   11  A    between atoms: C_29  and  C_30 
REMARK   12  A    between atoms: C_30  and  N_31 
ROOT
ATOM      1  C   UNL d   1      25.192 -16.659  -1.756  0.00  0.00     0.016 C 
ATOM      2  C   UNL d   1      25.984 -15.424  -2.272  0.00  0.00    -0.027 C 
ATOM      3  C   UNL d   1      27.347 -15.950  -2.816  0.00  0.00     0.018 C 
ATOM      4  C   UNL d   1      27.936 -14.835  -3.654  0.00  0.00     0.083 C 
ATOM      5  C   UNL d   1      27.192 -15.153  -4.909  0.00  0.00     0.146 C 
ATOM      6  O   UNL d   1      27.766 -15.209  -6.000  0.00  0.00    -0.294 OA
ATOM      7  C   UNL d   1      25.653 -15.350  -4.646  0.00  0.00     0.035 C 
ATOM      8  C   UNL d   1      25.279 -14.770  -3.474  0.00  0.00     0.000 C 
ATOM      9  C   UNL d   1      25.380 -13.239  -3.615  0.00  0.00     0.016 C 
ATOM     10  C   UNL d   1      25.924 -12.375  -2.402  0.00  0.00     0.006 C 
ATOM     11  C   UNL d   1      26.805 -13.144  -1.260  0.00  0.00    -0.005 C 
ATOM     12  C   UNL d   1      27.242 -12.528   0.328  0.00  0.00     0.002 C 
ATOM     13  C   UNL d   1      28.084 -12.924   2.137  0.00  0.00     0.009 C 
ATOM     14  C   UNL d   1      29.359 -12.098   2.369  0.00  0.00     0.047 C 
ATOM     15  C   UNL d   1      28.665 -11.435   1.307  0.00  0.00     0.128 C 
ATOM     16  C   UNL d   1      28.562 -13.010   0.370  0.00  0.00    -0.002 C 
ATOM     17  C   UNL d   1      29.722 -13.271  -0.534  0.00  0.00     0.019 C 
ATOM     18  C   UNL d   1      27.655 -14.527   0.853  0.00  0.00     0.013 C 
ATOM     19  C   UNL d   1      27.153 -15.314  -0.226  0.00  0.00     0.007 C 
ATOM     20  C   UNL d   1      26.212 -14.515  -1.075  0.00  0.00    -0.001 C 
ENDROOT
BRANCH  15  21
ATOM     21  O   UNL d   1      29.424 -10.448   0.688  0.00  0.00    -0.381 OA
ATOM     22  H   UNL d   1      28.814  -9.711   0.518  0.00  0.00     0.211 HD
ENDBRANCH  15  21
BRANCH  15  23
ATOM     23  C   UNL d   1      27.103 -10.884   2.088  0.00  0.00     0.185 C 
ATOM     24  O   UNL d   1      26.745 -11.141   3.250  0.00  0.00    -0.292 OA
BRANCH  23  25
ATOM     25  C   UNL d   1      26.362  -9.831   1.355  0.00  0.00     0.260 C 
BRANCH  25  26
ATOM     26  O   UNL d   1      27.030  -9.767   0.089  0.00  0.00    -0.314 OA
BRANCH  26  27
ATOM     27  C   UNL d   1      27.125  -8.505  -0.387  0.00  0.00     0.259 C 
ATOM     28  O   UNL d   1      28.161  -7.923  -0.534  0.00  0.00    -0.265 OA
BRANCH  27  29
ATOM     29  C   UNL d   1      25.746  -7.966  -0.709  0.00  0.00     0.120 C 
BRANCH  29  30
ATOM     30  C   UNL d   1      25.899  -6.792  -1.675  0.00  0.00     0.112 C 
BRANCH  30  31
ATOM     31  C   UNL d   1      26.104  -7.260  -3.102  0.00  0.00     0.217 C 
ATOM     32  O   UNL d   1      27.032  -6.875  -3.805  0.00  0.00    -0.274 OA
ATOM     33  N   UNL d   1      25.166  -8.166  -3.567  0.00  0.00    -0.361 N 
ATOM     34  H   UNL d   1      24.405  -8.448  -2.959  0.00  0.00     0.162 HD
BRANCH  33  35
ATOM     35  C   UNL d   1      25.266  -8.667  -4.929  0.00  0.00     0.124 C 
BRANCH  35  36
ATOM     36  C   UNL d   1      25.549 -10.163  -4.995  0.00  0.00     0.040 C 
BRANCH  36  37
ATOM     37  C   UNL d   1      27.006 -10.441  -5.367  0.00  0.00     0.130 C 
BRANCH  37  38
ATOM     38  N   UNL d   1      27.862 -10.585  -4.174  0.00  0.00    -0.352 N 
ATOM     39  C   UNL d   1      29.050 -11.307  -4.090  0.00  0.00     0.108 A 
ATOM     40  C   UNL d   1      29.567 -11.076  -2.844  0.00  0.00     0.106 A 
ATOM     41  N   UNL d   1      28.675 -10.250  -2.204  0.00  0.00    -0.361 N 
ATOM     42  C   UNL d   1      27.647  -9.960  -3.004  0.00  0.00     0.182 A 
ATOM     43  H   UNL d   1      28.778  -9.891  -1.257  0.00  0.00     0.166 HD
ENDBRANCH  37  38
ENDBRANCH  36  37
ENDBRANCH  35  36
ENDBRANCH  33  35
ENDBRANCH  30  31
ENDBRANCH  29  30
ENDBRANCH  27  29
ENDBRANCH  26  27
ENDBRANCH  25  26
ENDBRANCH  23  25
ENDBRANCH  15  23
TORSDOF 12
ENDMDL
