MODEL 1
REMARK VINA RESULT:   -29.953      0.000      0.000
REMARK INTER + INTRA:         -34.993
REMARK INTER:                 -32.936
REMARK INTRA:                  -2.056
REMARK CONF_INDEPENDENT:        2.983
REMARK UNBOUND:                -2.056
REMARK  10 active torsions:
REMARK  status: ('A' for Active; 'I' for Inactive)
REMARK    1  A    between atoms: C_7  and  N_8 
REMARK       I    between atoms: N_8  and  C_9 
REMARK    2  A    between atoms: C_9  and  C_11 
REMARK    3  A    between atoms: C_14  and  N_15 
REMARK    4  A    between atoms: N_15  and  C_16 
REMARK    5  A    between atoms: C_17  and  C_16 
REMARK    6  A    between atoms: C_17  and  C_20 
REMARK    7  A    between atoms: C_17  and  C_18 
REMARK    8  A    between atoms: C_18  and  O_19 
REMARK    9  A    between atoms: C_20  and  C_21 
REMARK   10  A    between atoms: C_26  and  N_27 
ROOT
ATOM      1  N   UNL d   1      19.905 -18.946  -0.921  0.00  0.00    -0.191 NA
ATOM      2  C   UNL d   1      20.975 -18.574  -0.694  0.00  0.00     0.099 C 
ATOM      3  C   UNL d   1      22.314 -18.109  -0.464  0.00  0.00     0.046 A 
ATOM      4  C   UNL d   1      23.132 -18.672   0.505  0.00  0.00     0.023 A 
ATOM      5  C   UNL d   1      24.454 -18.232   0.626  0.00  0.00     0.004 A 
ATOM      6  C   UNL d   1      24.958 -17.227  -0.221  0.00  0.00     0.029 A 
ATOM      7  C   UNL d   1      24.124 -16.630  -1.176  0.00  0.00     0.036 A 
ATOM      8  C   UNL d   1      22.807 -17.087  -1.269  0.00  0.00     0.052 A 
ENDROOT
BRANCH   7   9
ATOM      9  N   UNL d   1      24.603 -15.595  -2.026  0.00  0.00    -0.323 N 
ATOM     10  C   UNL d   1      25.955 -15.287  -2.188  0.00  0.00     0.256 C 
ATOM     11  O   UNL d   1      26.916 -15.819  -1.645  0.00  0.00    -0.267 OA
ATOM     12  H   UNL d   1      23.911 -15.078  -2.557  0.00  0.00     0.169 HD
BRANCH  10  13
ATOM     13  C   UNL d   1      26.316 -14.175  -3.073  0.00  0.00     0.034 C 
ATOM     14  C   UNL d   1      25.807 -12.905  -2.823  0.00  0.00     0.019 C 
ATOM     15  C   UNL d   1      25.962 -11.911  -3.784  0.00  0.00     0.032 C 
ATOM     16  C   UNL d   1      26.709 -12.126  -4.980  0.00  0.00     0.061 C 
ATOM     17  C   UNL d   1      27.146 -13.452  -5.248  0.00  0.00     0.130 C 
ATOM     18  C   UNL d   1      26.946 -14.447  -4.275  0.00  0.00     0.055 C 
BRANCH  16  19
ATOM     19  N   UNL d   1      27.107 -10.940  -5.598  0.00  0.00    -0.387 N 
ATOM     20  H   UNL d   1      27.567 -11.053  -6.491  0.00  0.00     0.159 HD
BRANCH  19  21
ATOM     21  C   UNL d   1      27.601  -9.826  -4.827  0.00  0.00     0.127 C 
BRANCH  21  22
ATOM     22  C   UNL d   1      26.624  -8.749  -4.429  0.00  0.00     0.033 C 
BRANCH  22  23
ATOM     23  C   UNL d   1      25.212  -9.154  -4.939  0.00  0.00     0.073 C 
BRANCH  23  24
ATOM     24  C   UNL d   1      24.258  -8.029  -5.188  0.00  0.00     0.053 A 
ATOM     25  C   UNL d   1      23.293  -7.863  -6.160  0.00  0.00     0.034 A 
ATOM     26  C   UNL d   1      22.701  -6.602  -5.934  0.00  0.00     0.027 A 
ATOM     27  C   UNL d   1      23.330  -6.081  -4.827  0.00  0.00     0.142 A 
ATOM     28  O   UNL d   1      24.278  -6.944  -4.361  0.00  0.00    -0.327 OA
ENDBRANCH  23  24
ENDBRANCH  22  23
BRANCH  22  29
ATOM     29  C   UNL d   1      26.571  -8.477  -2.919  0.00  0.00     0.170 C 
BRANCH  29  30
ATOM     30  O   UNL d   1      25.302  -8.685  -2.300  0.00  0.00    -0.400 OA
ATOM     31  H   UNL d   1      24.609  -8.271  -2.844  0.00  0.00     0.209 HD
ENDBRANCH  29  30
ENDBRANCH  22  29
ENDBRANCH  21  22
ENDBRANCH  19  21
ENDBRANCH  16  19
BRANCH  17  32
ATOM     32  N   UNL d   1      27.799 -13.997  -6.480  0.00  0.00    -0.113 N 
ATOM     33  O   UNL d   1      28.030 -15.191  -6.632  0.00  0.00    -0.532 OA
ATOM     34  O   UNL d   1      28.149 -13.173  -7.338  0.00  0.00    -0.532 OA
ENDBRANCH  17  32
ENDBRANCH  10  13
ENDBRANCH   7   9
TORSDOF 10
ENDMDL
MODEL 2
REMARK VINA RESULT:   -28.992      1.544      2.479
REMARK INTER + INTRA:         -34.467
REMARK INTER:                 -31.975
REMARK INTRA:                  -2.492
REMARK CONF_INDEPENDENT:        2.983
REMARK UNBOUND:                -2.492
REMARK  10 active torsions:
REMARK  status: ('A' for Active; 'I' for Inactive)
REMARK    1  A    between atoms: C_7  and  N_8 
REMARK       I    between atoms: N_8  and  C_9 
REMARK    2  A    between atoms: C_9  and  C_11 
REMARK    3  A    between atoms: C_14  and  N_15 
REMARK    4  A    between atoms: N_15  and  C_16 
REMARK    5  A    between atoms: C_17  and  C_16 
REMARK    6  A    between atoms: C_17  and  C_20 
REMARK    7  A    between atoms: C_17  and  C_18 
REMARK    8  A    between atoms: C_18  and  O_19 
REMARK    9  A    between atoms: C_20  and  C_21 
REMARK   10  A    between atoms: C_26  and  N_27 
ROOT
ATOM      1  N   UNL d   1      19.905 -18.720  -0.900  0.00  0.00    -0.191 NA
ATOM      2  C   UNL d   1      20.991 -18.399  -0.676  0.00  0.00     0.099 C 
ATOM      3  C   UNL d   1      22.352 -17.997  -0.449  0.00  0.00     0.046 A 
ATOM      4  C   UNL d   1      23.139 -18.585   0.531  0.00  0.00     0.023 A 
ATOM      5  C   UNL d   1      24.480 -18.210   0.649  0.00  0.00     0.004 A 
ATOM      6  C   UNL d   1      25.036 -17.245  -0.214  0.00  0.00     0.029 A 
ATOM      7  C   UNL d   1      24.235 -16.623  -1.181  0.00  0.00     0.036 A 
ATOM      8  C   UNL d   1      22.897 -17.015  -1.270  0.00  0.00     0.052 A 
ENDROOT
BRANCH   7   9
ATOM      9  N   UNL d   1      24.767 -15.627  -2.045  0.00  0.00    -0.323 N 
ATOM     10  C   UNL d   1      26.012 -15.023  -1.861  0.00  0.00     0.256 C 
ATOM     11  O   UNL d   1      26.818 -15.225  -0.959  0.00  0.00    -0.267 OA
ATOM     12  H   UNL d   1      24.209 -15.372  -2.853  0.00  0.00     0.169 HD
BRANCH  10  13
ATOM     13  C   UNL d   1      26.433 -13.986  -2.810  0.00  0.00     0.034 C 
ATOM     14  C   UNL d   1      25.952 -12.689  -2.667  0.00  0.00     0.019 C 
ATOM     15  C   UNL d   1      26.165 -11.771  -3.691  0.00  0.00     0.032 C 
ATOM     16  C   UNL d   1      26.944 -12.091  -4.842  0.00  0.00     0.061 C 
ATOM     17  C   UNL d   1      27.352 -13.444  -5.000  0.00  0.00     0.130 C 
ATOM     18  C   UNL d   1      27.093 -14.361  -3.966  0.00  0.00     0.055 C 
BRANCH  16  19
ATOM     19  N   UNL d   1      27.395 -10.963  -5.529  0.00  0.00    -0.387 N 
ATOM     20  H   UNL d   1      26.965 -10.091  -5.252  0.00  0.00     0.159 HD
BRANCH  19  21
ATOM     21  C   UNL d   1      27.733 -11.026  -6.928  0.00  0.00     0.127 C 
BRANCH  21  22
ATOM     22  C   UNL d   1      26.660 -10.692  -7.934  0.00  0.00     0.033 C 
BRANCH  22  23
ATOM     23  C   UNL d   1      26.486  -9.147  -7.971  0.00  0.00     0.073 C 
BRANCH  23  24
ATOM     24  C   UNL d   1      25.574  -8.566  -6.938  0.00  0.00     0.053 A 
ATOM     25  C   UNL d   1      24.956  -7.334  -6.870  0.00  0.00     0.034 A 
ATOM     26  C   UNL d   1      24.224  -7.313  -5.664  0.00  0.00     0.027 A 
ATOM     27  C   UNL d   1      24.427  -8.540  -5.075  0.00  0.00     0.142 A 
ATOM     28  O   UNL d   1      25.245  -9.314  -5.845  0.00  0.00    -0.327 OA
ENDBRANCH  23  24
ENDBRANCH  22  23
BRANCH  22  29
ATOM     29  C   UNL d   1      26.943 -11.215  -9.350  0.00  0.00     0.170 C 
BRANCH  29  30
ATOM     30  O   UNL d   1      27.944 -12.227  -9.444  0.00  0.00    -0.400 OA
ATOM     31  H   UNL d   1      28.118 -12.589  -8.556  0.00  0.00     0.209 HD
ENDBRANCH  29  30
ENDBRANCH  22  29
ENDBRANCH  21  22
ENDBRANCH  19  21
ENDBRANCH  16  19
BRANCH  17  32
ATOM     32  N   UNL d   1      28.029 -14.092  -6.167  0.00  0.00    -0.113 N 
ATOM     33  O   UNL d   1      28.935 -13.550  -6.790  0.00  0.00    -0.532 OA
ATOM     34  O   UNL d   1      27.597 -15.200  -6.520  0.00  0.00    -0.532 OA
ENDBRANCH  17  32
ENDBRANCH  10  13
ENDBRANCH   7   9
TORSDOF 10
ENDMDL
MODEL 3
REMARK VINA RESULT:   -28.743      1.547      2.474
REMARK INTER + INTRA:         -34.961
REMARK INTER:                 -31.726
REMARK INTRA:                  -3.235
REMARK CONF_INDEPENDENT:        2.983
REMARK UNBOUND:                -3.235
REMARK  10 active torsions:
REMARK  status: ('A' for Active; 'I' for Inactive)
REMARK    1  A    between atoms: C_7  and  N_8 
REMARK       I    between atoms: N_8  and  C_9 
REMARK    2  A    between atoms: C_9  and  C_11 
REMARK    3  A    between atoms: C_14  and  N_15 
REMARK    4  A    between atoms: N_15  and  C_16 
REMARK    5  A    between atoms: C_17  and  C_16 
REMARK    6  A    between atoms: C_17  and  C_20 
REMARK    7  A    between atoms: C_17  and  C_18 
REMARK    8  A    between atoms: C_18  and  O_19 
REMARK    9  A    between atoms: C_20  and  C_21 
REMARK   10  A    between atoms: C_26  and  N_27 
ROOT
ATOM      1  N   UNL d   1      19.899 -19.037  -0.896  0.00  0.00    -0.191 NA
ATOM      2  C   UNL d   1      20.959 -18.637  -0.677  0.00  0.00     0.099 C 
ATOM      3  C   UNL d   1      22.287 -18.135  -0.456  0.00  0.00     0.046 A 
ATOM      4  C   UNL d   1      23.127 -18.674   0.508  0.00  0.00     0.023 A 
ATOM      5  C   UNL d   1      24.437 -18.199   0.620  0.00  0.00     0.004 A 
ATOM      6  C   UNL d   1      24.908 -17.182  -0.233  0.00  0.00     0.029 A 
ATOM      7  C   UNL d   1      24.052 -16.609  -1.184  0.00  0.00     0.036 A 
ATOM      8  C   UNL d   1      22.748 -17.102  -1.267  0.00  0.00     0.052 A 
ENDROOT
BRANCH   7   9
ATOM      9  N   UNL d   1      24.498 -15.563  -2.038  0.00  0.00    -0.323 N 
ATOM     10  C   UNL d   1      25.779 -15.503  -2.587  0.00  0.00     0.256 C 
ATOM     11  O   UNL d   1      26.703 -16.292  -2.428  0.00  0.00    -0.267 OA
ATOM     12  H   UNL d   1      23.824 -14.842  -2.273  0.00  0.00     0.169 HD
BRANCH  10  13
ATOM     13  C   UNL d   1      26.123 -14.353  -3.431  0.00  0.00     0.034 C 
ATOM     14  C   UNL d   1      25.367 -13.189  -3.347  0.00  0.00     0.019 C 
ATOM     15  C   UNL d   1      25.548 -12.193  -4.302  0.00  0.00     0.032 C 
ATOM     16  C   UNL d   1      26.551 -12.287  -5.312  0.00  0.00     0.061 C 
ATOM     17  C   UNL d   1      27.251 -13.520  -5.425  0.00  0.00     0.130 C 
ATOM     18  C   UNL d   1      27.025 -14.524  -4.467  0.00  0.00     0.055 C 
BRANCH  16  19
ATOM     19  N   UNL d   1      26.863 -11.056  -5.890  0.00  0.00    -0.387 N 
ATOM     20  H   UNL d   1      27.653 -10.576  -5.481  0.00  0.00     0.159 HD
BRANCH  19  21
ATOM     21  C   UNL d   1      25.829 -10.172  -6.365  0.00  0.00     0.127 C 
BRANCH  21  22
ATOM     22  C   UNL d   1      26.213  -8.760  -6.732  0.00  0.00     0.033 C 
BRANCH  22  23
ATOM     23  C   UNL d   1      26.182  -7.892  -5.442  0.00  0.00     0.073 C 
BRANCH  23  24
ATOM     24  C   UNL d   1      26.457  -8.613  -4.161  0.00  0.00     0.053 A 
ATOM     25  C   UNL d   1      25.623  -8.941  -3.113  0.00  0.00     0.034 A 
ATOM     26  C   UNL d   1      26.416  -9.603  -2.152  0.00  0.00     0.027 A 
ATOM     27  C   UNL d   1      27.686  -9.653  -2.680  0.00  0.00     0.142 A 
ATOM     28  O   UNL d   1      27.723  -9.056  -3.906  0.00  0.00    -0.327 OA
ENDBRANCH  23  24
ENDBRANCH  22  23
BRANCH  22  29
ATOM     29  C   UNL d   1      27.589  -8.640  -7.403  0.00  0.00     0.170 C 
BRANCH  29  30
ATOM     30  O   UNL d   1      28.708  -8.967  -6.579  0.00  0.00    -0.400 OA
ATOM     31  H   UNL d   1      28.654  -8.457  -5.751  0.00  0.00     0.209 HD
ENDBRANCH  29  30
ENDBRANCH  22  29
ENDBRANCH  21  22
ENDBRANCH  19  21
ENDBRANCH  16  19
BRANCH  17  32
ATOM     32  N   UNL d   1      28.226 -13.955  -6.473  0.00  0.00    -0.113 N 
ATOM     33  O   UNL d   1      28.824 -13.160  -7.190  0.00  0.00    -0.532 OA
ATOM     34  O   UNL d   1      28.375 -15.176  -6.627  0.00  0.00    -0.532 OA
ENDBRANCH  17  32
ENDBRANCH  10  13
ENDBRANCH   7   9
TORSDOF 10
ENDMDL
MODEL 4
REMARK VINA RESULT:   -28.517      1.888      2.423
REMARK INTER + INTRA:         -34.838
REMARK INTER:                 -31.500
REMARK INTRA:                  -3.338
REMARK CONF_INDEPENDENT:        2.983
REMARK UNBOUND:                -3.338
REMARK  10 active torsions:
REMARK  status: ('A' for Active; 'I' for Inactive)
REMARK    1  A    between atoms: C_7  and  N_8 
REMARK       I    between atoms: N_8  and  C_9 
REMARK    2  A    between atoms: C_9  and  C_11 
REMARK    3  A    between atoms: C_14  and  N_15 
REMARK    4  A    between atoms: N_15  and  C_16 
REMARK    5  A    between atoms: C_17  and  C_16 
REMARK    6  A    between atoms: C_17  and  C_20 
REMARK    7  A    between atoms: C_17  and  C_18 
REMARK    8  A    between atoms: C_18  and  O_19 
REMARK    9  A    between atoms: C_20  and  C_21 
REMARK   10  A    between atoms: C_26  and  N_27 
ROOT
ATOM      1  N   UNL d   1      19.626 -19.324  -0.939  0.00  0.00    -0.191 NA
ATOM      2  C   UNL d   1      20.724 -18.986  -0.822  0.00  0.00     0.099 C 
ATOM      3  C   UNL d   1      22.088 -18.545  -0.726  0.00  0.00     0.046 A 
ATOM      4  C   UNL d   1      23.075 -19.328  -0.145  0.00  0.00     0.023 A 
ATOM      5  C   UNL d   1      24.399 -18.881  -0.154  0.00  0.00     0.004 A 
ATOM      6  C   UNL d   1      24.738 -17.648  -0.745  0.00  0.00     0.029 A 
ATOM      7  C   UNL d   1      23.739 -16.837  -1.300  0.00  0.00     0.036 A 
ATOM      8  C   UNL d   1      22.424 -17.309  -1.270  0.00  0.00     0.052 A 
ENDROOT
BRANCH   7   9
ATOM      9  N   UNL d   1      24.053 -15.577  -1.878  0.00  0.00    -0.323 N 
ATOM     10  C   UNL d   1      25.290 -15.270  -2.448  0.00  0.00     0.256 C 
ATOM     11  O   UNL d   1      26.277 -15.992  -2.532  0.00  0.00    -0.267 OA
ATOM     12  H   UNL d   1      23.315 -14.881  -1.894  0.00  0.00     0.169 HD
BRANCH  10  13
ATOM     13  C   UNL d   1      25.496 -13.921  -2.985  0.00  0.00     0.034 C 
ATOM     14  C   UNL d   1      25.156 -13.650  -4.307  0.00  0.00     0.019 C 
ATOM     15  C   UNL d   1      25.563 -12.447  -4.877  0.00  0.00     0.032 C 
ATOM     16  C   UNL d   1      26.236 -11.442  -4.122  0.00  0.00     0.061 C 
ATOM     17  C   UNL d   1      26.643 -11.779  -2.802  0.00  0.00     0.130 C 
ATOM     18  C   UNL d   1      26.249 -13.015  -2.260  0.00  0.00     0.055 C 
BRANCH  16  19
ATOM     19  N   UNL d   1      26.184 -10.182  -4.719  0.00  0.00    -0.387 N 
ATOM     20  H   UNL d   1      25.584 -10.114  -5.530  0.00  0.00     0.159 HD
BRANCH  19  21
ATOM     21  C   UNL d   1      27.353  -9.341  -4.790  0.00  0.00     0.127 C 
BRANCH  21  22
ATOM     22  C   UNL d   1      27.320  -8.017  -4.068  0.00  0.00     0.033 C 
BRANCH  22  23
ATOM     23  C   UNL d   1      25.889  -7.802  -3.501  0.00  0.00     0.073 C 
BRANCH  23  24
ATOM     24  C   UNL d   1      24.837  -7.438  -4.499  0.00  0.00     0.053 A 
ATOM     25  C   UNL d   1      23.979  -6.358  -4.555  0.00  0.00     0.034 A 
ATOM     26  C   UNL d   1      23.183  -6.530  -5.706  0.00  0.00     0.027 A 
ATOM     27  C   UNL d   1      23.613  -7.697  -6.294  0.00  0.00     0.142 A 
ATOM     28  O   UNL d   1      24.624  -8.257  -5.570  0.00  0.00    -0.327 OA
ENDBRANCH  23  24
ENDBRANCH  22  23
BRANCH  22  29
ATOM     29  C   UNL d   1      28.349  -7.896  -2.934  0.00  0.00     0.170 C 
BRANCH  29  30
ATOM     30  O   UNL d   1      27.838  -8.086  -1.616  0.00  0.00    -0.400 OA
ATOM     31  H   UNL d   1      27.903  -9.029  -1.380  0.00  0.00     0.209 HD
ENDBRANCH  29  30
ENDBRANCH  22  29
ENDBRANCH  21  22
ENDBRANCH  19  21
ENDBRANCH  16  19
BRANCH  17  32
ATOM     32  N   UNL d   1      27.492 -10.995  -1.851  0.00  0.00    -0.113 N 
ATOM     33  O   UNL d   1      27.029 -10.420  -0.872  0.00  0.00    -0.532 OA
ATOM     34  O   UNL d   1      28.699 -10.906  -2.121  0.00  0.00    -0.532 OA
ENDBRANCH  17  32
ENDBRANCH  10  13
ENDBRANCH   7   9
TORSDOF 10
ENDMDL
MODEL 5
REMARK VINA RESULT:   -28.342      2.433      3.679
REMARK INTER + INTRA:         -34.826
REMARK INTER:                 -31.325
REMARK INTRA:                  -3.501
REMARK CONF_INDEPENDENT:        2.983
REMARK UNBOUND:                -3.501
REMARK  10 active torsions:
REMARK  status: ('A' for Active; 'I' for Inactive)
REMARK    1  A    between atoms: C_7  and  N_8 
REMARK       I    between atoms: N_8  and  C_9 
REMARK    2  A    between atoms: C_9  and  C_11 
REMARK    3  A    between atoms: C_14  and  N_15 
REMARK    4  A    between atoms: N_15  and  C_16 
REMARK    5  A    between atoms: C_17  and  C_16 
REMARK    6  A    between atoms: C_17  and  C_20 
REMARK    7  A    between atoms: C_17  and  C_18 
REMARK    8  A    between atoms: C_18  and  O_19 
REMARK    9  A    between atoms: C_20  and  C_21 
REMARK   10  A    between atoms: C_26  and  N_27 
ROOT
ATOM      1  N   UNL d   1      19.904 -18.617  -0.896  0.00  0.00    -0.191 NA
ATOM      2  C   UNL d   1      21.038 -18.449  -0.757  0.00  0.00     0.099 C 
ATOM      3  C   UNL d   1      22.450 -18.216  -0.631  0.00  0.00     0.046 A 
ATOM      4  C   UNL d   1      23.318 -19.191  -0.162  0.00  0.00     0.023 A 
ATOM      5  C   UNL d   1      24.692 -18.933  -0.139  0.00  0.00     0.004 A 
ATOM      6  C   UNL d   1      25.199 -17.698  -0.586  0.00  0.00     0.029 A 
ATOM      7  C   UNL d   1      24.323 -16.697  -1.026  0.00  0.00     0.036 A 
ATOM      8  C   UNL d   1      22.956 -16.983  -1.032  0.00  0.00     0.052 A 
ENDROOT
BRANCH   7   9
ATOM      9  N   UNL d   1      24.810 -15.432  -1.458  0.00  0.00    -0.323 N 
ATOM     10  C   UNL d   1      25.177 -15.149  -2.774  0.00  0.00     0.256 C 
ATOM     11  O   UNL d   1      25.158 -15.906  -3.738  0.00  0.00    -0.267 OA
ATOM     12  H   UNL d   1      24.861 -14.696  -0.761  0.00  0.00     0.169 HD
BRANCH  10  13
ATOM     13  C   UNL d   1      25.692 -13.811  -3.083  0.00  0.00     0.034 C 
ATOM     14  C   UNL d   1      25.703 -13.367  -4.401  0.00  0.00     0.019 C 
ATOM     15  C   UNL d   1      26.397 -12.204  -4.719  0.00  0.00     0.032 C 
ATOM     16  C   UNL d   1      27.021 -11.399  -3.720  0.00  0.00     0.061 C 
ATOM     17  C   UNL d   1      27.066 -11.918  -2.397  0.00  0.00     0.130 C 
ATOM     18  C   UNL d   1      26.385 -13.115  -2.109  0.00  0.00     0.055 C 
BRANCH  16  19
ATOM     19  N   UNL d   1      27.288 -10.100  -4.152  0.00  0.00    -0.387 N 
ATOM     20  H   UNL d   1      28.179  -9.723  -3.859  0.00  0.00     0.159 HD
BRANCH  19  21
ATOM     21  C   UNL d   1      26.241  -9.113  -4.241  0.00  0.00     0.127 C 
BRANCH  21  22
ATOM     22  C   UNL d   1      26.250  -7.977  -3.249  0.00  0.00     0.033 C 
BRANCH  22  23
ATOM     23  C   UNL d   1      25.525  -8.448  -1.957  0.00  0.00     0.073 C 
BRANCH  23  24
ATOM     24  C   UNL d   1      26.018  -7.853  -0.676  0.00  0.00     0.053 A 
ATOM     25  C   UNL d   1      25.768  -6.627  -0.095  0.00  0.00     0.034 A 
ATOM     26  C   UNL d   1      26.510  -6.586   1.104  0.00  0.00     0.027 A 
ATOM     27  C   UNL d   1      27.158  -7.797   1.190  0.00  0.00     0.142 A 
ATOM     28  O   UNL d   1      26.862  -8.580   0.113  0.00  0.00    -0.327 OA
ENDBRANCH  23  24
ENDBRANCH  22  23
BRANCH  22  29
ATOM     29  C   UNL d   1      27.654  -7.463  -2.897  0.00  0.00     0.170 C 
BRANCH  29  30
ATOM     30  O   UNL d   1      28.539  -8.429  -2.332  0.00  0.00    -0.400 OA
ATOM     31  H   UNL d   1      28.100  -8.866  -1.581  0.00  0.00     0.209 HD
ENDBRANCH  29  30
ENDBRANCH  22  29
ENDBRANCH  21  22
ENDBRANCH  19  21
ENDBRANCH  16  19
BRANCH  17  32
ATOM     32  N   UNL d   1      27.782 -11.379  -1.199  0.00  0.00    -0.113 N 
ATOM     33  O   UNL d   1      28.853 -10.788  -1.280  0.00  0.00    -0.532 OA
ATOM     34  O   UNL d   1      27.267 -11.599  -0.093  0.00  0.00    -0.532 OA
ENDBRANCH  17  32
ENDBRANCH  10  13
ENDBRANCH   7   9
TORSDOF 10
ENDMDL
MODEL 6
REMARK VINA RESULT:   -28.297      1.865      2.697
REMARK INTER + INTRA:         -34.734
REMARK INTER:                 -31.280
REMARK INTRA:                  -3.454
REMARK CONF_INDEPENDENT:        2.983
REMARK UNBOUND:                -3.454
REMARK  10 active torsions:
REMARK  status: ('A' for Active; 'I' for Inactive)
REMARK    1  A    between atoms: C_7  and  N_8 
REMARK       I    between atoms: N_8  and  C_9 
REMARK    2  A    between atoms: C_9  and  C_11 
REMARK    3  A    between atoms: C_14  and  N_15 
REMARK    4  A    between atoms: N_15  and  C_16 
REMARK    5  A    between atoms: C_17  and  C_16 
REMARK    6  A    between atoms: C_17  and  C_20 
REMARK    7  A    between atoms: C_17  and  C_18 
REMARK    8  A    between atoms: C_18  and  O_19 
REMARK    9  A    between atoms: C_20  and  C_21 
REMARK   10  A    between atoms: C_26  and  N_27 
ROOT
ATOM      1  N   UNL d   1      19.905 -19.148  -0.935  0.00  0.00    -0.191 NA
ATOM      2  C   UNL d   1      20.981 -18.768  -0.756  0.00  0.00     0.099 C 
ATOM      3  C   UNL d   1      22.322 -18.285  -0.585  0.00  0.00     0.046 A 
ATOM      4  C   UNL d   1      23.249 -18.950   0.205  0.00  0.00     0.023 A 
ATOM      5  C   UNL d   1      24.563 -18.476   0.267  0.00  0.00     0.004 A 
ATOM      6  C   UNL d   1      24.951 -17.335  -0.462  0.00  0.00     0.029 A 
ATOM      7  C   UNL d   1      24.010 -16.639  -1.232  0.00  0.00     0.036 A 
ATOM      8  C   UNL d   1      22.704 -17.134  -1.269  0.00  0.00     0.052 A 
ENDROOT
BRANCH   7   9
ATOM      9  N   UNL d   1      24.372 -15.470  -1.956  0.00  0.00    -0.323 N 
ATOM     10  C   UNL d   1      25.682 -15.161  -2.326  0.00  0.00     0.256 C 
ATOM     11  O   UNL d   1      26.699 -15.803  -2.093  0.00  0.00    -0.267 OA
ATOM     12  H   UNL d   1      23.620 -14.849  -2.234  0.00  0.00     0.169 HD
BRANCH  10  13
ATOM     13  C   UNL d   1      25.926 -13.906  -3.046  0.00  0.00     0.034 C 
ATOM     14  C   UNL d   1      25.280 -13.672  -4.255  0.00  0.00     0.019 C 
ATOM     15  C   UNL d   1      25.684 -12.598  -5.043  0.00  0.00     0.032 C 
ATOM     16  C   UNL d   1      26.678 -11.673  -4.606  0.00  0.00     0.061 C 
ATOM     17  C   UNL d   1      27.378 -11.983  -3.408  0.00  0.00     0.130 C 
ATOM     18  C   UNL d   1      26.973 -13.094  -2.648  0.00  0.00     0.055 C 
BRANCH  16  19
ATOM     19  N   UNL d   1      26.648 -10.466  -5.306  0.00  0.00    -0.387 N 
ATOM     20  H   UNL d   1      27.132  -9.699  -4.862  0.00  0.00     0.159 HD
BRANCH  19  21
ATOM     21  C   UNL d   1      25.480 -10.064  -6.049  0.00  0.00     0.127 C 
BRANCH  21  22
ATOM     22  C   UNL d   1      25.194  -8.589  -6.180  0.00  0.00     0.033 C 
BRANCH  22  23
ATOM     23  C   UNL d   1      24.438  -8.120  -4.905  0.00  0.00     0.073 C 
BRANCH  23  24
ATOM     24  C   UNL d   1      25.255  -8.032  -3.655  0.00  0.00     0.053 A 
ATOM     25  C   UNL d   1      25.528  -6.961  -2.829  0.00  0.00     0.034 A 
ATOM     26  C   UNL d   1      26.369  -7.442  -1.803  0.00  0.00     0.027 A 
ATOM     27  C   UNL d   1      26.547  -8.783  -2.057  0.00  0.00     0.142 A 
ATOM     28  O   UNL d   1      25.869  -9.155  -3.181  0.00  0.00    -0.327 OA
ENDBRANCH  23  24
ENDBRANCH  22  23
BRANCH  22  29
ATOM     29  C   UNL d   1      26.446  -7.724  -6.387  0.00  0.00     0.170 C 
BRANCH  29  30
ATOM     30  O   UNL d   1      27.290  -7.578  -5.245  0.00  0.00    -0.400 OA
ATOM     31  H   UNL d   1      27.255  -8.395  -4.716  0.00  0.00     0.209 HD
ENDBRANCH  29  30
ENDBRANCH  22  29
ENDBRANCH  21  22
ENDBRANCH  19  21
ENDBRANCH  16  19
BRANCH  17  32
ATOM     32  N   UNL d   1      28.560 -11.292  -2.805  0.00  0.00    -0.113 N 
ATOM     33  O   UNL d   1      29.104 -11.687  -1.779  0.00  0.00    -0.532 OA
ATOM     34  O   UNL d   1      28.949 -10.255  -3.363  0.00  0.00    -0.532 OA
ENDBRANCH  17  32
ENDBRANCH  10  13
ENDBRANCH   7   9
TORSDOF 10
ENDMDL
MODEL 7
REMARK VINA RESULT:   -27.811      3.586      5.329
REMARK INTER + INTRA:         -34.208
REMARK INTER:                 -30.794
REMARK INTRA:                  -3.414
REMARK CONF_INDEPENDENT:        2.983
REMARK UNBOUND:                -3.414
REMARK  10 active torsions:
REMARK  status: ('A' for Active; 'I' for Inactive)
REMARK    1  A    between atoms: C_7  and  N_8 
REMARK       I    between atoms: N_8  and  C_9 
REMARK    2  A    between atoms: C_9  and  C_11 
REMARK    3  A    between atoms: C_14  and  N_15 
REMARK    4  A    between atoms: N_15  and  C_16 
REMARK    5  A    between atoms: C_17  and  C_16 
REMARK    6  A    between atoms: C_17  and  C_20 
REMARK    7  A    between atoms: C_17  and  C_18 
REMARK    8  A    between atoms: C_18  and  O_19 
REMARK    9  A    between atoms: C_20  and  C_21 
REMARK   10  A    between atoms: C_26  and  N_27 
ROOT
ATOM      1  N   UNL d   1      19.905 -18.875  -0.899  0.00  0.00    -0.191 NA
ATOM      2  C   UNL d   1      20.989 -18.536  -0.694  0.00  0.00     0.099 C 
ATOM      3  C   UNL d   1      22.348 -18.118  -0.490  0.00  0.00     0.046 A 
ATOM      4  C   UNL d   1      23.107 -18.578   0.577  0.00  0.00     0.023 A 
ATOM      5  C   UNL d   1      24.450 -18.200   0.676  0.00  0.00     0.004 A 
ATOM      6  C   UNL d   1      25.035 -17.361  -0.292  0.00  0.00     0.029 A 
ATOM      7  C   UNL d   1      24.262 -16.865  -1.350  0.00  0.00     0.036 A 
ATOM      8  C   UNL d   1      22.922 -17.255  -1.419  0.00  0.00     0.052 A 
ENDROOT
BRANCH   7   9
ATOM      9  N   UNL d   1      24.823 -15.995  -2.325  0.00  0.00    -0.323 N 
ATOM     10  C   UNL d   1      26.193 -15.771  -2.469  0.00  0.00     0.256 C 
ATOM     11  O   UNL d   1      27.106 -16.250  -1.805  0.00  0.00    -0.267 OA
ATOM     12  H   UNL d   1      24.179 -15.540  -2.962  0.00  0.00     0.169 HD
BRANCH  10  13
ATOM     13  C   UNL d   1      26.643 -14.826  -3.497  0.00  0.00     0.034 C 
ATOM     14  C   UNL d   1      25.805 -13.786  -3.886  0.00  0.00     0.019 C 
ATOM     15  C   UNL d   1      26.133 -13.036  -5.012  0.00  0.00     0.032 C 
ATOM     16  C   UNL d   1      27.351 -13.239  -5.726  0.00  0.00     0.061 C 
ATOM     17  C   UNL d   1      28.146 -14.360  -5.357  0.00  0.00     0.130 C 
ATOM     18  C   UNL d   1      27.774 -15.123  -4.237  0.00  0.00     0.055 C 
BRANCH  16  19
ATOM     19  N   UNL d   1      27.700 -12.155  -6.532  0.00  0.00    -0.387 N 
ATOM     20  H   UNL d   1      27.339 -12.187  -7.476  0.00  0.00     0.159 HD
BRANCH  19  21
ATOM     21  C   UNL d   1      28.997 -11.534  -6.427  0.00  0.00     0.127 C 
BRANCH  21  22
ATOM     22  C   UNL d   1      29.660 -11.055  -7.694  0.00  0.00     0.033 C 
BRANCH  22  23
ATOM     23  C   UNL d   1      31.198 -11.211  -7.532  0.00  0.00     0.073 C 
BRANCH  23  24
ATOM     24  C   UNL d   1      31.739 -12.592  -7.719  0.00  0.00     0.053 A 
ATOM     25  C   UNL d   1      32.516 -13.377  -6.891  0.00  0.00     0.034 A 
ATOM     26  C   UNL d   1      32.750 -14.586  -7.579  0.00  0.00     0.027 A 
ATOM     27  C   UNL d   1      32.089 -14.473  -8.780  0.00  0.00     0.142 A 
ATOM     28  O   UNL d   1      31.465 -13.263  -8.875  0.00  0.00    -0.327 OA
ENDBRANCH  23  24
ENDBRANCH  22  23
BRANCH  22  29
ATOM     29  C   UNL d   1      29.196 -11.789  -8.961  0.00  0.00     0.170 C 
BRANCH  29  30
ATOM     30  O   UNL d   1      28.723 -13.121  -8.763  0.00  0.00    -0.400 OA
ATOM     31  H   UNL d   1      29.414 -13.642  -8.317  0.00  0.00     0.209 HD
ENDBRANCH  29  30
ENDBRANCH  22  29
ENDBRANCH  21  22
ENDBRANCH  19  21
ENDBRANCH  16  19
BRANCH  17  32
ATOM     32  N   UNL d   1      29.371 -14.903  -6.023  0.00  0.00    -0.113 N 
ATOM     33  O   UNL d   1      29.353 -15.381  -7.152  0.00  0.00    -0.532 OA
ATOM     34  O   UNL d   1      30.418 -14.899  -5.358  0.00  0.00    -0.532 OA
ENDBRANCH  17  32
ENDBRANCH  10  13
ENDBRANCH   7   9
TORSDOF 10
ENDMDL
MODEL 8
REMARK VINA RESULT:   -27.780      2.548      3.649
REMARK INTER + INTRA:         -34.214
REMARK INTER:                 -30.763
REMARK INTRA:                  -3.452
REMARK CONF_INDEPENDENT:        2.983
REMARK UNBOUND:                -3.452
REMARK  10 active torsions:
REMARK  status: ('A' for Active; 'I' for Inactive)
REMARK    1  A    between atoms: C_7  and  N_8 
REMARK       I    between atoms: N_8  and  C_9 
REMARK    2  A    between atoms: C_9  and  C_11 
REMARK    3  A    between atoms: C_14  and  N_15 
REMARK    4  A    between atoms: N_15  and  C_16 
REMARK    5  A    between atoms: C_17  and  C_16 
REMARK    6  A    between atoms: C_17  and  C_20 
REMARK    7  A    between atoms: C_17  and  C_18 
REMARK    8  A    between atoms: C_18  and  O_19 
REMARK    9  A    between atoms: C_20  and  C_21 
REMARK   10  A    between atoms: C_26  and  N_27 
ROOT
ATOM      1  N   UNL d   1      19.905 -18.707  -1.038  0.00  0.00    -0.191 NA
ATOM      2  C   UNL d   1      21.035 -18.522  -0.889  0.00  0.00     0.099 C 
ATOM      3  C   UNL d   1      22.443 -18.273  -0.754  0.00  0.00     0.046 A 
ATOM      4  C   UNL d   1      23.300 -19.195  -0.171  0.00  0.00     0.023 A 
ATOM      5  C   UNL d   1      24.673 -18.931  -0.142  0.00  0.00     0.004 A 
ATOM      6  C   UNL d   1      25.190 -17.744  -0.696  0.00  0.00     0.029 A 
ATOM      7  C   UNL d   1      24.323 -16.794  -1.252  0.00  0.00     0.036 A 
ATOM      8  C   UNL d   1      22.956 -17.083  -1.261  0.00  0.00     0.052 A 
ENDROOT
BRANCH   7   9
ATOM      9  N   UNL d   1      24.819 -15.576  -1.794  0.00  0.00    -0.323 N 
ATOM     10  C   UNL d   1      25.324 -15.451  -3.088  0.00  0.00     0.256 C 
ATOM     11  O   UNL d   1      25.437 -16.327  -3.938  0.00  0.00    -0.267 OA
ATOM     12  H   UNL d   1      24.769 -14.754  -1.201  0.00  0.00     0.169 HD
BRANCH  10  13
ATOM     13  C   UNL d   1      25.832 -14.143  -3.517  0.00  0.00     0.034 C 
ATOM     14  C   UNL d   1      25.273 -12.983  -2.990  0.00  0.00     0.019 C 
ATOM     15  C   UNL d   1      25.593 -11.756  -3.563  0.00  0.00     0.032 C 
ATOM     16  C   UNL d   1      26.551 -11.639  -4.614  0.00  0.00     0.061 C 
ATOM     17  C   UNL d   1      27.043 -12.844  -5.186  0.00  0.00     0.130 C 
ATOM     18  C   UNL d   1      26.677 -14.074  -4.611  0.00  0.00     0.055 C 
BRANCH  16  19
ATOM     19  N   UNL d   1      27.044 -10.342  -4.763  0.00  0.00    -0.387 N 
ATOM     20  H   UNL d   1      27.455 -10.139  -5.664  0.00  0.00     0.159 HD
BRANCH  19  21
ATOM     21  C   UNL d   1      27.680  -9.655  -3.667  0.00  0.00     0.127 C 
BRANCH  21  22
ATOM     22  C   UNL d   1      29.042 -10.128  -3.225  0.00  0.00     0.033 C 
BRANCH  22  23
ATOM     23  C   UNL d   1      28.873 -11.476  -2.469  0.00  0.00     0.073 C 
BRANCH  23  24
ATOM     24  C   UNL d   1      28.169 -11.404  -1.152  0.00  0.00     0.053 A 
ATOM     25  C   UNL d   1      27.536 -12.381  -0.411  0.00  0.00     0.034 A 
ATOM     26  C   UNL d   1      27.028 -11.752   0.744  0.00  0.00     0.027 A 
ATOM     27  C   UNL d   1      27.395 -10.429   0.647  0.00  0.00     0.142 A 
ATOM     28  O   UNL d   1      28.095 -10.206  -0.502  0.00  0.00    -0.327 OA
ENDBRANCH  23  24
ENDBRANCH  22  23
BRANCH  22  29
ATOM     29  C   UNL d   1      30.048 -10.301  -4.373  0.00  0.00     0.170 C 
BRANCH  29  30
ATOM     30  O   UNL d   1      29.616  -9.824  -5.647  0.00  0.00    -0.400 OA
ATOM     31  H   UNL d   1      29.861 -10.473  -6.331  0.00  0.00     0.209 HD
ENDBRANCH  29  30
ENDBRANCH  22  29
ENDBRANCH  21  22
ENDBRANCH  19  21
ENDBRANCH  16  19
BRANCH  17  32
ATOM     32  N   UNL d   1      27.918 -13.026  -6.386  0.00  0.00    -0.113 N 
ATOM     33  O   UNL d   1      28.162 -14.128  -6.865  0.00  0.00    -0.532 OA
ATOM     34  O   UNL d   1      28.439 -12.004  -6.859  0.00  0.00    -0.532 OA
ENDBRANCH  17  32
ENDBRANCH  10  13
ENDBRANCH   7   9
TORSDOF 10
ENDMDL
MODEL 9
REMARK VINA RESULT:   -27.383      2.511      4.070
REMARK INTER + INTRA:         -34.290
REMARK INTER:                 -30.366
REMARK INTRA:                  -3.924
REMARK CONF_INDEPENDENT:        2.983
REMARK UNBOUND:                -3.924
REMARK  10 active torsions:
REMARK  status: ('A' for Active; 'I' for Inactive)
REMARK    1  A    between atoms: C_7  and  N_8 
REMARK       I    between atoms: N_8  and  C_9 
REMARK    2  A    between atoms: C_9  and  C_11 
REMARK    3  A    between atoms: C_14  and  N_15 
REMARK    4  A    between atoms: N_15  and  C_16 
REMARK    5  A    between atoms: C_17  and  C_16 
REMARK    6  A    between atoms: C_17  and  C_20 
REMARK    7  A    between atoms: C_17  and  C_18 
REMARK    8  A    between atoms: C_18  and  O_19 
REMARK    9  A    between atoms: C_20  and  C_21 
REMARK   10  A    between atoms: C_26  and  N_27 
ROOT
ATOM      1  N   UNL d   1      19.905 -18.822  -0.895  0.00  0.00    -0.191 NA
ATOM      2  C   UNL d   1      21.021 -18.557  -0.761  0.00  0.00     0.099 C 
ATOM      3  C   UNL d   1      22.413 -18.222  -0.648  0.00  0.00     0.046 A 
ATOM      4  C   UNL d   1      23.260 -18.888   0.226  0.00  0.00     0.023 A 
ATOM      5  C   UNL d   1      24.623 -18.574   0.233  0.00  0.00     0.004 A 
ATOM      6  C   UNL d   1      25.139 -17.592  -0.635  0.00  0.00     0.029 A 
ATOM      7  C   UNL d   1      24.280 -16.891  -1.493  0.00  0.00     0.036 A 
ATOM      8  C   UNL d   1      22.923 -17.224  -1.472  0.00  0.00     0.052 A 
ENDROOT
BRANCH   7   9
ATOM      9  N   UNL d   1      24.774 -15.877  -2.359  0.00  0.00    -0.323 N 
ATOM     10  C   UNL d   1      25.680 -14.892  -1.964  0.00  0.00     0.256 C 
ATOM     11  O   UNL d   1      26.175 -14.729  -0.854  0.00  0.00    -0.267 OA
ATOM     12  H   UNL d   1      24.459 -15.902  -3.323  0.00  0.00     0.169 HD
BRANCH  10  13
ATOM     13  C   UNL d   1      26.089 -13.884  -2.948  0.00  0.00     0.034 C 
ATOM     14  C   UNL d   1      25.531 -12.612  -2.900  0.00  0.00     0.019 C 
ATOM     15  C   UNL d   1      25.743 -11.737  -3.961  0.00  0.00     0.032 C 
ATOM     16  C   UNL d   1      26.594 -12.071  -5.057  0.00  0.00     0.061 C 
ATOM     17  C   UNL d   1      27.083 -13.405  -5.121  0.00  0.00     0.130 C 
ATOM     18  C   UNL d   1      26.825 -14.280  -4.051  0.00  0.00     0.055 C 
BRANCH  16  19
ATOM     19  N   UNL d   1      27.015 -10.956  -5.782  0.00  0.00    -0.387 N 
ATOM     20  H   UNL d   1      27.620 -11.157  -6.567  0.00  0.00     0.159 HD
BRANCH  19  21
ATOM     21  C   UNL d   1      27.308  -9.706  -5.127  0.00  0.00     0.127 C 
BRANCH  21  22
ATOM     22  C   UNL d   1      28.754  -9.341  -4.909  0.00  0.00     0.033 C 
BRANCH  22  23
ATOM     23  C   UNL d   1      29.245 -10.032  -3.605  0.00  0.00     0.073 C 
BRANCH  23  24
ATOM     24  C   UNL d   1      30.020 -11.297  -3.787  0.00  0.00     0.053 A 
ATOM     25  C   UNL d   1      31.198 -11.725  -3.210  0.00  0.00     0.034 A 
ATOM     26  C   UNL d   1      31.485 -12.992  -3.761  0.00  0.00     0.027 A 
ATOM     27  C   UNL d   1      30.456 -13.268  -4.631  0.00  0.00     0.142 A 
ATOM     28  O   UNL d   1      29.554 -12.244  -4.653  0.00  0.00    -0.327 OA
ENDBRANCH  23  24
ENDBRANCH  22  23
BRANCH  22  29
ATOM     29  C   UNL d   1      29.680  -9.719  -6.075  0.00  0.00     0.170 C 
BRANCH  29  30
ATOM     30  O   UNL d   1      29.321 -10.903  -6.786  0.00  0.00    -0.400 OA
ATOM     31  H   UNL d   1      29.141 -11.617  -6.149  0.00  0.00     0.209 HD
ENDBRANCH  29  30
ENDBRANCH  22  29
ENDBRANCH  21  22
ENDBRANCH  19  21
ENDBRANCH  16  19
BRANCH  17  32
ATOM     32  N   UNL d   1      27.851 -14.073  -6.218  0.00  0.00    -0.113 N 
ATOM     33  O   UNL d   1      28.468 -13.444  -7.071  0.00  0.00    -0.532 OA
ATOM     34  O   UNL d   1      27.800 -15.311  -6.264  0.00  0.00    -0.532 OA
ENDBRANCH  17  32
ENDBRANCH  10  13
ENDBRANCH   7   9
TORSDOF 10
ENDMDL
