MODEL 1
REMARK VINA RESULT:   -11.117      0.000      0.000
REMARK INTER + INTRA:         -16.322
REMARK INTER:                 -14.398
REMARK INTRA:                  -1.924
REMARK CONF_INDEPENDENT:        3.281
REMARK UNBOUND:                -1.924
REMARK  11 active torsions:
REMARK  status: ('A' for Active; 'I' for Inactive)
REMARK    1  A    between atoms: C_2  and  C_3 
REMARK       I    between atoms: C_2  and  N_13 
REMARK    2  A    between atoms: C_3  and  N_4 
REMARK    3  A    between atoms: N_13  and  N_14 
REMARK    4  A    between atoms: N_14  and  C_15 
REMARK    5  A    between atoms: C_15  and  N_17 
REMARK       I    between atoms: N_17  and  C_18 
REMARK    6  A    between atoms: C_18  and  C_20 
REMARK    7  A    between atoms: C_23  and  O_24 
REMARK    8  A    between atoms: O_24  and  C_25 
REMARK    9  A    between atoms: C_25  and  C_26 
REMARK   10  A    between atoms: C_26  and  O_27 
REMARK   11  A    between atoms: O_27  and  C_28 
ROOT
ATOM      1  N   UNL d   1      29.586 -15.106   1.615  0.00  0.00    -0.298 N 
ATOM      2  C   UNL d   1      28.407 -14.512   1.102  0.00  0.00     0.257 C 
ATOM      3  O   UNL d   1      28.143 -13.308   1.154  0.00  0.00    -0.267 OA
ATOM      4  H   UNL d   1      29.697 -16.092   1.428  0.00  0.00     0.171 HD
ENDROOT
BRANCH   1   5
ATOM      5  C   UNL d   1      30.659 -14.441   2.262  0.00  0.00     0.193 C 
ATOM      6  S   UNL d   1      32.150 -14.090   1.553  0.00  0.00    -0.039 SA
BRANCH   5   7
ATOM      7  N   UNL d   1      30.402 -14.055   3.600  0.00  0.00    -0.273 N 
ATOM      8  H   UNL d   1      31.126 -13.867   4.282  0.00  0.00     0.189 HD
BRANCH   7   9
ATOM      9  N   UNL d   1      29.034 -13.926   4.014  0.00  0.00    -0.266 N 
ATOM     10  C   UNL d   1      28.474 -14.054   5.269  0.00  0.00     0.254 C 
ATOM     11  O   UNL d   1      27.253 -13.927   5.378  0.00  0.00    -0.270 OA
ATOM     12  H   UNL d   1      28.366 -13.725   3.264  0.00  0.00     0.190 HD
BRANCH  10  13
ATOM     13  C   UNL d   1      29.379 -14.350   6.442  0.00  0.00     0.233 C 
BRANCH  13  14
ATOM     14  N   UNL d   1      29.306 -13.348   7.509  0.00  0.00    -0.347 N 
ATOM     15  C   UNL d   1      29.562 -12.010   7.314  0.00  0.00     0.092 A 
ATOM     16  C   UNL d   1      29.407 -11.362   8.517  0.00  0.00     0.031 A 
ATOM     17  C   UNL d   1      29.017 -12.327   9.481  0.00  0.00    -0.008 A 
ATOM     18  C   UNL d   1      28.725 -12.244  10.858  0.00  0.00     0.014 A 
ATOM     19  C   UNL d   1      28.946 -13.566   8.831  0.00  0.00     0.044 A 
ATOM     20  C   UNL d   1      28.363 -13.396  11.556  0.00  0.00     0.001 A 
ATOM     21  C   UNL d   1      28.294 -14.621  10.898  0.00  0.00     0.002 A 
ATOM     22  C   UNL d   1      28.583 -14.731   9.529  0.00  0.00     0.030 A 
ENDBRANCH  13  14
ENDBRANCH  10  13
ENDBRANCH   7   9
ENDBRANCH   5   7
ENDBRANCH   1   5
BRANCH   2  23
ATOM     23  C   UNL d   1      27.393 -15.343   0.381  0.00  0.00     0.032 C 
ATOM     24  C   UNL d   1      26.374 -14.810  -0.406  0.00  0.00     0.020 C 
ATOM     25  C   UNL d   1      25.426 -15.670  -1.004  0.00  0.00     0.038 C 
ATOM     26  C   UNL d   1      25.541 -17.067  -0.917  0.00  0.00     0.068 C 
ATOM     27  C   UNL d   1      26.659 -17.593  -0.277  0.00  0.00     0.038 C 
ATOM     28  C   UNL d   1      27.549 -16.743   0.400  0.00  0.00     0.020 C 
BRANCH  26  29
ATOM     29  O   UNL d   1      24.525 -17.802  -1.481  0.00  0.00    -0.349 OA
BRANCH  29  30
ATOM     30  C   UNL d   1      23.731 -18.610  -0.592  0.00  0.00     0.202 C 
BRANCH  30  31
ATOM     31  C   UNL d   1      22.502 -17.832  -0.098  0.00  0.00     0.202 C 
BRANCH  31  32
ATOM     32  O   UNL d   1      21.354 -18.200  -0.889  0.00  0.00    -0.349 OA
BRANCH  32  33
ATOM     33  C   UNL d   1      20.469 -19.037  -0.255  0.00  0.00     0.068 C 
ATOM     34  C   UNL d   1      19.392 -19.651  -0.893  0.00  0.00     0.037 C 
ATOM     35  C   UNL d   1      18.473 -20.402  -0.154  0.00  0.00     0.003 C 
ATOM     36  C   UNL d   1      18.696 -20.649   1.198  0.00  0.00     0.000 C 
ATOM     37  C   UNL d   1      19.853 -20.163   1.805  0.00  0.00     0.003 C 
ATOM     38  C   UNL d   1      20.717 -19.326   1.090  0.00  0.00     0.037 C 
ENDBRANCH  32  33
ENDBRANCH  31  32
ENDBRANCH  30  31
ENDBRANCH  29  30
ENDBRANCH  26  29
ENDBRANCH   2  23
TORSDOF 11
ENDMDL
MODEL 2
REMARK VINA RESULT:   -10.951      2.442      3.988
REMARK INTER + INTRA:         -16.488
REMARK INTER:                 -14.232
REMARK INTRA:                  -2.256
REMARK CONF_INDEPENDENT:        3.281
REMARK UNBOUND:                -2.256
REMARK  11 active torsions:
REMARK  status: ('A' for Active; 'I' for Inactive)
REMARK    1  A    between atoms: C_2  and  C_3 
REMARK       I    between atoms: C_2  and  N_13 
REMARK    2  A    between atoms: C_3  and  N_4 
REMARK    3  A    between atoms: N_13  and  N_14 
REMARK    4  A    between atoms: N_14  and  C_15 
REMARK    5  A    between atoms: C_15  and  N_17 
REMARK       I    between atoms: N_17  and  C_18 
REMARK    6  A    between atoms: C_18  and  C_20 
REMARK    7  A    between atoms: C_23  and  O_24 
REMARK    8  A    between atoms: O_24  and  C_25 
REMARK    9  A    between atoms: C_25  and  C_26 
REMARK   10  A    between atoms: C_26  and  O_27 
REMARK   11  A    between atoms: O_27  and  C_28 
ROOT
ATOM      1  N   UNL d   1      29.403 -14.770   1.861  0.00  0.00    -0.298 N 
ATOM      2  C   UNL d   1      28.877 -14.559   0.563  0.00  0.00     0.257 C 
ATOM      3  O   UNL d   1      29.315 -13.741  -0.251  0.00  0.00    -0.267 OA
ATOM      4  H   UNL d   1      28.988 -15.528   2.383  0.00  0.00     0.171 HD
ENDROOT
BRANCH   1   5
ATOM      5  C   UNL d   1      30.507 -14.102   2.449  0.00  0.00     0.193 C 
ATOM      6  S   UNL d   1      31.518 -13.012   1.648  0.00  0.00    -0.039 SA
BRANCH   5   7
ATOM      7  N   UNL d   1      30.727 -14.399   3.815  0.00  0.00    -0.273 N 
ATOM      8  H   UNL d   1      31.549 -14.111   4.330  0.00  0.00     0.189 HD
BRANCH   7   9
ATOM      9  N   UNL d   1      29.726 -15.158   4.510  0.00  0.00    -0.266 N 
ATOM     10  C   UNL d   1      28.607 -14.729   5.194  0.00  0.00     0.254 C 
ATOM     11  O   UNL d   1      27.900 -15.576   5.744  0.00  0.00    -0.270 OA
ATOM     12  H   UNL d   1      29.870 -16.173   4.515  0.00  0.00     0.190 HD
BRANCH  10  13
ATOM     13  C   UNL d   1      28.308 -13.248   5.243  0.00  0.00     0.233 C 
BRANCH  13  14
ATOM     14  N   UNL d   1      27.681 -12.735   4.023  0.00  0.00    -0.347 N 
ATOM     15  C   UNL d   1      27.033 -13.532   3.107  0.00  0.00     0.092 A 
ATOM     16  C   UNL d   1      26.571 -12.732   2.089  0.00  0.00     0.031 A 
ATOM     17  C   UNL d   1      26.923 -11.393   2.398  0.00  0.00    -0.008 A 
ATOM     18  C   UNL d   1      26.718 -10.168   1.730  0.00  0.00     0.014 A 
ATOM     19  C   UNL d   1      27.608 -11.409   3.620  0.00  0.00     0.044 A 
ATOM     20  C   UNL d   1      27.194  -8.986   2.297  0.00  0.00     0.001 A 
ATOM     21  C   UNL d   1      27.872  -9.016   3.512  0.00  0.00     0.002 A 
ATOM     22  C   UNL d   1      28.093 -10.221   4.195  0.00  0.00     0.030 A 
ENDBRANCH  13  14
ENDBRANCH  10  13
ENDBRANCH   7   9
ENDBRANCH   5   7
ENDBRANCH   1   5
BRANCH   2  23
ATOM     23  C   UNL d   1      27.744 -15.396   0.059  0.00  0.00     0.032 C 
ATOM     24  C   UNL d   1      26.898 -15.010  -0.979  0.00  0.00     0.020 C 
ATOM     25  C   UNL d   1      25.819 -15.842  -1.350  0.00  0.00     0.038 C 
ATOM     26  C   UNL d   1      25.632 -17.107  -0.773  0.00  0.00     0.068 C 
ATOM     27  C   UNL d   1      26.582 -17.559   0.137  0.00  0.00     0.038 C 
ATOM     28  C   UNL d   1      27.600 -16.698   0.579  0.00  0.00     0.020 C 
BRANCH  26  29
ATOM     29  O   UNL d   1      24.510 -17.800  -1.164  0.00  0.00    -0.349 OA
BRANCH  29  30
ATOM     30  C   UNL d   1      23.647 -18.290  -0.121  0.00  0.00     0.202 C 
BRANCH  30  31
ATOM     31  C   UNL d   1      22.279 -17.593  -0.171  0.00  0.00     0.202 C 
BRANCH  31  32
ATOM     32  O   UNL d   1      21.361 -18.397  -0.938  0.00  0.00    -0.349 OA
BRANCH  32  33
ATOM     33  C   UNL d   1      20.485 -19.139  -0.184  0.00  0.00     0.068 C 
ATOM     34  C   UNL d   1      20.613 -19.326   1.192  0.00  0.00     0.037 C 
ATOM     35  C   UNL d   1      19.743 -20.184   1.869  0.00  0.00     0.003 C 
ATOM     36  C   UNL d   1      18.665 -20.759   1.201  0.00  0.00     0.000 C 
ATOM     37  C   UNL d   1      18.445 -20.453  -0.141  0.00  0.00     0.003 C 
ATOM     38  C   UNL d   1      19.376 -19.677  -0.842  0.00  0.00     0.037 C 
ENDBRANCH  32  33
ENDBRANCH  31  32
ENDBRANCH  30  31
ENDBRANCH  29  30
ENDBRANCH  26  29
ENDBRANCH   2  23
TORSDOF 11
ENDMDL
MODEL 3
REMARK VINA RESULT:   -10.232      1.670      2.680
REMARK INTER + INTRA:         -15.949
REMARK INTER:                 -13.514
REMARK INTRA:                  -2.435
REMARK CONF_INDEPENDENT:        3.281
REMARK UNBOUND:                -2.435
REMARK  11 active torsions:
REMARK  status: ('A' for Active; 'I' for Inactive)
REMARK    1  A    between atoms: C_2  and  C_3 
REMARK       I    between atoms: C_2  and  N_13 
REMARK    2  A    between atoms: C_3  and  N_4 
REMARK    3  A    between atoms: N_13  and  N_14 
REMARK    4  A    between atoms: N_14  and  C_15 
REMARK    5  A    between atoms: C_15  and  N_17 
REMARK       I    between atoms: N_17  and  C_18 
REMARK    6  A    between atoms: C_18  and  C_20 
REMARK    7  A    between atoms: C_23  and  O_24 
REMARK    8  A    between atoms: O_24  and  C_25 
REMARK    9  A    between atoms: C_25  and  C_26 
REMARK   10  A    between atoms: C_26  and  O_27 
REMARK   11  A    between atoms: O_27  and  C_28 
ROOT
ATOM      1  N   UNL d   1      28.857 -14.552   1.653  0.00  0.00    -0.298 N 
ATOM      2  C   UNL d   1      28.042 -14.572   0.495  0.00  0.00     0.257 C 
ATOM      3  O   UNL d   1      28.078 -13.731  -0.408  0.00  0.00    -0.267 OA
ATOM      4  H   UNL d   1      28.769 -15.350   2.265  0.00  0.00     0.171 HD
ENDROOT
BRANCH   1   5
ATOM      5  C   UNL d   1      29.846 -13.589   1.978  0.00  0.00     0.193 C 
ATOM      6  S   UNL d   1      31.195 -13.876   2.951  0.00  0.00    -0.039 SA
BRANCH   5   7
ATOM      7  N   UNL d   1      29.643 -12.308   1.410  0.00  0.00    -0.273 N 
ATOM      8  H   UNL d   1      30.383 -11.741   1.017  0.00  0.00     0.189 HD
BRANCH   7   9
ATOM      9  N   UNL d   1      28.308 -11.782   1.393  0.00  0.00    -0.266 N 
ATOM     10  C   UNL d   1      27.580 -11.183   2.402  0.00  0.00     0.254 C 
ATOM     11  O   UNL d   1      26.424 -10.833   2.157  0.00  0.00    -0.270 OA
ATOM     12  H   UNL d   1      27.809 -11.879   0.503  0.00  0.00     0.190 HD
BRANCH  10  13
ATOM     13  C   UNL d   1      28.230 -10.995   3.753  0.00  0.00     0.233 C 
BRANCH  13  14
ATOM     14  N   UNL d   1      28.210 -12.199   4.588  0.00  0.00    -0.347 N 
ATOM     15  C   UNL d   1      27.667 -13.396   4.182  0.00  0.00     0.092 A 
ATOM     16  C   UNL d   1      27.813 -14.305   5.204  0.00  0.00     0.031 A 
ATOM     17  C   UNL d   1      28.492 -13.654   6.266  0.00  0.00    -0.008 A 
ATOM     18  C   UNL d   1      28.905 -14.081   7.545  0.00  0.00     0.014 A 
ATOM     19  C   UNL d   1      28.745 -12.337   5.860  0.00  0.00     0.044 A 
ATOM     20  C   UNL d   1      29.567 -13.188   8.389  0.00  0.00     0.001 A 
ATOM     21  C   UNL d   1      29.813 -11.883   7.972  0.00  0.00     0.002 A 
ATOM     22  C   UNL d   1      29.409 -11.432   6.707  0.00  0.00     0.030 A 
ENDBRANCH  13  14
ENDBRANCH  10  13
ENDBRANCH   7   9
ENDBRANCH   5   7
ENDBRANCH   1   5
BRANCH   2  23
ATOM     23  C   UNL d   1      27.087 -15.699   0.260  0.00  0.00     0.032 C 
ATOM     24  C   UNL d   1      27.167 -16.929   0.910  0.00  0.00     0.020 C 
ATOM     25  C   UNL d   1      26.254 -17.956   0.582  0.00  0.00     0.038 C 
ATOM     26  C   UNL d   1      25.190 -17.739  -0.309  0.00  0.00     0.068 C 
ATOM     27  C   UNL d   1      25.014 -16.457  -0.818  0.00  0.00     0.038 C 
ATOM     28  C   UNL d   1      25.974 -15.462  -0.571  0.00  0.00     0.020 C 
BRANCH  26  29
ATOM     29  O   UNL d   1      24.405 -18.829  -0.603  0.00  0.00    -0.349 OA
BRANCH  29  30
ATOM     30  C   UNL d   1      23.242 -18.596  -1.419  0.00  0.00     0.202 C 
BRANCH  30  31
ATOM     31  C   UNL d   1      22.164 -17.836  -0.632  0.00  0.00     0.202 C 
BRANCH  31  32
ATOM     32  O   UNL d   1      20.865 -18.155  -1.170  0.00  0.00    -0.349 OA
BRANCH  32  33
ATOM     33  C   UNL d   1      20.143 -19.053  -0.422  0.00  0.00     0.068 C 
ATOM     34  C   UNL d   1      19.008 -19.714  -0.890  0.00  0.00     0.037 C 
ATOM     35  C   UNL d   1      18.265 -20.530  -0.031  0.00  0.00     0.003 C 
ATOM     36  C   UNL d   1      18.724 -20.790   1.258  0.00  0.00     0.000 C 
ATOM     37  C   UNL d   1      19.939 -20.252   1.678  0.00  0.00     0.003 C 
ATOM     38  C   UNL d   1      20.627 -19.354   0.854  0.00  0.00     0.037 C 
ENDBRANCH  32  33
ENDBRANCH  31  32
ENDBRANCH  30  31
ENDBRANCH  29  30
ENDBRANCH  26  29
ENDBRANCH   2  23
TORSDOF 11
ENDMDL
MODEL 4
REMARK VINA RESULT:   -10.154      3.150      4.533
REMARK INTER + INTRA:         -15.985
REMARK INTER:                 -13.435
REMARK INTRA:                  -2.550
REMARK CONF_INDEPENDENT:        3.281
REMARK UNBOUND:                -2.550
REMARK  11 active torsions:
REMARK  status: ('A' for Active; 'I' for Inactive)
REMARK    1  A    between atoms: C_2  and  C_3 
REMARK       I    between atoms: C_2  and  N_13 
REMARK    2  A    between atoms: C_3  and  N_4 
REMARK    3  A    between atoms: N_13  and  N_14 
REMARK    4  A    between atoms: N_14  and  C_15 
REMARK    5  A    between atoms: C_15  and  N_17 
REMARK       I    between atoms: N_17  and  C_18 
REMARK    6  A    between atoms: C_18  and  C_20 
REMARK    7  A    between atoms: C_23  and  O_24 
REMARK    8  A    between atoms: O_24  and  C_25 
REMARK    9  A    between atoms: C_25  and  C_26 
REMARK   10  A    between atoms: C_26  and  O_27 
REMARK   11  A    between atoms: O_27  and  C_28 
ROOT
ATOM      1  N   UNL d   1      29.877 -17.455  -0.571  0.00  0.00    -0.298 N 
ATOM      2  C   UNL d   1      28.776 -17.033  -1.356  0.00  0.00     0.257 C 
ATOM      3  O   UNL d   1      28.861 -16.529  -2.479  0.00  0.00    -0.267 OA
ATOM      4  H   UNL d   1      29.645 -17.921   0.294  0.00  0.00     0.171 HD
ENDROOT
BRANCH   1   5
ATOM      5  C   UNL d   1      31.248 -17.383  -0.925  0.00  0.00     0.193 C 
ATOM      6  S   UNL d   1      32.281 -18.710  -1.076  0.00  0.00    -0.039 SA
BRANCH   5   7
ATOM      7  N   UNL d   1      31.734 -16.076  -1.170  0.00  0.00    -0.273 N 
ATOM      8  H   UNL d   1      32.700 -15.800  -1.045  0.00  0.00     0.189 HD
BRANCH   7   9
ATOM      9  N   UNL d   1      30.801 -15.083  -1.620  0.00  0.00    -0.266 N 
ATOM     10  C   UNL d   1      30.145 -14.098  -0.908  0.00  0.00     0.254 C 
ATOM     11  O   UNL d   1      29.356 -13.370  -1.513  0.00  0.00    -0.270 OA
ATOM     12  H   UNL d   1      30.571 -15.117  -2.618  0.00  0.00     0.190 HD
BRANCH  10  13
ATOM     13  C   UNL d   1      30.418 -13.968   0.572  0.00  0.00     0.233 C 
BRANCH  13  14
ATOM     14  N   UNL d   1      29.206 -13.956   1.395  0.00  0.00    -0.347 N 
ATOM     15  C   UNL d   1      27.936 -13.849   0.876  0.00  0.00     0.092 A 
ATOM     16  C   UNL d   1      27.041 -13.866   1.920  0.00  0.00     0.031 A 
ATOM     17  C   UNL d   1      27.780 -14.016   3.121  0.00  0.00    -0.008 A 
ATOM     18  C   UNL d   1      27.403 -14.092   4.478  0.00  0.00     0.014 A 
ATOM     19  C   UNL d   1      29.137 -14.084   2.775  0.00  0.00     0.044 A 
ATOM     20  C   UNL d   1      28.384 -14.241   5.459  0.00  0.00     0.001 A 
ATOM     21  C   UNL d   1      29.727 -14.308   5.101  0.00  0.00     0.002 A 
ATOM     22  C   UNL d   1      30.130 -14.231   3.759  0.00  0.00     0.030 A 
ENDBRANCH  13  14
ENDBRANCH  10  13
ENDBRANCH   7   9
ENDBRANCH   5   7
ENDBRANCH   1   5
BRANCH   2  23
ATOM     23  C   UNL d   1      27.376 -17.239  -0.869  0.00  0.00     0.032 C 
ATOM     24  C   UNL d   1      27.048 -18.014   0.242  0.00  0.00     0.020 C 
ATOM     25  C   UNL d   1      25.693 -18.198   0.595  0.00  0.00     0.038 C 
ATOM     26  C   UNL d   1      24.659 -17.532  -0.083  0.00  0.00     0.068 C 
ATOM     27  C   UNL d   1      25.007 -16.624  -1.078  0.00  0.00     0.038 C 
ATOM     28  C   UNL d   1      26.343 -16.512  -1.494  0.00  0.00     0.020 C 
BRANCH  26  29
ATOM     29  O   UNL d   1      23.376 -17.838   0.304  0.00  0.00    -0.349 OA
BRANCH  29  30
ATOM     30  C   UNL d   1      22.322 -17.540  -0.631  0.00  0.00     0.202 C 
BRANCH  30  31
ATOM     31  C   UNL d   1      21.772 -18.828  -1.264  0.00  0.00     0.202 C 
BRANCH  31  32
ATOM     32  O   UNL d   1      20.332 -18.813  -1.202  0.00  0.00    -0.349 OA
BRANCH  32  33
ATOM     33  C   UNL d   1      19.799 -19.500  -0.139  0.00  0.00     0.068 C 
ATOM     34  C   UNL d   1      18.691 -20.341  -0.238  0.00  0.00     0.037 C 
ATOM     35  C   UNL d   1      18.142 -20.920   0.910  0.00  0.00     0.003 C 
ATOM     36  C   UNL d   1      18.774 -20.765   2.141  0.00  0.00     0.000 C 
ATOM     37  C   UNL d   1      19.968 -20.051   2.218  0.00  0.00     0.003 C 
ATOM     38  C   UNL d   1      20.458 -19.386   1.088  0.00  0.00     0.037 C 
ENDBRANCH  32  33
ENDBRANCH  31  32
ENDBRANCH  30  31
ENDBRANCH  29  30
ENDBRANCH  26  29
ENDBRANCH   2  23
TORSDOF 11
ENDMDL
MODEL 5
REMARK VINA RESULT:   -10.083      6.994     10.183
REMARK INTER + INTRA:         -15.560
REMARK INTER:                 -13.364
REMARK INTRA:                  -2.196
REMARK CONF_INDEPENDENT:        3.281
REMARK UNBOUND:                -2.196
REMARK  11 active torsions:
REMARK  status: ('A' for Active; 'I' for Inactive)
REMARK    1  A    between atoms: C_2  and  C_3 
REMARK       I    between atoms: C_2  and  N_13 
REMARK    2  A    between atoms: C_3  and  N_4 
REMARK    3  A    between atoms: N_13  and  N_14 
REMARK    4  A    between atoms: N_14  and  C_15 
REMARK    5  A    between atoms: C_15  and  N_17 
REMARK       I    between atoms: N_17  and  C_18 
REMARK    6  A    between atoms: C_18  and  C_20 
REMARK    7  A    between atoms: C_23  and  O_24 
REMARK    8  A    between atoms: O_24  and  C_25 
REMARK    9  A    between atoms: C_25  and  C_26 
REMARK   10  A    between atoms: C_26  and  O_27 
REMARK   11  A    between atoms: O_27  and  C_28 
ROOT
ATOM      1  N   UNL d   1      28.846 -14.319  -4.346  0.00  0.00    -0.298 N 
ATOM      2  C   UNL d   1      27.657 -15.071  -4.514  0.00  0.00     0.257 C 
ATOM      3  O   UNL d   1      27.177 -15.399  -5.602  0.00  0.00    -0.267 OA
ATOM      4  H   UNL d   1      29.155 -14.195  -3.394  0.00  0.00     0.171 HD
ENDROOT
BRANCH   1   5
ATOM      5  C   UNL d   1      29.687 -13.821  -5.374  0.00  0.00     0.193 C 
ATOM      6  S   UNL d   1      30.954 -12.730  -5.146  0.00  0.00    -0.039 SA
BRANCH   5   7
ATOM      7  N   UNL d   1      29.405 -14.317  -6.670  0.00  0.00    -0.273 N 
ATOM      8  H   UNL d   1      28.506 -14.692  -6.948  0.00  0.00     0.189 HD
BRANCH   7   9
ATOM      9  N   UNL d   1      30.457 -14.291  -7.646  0.00  0.00    -0.266 N 
ATOM     10  C   UNL d   1      31.669 -14.951  -7.657  0.00  0.00     0.254 C 
ATOM     11  O   UNL d   1      32.435 -14.746  -8.602  0.00  0.00    -0.270 OA
ATOM     12  H   UNL d   1      30.294 -13.678  -8.450  0.00  0.00     0.190 HD
BRANCH  10  13
ATOM     13  C   UNL d   1      32.002 -15.880  -6.513  0.00  0.00     0.233 C 
BRANCH  13  14
ATOM     14  N   UNL d   1      31.605 -17.270  -6.751  0.00  0.00    -0.347 N 
ATOM     15  C   UNL d   1      31.422 -17.805  -8.005  0.00  0.00     0.092 A 
ATOM     16  C   UNL d   1      31.050 -19.121  -7.864  0.00  0.00     0.031 A 
ATOM     17  C   UNL d   1      31.028 -19.417  -6.476  0.00  0.00    -0.008 A 
ATOM     18  C   UNL d   1      30.721 -20.585  -5.749  0.00  0.00     0.014 A 
ATOM     19  C   UNL d   1      31.390 -18.249  -5.791  0.00  0.00     0.044 A 
ATOM     20  C   UNL d   1      30.788 -20.566  -4.355  0.00  0.00     0.001 A 
ATOM     21  C   UNL d   1      31.151 -19.400  -3.687  0.00  0.00     0.002 A 
ATOM     22  C   UNL d   1      31.457 -18.223  -4.387  0.00  0.00     0.030 A 
ENDBRANCH  13  14
ENDBRANCH  10  13
ENDBRANCH   7   9
ENDBRANCH   5   7
ENDBRANCH   1   5
BRANCH   2  23
ATOM     23  C   UNL d   1      26.913 -15.585  -3.323  0.00  0.00     0.032 C 
ATOM     24  C   UNL d   1      27.531 -16.113  -2.191  0.00  0.00     0.020 C 
ATOM     25  C   UNL d   1      26.745 -16.627  -1.137  0.00  0.00     0.038 C 
ATOM     26  C   UNL d   1      25.345 -16.526  -1.146  0.00  0.00     0.068 C 
ATOM     27  C   UNL d   1      24.744 -15.841  -2.197  0.00  0.00     0.038 C 
ATOM     28  C   UNL d   1      25.514 -15.415  -3.291  0.00  0.00     0.020 C 
BRANCH  26  29
ATOM     29  O   UNL d   1      24.680 -17.121  -0.099  0.00  0.00    -0.349 OA
BRANCH  29  30
ATOM     30  C   UNL d   1      23.262 -17.319  -0.251  0.00  0.00     0.202 C 
BRANCH  30  31
ATOM     31  C   UNL d   1      22.962 -18.716  -0.816  0.00  0.00     0.202 C 
BRANCH  31  32
ATOM     32  O   UNL d   1      21.610 -18.748  -1.316  0.00  0.00    -0.349 OA
BRANCH  32  33
ATOM     33  C   UNL d   1      20.691 -19.267  -0.439  0.00  0.00     0.068 C 
ATOM     34  C   UNL d   1      20.883 -19.324   0.941  0.00  0.00     0.037 C 
ATOM     35  C   UNL d   1      19.946 -19.967   1.756  0.00  0.00     0.003 C 
ATOM     36  C   UNL d   1      18.755 -20.442   1.213  0.00  0.00     0.000 C 
ATOM     37  C   UNL d   1      18.491 -20.251  -0.142  0.00  0.00     0.003 C 
ATOM     38  C   UNL d   1      19.474 -19.701  -0.973  0.00  0.00     0.037 C 
ENDBRANCH  32  33
ENDBRANCH  31  32
ENDBRANCH  30  31
ENDBRANCH  29  30
ENDBRANCH  26  29
ENDBRANCH   2  23
TORSDOF 11
ENDMDL
MODEL 6
REMARK VINA RESULT:    -9.760      6.281      9.396
REMARK INTER + INTRA:         -15.468
REMARK INTER:                 -13.041
REMARK INTRA:                  -2.426
REMARK CONF_INDEPENDENT:        3.281
REMARK UNBOUND:                -2.426
REMARK  11 active torsions:
REMARK  status: ('A' for Active; 'I' for Inactive)
REMARK    1  A    between atoms: C_2  and  C_3 
REMARK       I    between atoms: C_2  and  N_13 
REMARK    2  A    between atoms: C_3  and  N_4 
REMARK    3  A    between atoms: N_13  and  N_14 
REMARK    4  A    between atoms: N_14  and  C_15 
REMARK    5  A    between atoms: C_15  and  N_17 
REMARK       I    between atoms: N_17  and  C_18 
REMARK    6  A    between atoms: C_18  and  C_20 
REMARK    7  A    between atoms: C_23  and  O_24 
REMARK    8  A    between atoms: O_24  and  C_25 
REMARK    9  A    between atoms: C_25  and  C_26 
REMARK   10  A    between atoms: C_26  and  O_27 
REMARK   11  A    between atoms: O_27  and  C_28 
ROOT
ATOM      1  N   UNL d   1      29.871 -17.659  -0.599  0.00  0.00    -0.298 N 
ATOM      2  C   UNL d   1      28.813 -16.930  -1.196  0.00  0.00     0.257 C 
ATOM      3  O   UNL d   1      28.947 -16.111  -2.109  0.00  0.00    -0.267 OA
ATOM      4  H   UNL d   1      29.596 -18.350   0.083  0.00  0.00     0.171 HD
ENDROOT
BRANCH   1   5
ATOM      5  C   UNL d   1      31.246 -17.588  -0.937  0.00  0.00     0.193 C 
ATOM      6  S   UNL d   1      32.446 -18.610  -0.333  0.00  0.00    -0.039 SA
BRANCH   5   7
ATOM      7  N   UNL d   1      31.583 -16.571  -1.863  0.00  0.00    -0.273 N 
ATOM      8  H   UNL d   1      30.945 -15.841  -2.157  0.00  0.00     0.189 HD
BRANCH   7   9
ATOM      9  N   UNL d   1      32.905 -16.577  -2.421  0.00  0.00    -0.266 N 
ATOM     10  C   UNL d   1      33.342 -16.174  -3.667  0.00  0.00     0.254 C 
ATOM     11  O   UNL d   1      34.538 -16.304  -3.935  0.00  0.00    -0.270 OA
ATOM     12  H   UNL d   1      33.637 -16.953  -1.810  0.00  0.00     0.190 HD
BRANCH  10  13
ATOM     13  C   UNL d   1      32.336 -15.605  -4.640  0.00  0.00     0.233 C 
BRANCH  13  14
ATOM     14  N   UNL d   1      31.910 -16.556  -5.669  0.00  0.00    -0.347 N 
ATOM     15  C   UNL d   1      31.942 -16.283  -7.018  0.00  0.00     0.092 A 
ATOM     16  C   UNL d   1      31.472 -17.385  -7.693  0.00  0.00     0.031 A 
ATOM     17  C   UNL d   1      31.165 -18.382  -6.731  0.00  0.00    -0.008 A 
ATOM     18  C   UNL d   1      30.654 -19.692  -6.837  0.00  0.00     0.014 A 
ATOM     19  C   UNL d   1      31.456 -17.852  -5.467  0.00  0.00     0.044 A 
ATOM     20  C   UNL d   1      30.452 -20.448  -5.682  0.00  0.00     0.001 A 
ATOM     21  C   UNL d   1      30.747 -19.910  -4.433  0.00  0.00     0.002 A 
ATOM     22  C   UNL d   1      31.252 -18.607  -4.299  0.00  0.00     0.030 A 
ENDBRANCH  13  14
ENDBRANCH  10  13
ENDBRANCH   7   9
ENDBRANCH   5   7
ENDBRANCH   1   5
BRANCH   2  23
ATOM     23  C   UNL d   1      27.398 -17.167  -0.773  0.00  0.00     0.032 C 
ATOM     24  C   UNL d   1      27.028 -18.061   0.229  0.00  0.00     0.020 C 
ATOM     25  C   UNL d   1      25.661 -18.261   0.523  0.00  0.00     0.038 C 
ATOM     26  C   UNL d   1      24.656 -17.501  -0.097  0.00  0.00     0.068 C 
ATOM     27  C   UNL d   1      25.045 -16.487  -0.967  0.00  0.00     0.038 C 
ATOM     28  C   UNL d   1      26.394 -16.352  -1.333  0.00  0.00     0.020 C 
BRANCH  26  29
ATOM     29  O   UNL d   1      23.358 -17.828   0.218  0.00  0.00    -0.349 OA
BRANCH  29  30
ATOM     30  C   UNL d   1      22.362 -17.598  -0.796  0.00  0.00     0.202 C 
BRANCH  30  31
ATOM     31  C   UNL d   1      21.736 -18.923  -1.258  0.00  0.00     0.202 C 
BRANCH  31  32
ATOM     32  O   UNL d   1      20.302 -18.845  -1.129  0.00  0.00    -0.349 OA
BRANCH  32  33
ATOM     33  C   UNL d   1      19.786 -19.543  -0.066  0.00  0.00     0.068 C 
ATOM     34  C   UNL d   1      18.733 -20.451  -0.174  0.00  0.00     0.037 C 
ATOM     35  C   UNL d   1      18.192 -21.040   0.973  0.00  0.00     0.003 C 
ATOM     36  C   UNL d   1      18.781 -20.822   2.216  0.00  0.00     0.000 C 
ATOM     37  C   UNL d   1      19.927 -20.034   2.307  0.00  0.00     0.003 C 
ATOM     38  C   UNL d   1      20.405 -19.364   1.175  0.00  0.00     0.037 C 
ENDBRANCH  32  33
ENDBRANCH  31  32
ENDBRANCH  30  31
ENDBRANCH  29  30
ENDBRANCH  26  29
ENDBRANCH   2  23
TORSDOF 11
ENDMDL
MODEL 7
REMARK VINA RESULT:    -9.721      4.307      7.160
REMARK INTER + INTRA:         -15.925
REMARK INTER:                 -13.003
REMARK INTRA:                  -2.923
REMARK CONF_INDEPENDENT:        3.281
REMARK UNBOUND:                -2.923
REMARK  11 active torsions:
REMARK  status: ('A' for Active; 'I' for Inactive)
REMARK    1  A    between atoms: C_2  and  C_3 
REMARK       I    between atoms: C_2  and  N_13 
REMARK    2  A    between atoms: C_3  and  N_4 
REMARK    3  A    between atoms: N_13  and  N_14 
REMARK    4  A    between atoms: N_14  and  C_15 
REMARK    5  A    between atoms: C_15  and  N_17 
REMARK       I    between atoms: N_17  and  C_18 
REMARK    6  A    between atoms: C_18  and  C_20 
REMARK    7  A    between atoms: C_23  and  O_24 
REMARK    8  A    between atoms: O_24  and  C_25 
REMARK    9  A    between atoms: C_25  and  C_26 
REMARK   10  A    between atoms: C_26  and  O_27 
REMARK   11  A    between atoms: O_27  and  C_28 
ROOT
ATOM      1  N   UNL d   1      28.391 -15.102   1.531  0.00  0.00    -0.298 N 
ATOM      2  C   UNL d   1      27.298 -14.847   0.668  0.00  0.00     0.257 C 
ATOM      3  O   UNL d   1      27.020 -13.745   0.188  0.00  0.00    -0.267 OA
ATOM      4  H   UNL d   1      28.537 -16.069   1.780  0.00  0.00     0.171 HD
ENDROOT
BRANCH   1   5
ATOM      5  C   UNL d   1      29.349 -14.161   1.988  0.00  0.00     0.193 C 
ATOM      6  S   UNL d   1      29.759 -13.903   3.606  0.00  0.00    -0.039 SA
BRANCH   5   7
ATOM      7  N   UNL d   1      29.987 -13.414   0.969  0.00  0.00    -0.273 N 
ATOM      8  H   UNL d   1      30.915 -13.615   0.619  0.00  0.00     0.189 HD
BRANCH   7   9
ATOM      9  N   UNL d   1      29.277 -12.304   0.401  0.00  0.00    -0.266 N 
ATOM     10  C   UNL d   1      29.132 -11.928  -0.920  0.00  0.00     0.254 C 
ATOM     11  O   UNL d   1      28.491 -10.905  -1.167  0.00  0.00    -0.270 OA
ATOM     12  H   UNL d   1      28.820 -11.683   1.077  0.00  0.00     0.190 HD
BRANCH  10  13
ATOM     13  C   UNL d   1      29.769 -12.781  -1.992  0.00  0.00     0.233 C 
BRANCH  13  14
ATOM     14  N   UNL d   1      28.907 -13.865  -2.470  0.00  0.00    -0.347 N 
ATOM     15  C   UNL d   1      29.265 -15.193  -2.435  0.00  0.00     0.092 A 
ATOM     16  C   UNL d   1      28.232 -15.933  -2.962  0.00  0.00     0.031 A 
ATOM     17  C   UNL d   1      27.191 -15.034  -3.310  0.00  0.00    -0.008 A 
ATOM     18  C   UNL d   1      25.916 -15.219  -3.883  0.00  0.00     0.014 A 
ATOM     19  C   UNL d   1      27.624 -13.742  -2.984  0.00  0.00     0.044 A 
ATOM     20  C   UNL d   1      25.097 -14.112  -4.113  0.00  0.00     0.001 A 
ATOM     21  C   UNL d   1      25.539 -12.834  -3.783  0.00  0.00     0.002 A 
ATOM     22  C   UNL d   1      26.805 -12.623  -3.216  0.00  0.00     0.030 A 
ENDBRANCH  13  14
ENDBRANCH  10  13
ENDBRANCH   7   9
ENDBRANCH   5   7
ENDBRANCH   1   5
BRANCH   2  23
ATOM     23  C   UNL d   1      26.411 -15.965   0.219  0.00  0.00     0.032 C 
ATOM     24  C   UNL d   1      25.342 -15.800  -0.659  0.00  0.00     0.020 C 
ATOM     25  C   UNL d   1      24.523 -16.904  -0.983  0.00  0.00     0.038 C 
ATOM     26  C   UNL d   1      24.818 -18.199  -0.527  0.00  0.00     0.068 C 
ATOM     27  C   UNL d   1      25.987 -18.385   0.205  0.00  0.00     0.038 C 
ATOM     28  C   UNL d   1      26.749 -17.276   0.609  0.00  0.00     0.020 C 
BRANCH  26  29
ATOM     29  O   UNL d   1      23.915 -19.184  -0.849  0.00  0.00    -0.349 OA
BRANCH  29  30
ATOM     30  C   UNL d   1      22.779 -18.795  -1.644  0.00  0.00     0.202 C 
BRANCH  30  31
ATOM     31  C   UNL d   1      21.707 -18.123  -0.773  0.00  0.00     0.202 C 
BRANCH  31  32
ATOM     32  O   UNL d   1      20.415 -18.678  -1.092  0.00  0.00    -0.349 OA
BRANCH  32  33
ATOM     33  C   UNL d   1      19.850 -19.423  -0.087  0.00  0.00     0.068 C 
ATOM     34  C   UNL d   1      18.767 -20.281  -0.274  0.00  0.00     0.037 C 
ATOM     35  C   UNL d   1      18.180 -20.922   0.820  0.00  0.00     0.003 C 
ATOM     36  C   UNL d   1      18.749 -20.809   2.086  0.00  0.00     0.000 C 
ATOM     37  C   UNL d   1      19.922 -20.073   2.250  0.00  0.00     0.003 C 
ATOM     38  C   UNL d   1      20.448 -19.349   1.174  0.00  0.00     0.037 C 
ENDBRANCH  32  33
ENDBRANCH  31  32
ENDBRANCH  30  31
ENDBRANCH  29  30
ENDBRANCH  26  29
ENDBRANCH   2  23
TORSDOF 11
ENDMDL
MODEL 8
REMARK VINA RESULT:    -9.578      5.991      7.815
REMARK INTER + INTRA:         -16.003
REMARK INTER:                 -12.859
REMARK INTRA:                  -3.144
REMARK CONF_INDEPENDENT:        3.281
REMARK UNBOUND:                -3.144
REMARK  11 active torsions:
REMARK  status: ('A' for Active; 'I' for Inactive)
REMARK    1  A    between atoms: C_2  and  C_3 
REMARK       I    between atoms: C_2  and  N_13 
REMARK    2  A    between atoms: C_3  and  N_4 
REMARK    3  A    between atoms: N_13  and  N_14 
REMARK    4  A    between atoms: N_14  and  C_15 
REMARK    5  A    between atoms: C_15  and  N_17 
REMARK       I    between atoms: N_17  and  C_18 
REMARK    6  A    between atoms: C_18  and  C_20 
REMARK    7  A    between atoms: C_23  and  O_24 
REMARK    8  A    between atoms: O_24  and  C_25 
REMARK    9  A    between atoms: C_25  and  C_26 
REMARK   10  A    between atoms: C_26  and  O_27 
REMARK   11  A    between atoms: O_27  and  C_28 
ROOT
ATOM      1  N   UNL d   1      29.567 -16.655   0.005  0.00  0.00    -0.298 N 
ATOM      2  C   UNL d   1      28.655 -16.917  -1.046  0.00  0.00     0.257 C 
ATOM      3  O   UNL d   1      28.957 -16.998  -2.240  0.00  0.00    -0.267 OA
ATOM      4  H   UNL d   1      29.184 -16.697   0.938  0.00  0.00     0.171 HD
ENDROOT
BRANCH   1   5
ATOM      5  C   UNL d   1      30.965 -16.448  -0.117  0.00  0.00     0.193 C 
ATOM      6  S   UNL d   1      32.068 -16.510   1.159  0.00  0.00    -0.039 SA
BRANCH   5   7
ATOM      7  N   UNL d   1      31.417 -16.184  -1.432  0.00  0.00    -0.273 N 
ATOM      8  H   UNL d   1      31.079 -16.669  -2.254  0.00  0.00     0.189 HD
BRANCH   7   9
ATOM      9  N   UNL d   1      32.419 -15.172  -1.610  0.00  0.00    -0.266 N 
ATOM     10  C   UNL d   1      32.287 -13.857  -2.010  0.00  0.00     0.254 C 
ATOM     11  O   UNL d   1      33.309 -13.176  -2.120  0.00  0.00    -0.270 OA
ATOM     12  H   UNL d   1      33.382 -15.471  -1.429  0.00  0.00     0.190 HD
BRANCH  10  13
ATOM     13  C   UNL d   1      30.904 -13.321  -2.300  0.00  0.00     0.233 C 
BRANCH  13  14
ATOM     14  N   UNL d   1      30.181 -14.083  -3.321  0.00  0.00    -0.347 N 
ATOM     15  C   UNL d   1      30.798 -14.905  -4.235  0.00  0.00     0.092 A 
ATOM     16  C   UNL d   1      29.830 -15.457  -5.041  0.00  0.00     0.031 A 
ATOM     17  C   UNL d   1      28.571 -14.979  -4.594  0.00  0.00    -0.008 A 
ATOM     18  C   UNL d   1      27.249 -15.199  -5.033  0.00  0.00     0.014 A 
ATOM     19  C   UNL d   1      28.806 -14.128  -3.506  0.00  0.00     0.044 A 
ATOM     20  C   UNL d   1      26.191 -14.572  -4.376  0.00  0.00     0.001 A 
ATOM     21  C   UNL d   1      26.439 -13.730  -3.296  0.00  0.00     0.002 A 
ATOM     22  C   UNL d   1      27.744 -13.491  -2.841  0.00  0.00     0.030 A 
ENDBRANCH  13  14
ENDBRANCH  10  13
ENDBRANCH   7   9
ENDBRANCH   5   7
ENDBRANCH   1   5
BRANCH   2  23
ATOM     23  C   UNL d   1      27.213 -17.182  -0.749  0.00  0.00     0.032 C 
ATOM     24  C   UNL d   1      26.774 -18.018   0.276  0.00  0.00     0.020 C 
ATOM     25  C   UNL d   1      25.392 -18.253   0.447  0.00  0.00     0.038 C 
ATOM     26  C   UNL d   1      24.430 -17.581  -0.323  0.00  0.00     0.068 C 
ATOM     27  C   UNL d   1      24.869 -16.616  -1.224  0.00  0.00     0.038 C 
ATOM     28  C   UNL d   1      26.243 -16.451  -1.464  0.00  0.00     0.020 C 
BRANCH  26  29
ATOM     29  O   UNL d   1      23.118 -17.938  -0.115  0.00  0.00    -0.349 OA
BRANCH  29  30
ATOM     30  C   UNL d   1      22.515 -18.810  -1.089  0.00  0.00     0.202 C 
BRANCH  30  31
ATOM     31  C   UNL d   1      21.025 -18.480  -1.269  0.00  0.00     0.202 C 
BRANCH  31  32
ATOM     32  O   UNL d   1      20.264 -19.705  -1.287  0.00  0.00    -0.349 OA
BRANCH  32  33
ATOM     33  C   UNL d   1      19.738 -20.067  -0.072  0.00  0.00     0.068 C 
ATOM     34  C   UNL d   1      18.573 -20.820   0.074  0.00  0.00     0.037 C 
ATOM     35  C   UNL d   1      18.042 -21.055   1.346  0.00  0.00     0.003 C 
ATOM     36  C   UNL d   1      18.739 -20.649   2.481  0.00  0.00     0.000 C 
ATOM     37  C   UNL d   1      19.980 -20.029   2.343  0.00  0.00     0.003 C 
ATOM     38  C   UNL d   1      20.459 -19.703   1.069  0.00  0.00     0.037 C 
ENDBRANCH  32  33
ENDBRANCH  31  32
ENDBRANCH  30  31
ENDBRANCH  29  30
ENDBRANCH  26  29
ENDBRANCH   2  23
TORSDOF 11
ENDMDL
MODEL 9
REMARK VINA RESULT:    -9.269      7.615     10.317
REMARK INTER + INTRA:         -15.526
REMARK INTER:                 -12.550
REMARK INTRA:                  -2.976
REMARK CONF_INDEPENDENT:        3.281
REMARK UNBOUND:                -2.976
REMARK  11 active torsions:
REMARK  status: ('A' for Active; 'I' for Inactive)
REMARK    1  A    between atoms: C_2  and  C_3 
REMARK       I    between atoms: C_2  and  N_13 
REMARK    2  A    between atoms: C_3  and  N_4 
REMARK    3  A    between atoms: N_13  and  N_14 
REMARK    4  A    between atoms: N_14  and  C_15 
REMARK    5  A    between atoms: C_15  and  N_17 
REMARK       I    between atoms: N_17  and  C_18 
REMARK    6  A    between atoms: C_18  and  C_20 
REMARK    7  A    between atoms: C_23  and  O_24 
REMARK    8  A    between atoms: O_24  and  C_25 
REMARK    9  A    between atoms: C_25  and  C_26 
REMARK   10  A    between atoms: C_26  and  O_27 
REMARK   11  A    between atoms: O_27  and  C_28 
ROOT
ATOM      1  N   UNL d   1      27.673 -13.134  -5.888  0.00  0.00    -0.298 N 
ATOM      2  C   UNL d   1      27.509 -14.520  -5.651  0.00  0.00     0.257 C 
ATOM      3  O   UNL d   1      27.783 -15.413  -6.458  0.00  0.00    -0.267 OA
ATOM      4  H   UNL d   1      27.479 -12.529  -5.104  0.00  0.00     0.171 HD
ENDROOT
BRANCH   1   5
ATOM      5  C   UNL d   1      28.178 -12.530  -7.067  0.00  0.00     0.193 C 
ATOM      6  S   UNL d   1      27.676 -11.041  -7.685  0.00  0.00    -0.039 SA
BRANCH   5   7
ATOM      7  N   UNL d   1      29.185 -13.269  -7.734  0.00  0.00    -0.273 N 
ATOM      8  H   UNL d   1      29.173 -14.276  -7.835  0.00  0.00     0.189 HD
BRANCH   7   9
ATOM      9  N   UNL d   1      30.292 -12.546  -8.295  0.00  0.00    -0.266 N 
ATOM     10  C   UNL d   1      31.580 -12.966  -8.558  0.00  0.00     0.254 C 
ATOM     11  O   UNL d   1      32.376 -12.146  -9.021  0.00  0.00    -0.270 OA
ATOM     12  H   UNL d   1      30.104 -11.564  -8.521  0.00  0.00     0.190 HD
BRANCH  10  13
ATOM     13  C   UNL d   1      31.953 -14.399  -8.259  0.00  0.00     0.233 C 
BRANCH  13  14
ATOM     14  N   UNL d   1      31.517 -14.856  -6.937  0.00  0.00    -0.347 N 
ATOM     15  C   UNL d   1      31.365 -14.020  -5.855  0.00  0.00     0.092 A 
ATOM     16  C   UNL d   1      30.951 -14.773  -4.782  0.00  0.00     0.031 A 
ATOM     17  C   UNL d   1      30.818 -16.115  -5.222  0.00  0.00    -0.008 A 
ATOM     18  C   UNL d   1      30.436 -17.305  -4.569  0.00  0.00     0.014 A 
ATOM     19  C   UNL d   1      31.164 -16.150  -6.579  0.00  0.00     0.044 A 
ATOM     20  C   UNL d   1      30.401 -18.503  -5.285  0.00  0.00     0.001 A 
ATOM     21  C   UNL d   1      30.746 -18.522  -6.633  0.00  0.00     0.002 A 
ATOM     22  C   UNL d   1      31.134 -17.353  -7.305  0.00  0.00     0.030 A 
ENDBRANCH  13  14
ENDBRANCH  10  13
ENDBRANCH   7   9
ENDBRANCH   5   7
ENDBRANCH   1   5
BRANCH   2  23
ATOM     23  C   UNL d   1      27.025 -15.009  -4.322  0.00  0.00     0.032 C 
ATOM     24  C   UNL d   1      27.862 -15.523  -3.334  0.00  0.00     0.020 C 
ATOM     25  C   UNL d   1      27.309 -16.013  -2.130  0.00  0.00     0.038 C 
ATOM     26  C   UNL d   1      25.937 -15.900  -1.850  0.00  0.00     0.068 C 
ATOM     27  C   UNL d   1      25.135 -15.227  -2.766  0.00  0.00     0.038 C 
ATOM     28  C   UNL d   1      25.664 -14.826  -4.004  0.00  0.00     0.020 C 
BRANCH  26  29
ATOM     29  O   UNL d   1      25.502 -16.472  -0.678  0.00  0.00    -0.349 OA
BRANCH  29  30
ATOM     30  C   UNL d   1      24.733 -17.684  -0.787  0.00  0.00     0.202 C 
BRANCH  30  31
ATOM     31  C   UNL d   1      23.230 -17.392  -0.663  0.00  0.00     0.202 C 
BRANCH  31  32
ATOM     32  O   UNL d   1      22.484 -18.453  -1.293  0.00  0.00    -0.349 OA
BRANCH  32  33
ATOM     33  C   UNL d   1      21.421 -18.917  -0.559  0.00  0.00     0.068 C 
ATOM     34  C   UNL d   1      21.398 -18.948   0.835  0.00  0.00     0.037 C 
ATOM     35  C   UNL d   1      20.324 -19.537   1.508  0.00  0.00     0.003 C 
ATOM     36  C   UNL d   1      19.211 -19.981   0.797  0.00  0.00     0.000 C 
ATOM     37  C   UNL d   1      19.166 -19.813  -0.586  0.00  0.00     0.003 C 
ATOM     38  C   UNL d   1      20.285 -19.319  -1.266  0.00  0.00     0.037 C 
ENDBRANCH  32  33
ENDBRANCH  31  32
ENDBRANCH  30  31
ENDBRANCH  29  30
ENDBRANCH  26  29
ENDBRANCH   2  23
TORSDOF 11
ENDMDL
