MODEL 1
REMARK VINA RESULT:   -26.939      0.000      0.000
REMARK INTER + INTRA:         -29.684
REMARK INTER:                 -29.027
REMARK INTRA:                  -0.657
REMARK CONF_INDEPENDENT:        2.088
REMARK UNBOUND:                -0.657
REMARK  7 active torsions:
REMARK  status: ('A' for Active; 'I' for Inactive)
REMARK    1  A    between atoms: C_2  and  S_3 
REMARK    2  A    between atoms: C_2  and  C_16 
REMARK    3  A    between atoms: S_3  and  C_4 
REMARK    4  A    between atoms: C_7  and  C_8 
REMARK       I    between atoms: C_16  and  N_18 
REMARK    5  A    between atoms: N_18  and  C_19 
REMARK    6  A    between atoms: C_19  and  C_20 
REMARK       I    between atoms: C_20  and  N_22 
REMARK    7  A    between atoms: N_22  and  C_23 
ROOT
ATOM      1  C   UNL d   1      25.640 -16.954   0.036  0.00  0.00     0.232 C 
ATOM      2  O   UNL d   1      26.094 -18.070   0.315  0.00  0.00    -0.272 OA
ATOM      3  N   UNL d   1      26.385 -15.827   0.305  0.00  0.00    -0.351 N 
ATOM      4  H   UNL d   1      26.008 -14.898   0.124  0.00  0.00     0.163 HD
ENDROOT
BRANCH   1   5
ATOM      5  C   UNL d   1      24.272 -16.781  -0.703  0.00  0.00     0.143 C 
ATOM      6  C   UNL d   1      24.426 -15.718  -1.795  0.00  0.00     0.031 C 
BRANCH   5   7
ATOM      7  S   UNL d   1      23.746 -18.367  -1.427  0.00  0.00    -0.076 SA
BRANCH   7   8
ATOM      8  C   UNL d   1      22.076 -18.648  -1.047  0.00  0.00     0.190 A 
ATOM      9  N   UNL d   1      21.084 -18.021  -1.637  0.00  0.00    -0.122 NA
ATOM     10  N   UNL d   1      19.902 -18.575  -1.201  0.00  0.00    -0.129 NA
ATOM     11  C   UNL d   1      20.185 -19.518  -0.324  0.00  0.00     0.165 A 
ATOM     12  N   UNL d   1      21.559 -19.588  -0.198  0.00  0.00    -0.316 N 
ATOM     13  H   UNL d   1      22.062 -20.236   0.385  0.00  0.00     0.169 HD
BRANCH  11  14
ATOM     14  C   UNL d   1      19.216 -20.361   0.371  0.00  0.00     0.050 A 
ATOM     15  C   UNL d   1      18.061 -20.805  -0.291  0.00  0.00     0.018 A 
ATOM     16  C   UNL d   1      17.098 -21.569   0.383  0.00  0.00     0.001 A 
ATOM     17  C   UNL d   1      17.269 -21.879   1.731  0.00  0.00     0.003 A 
ATOM     18  C   UNL d   1      18.406 -21.434   2.402  0.00  0.00     0.043 A 
ATOM     19  C   UNL d   1      19.371 -20.691   1.720  0.00  0.00     0.130 A 
ATOM     20  F   UNL d   1      20.456 -20.277   2.393  0.00  0.00    -0.205 F 
ENDBRANCH  11  14
ENDBRANCH   7   8
ENDBRANCH   5   7
ENDBRANCH   1   5
BRANCH   3  21
ATOM     21  C   UNL d   1      27.682 -15.887   1.009  0.00  0.00     0.225 C 
BRANCH  21  22
ATOM     22  C   UNL d   1      27.929 -14.598   1.816  0.00  0.00     0.239 C 
ATOM     23  O   UNL d   1      27.968 -13.509   1.231  0.00  0.00    -0.271 OA
ATOM     24  N   UNL d   1      28.137 -14.743   3.189  0.00  0.00    -0.323 N 
ATOM     25  H   UNL d   1      28.402 -15.654   3.555  0.00  0.00     0.169 HD
BRANCH  24  26
ATOM     26  C   UNL d   1      28.391 -13.615   4.029  0.00  0.00     0.077 A 
ATOM     27  C   UNL d   1      29.231 -13.740   5.144  0.00  0.00     0.036 A 
ATOM     28  C   UNL d   1      29.465 -12.657   5.996  0.00  0.00     0.048 A 
ATOM     29  C   UNL d   1      28.852 -11.437   5.741  0.00  0.00     0.158 A 
ATOM     30  F   UNL d   1      29.066 -10.410   6.576  0.00  0.00    -0.203 F 
ATOM     31  C   UNL d   1      28.030 -11.285   4.632  0.00  0.00     0.195 A 
ATOM     32  F   UNL d   1      27.431 -10.105   4.409  0.00  0.00    -0.199 F 
ATOM     33  C   UNL d   1      27.817 -12.362   3.766  0.00  0.00     0.184 A 
ATOM     34  F   UNL d   1      26.995 -12.207   2.716  0.00  0.00    -0.200 F 
ENDBRANCH  24  26
ENDBRANCH  21  22
ENDBRANCH   3  21
TORSDOF 7
ENDMDL
MODEL 2
REMARK VINA RESULT:   -26.751      1.189      1.223
REMARK INTER + INTRA:         -30.085
REMARK INTER:                 -28.839
REMARK INTRA:                  -1.246
REMARK CONF_INDEPENDENT:        2.088
REMARK UNBOUND:                -1.246
REMARK  7 active torsions:
REMARK  status: ('A' for Active; 'I' for Inactive)
REMARK    1  A    between atoms: C_2  and  S_3 
REMARK    2  A    between atoms: C_2  and  C_16 
REMARK    3  A    between atoms: S_3  and  C_4 
REMARK    4  A    between atoms: C_7  and  C_8 
REMARK       I    between atoms: C_16  and  N_18 
REMARK    5  A    between atoms: N_18  and  C_19 
REMARK    6  A    between atoms: C_19  and  C_20 
REMARK       I    between atoms: C_20  and  N_22 
REMARK    7  A    between atoms: N_22  and  C_23 
ROOT
ATOM      1  C   UNL d   1      25.660 -16.623  -0.198  0.00  0.00     0.232 C 
ATOM      2  O   UNL d   1      26.324 -17.666  -0.160  0.00  0.00    -0.272 OA
ATOM      3  N   UNL d   1      26.246 -15.427   0.158  0.00  0.00    -0.351 N 
ATOM      4  H   UNL d   1      25.703 -14.567   0.177  0.00  0.00     0.163 HD
ENDROOT
BRANCH   1   5
ATOM      5  C   UNL d   1      24.189 -16.601  -0.728  0.00  0.00     0.143 C 
ATOM      6  C   UNL d   1      24.065 -15.522  -1.809  0.00  0.00     0.031 C 
BRANCH   5   7
ATOM      7  S   UNL d   1      23.740 -18.232  -1.400  0.00  0.00    -0.076 SA
BRANCH   7   8
ATOM      8  C   UNL d   1      22.078 -18.570  -1.030  0.00  0.00     0.190 A 
ATOM      9  N   UNL d   1      21.069 -17.984  -1.633  0.00  0.00    -0.122 NA
ATOM     10  N   UNL d   1      19.905 -18.577  -1.200  0.00  0.00    -0.129 NA
ATOM     11  C   UNL d   1      20.215 -19.502  -0.313  0.00  0.00     0.165 A 
ATOM     12  N   UNL d   1      21.589 -19.520  -0.177  0.00  0.00    -0.316 N 
ATOM     13  H   UNL d   1      22.110 -20.145   0.416  0.00  0.00     0.169 HD
BRANCH  11  14
ATOM     14  C   UNL d   1      19.272 -20.373   0.381  0.00  0.00     0.050 A 
ATOM     15  C   UNL d   1      18.211 -20.970  -0.318  0.00  0.00     0.018 A 
ATOM     16  C   UNL d   1      17.269 -21.764   0.350  0.00  0.00     0.001 A 
ATOM     17  C   UNL d   1      17.363 -21.953   1.728  0.00  0.00     0.003 A 
ATOM     18  C   UNL d   1      18.405 -21.356   2.436  0.00  0.00     0.043 A 
ATOM     19  C   UNL d   1      19.352 -20.583   1.761  0.00  0.00     0.130 A 
ATOM     20  F   UNL d   1      20.344 -20.022   2.469  0.00  0.00    -0.205 F 
ENDBRANCH  11  14
ENDBRANCH   7   8
ENDBRANCH   5   7
ENDBRANCH   1   5
BRANCH   3  21
ATOM     21  C   UNL d   1      27.626 -15.349   0.680  0.00  0.00     0.225 C 
BRANCH  21  22
ATOM     22  C   UNL d   1      27.683 -14.478   1.950  0.00  0.00     0.239 C 
ATOM     23  O   UNL d   1      26.834 -13.597   2.125  0.00  0.00    -0.271 OA
ATOM     24  N   UNL d   1      28.738 -14.717   2.833  0.00  0.00    -0.323 N 
ATOM     25  H   UNL d   1      29.558 -15.217   2.498  0.00  0.00     0.169 HD
BRANCH  24  26
ATOM     26  C   UNL d   1      28.896 -13.956   4.032  0.00  0.00     0.077 A 
ATOM     27  C   UNL d   1      28.150 -14.276   5.174  0.00  0.00     0.036 A 
ATOM     28  C   UNL d   1      28.266 -13.523   6.346  0.00  0.00     0.048 A 
ATOM     29  C   UNL d   1      29.128 -12.434   6.381  0.00  0.00     0.158 A 
ATOM     30  F   UNL d   1      29.217 -11.705   7.503  0.00  0.00    -0.203 F 
ATOM     31  C   UNL d   1      29.891 -12.109   5.266  0.00  0.00     0.195 A 
ATOM     32  F   UNL d   1      30.706 -11.044   5.309  0.00  0.00    -0.199 F 
ATOM     33  C   UNL d   1      29.793 -12.880   4.103  0.00  0.00     0.184 A 
ATOM     34  F   UNL d   1      30.514 -12.534   3.024  0.00  0.00    -0.200 F 
ENDBRANCH  24  26
ENDBRANCH  21  22
ENDBRANCH   3  21
TORSDOF 7
ENDMDL
MODEL 3
REMARK VINA RESULT:   -25.728      4.543      5.843
REMARK INTER + INTRA:         -29.321
REMARK INTER:                 -27.816
REMARK INTRA:                  -1.505
REMARK CONF_INDEPENDENT:        2.088
REMARK UNBOUND:                -1.505
REMARK  7 active torsions:
REMARK  status: ('A' for Active; 'I' for Inactive)
REMARK    1  A    between atoms: C_2  and  S_3 
REMARK    2  A    between atoms: C_2  and  C_16 
REMARK    3  A    between atoms: S_3  and  C_4 
REMARK    4  A    between atoms: C_7  and  C_8 
REMARK       I    between atoms: C_16  and  N_18 
REMARK    5  A    between atoms: N_18  and  C_19 
REMARK    6  A    between atoms: C_19  and  C_20 
REMARK       I    between atoms: C_20  and  N_22 
REMARK    7  A    between atoms: N_22  and  C_23 
ROOT
ATOM      1  C   UNL d   1      25.526 -16.120  -0.387  0.00  0.00     0.232 C 
ATOM      2  O   UNL d   1      26.040 -14.995  -0.372  0.00  0.00    -0.272 OA
ATOM      3  N   UNL d   1      26.264 -17.214   0.010  0.00  0.00    -0.351 N 
ATOM      4  H   UNL d   1      25.873 -18.152  -0.040  0.00  0.00     0.163 HD
ENDROOT
BRANCH   1   5
ATOM      5  C   UNL d   1      24.023 -16.335  -0.762  0.00  0.00     0.143 C 
ATOM      6  C   UNL d   1      23.665 -15.418  -1.936  0.00  0.00     0.031 C 
BRANCH   5   7
ATOM      7  S   UNL d   1      23.729 -18.077  -1.200  0.00  0.00    -0.076 SA
BRANCH   7   8
ATOM      8  C   UNL d   1      22.061 -18.468  -0.920  0.00  0.00     0.190 A 
ATOM      9  N   UNL d   1      21.071 -17.954  -1.615  0.00  0.00    -0.122 NA
ATOM     10  N   UNL d   1      19.905 -18.575  -1.229  0.00  0.00    -0.129 NA
ATOM     11  C   UNL d   1      20.192 -19.444  -0.280  0.00  0.00     0.165 A 
ATOM     12  N   UNL d   1      21.554 -19.397  -0.055  0.00  0.00    -0.316 N 
ATOM     13  H   UNL d   1      22.059 -19.971   0.600  0.00  0.00     0.169 HD
BRANCH  11  14
ATOM     14  C   UNL d   1      19.240 -20.321   0.395  0.00  0.00     0.050 A 
ATOM     15  C   UNL d   1      18.136 -20.837  -0.301  0.00  0.00     0.018 A 
ATOM     16  C   UNL d   1      17.187 -21.635   0.352  0.00  0.00     0.001 A 
ATOM     17  C   UNL d   1      17.319 -21.909   1.712  0.00  0.00     0.003 A 
ATOM     18  C   UNL d   1      18.405 -21.393   2.417  0.00  0.00     0.043 A 
ATOM     19  C   UNL d   1      19.358 -20.615   1.756  0.00  0.00     0.130 A 
ATOM     20  F   UNL d   1      20.393 -20.133   2.462  0.00  0.00    -0.205 F 
ENDBRANCH  11  14
ENDBRANCH   7   8
ENDBRANCH   5   7
ENDBRANCH   1   5
BRANCH   3  21
ATOM     21  C   UNL d   1      27.693 -17.113   0.372  0.00  0.00     0.225 C 
BRANCH  21  22
ATOM     22  C   UNL d   1      28.545 -16.748  -0.859  0.00  0.00     0.239 C 
ATOM     23  O   UNL d   1      29.778 -16.810  -0.788  0.00  0.00    -0.271 OA
ATOM     24  N   UNL d   1      27.860 -16.322  -1.998  0.00  0.00    -0.323 N 
ATOM     25  H   UNL d   1      26.901 -15.996  -1.905  0.00  0.00     0.169 HD
BRANCH  24  26
ATOM     26  C   UNL d   1      28.553 -15.943  -3.189  0.00  0.00     0.077 A 
ATOM     27  C   UNL d   1      29.954 -15.938  -3.219  0.00  0.00     0.036 A 
ATOM     28  C   UNL d   1      30.650 -15.539  -4.365  0.00  0.00     0.048 A 
ATOM     29  C   UNL d   1      29.945 -15.133  -5.490  0.00  0.00     0.158 A 
ATOM     30  F   UNL d   1      30.621 -14.732  -6.577  0.00  0.00    -0.203 F 
ATOM     31  C   UNL d   1      28.555 -15.146  -5.489  0.00  0.00     0.195 A 
ATOM     32  F   UNL d   1      27.888 -14.734  -6.578  0.00  0.00    -0.199 F 
ATOM     33  C   UNL d   1      27.861 -15.571  -4.352  0.00  0.00     0.184 A 
ATOM     34  F   UNL d   1      26.519 -15.548  -4.356  0.00  0.00    -0.200 F 
ENDBRANCH  24  26
ENDBRANCH  21  22
ENDBRANCH   3  21
TORSDOF 7
ENDMDL
MODEL 4
REMARK VINA RESULT:   -25.623      5.386      6.762
REMARK INTER + INTRA:         -29.236
REMARK INTER:                 -27.711
REMARK INTRA:                  -1.525
REMARK CONF_INDEPENDENT:        2.088
REMARK UNBOUND:                -1.525
REMARK  7 active torsions:
REMARK  status: ('A' for Active; 'I' for Inactive)
REMARK    1  A    between atoms: C_2  and  S_3 
REMARK    2  A    between atoms: C_2  and  C_16 
REMARK    3  A    between atoms: S_3  and  C_4 
REMARK    4  A    between atoms: C_7  and  C_8 
REMARK       I    between atoms: C_16  and  N_18 
REMARK    5  A    between atoms: N_18  and  C_19 
REMARK    6  A    between atoms: C_19  and  C_20 
REMARK       I    between atoms: C_20  and  N_22 
REMARK    7  A    between atoms: N_22  and  C_23 
ROOT
ATOM      1  C   UNL d   1      26.028 -17.281  -1.242  0.00  0.00     0.232 C 
ATOM      2  O   UNL d   1      27.147 -17.668  -0.883  0.00  0.00    -0.272 OA
ATOM      3  N   UNL d   1      25.921 -16.301  -2.205  0.00  0.00    -0.351 N 
ATOM      4  H   UNL d   1      25.010 -15.938  -2.479  0.00  0.00     0.163 HD
ENDROOT
BRANCH   1   5
ATOM      5  C   UNL d   1      24.716 -17.937  -0.700  0.00  0.00     0.143 C 
ATOM      6  C   UNL d   1      24.904 -18.279   0.781  0.00  0.00     0.031 C 
BRANCH   5   7
ATOM      7  S   UNL d   1      23.311 -16.800  -0.919  0.00  0.00    -0.076 SA
BRANCH   7   8
ATOM      8  C   UNL d   1      21.825 -17.680  -0.742  0.00  0.00     0.190 A 
ATOM      9  N   UNL d   1      20.871 -17.678  -1.645  0.00  0.00    -0.122 NA
ATOM     10  N   UNL d   1      19.905 -18.576  -1.254  0.00  0.00    -0.129 NA
ATOM     11  C   UNL d   1      20.266 -19.098  -0.098  0.00  0.00     0.165 A 
ATOM     12  N   UNL d   1      21.481 -18.545   0.260  0.00  0.00    -0.316 N 
ATOM     13  H   UNL d   1      22.008 -18.776   1.085  0.00  0.00     0.169 HD
BRANCH  11  14
ATOM     14  C   UNL d   1      19.525 -20.104   0.657  0.00  0.00     0.050 A 
ATOM     15  C   UNL d   1      18.697 -21.021  -0.008  0.00  0.00     0.018 A 
ATOM     16  C   UNL d   1      17.939 -21.955   0.711  0.00  0.00     0.001 A 
ATOM     17  C   UNL d   1      17.985 -21.970   2.104  0.00  0.00     0.003 A 
ATOM     18  C   UNL d   1      18.795 -21.056   2.777  0.00  0.00     0.043 A 
ATOM     19  C   UNL d   1      19.563 -20.142   2.053  0.00  0.00     0.130 A 
ATOM     20  F   UNL d   1      20.334 -19.276   2.729  0.00  0.00    -0.205 F 
ENDBRANCH  11  14
ENDBRANCH   7   8
ENDBRANCH   5   7
ENDBRANCH   1   5
BRANCH   3  21
ATOM     21  C   UNL d   1      27.102 -15.616  -2.769  0.00  0.00     0.225 C 
BRANCH  21  22
ATOM     22  C   UNL d   1      26.680 -14.572  -3.821  0.00  0.00     0.239 C 
ATOM     23  O   UNL d   1      25.571 -14.663  -4.361  0.00  0.00    -0.271 OA
ATOM     24  N   UNL d   1      27.612 -13.581  -4.138  0.00  0.00    -0.323 N 
ATOM     25  H   UNL d   1      28.590 -13.733  -3.907  0.00  0.00     0.169 HD
BRANCH  24  26
ATOM     26  C   UNL d   1      27.330 -12.574  -5.111  0.00  0.00     0.077 A 
ATOM     27  C   UNL d   1      26.187 -11.774  -4.989  0.00  0.00     0.036 A 
ATOM     28  C   UNL d   1      25.877 -10.806  -5.949  0.00  0.00     0.048 A 
ATOM     29  C   UNL d   1      26.710 -10.637  -7.048  0.00  0.00     0.158 A 
ATOM     30  F   UNL d   1      26.393  -9.721  -7.975  0.00  0.00    -0.203 F 
ATOM     31  C   UNL d   1      27.858 -11.408  -7.182  0.00  0.00     0.195 A 
ATOM     32  F   UNL d   1      28.643 -11.246  -8.258  0.00  0.00    -0.199 F 
ATOM     33  C   UNL d   1      28.180 -12.357  -6.207  0.00  0.00     0.184 A 
ATOM     34  F   UNL d   1      29.277 -13.115  -6.366  0.00  0.00    -0.200 F 
ENDBRANCH  24  26
ENDBRANCH  21  22
ENDBRANCH   3  21
TORSDOF 7
ENDMDL
MODEL 5
REMARK VINA RESULT:   -25.558      4.002      5.454
REMARK INTER + INTRA:         -28.782
REMARK INTER:                 -27.646
REMARK INTRA:                  -1.136
REMARK CONF_INDEPENDENT:        2.088
REMARK UNBOUND:                -1.136
REMARK  7 active torsions:
REMARK  status: ('A' for Active; 'I' for Inactive)
REMARK    1  A    between atoms: C_2  and  S_3 
REMARK    2  A    between atoms: C_2  and  C_16 
REMARK    3  A    between atoms: S_3  and  C_4 
REMARK    4  A    between atoms: C_7  and  C_8 
REMARK       I    between atoms: C_16  and  N_18 
REMARK    5  A    between atoms: N_18  and  C_19 
REMARK    6  A    between atoms: C_19  and  C_20 
REMARK       I    between atoms: C_20  and  N_22 
REMARK    7  A    between atoms: N_22  and  C_23 
ROOT
ATOM      1  C   UNL d   1      25.401 -16.128  -0.127  0.00  0.00     0.232 C 
ATOM      2  O   UNL d   1      25.719 -15.072   0.434  0.00  0.00    -0.272 OA
ATOM      3  N   UNL d   1      26.255 -17.208  -0.086  0.00  0.00    -0.351 N 
ATOM      4  H   UNL d   1      26.031 -18.069  -0.579  0.00  0.00     0.163 HD
ENDROOT
BRANCH   1   5
ATOM      5  C   UNL d   1      24.006 -16.310  -0.811  0.00  0.00     0.143 C 
ATOM      6  C   UNL d   1      23.960 -15.459  -2.084  0.00  0.00     0.031 C 
BRANCH   5   7
ATOM      7  S   UNL d   1      23.727 -18.065  -1.206  0.00  0.00    -0.076 SA
BRANCH   7   8
ATOM      8  C   UNL d   1      22.058 -18.458  -0.936  0.00  0.00     0.190 A 
ATOM      9  N   UNL d   1      21.072 -17.955  -1.645  0.00  0.00    -0.122 NA
ATOM     10  N   UNL d   1      19.905 -18.575  -1.262  0.00  0.00    -0.129 NA
ATOM     11  C   UNL d   1      20.187 -19.432  -0.300  0.00  0.00     0.165 A 
ATOM     12  N   UNL d   1      21.547 -19.379  -0.064  0.00  0.00    -0.316 N 
ATOM     13  H   UNL d   1      22.048 -19.944   0.602  0.00  0.00     0.169 HD
BRANCH  11  14
ATOM     14  C   UNL d   1      19.232 -20.305   0.377  0.00  0.00     0.050 A 
ATOM     15  C   UNL d   1      18.111 -20.796  -0.310  0.00  0.00     0.018 A 
ATOM     16  C   UNL d   1      17.159 -21.589   0.346  0.00  0.00     0.001 A 
ATOM     17  C   UNL d   1      17.306 -21.882   1.700  0.00  0.00     0.003 A 
ATOM     18  C   UNL d   1      18.409 -21.390   2.397  0.00  0.00     0.043 A 
ATOM     19  C   UNL d   1      19.364 -20.618   1.732  0.00  0.00     0.130 A 
ATOM     20  F   UNL d   1      20.415 -20.159   2.429  0.00  0.00    -0.205 F 
ENDBRANCH  11  14
ENDBRANCH   7   8
ENDBRANCH   5   7
ENDBRANCH   1   5
BRANCH   3  21
ATOM     21  C   UNL d   1      27.597 -17.130   0.528  0.00  0.00     0.225 C 
BRANCH  21  22
ATOM     22  C   UNL d   1      28.675 -16.867  -0.541  0.00  0.00     0.239 C 
ATOM     23  O   UNL d   1      28.413 -16.139  -1.506  0.00  0.00    -0.271 OA
ATOM     24  N   UNL d   1      29.902 -17.513  -0.374  0.00  0.00    -0.323 N 
ATOM     25  H   UNL d   1      29.955 -18.320   0.242  0.00  0.00     0.169 HD
BRANCH  24  26
ATOM     26  C   UNL d   1      30.965 -17.353  -1.315  0.00  0.00     0.077 A 
ATOM     27  C   UNL d   1      31.201 -18.333  -2.287  0.00  0.00     0.036 A 
ATOM     28  C   UNL d   1      32.257 -18.210  -3.195  0.00  0.00     0.048 A 
ATOM     29  C   UNL d   1      33.092 -17.102  -3.132  0.00  0.00     0.158 A 
ATOM     30  F   UNL d   1      34.115 -17.003  -3.993  0.00  0.00    -0.203 F 
ATOM     31  C   UNL d   1      32.867 -16.108  -2.187  0.00  0.00     0.195 A 
ATOM     32  F   UNL d   1      33.693 -15.053  -2.127  0.00  0.00    -0.199 F 
ATOM     33  C   UNL d   1      31.794 -16.221  -1.297  0.00  0.00     0.184 A 
ATOM     34  F   UNL d   1      31.608 -15.267  -0.371  0.00  0.00    -0.200 F 
ENDBRANCH  24  26
ENDBRANCH  21  22
ENDBRANCH   3  21
TORSDOF 7
ENDMDL
MODEL 6
REMARK VINA RESULT:   -25.478      2.175      2.602
REMARK INTER + INTRA:         -28.605
REMARK INTER:                 -27.567
REMARK INTRA:                  -1.039
REMARK CONF_INDEPENDENT:        2.088
REMARK UNBOUND:                -1.039
REMARK  7 active torsions:
REMARK  status: ('A' for Active; 'I' for Inactive)
REMARK    1  A    between atoms: C_2  and  S_3 
REMARK    2  A    between atoms: C_2  and  C_16 
REMARK    3  A    between atoms: S_3  and  C_4 
REMARK    4  A    between atoms: C_7  and  C_8 
REMARK       I    between atoms: C_16  and  N_18 
REMARK    5  A    between atoms: N_18  and  C_19 
REMARK    6  A    between atoms: C_19  and  C_20 
REMARK       I    between atoms: C_20  and  N_22 
REMARK    7  A    between atoms: N_22  and  C_23 
ROOT
ATOM      1  C   UNL d   1      25.864 -17.265  -1.392  0.00  0.00     0.232 C 
ATOM      2  O   UNL d   1      25.715 -16.461  -2.320  0.00  0.00    -0.272 OA
ATOM      3  N   UNL d   1      27.119 -17.471  -0.861  0.00  0.00    -0.351 N 
ATOM      4  H   UNL d   1      27.268 -18.162  -0.129  0.00  0.00     0.163 HD
ENDROOT
BRANCH   1   5
ATOM      5  C   UNL d   1      24.650 -17.996  -0.732  0.00  0.00     0.143 C 
ATOM      6  C   UNL d   1      25.088 -18.570   0.620  0.00  0.00     0.031 C 
BRANCH   5   7
ATOM      7  S   UNL d   1      23.263 -16.838  -0.513  0.00  0.00    -0.076 SA
BRANCH   7   8
ATOM      8  C   UNL d   1      21.767 -17.719  -0.527  0.00  0.00     0.190 A 
ATOM      9  N   UNL d   1      20.903 -17.660  -1.514  0.00  0.00    -0.122 NA
ATOM     10  N   UNL d   1      19.905 -18.575  -1.269  0.00  0.00    -0.129 NA
ATOM     11  C   UNL d   1      20.156 -19.164  -0.116  0.00  0.00     0.165 A 
ATOM     12  N   UNL d   1      21.331 -18.638   0.386  0.00  0.00    -0.316 N 
ATOM     13  H   UNL d   1      21.779 -18.919   1.243  0.00  0.00     0.169 HD
BRANCH  11  14
ATOM     14  C   UNL d   1      19.348 -20.208   0.507  0.00  0.00     0.050 A 
ATOM     15  C   UNL d   1      18.325 -20.839  -0.218  0.00  0.00     0.018 A 
ATOM     16  C   UNL d   1      17.508 -21.804   0.388  0.00  0.00     0.001 A 
ATOM     17  C   UNL d   1      17.691 -22.133   1.730  0.00  0.00     0.003 A 
ATOM     18  C   UNL d   1      18.696 -21.505   2.463  0.00  0.00     0.043 A 
ATOM     19  C   UNL d   1      19.519 -20.560   1.848  0.00  0.00     0.130 A 
ATOM     20  F   UNL d   1      20.479 -19.973   2.581  0.00  0.00    -0.205 F 
ENDBRANCH  11  14
ENDBRANCH   7   8
ENDBRANCH   5   7
ENDBRANCH   1   5
BRANCH   3  21
ATOM     21  C   UNL d   1      28.328 -16.834  -1.423  0.00  0.00     0.225 C 
BRANCH  21  22
ATOM     22  C   UNL d   1      28.640 -15.512  -0.695  0.00  0.00     0.239 C 
ATOM     23  O   UNL d   1      28.622 -14.448  -1.325  0.00  0.00    -0.271 OA
ATOM     24  N   UNL d   1      28.971 -15.600   0.659  0.00  0.00    -0.323 N 
ATOM     25  H   UNL d   1      29.271 -16.495   1.037  0.00  0.00     0.169 HD
BRANCH  24  26
ATOM     26  C   UNL d   1      29.294 -14.439   1.426  0.00  0.00     0.077 A 
ATOM     27  C   UNL d   1      28.342 -13.870   2.282  0.00  0.00     0.036 A 
ATOM     28  C   UNL d   1      28.630 -12.715   3.015  0.00  0.00     0.048 A 
ATOM     29  C   UNL d   1      29.875 -12.113   2.890  0.00  0.00     0.158 A 
ATOM     30  F   UNL d   1      30.134 -10.993   3.581  0.00  0.00    -0.203 F 
ATOM     31  C   UNL d   1      30.841 -12.669   2.060  0.00  0.00     0.195 A 
ATOM     32  F   UNL d   1      32.033 -12.066   1.935  0.00  0.00    -0.199 F 
ATOM     33  C   UNL d   1      30.561 -13.839   1.348  0.00  0.00     0.184 A 
ATOM     34  F   UNL d   1      31.494 -14.347   0.526  0.00  0.00    -0.200 F 
ENDBRANCH  24  26
ENDBRANCH  21  22
ENDBRANCH   3  21
TORSDOF 7
ENDMDL
MODEL 7
REMARK VINA RESULT:   -25.423      2.850      3.097
REMARK INTER + INTRA:         -28.826
REMARK INTER:                 -27.511
REMARK INTRA:                  -1.315
REMARK CONF_INDEPENDENT:        2.088
REMARK UNBOUND:                -1.315
REMARK  7 active torsions:
REMARK  status: ('A' for Active; 'I' for Inactive)
REMARK    1  A    between atoms: C_2  and  S_3 
REMARK    2  A    between atoms: C_2  and  C_16 
REMARK    3  A    between atoms: S_3  and  C_4 
REMARK    4  A    between atoms: C_7  and  C_8 
REMARK       I    between atoms: C_16  and  N_18 
REMARK    5  A    between atoms: N_18  and  C_19 
REMARK    6  A    between atoms: C_19  and  C_20 
REMARK       I    between atoms: C_20  and  N_22 
REMARK    7  A    between atoms: N_22  and  C_23 
ROOT
ATOM      1  C   UNL d   1      25.719 -17.234   0.095  0.00  0.00     0.232 C 
ATOM      2  O   UNL d   1      25.946 -18.317   0.649  0.00  0.00    -0.272 OA
ATOM      3  N   UNL d   1      26.722 -16.295  -0.005  0.00  0.00    -0.351 N 
ATOM      4  H   UNL d   1      26.541 -15.381  -0.416  0.00  0.00     0.163 HD
ENDROOT
BRANCH   1   5
ATOM      5  C   UNL d   1      24.344 -16.927  -0.583  0.00  0.00     0.143 C 
ATOM      6  C   UNL d   1      24.512 -15.742  -1.539  0.00  0.00     0.031 C 
BRANCH   5   7
ATOM      7  S   UNL d   1      23.747 -18.392  -1.483  0.00  0.00    -0.076 SA
BRANCH   7   8
ATOM      8  C   UNL d   1      22.080 -18.672  -1.089  0.00  0.00     0.190 A 
ATOM      9  N   UNL d   1      21.085 -18.017  -1.645  0.00  0.00    -0.122 NA
ATOM     10  N   UNL d   1      19.905 -18.575  -1.211  0.00  0.00    -0.129 NA
ATOM     11  C   UNL d   1      20.191 -19.549  -0.369  0.00  0.00     0.165 A 
ATOM     12  N   UNL d   1      21.566 -19.634  -0.265  0.00  0.00    -0.316 N 
ATOM     13  H   UNL d   1      22.070 -20.305   0.291  0.00  0.00     0.169 HD
BRANCH  11  14
ATOM     14  C   UNL d   1      19.224 -20.406   0.311  0.00  0.00     0.050 A 
ATOM     15  C   UNL d   1      18.051 -20.808  -0.345  0.00  0.00     0.018 A 
ATOM     16  C   UNL d   1      17.090 -21.585   0.318  0.00  0.00     0.001 A 
ATOM     17  C   UNL d   1      17.282 -21.950   1.649  0.00  0.00     0.003 A 
ATOM     18  C   UNL d   1      18.438 -21.546   2.315  0.00  0.00     0.043 A 
ATOM     19  C   UNL d   1      19.400 -20.790   1.643  0.00  0.00     0.130 A 
ATOM     20  F   UNL d   1      20.503 -20.417   2.310  0.00  0.00    -0.205 F 
ENDBRANCH  11  14
ENDBRANCH   7   8
ENDBRANCH   5   7
ENDBRANCH   1   5
BRANCH   3  21
ATOM     21  C   UNL d   1      28.050 -16.489   0.612  0.00  0.00     0.225 C 
BRANCH  21  22
ATOM     22  C   UNL d   1      28.822 -15.157   0.683  0.00  0.00     0.239 C 
ATOM     23  O   UNL d   1      28.403 -14.174   0.062  0.00  0.00    -0.271 OA
ATOM     24  N   UNL d   1      30.001 -15.149   1.432  0.00  0.00    -0.323 N 
ATOM     25  H   UNL d   1      30.452 -16.034   1.652  0.00  0.00     0.169 HD
BRANCH  24  26
ATOM     26  C   UNL d   1      30.803 -13.973   1.551  0.00  0.00     0.077 A 
ATOM     27  C   UNL d   1      30.220 -12.705   1.423  0.00  0.00     0.036 A 
ATOM     28  C   UNL d   1      30.994 -11.544   1.503  0.00  0.00     0.048 A 
ATOM     29  C   UNL d   1      32.365 -11.644   1.704  0.00  0.00     0.158 A 
ATOM     30  F   UNL d   1      33.102 -10.525   1.758  0.00  0.00    -0.203 F 
ATOM     31  C   UNL d   1      32.962 -12.890   1.851  0.00  0.00     0.195 A 
ATOM     32  F   UNL d   1      34.290 -12.971   2.027  0.00  0.00    -0.199 F 
ATOM     33  C   UNL d   1      32.182 -14.049   1.797  0.00  0.00     0.184 A 
ATOM     34  F   UNL d   1      32.779 -15.247   1.909  0.00  0.00    -0.200 F 
ENDBRANCH  24  26
ENDBRANCH  21  22
ENDBRANCH   3  21
TORSDOF 7
ENDMDL
MODEL 8
REMARK VINA RESULT:   -24.983      4.472      5.167
REMARK INTER + INTRA:         -28.805
REMARK INTER:                 -27.071
REMARK INTRA:                  -1.734
REMARK CONF_INDEPENDENT:        2.088
REMARK UNBOUND:                -1.734
REMARK  7 active torsions:
REMARK  status: ('A' for Active; 'I' for Inactive)
REMARK    1  A    between atoms: C_2  and  S_3 
REMARK    2  A    between atoms: C_2  and  C_16 
REMARK    3  A    between atoms: S_3  and  C_4 
REMARK    4  A    between atoms: C_7  and  C_8 
REMARK       I    between atoms: C_16  and  N_18 
REMARK    5  A    between atoms: N_18  and  C_19 
REMARK    6  A    between atoms: C_19  and  C_20 
REMARK       I    between atoms: C_20  and  N_22 
REMARK    7  A    between atoms: N_22  and  C_23 
ROOT
ATOM      1  C   UNL d   1      24.902 -15.776  -2.237  0.00  0.00     0.232 C 
ATOM      2  O   UNL d   1      24.498 -14.927  -3.041  0.00  0.00    -0.272 OA
ATOM      3  N   UNL d   1      26.212 -16.199  -2.290  0.00  0.00    -0.351 N 
ATOM      4  H   UNL d   1      26.550 -16.929  -1.667  0.00  0.00     0.163 HD
ENDROOT
BRANCH   1   5
ATOM      5  C   UNL d   1      23.991 -16.325  -1.091  0.00  0.00     0.143 C 
ATOM      6  C   UNL d   1      22.654 -15.578  -1.114  0.00  0.00     0.031 C 
BRANCH   5   7
ATOM      7  S   UNL d   1      23.726 -18.114  -1.303  0.00  0.00    -0.076 SA
BRANCH   7   8
ATOM      8  C   UNL d   1      22.062 -18.492  -0.983  0.00  0.00     0.190 A 
ATOM      9  N   UNL d   1      21.059 -17.961  -1.645  0.00  0.00    -0.122 NA
ATOM     10  N   UNL d   1      19.898 -18.575  -1.235  0.00  0.00    -0.129 NA
ATOM     11  C   UNL d   1      20.202 -19.457  -0.303  0.00  0.00     0.165 A 
ATOM     12  N   UNL d   1      21.570 -19.426  -0.114  0.00  0.00    -0.316 N 
ATOM     13  H   UNL d   1      22.087 -20.012   0.521  0.00  0.00     0.169 HD
BRANCH  11  14
ATOM     14  C   UNL d   1      19.260 -20.333   0.388  0.00  0.00     0.050 A 
ATOM     15  C   UNL d   1      18.191 -20.914  -0.311  0.00  0.00     0.018 A 
ATOM     16  C   UNL d   1      17.249 -21.712   0.354  0.00  0.00     0.001 A 
ATOM     17  C   UNL d   1      17.355 -21.920   1.729  0.00  0.00     0.003 A 
ATOM     18  C   UNL d   1      18.405 -21.338   2.436  0.00  0.00     0.043 A 
ATOM     19  C   UNL d   1      19.351 -20.562   1.763  0.00  0.00     0.130 A 
ATOM     20  F   UNL d   1      20.352 -20.016   2.471  0.00  0.00    -0.205 F 
ENDBRANCH  11  14
ENDBRANCH   7   8
ENDBRANCH   5   7
ENDBRANCH   1   5
BRANCH   3  21
ATOM     21  C   UNL d   1      27.146 -15.745  -3.342  0.00  0.00     0.225 C 
BRANCH  21  22
ATOM     22  C   UNL d   1      27.392 -14.227  -3.239  0.00  0.00     0.239 C 
ATOM     23  O   UNL d   1      28.408 -13.810  -2.673  0.00  0.00    -0.271 OA
ATOM     24  N   UNL d   1      26.408 -13.391  -3.771  0.00  0.00    -0.323 N 
ATOM     25  H   UNL d   1      25.477 -13.765  -3.935  0.00  0.00     0.169 HD
BRANCH  24  26
ATOM     26  C   UNL d   1      26.527 -11.968  -3.715  0.00  0.00     0.077 A 
ATOM     27  C   UNL d   1      26.529 -11.212  -4.894  0.00  0.00     0.036 A 
ATOM     28  C   UNL d   1      26.677  -9.822  -4.861  0.00  0.00     0.048 A 
ATOM     29  C   UNL d   1      26.833  -9.177  -3.641  0.00  0.00     0.158 A 
ATOM     30  F   UNL d   1      26.997  -7.846  -3.620  0.00  0.00    -0.203 F 
ATOM     31  C   UNL d   1      26.818  -9.904  -2.457  0.00  0.00     0.195 A 
ATOM     32  F   UNL d   1      26.987  -9.269  -1.287  0.00  0.00    -0.199 F 
ATOM     33  C   UNL d   1      26.643 -11.291  -2.491  0.00  0.00     0.184 A 
ATOM     34  F   UNL d   1      26.660 -11.983  -1.340  0.00  0.00    -0.200 F 
ENDBRANCH  24  26
ENDBRANCH  21  22
ENDBRANCH   3  21
TORSDOF 7
ENDMDL
MODEL 9
REMARK VINA RESULT:   -24.453      2.215      2.239
REMARK INTER + INTRA:         -28.330
REMARK INTER:                 -26.542
REMARK INTRA:                  -1.788
REMARK CONF_INDEPENDENT:        2.088
REMARK UNBOUND:                -1.788
REMARK  7 active torsions:
REMARK  status: ('A' for Active; 'I' for Inactive)
REMARK    1  A    between atoms: C_2  and  S_3 
REMARK    2  A    between atoms: C_2  and  C_16 
REMARK    3  A    between atoms: S_3  and  C_4 
REMARK    4  A    between atoms: C_7  and  C_8 
REMARK       I    between atoms: C_16  and  N_18 
REMARK    5  A    between atoms: N_18  and  C_19 
REMARK    6  A    between atoms: C_19  and  C_20 
REMARK       I    between atoms: C_20  and  N_22 
REMARK    7  A    between atoms: N_22  and  C_23 
ROOT
ATOM      1  C   UNL d   1      25.621 -16.202  -0.785  0.00  0.00     0.232 C 
ATOM      2  O   UNL d   1      26.257 -15.525  -1.603  0.00  0.00    -0.272 OA
ATOM      3  N   UNL d   1      26.261 -16.710   0.325  0.00  0.00    -0.351 N 
ATOM      4  H   UNL d   1      25.765 -17.307   0.983  0.00  0.00     0.163 HD
ENDROOT
BRANCH   1   5
ATOM      5  C   UNL d   1      24.080 -16.429  -0.923  0.00  0.00     0.143 C 
ATOM      6  C   UNL d   1      23.532 -15.492  -2.004  0.00  0.00     0.031 C 
BRANCH   5   7
ATOM      7  S   UNL d   1      23.737 -18.165  -1.350  0.00  0.00    -0.076 SA
BRANCH   7   8
ATOM      8  C   UNL d   1      22.074 -18.525  -1.008  0.00  0.00     0.190 A 
ATOM      9  N   UNL d   1      21.067 -17.971  -1.645  0.00  0.00    -0.122 NA
ATOM     10  N   UNL d   1      19.905 -18.575  -1.225  0.00  0.00    -0.129 NA
ATOM     11  C   UNL d   1      20.212 -19.475  -0.311  0.00  0.00     0.165 A 
ATOM     12  N   UNL d   1      21.584 -19.466  -0.145  0.00  0.00    -0.316 N 
ATOM     13  H   UNL d   1      22.102 -20.068   0.472  0.00  0.00     0.169 HD
BRANCH  11  14
ATOM     14  C   UNL d   1      19.270 -20.348   0.382  0.00  0.00     0.050 A 
ATOM     15  C   UNL d   1      18.189 -20.916  -0.310  0.00  0.00     0.018 A 
ATOM     16  C   UNL d   1      17.248 -21.711   0.358  0.00  0.00     0.001 A 
ATOM     17  C   UNL d   1      17.364 -21.930   1.730  0.00  0.00     0.003 A 
ATOM     18  C   UNL d   1      18.426 -21.362   2.431  0.00  0.00     0.043 A 
ATOM     19  C   UNL d   1      19.372 -20.588   1.755  0.00  0.00     0.130 A 
ATOM     20  F   UNL d   1      20.384 -20.055   2.457  0.00  0.00    -0.205 F 
ENDBRANCH  11  14
ENDBRANCH   7   8
ENDBRANCH   5   7
ENDBRANCH   1   5
BRANCH   3  21
ATOM     21  C   UNL d   1      27.715 -16.558   0.537  0.00  0.00     0.225 C 
BRANCH  21  22
ATOM     22  C   UNL d   1      28.040 -15.174   1.133  0.00  0.00     0.239 C 
ATOM     23  O   UNL d   1      28.183 -15.054   2.355  0.00  0.00    -0.271 OA
ATOM     24  N   UNL d   1      28.118 -14.104   0.240  0.00  0.00    -0.323 N 
ATOM     25  H   UNL d   1      27.693 -14.196  -0.679  0.00  0.00     0.169 HD
BRANCH  24  26
ATOM     26  C   UNL d   1      28.397 -12.776   0.688  0.00  0.00     0.077 A 
ATOM     27  C   UNL d   1      29.718 -12.316   0.755  0.00  0.00     0.036 A 
ATOM     28  C   UNL d   1      30.013 -11.032   1.222  0.00  0.00     0.048 A 
ATOM     29  C   UNL d   1      28.982 -10.197   1.634  0.00  0.00     0.158 A 
ATOM     30  F   UNL d   1      29.276  -8.975   2.101  0.00  0.00    -0.203 F 
ATOM     31  C   UNL d   1      27.662 -10.626   1.561  0.00  0.00     0.195 A 
ATOM     32  F   UNL d   1      26.679  -9.814   1.980  0.00  0.00    -0.199 F 
ATOM     33  C   UNL d   1      27.368 -11.901   1.069  0.00  0.00     0.184 A 
ATOM     34  F   UNL d   1      26.090 -12.311   1.033  0.00  0.00    -0.200 F 
ENDBRANCH  24  26
ENDBRANCH  21  22
ENDBRANCH   3  21
TORSDOF 7
ENDMDL
