MODEL 1
REMARK VINA RESULT:    -8.296      0.000      0.000
REMARK INTER + INTRA:         -10.637
REMARK INTER:                  -9.489
REMARK INTRA:                  -1.148
REMARK CONF_INDEPENDENT:        1.193
REMARK UNBOUND:                -1.148
REMARK  4 active torsions:
REMARK  status: ('A' for Active; 'I' for Inactive)
REMARK    1  A    between atoms: N_2  and  C_4 
REMARK    2  A    between atoms: C_8  and  C_9 
REMARK       I    between atoms: C_9  and  N_11 
REMARK    3  A    between atoms: N_11  and  N_12 
REMARK       I    between atoms: N_12  and  C_13 
REMARK    4  A    between atoms: C_13  and  C_15 
ROOT
ATOM      1  C   UNL d   1      24.203 -18.013  -0.121  0.00  0.00     0.270 C 
ATOM      2  O   UNL d   1      24.518 -18.576   0.927  0.00  0.00    -0.266 OA
ATOM      3  N   UNL d   1      22.957 -18.206  -0.712  0.00  0.00    -0.263 N 
ATOM      4  H   UNL d   1      22.656 -17.788  -1.588  0.00  0.00     0.190 HD
ENDROOT
BRANCH   3   5
ATOM      5  N   UNL d   1      21.985 -19.033  -0.090  0.00  0.00    -0.263 N 
ATOM      6  C   UNL d   1      20.650 -18.887  -0.445  0.00  0.00     0.271 C 
ATOM      7  O   UNL d   1      20.285 -18.042  -1.270  0.00  0.00    -0.266 OA
ATOM      8  H   UNL d   1      22.330 -19.799   0.485  0.00  0.00     0.190 HD
BRANCH   6   9
ATOM      9  C   UNL d   1      19.705 -19.802   0.204  0.00  0.00     0.050 A 
ATOM     10  C   UNL d   1      19.611 -20.176   1.580  0.00  0.00     0.035 A 
ATOM     11  C   UNL d   1      18.532 -21.023   1.728  0.00  0.00     0.088 A 
ATOM     12  N   UNL d   1      17.956 -21.187   0.497  0.00  0.00    -0.374 N 
ATOM     13  C   UNL d   1      18.646 -20.443  -0.426  0.00  0.00     0.104 A 
ATOM     14  H   UNL d   1      17.137 -21.754   0.304  0.00  0.00     0.164 HD
ENDBRANCH   6   9
ENDBRANCH   3   5
BRANCH   1  15
ATOM     15  C   UNL d   1      25.184 -17.100  -0.816  0.00  0.00     0.035 A 
ATOM     16  C   UNL d   1      26.513 -17.030  -0.369  0.00  0.00     0.017 A 
ATOM     17  C   UNL d   1      27.449 -16.244  -1.051  0.00  0.00     0.003 A 
ATOM     18  C   UNL d   1      27.060 -15.503  -2.170  0.00  0.00     0.029 A 
ATOM     19  C   UNL d   1      25.754 -15.574  -2.670  0.00  0.00     0.030 A 
ATOM     20  C   UNL d   1      24.829 -16.350  -1.948  0.00  0.00     0.046 A 
BRANCH  19  21
ATOM     21  N   UNL d   1      25.406 -14.935  -3.855  0.00  0.00    -0.390 N 
ATOM     22  C   UNL d   1      26.132 -15.199  -5.089  0.00  0.00     0.149 C 
ATOM     23  C   UNL d   1      24.607 -13.715  -3.765  0.00  0.00     0.149 C 
ENDBRANCH  19  21
ENDBRANCH   1  15
TORSDOF 4
ENDMDL
MODEL 2
REMARK VINA RESULT:    -7.710      1.274      2.293
REMARK INTER + INTRA:         -10.127
REMARK INTER:                  -8.903
REMARK INTRA:                  -1.224
REMARK CONF_INDEPENDENT:        1.193
REMARK UNBOUND:                -1.224
REMARK  4 active torsions:
REMARK  status: ('A' for Active; 'I' for Inactive)
REMARK    1  A    between atoms: N_2  and  C_4 
REMARK    2  A    between atoms: C_8  and  C_9 
REMARK       I    between atoms: C_9  and  N_11 
REMARK    3  A    between atoms: N_11  and  N_12 
REMARK       I    between atoms: N_12  and  C_13 
REMARK    4  A    between atoms: C_13  and  C_15 
ROOT
ATOM      1  C   UNL d   1      24.080 -17.950  -0.233  0.00  0.00     0.270 C 
ATOM      2  O   UNL d   1      24.473 -18.467   0.813  0.00  0.00    -0.266 OA
ATOM      3  N   UNL d   1      22.797 -18.173  -0.725  0.00  0.00    -0.263 N 
ATOM      4  H   UNL d   1      22.431 -17.793  -1.594  0.00  0.00     0.190 HD
ENDROOT
BRANCH   3   5
ATOM      5  N   UNL d   1      21.877 -18.977  -0.002  0.00  0.00    -0.263 N 
ATOM      6  C   UNL d   1      20.534 -18.950  -0.357  0.00  0.00     0.271 C 
ATOM      7  O   UNL d   1      20.118 -18.228  -1.270  0.00  0.00    -0.266 OA
ATOM      8  H   UNL d   1      22.268 -19.650   0.654  0.00  0.00     0.190 HD
BRANCH   6   9
ATOM      9  C   UNL d   1      19.647 -19.836   0.403  0.00  0.00     0.050 A 
ATOM     10  C   UNL d   1      19.536 -20.006   1.818  0.00  0.00     0.035 A 
ATOM     11  C   UNL d   1      18.527 -20.913   2.069  0.00  0.00     0.088 A 
ATOM     12  N   UNL d   1      18.009 -21.310   0.866  0.00  0.00    -0.374 N 
ATOM     13  C   UNL d   1      18.668 -20.655  -0.145  0.00  0.00     0.104 A 
ATOM     14  H   UNL d   1      17.248 -21.969   0.744  0.00  0.00     0.164 HD
ENDBRANCH   6   9
ENDBRANCH   3   5
BRANCH   1  15
ATOM     15  C   UNL d   1      25.003 -17.063  -1.033  0.00  0.00     0.035 A 
ATOM     16  C   UNL d   1      24.474 -16.021  -1.810  0.00  0.00     0.017 A 
ATOM     17  C   UNL d   1      25.323 -15.147  -2.496  0.00  0.00     0.003 A 
ATOM     18  C   UNL d   1      26.709 -15.322  -2.432  0.00  0.00     0.029 A 
ATOM     19  C   UNL d   1      27.278 -16.326  -1.640  0.00  0.00     0.030 A 
ATOM     20  C   UNL d   1      26.398 -17.206  -0.984  0.00  0.00     0.046 A 
BRANCH  19  21
ATOM     21  N   UNL d   1      28.657 -16.416  -1.480  0.00  0.00    -0.390 N 
ATOM     22  C   UNL d   1      29.530 -16.631  -2.625  0.00  0.00     0.149 C 
ATOM     23  C   UNL d   1      29.172 -16.712  -0.146  0.00  0.00     0.149 C 
ENDBRANCH  19  21
ENDBRANCH   1  15
TORSDOF 4
ENDMDL
MODEL 3
REMARK VINA RESULT:    -7.431      1.373      2.322
REMARK INTER + INTRA:          -9.870
REMARK INTER:                  -8.624
REMARK INTRA:                  -1.246
REMARK CONF_INDEPENDENT:        1.193
REMARK UNBOUND:                -1.246
REMARK  4 active torsions:
REMARK  status: ('A' for Active; 'I' for Inactive)
REMARK    1  A    between atoms: N_2  and  C_4 
REMARK    2  A    between atoms: C_8  and  C_9 
REMARK       I    between atoms: C_9  and  N_11 
REMARK    3  A    between atoms: N_11  and  N_12 
REMARK       I    between atoms: N_12  and  C_13 
REMARK    4  A    between atoms: C_13  and  C_15 
ROOT
ATOM      1  C   UNL d   1      24.053 -17.962  -0.055  0.00  0.00     0.270 C 
ATOM      2  O   UNL d   1      24.428 -18.520   0.976  0.00  0.00    -0.266 OA
ATOM      3  N   UNL d   1      22.772 -18.150  -0.567  0.00  0.00    -0.263 N 
ATOM      4  H   UNL d   1      22.421 -17.736  -1.427  0.00  0.00     0.190 HD
ENDROOT
BRANCH   3   5
ATOM      5  N   UNL d   1      21.834 -18.965   0.119  0.00  0.00    -0.263 N 
ATOM      6  C   UNL d   1      20.505 -18.950  -0.287  0.00  0.00     0.271 C 
ATOM      7  O   UNL d   1      20.116 -18.230  -1.213  0.00  0.00    -0.266 OA
ATOM      8  H   UNL d   1      22.207 -19.636   0.787  0.00  0.00     0.190 HD
BRANCH   6   9
ATOM      9  C   UNL d   1      19.599 -19.848   0.437  0.00  0.00     0.050 A 
ATOM     10  C   UNL d   1      19.472 -20.060   1.845  0.00  0.00     0.035 A 
ATOM     11  C   UNL d   1      18.449 -20.960   2.059  0.00  0.00     0.088 A 
ATOM     12  N   UNL d   1      17.938 -21.312   0.839  0.00  0.00    -0.374 N 
ATOM     13  C   UNL d   1      18.614 -20.636  -0.145  0.00  0.00     0.104 A 
ATOM     14  H   UNL d   1      17.169 -21.957   0.690  0.00  0.00     0.164 HD
ENDBRANCH   6   9
ENDBRANCH   3   5
BRANCH   1  15
ATOM     15  C   UNL d   1      24.997 -17.061  -0.816  0.00  0.00     0.035 A 
ATOM     16  C   UNL d   1      24.797 -16.836  -2.187  0.00  0.00     0.017 A 
ATOM     17  C   UNL d   1      25.620 -15.946  -2.886  0.00  0.00     0.003 A 
ATOM     18  C   UNL d   1      26.664 -15.292  -2.226  0.00  0.00     0.029 A 
ATOM     19  C   UNL d   1      26.873 -15.460  -0.852  0.00  0.00     0.030 A 
ATOM     20  C   UNL d   1      26.048 -16.382  -0.182  0.00  0.00     0.046 A 
BRANCH  19  21
ATOM     21  N   UNL d   1      27.832 -14.711  -0.177  0.00  0.00    -0.390 N 
ATOM     22  C   UNL d   1      28.432 -15.201   1.056  0.00  0.00     0.149 C 
ATOM     23  C   UNL d   1      27.918 -13.284  -0.474  0.00  0.00     0.149 C 
ENDBRANCH  19  21
ENDBRANCH   1  15
TORSDOF 4
ENDMDL
MODEL 4
REMARK VINA RESULT:    -6.929      1.575      1.802
REMARK INTER + INTRA:          -8.740
REMARK INTER:                  -8.123
REMARK INTRA:                  -0.617
REMARK CONF_INDEPENDENT:        1.193
REMARK UNBOUND:                -0.617
REMARK  4 active torsions:
REMARK  status: ('A' for Active; 'I' for Inactive)
REMARK    1  A    between atoms: N_2  and  C_4 
REMARK    2  A    between atoms: C_8  and  C_9 
REMARK       I    between atoms: C_9  and  N_11 
REMARK    3  A    between atoms: N_11  and  N_12 
REMARK       I    between atoms: N_12  and  C_13 
REMARK    4  A    between atoms: C_13  and  C_15 
ROOT
ATOM      1  C   UNL d   1      24.120 -16.676  -0.962  0.00  0.00     0.270 C 
ATOM      2  O   UNL d   1      23.172 -16.092  -1.487  0.00  0.00    -0.266 OA
ATOM      3  N   UNL d   1      23.932 -17.725  -0.068  0.00  0.00    -0.263 N 
ATOM      4  H   UNL d   1      24.677 -18.222   0.414  0.00  0.00     0.190 HD
ENDROOT
BRANCH   3   5
ATOM      5  N   UNL d   1      22.625 -18.189   0.234  0.00  0.00    -0.263 N 
ATOM      6  C   UNL d   1      21.973 -19.008  -0.679  0.00  0.00     0.271 C 
ATOM      7  O   UNL d   1      22.492 -19.324  -1.756  0.00  0.00    -0.266 OA
ATOM      8  H   UNL d   1      22.279 -18.018   1.176  0.00  0.00     0.190 HD
BRANCH   6   9
ATOM      9  C   UNL d   1      20.643 -19.486  -0.285  0.00  0.00     0.050 A 
ATOM     10  C   UNL d   1      20.199 -19.977   0.981  0.00  0.00     0.035 A 
ATOM     11  C   UNL d   1      18.852 -20.260   0.890  0.00  0.00     0.088 A 
ATOM     12  N   UNL d   1      18.446 -19.963  -0.383  0.00  0.00    -0.374 N 
ATOM     13  C   UNL d   1      19.515 -19.482  -1.096  0.00  0.00     0.104 A 
ATOM     14  H   UNL d   1      17.500 -20.066  -0.736  0.00  0.00     0.164 HD
ENDBRANCH   6   9
ENDBRANCH   3   5
BRANCH   1  15
ATOM     15  C   UNL d   1      25.536 -16.245  -1.264  0.00  0.00     0.035 A 
ATOM     16  C   UNL d   1      26.514 -16.301  -0.260  0.00  0.00     0.017 A 
ATOM     17  C   UNL d   1      27.844 -15.976  -0.546  0.00  0.00     0.003 A 
ATOM     18  C   UNL d   1      28.203 -15.568  -1.834  0.00  0.00     0.029 A 
ATOM     19  C   UNL d   1      27.266 -15.534  -2.873  0.00  0.00     0.030 A 
ATOM     20  C   UNL d   1      25.931 -15.840  -2.548  0.00  0.00     0.046 A 
BRANCH  19  21
ATOM     21  N   UNL d   1      27.654 -15.250  -4.179  0.00  0.00    -0.390 N 
ATOM     22  C   UNL d   1      29.013 -14.823  -4.479  0.00  0.00     0.149 C 
ATOM     23  C   UNL d   1      26.605 -14.979  -5.159  0.00  0.00     0.149 C 
ENDBRANCH  19  21
ENDBRANCH   1  15
TORSDOF 4
ENDMDL
MODEL 5
REMARK VINA RESULT:    -6.012      4.084      9.051
REMARK INTER + INTRA:          -8.491
REMARK INTER:                  -7.206
REMARK INTRA:                  -1.286
REMARK CONF_INDEPENDENT:        1.193
REMARK UNBOUND:                -1.286
REMARK  4 active torsions:
REMARK  status: ('A' for Active; 'I' for Inactive)
REMARK    1  A    between atoms: N_2  and  C_4 
REMARK    2  A    between atoms: C_8  and  C_9 
REMARK       I    between atoms: C_9  and  N_11 
REMARK    3  A    between atoms: N_11  and  N_12 
REMARK       I    between atoms: N_12  and  C_13 
REMARK    4  A    between atoms: C_13  and  C_15 
ROOT
ATOM      1  C   UNL d   1      25.189 -14.143  -3.413  0.00  0.00     0.270 C 
ATOM      2  O   UNL d   1      24.784 -14.402  -4.546  0.00  0.00    -0.266 OA
ATOM      3  N   UNL d   1      25.461 -12.838  -3.011  0.00  0.00    -0.263 N 
ATOM      4  H   UNL d   1      25.822 -12.572  -2.099  0.00  0.00     0.190 HD
ENDROOT
BRANCH   3   5
ATOM      5  N   UNL d   1      25.231 -11.750  -3.893  0.00  0.00    -0.263 N 
ATOM      6  C   UNL d   1      25.707 -10.491  -3.547  0.00  0.00     0.271 C 
ATOM      7  O   UNL d   1      26.305 -10.291  -2.484  0.00  0.00    -0.266 OA
ATOM      8  H   UNL d   1      24.852 -11.971  -4.811  0.00  0.00     0.190 HD
BRANCH   6   9
ATOM      9  C   UNL d   1      25.472  -9.422  -4.523  0.00  0.00     0.050 A 
ATOM     10  C   UNL d   1      25.251  -8.028  -4.299  0.00  0.00     0.035 A 
ATOM     11  C   UNL d   1      25.131  -7.404  -5.524  0.00  0.00     0.088 A 
ATOM     12  N   UNL d   1      25.271  -8.357  -6.496  0.00  0.00    -0.374 N 
ATOM     13  C   UNL d   1      25.491  -9.575  -5.904  0.00  0.00     0.104 A 
ATOM     14  H   UNL d   1      25.235  -8.185  -7.495  0.00  0.00     0.164 HD
ENDBRANCH   6   9
ENDBRANCH   3   5
BRANCH   1  15
ATOM     15  C   UNL d   1      25.428 -15.256  -2.420  0.00  0.00     0.035 A 
ATOM     16  C   UNL d   1      26.689 -15.404  -1.824  0.00  0.00     0.017 A 
ATOM     17  C   UNL d   1      26.902 -16.384  -0.849  0.00  0.00     0.003 A 
ATOM     18  C   UNL d   1      25.861 -17.241  -0.478  0.00  0.00     0.029 A 
ATOM     19  C   UNL d   1      24.578 -17.102  -1.022  0.00  0.00     0.030 A 
ATOM     20  C   UNL d   1      24.403 -16.126  -2.020  0.00  0.00     0.046 A 
BRANCH  19  21
ATOM     21  N   UNL d   1      23.517 -17.873  -0.558  0.00  0.00    -0.390 N 
ATOM     22  C   UNL d   1      23.611 -19.325  -0.513  0.00  0.00     0.149 C 
ATOM     23  C   UNL d   1      22.192 -17.260  -0.520  0.00  0.00     0.149 C 
ENDBRANCH  19  21
ENDBRANCH   1  15
TORSDOF 4
ENDMDL
MODEL 6
REMARK VINA RESULT:    -5.523      3.269      5.560
REMARK INTER + INTRA:          -8.000
REMARK INTER:                  -6.716
REMARK INTRA:                  -1.284
REMARK CONF_INDEPENDENT:        1.193
REMARK UNBOUND:                -1.284
REMARK  4 active torsions:
REMARK  status: ('A' for Active; 'I' for Inactive)
REMARK    1  A    between atoms: N_2  and  C_4 
REMARK    2  A    between atoms: C_8  and  C_9 
REMARK       I    between atoms: C_9  and  N_11 
REMARK    3  A    between atoms: N_11  and  N_12 
REMARK       I    between atoms: N_12  and  C_13 
REMARK    4  A    between atoms: C_13  and  C_15 
ROOT
ATOM      1  C   UNL d   1      26.124 -15.200  -4.756  0.00  0.00     0.270 C 
ATOM      2  O   UNL d   1      25.559 -15.973  -5.530  0.00  0.00    -0.266 OA
ATOM      3  N   UNL d   1      25.956 -15.290  -3.377  0.00  0.00    -0.263 N 
ATOM      4  H   UNL d   1      26.376 -14.663  -2.696  0.00  0.00     0.190 HD
ENDROOT
BRANCH   3   5
ATOM      5  N   UNL d   1      25.155 -16.317  -2.813  0.00  0.00    -0.263 N 
ATOM      6  C   UNL d   1      24.841 -16.262  -1.462  0.00  0.00     0.271 C 
ATOM      7  O   UNL d   1      25.258 -15.354  -0.734  0.00  0.00    -0.266 OA
ATOM      8  H   UNL d   1      24.725 -16.975  -3.460  0.00  0.00     0.190 HD
BRANCH   6   9
ATOM      9  C   UNL d   1      23.975 -17.331  -0.955  0.00  0.00     0.050 A 
ATOM     10  C   UNL d   1      22.548 -17.381  -0.884  0.00  0.00     0.035 A 
ATOM     11  C   UNL d   1      22.180 -18.611  -0.381  0.00  0.00     0.088 A 
ATOM     12  N   UNL d   1      23.323 -19.325  -0.138  0.00  0.00    -0.374 N 
ATOM     13  C   UNL d   1      24.410 -18.568  -0.494  0.00  0.00     0.104 A 
ATOM     14  H   UNL d   1      23.357 -20.270   0.230  0.00  0.00     0.164 HD
ENDBRANCH   6   9
ENDBRANCH   3   5
BRANCH   1  15
ATOM     15  C   UNL d   1      27.010 -14.102  -5.294  0.00  0.00     0.035 A 
ATOM     16  C   UNL d   1      28.230 -14.425  -5.907  0.00  0.00     0.017 A 
ATOM     17  C   UNL d   1      29.025 -13.423  -6.475  0.00  0.00     0.003 A 
ATOM     18  C   UNL d   1      28.618 -12.087  -6.414  0.00  0.00     0.029 A 
ATOM     19  C   UNL d   1      27.391 -11.728  -5.843  0.00  0.00     0.030 A 
ATOM     20  C   UNL d   1      26.627 -12.753  -5.256  0.00  0.00     0.046 A 
BRANCH  19  21
ATOM     21  N   UNL d   1      26.934 -10.415  -5.898  0.00  0.00    -0.390 N 
ATOM     22  C   UNL d   1      26.269  -9.806  -4.755  0.00  0.00     0.149 C 
ATOM     23  C   UNL d   1      26.750  -9.809  -7.214  0.00  0.00     0.149 C 
ENDBRANCH  19  21
ENDBRANCH   1  15
TORSDOF 4
ENDMDL
MODEL 7
REMARK VINA RESULT:    -5.493      3.064      5.378
REMARK INTER + INTRA:          -7.969
REMARK INTER:                  -6.686
REMARK INTRA:                  -1.283
REMARK CONF_INDEPENDENT:        1.193
REMARK UNBOUND:                -1.283
REMARK  4 active torsions:
REMARK  status: ('A' for Active; 'I' for Inactive)
REMARK    1  A    between atoms: N_2  and  C_4 
REMARK    2  A    between atoms: C_8  and  C_9 
REMARK       I    between atoms: C_9  and  N_11 
REMARK    3  A    between atoms: N_11  and  N_12 
REMARK       I    between atoms: N_12  and  C_13 
REMARK    4  A    between atoms: C_13  and  C_15 
ROOT
ATOM      1  C   UNL d   1      25.235 -14.136  -3.976  0.00  0.00     0.270 C 
ATOM      2  O   UNL d   1      24.063 -13.903  -4.269  0.00  0.00    -0.266 OA
ATOM      3  N   UNL d   1      25.577 -15.099  -3.030  0.00  0.00    -0.263 N 
ATOM      4  H   UNL d   1      26.524 -15.312  -2.731  0.00  0.00     0.190 HD
ENDROOT
BRANCH   3   5
ATOM      5  N   UNL d   1      24.572 -15.880  -2.401  0.00  0.00    -0.263 N 
ATOM      6  C   UNL d   1      24.952 -16.875  -1.510  0.00  0.00     0.271 C 
ATOM      7  O   UNL d   1      26.141 -17.111  -1.267  0.00  0.00    -0.266 OA
ATOM      8  H   UNL d   1      23.608 -15.578  -2.523  0.00  0.00     0.190 HD
BRANCH   6   9
ATOM      9  C   UNL d   1      23.862 -17.616  -0.865  0.00  0.00     0.050 A 
ATOM     10  C   UNL d   1      22.549 -17.171  -0.520  0.00  0.00     0.035 A 
ATOM     11  C   UNL d   1      21.857 -18.234   0.022  0.00  0.00     0.088 A 
ATOM     12  N   UNL d   1      22.692 -19.319   0.026  0.00  0.00    -0.374 N 
ATOM     13  C   UNL d   1      23.899 -18.961  -0.520  0.00  0.00     0.104 A 
ATOM     14  H   UNL d   1      22.449 -20.245   0.363  0.00  0.00     0.164 HD
ENDBRANCH   6   9
ENDBRANCH   3   5
BRANCH   1  15
ATOM     15  C   UNL d   1      26.350 -13.356  -4.630  0.00  0.00     0.035 A 
ATOM     16  C   UNL d   1      26.516 -11.994  -4.337  0.00  0.00     0.017 A 
ATOM     17  C   UNL d   1      27.590 -11.278  -4.879  0.00  0.00     0.003 A 
ATOM     18  C   UNL d   1      28.493 -11.913  -5.737  0.00  0.00     0.029 A 
ATOM     19  C   UNL d   1      28.384 -13.279  -6.024  0.00  0.00     0.030 A 
ATOM     20  C   UNL d   1      27.279 -13.965  -5.487  0.00  0.00     0.046 A 
BRANCH  19  21
ATOM     21  N   UNL d   1      29.356 -13.932  -6.775  0.00  0.00    -0.390 N 
ATOM     22  C   UNL d   1      29.801 -15.271  -6.420  0.00  0.00     0.149 C 
ATOM     23  C   UNL d   1      30.209 -13.121  -7.641  0.00  0.00     0.149 C 
ENDBRANCH  19  21
ENDBRANCH   1  15
TORSDOF 4
ENDMDL
MODEL 8
REMARK VINA RESULT:    -5.467      3.483      8.766
REMARK INTER + INTRA:          -7.956
REMARK INTER:                  -6.660
REMARK INTRA:                  -1.296
REMARK CONF_INDEPENDENT:        1.193
REMARK UNBOUND:                -1.296
REMARK  4 active torsions:
REMARK  status: ('A' for Active; 'I' for Inactive)
REMARK    1  A    between atoms: N_2  and  C_4 
REMARK    2  A    between atoms: C_8  and  C_9 
REMARK       I    between atoms: C_9  and  N_11 
REMARK    3  A    between atoms: N_11  and  N_12 
REMARK       I    between atoms: N_12  and  C_13 
REMARK    4  A    between atoms: C_13  and  C_15 
ROOT
ATOM      1  C   UNL d   1      27.531 -15.728  -1.902  0.00  0.00     0.270 C 
ATOM      2  O   UNL d   1      28.446 -15.037  -1.457  0.00  0.00    -0.266 OA
ATOM      3  N   UNL d   1      27.176 -15.697  -3.248  0.00  0.00    -0.263 N 
ATOM      4  H   UNL d   1      26.413 -16.226  -3.662  0.00  0.00     0.190 HD
ENDROOT
BRANCH   3   5
ATOM      5  N   UNL d   1      27.899 -14.891  -4.166  0.00  0.00    -0.263 N 
ATOM      6  C   UNL d   1      27.511 -14.876  -5.500  0.00  0.00     0.271 C 
ATOM      7  O   UNL d   1      26.569 -15.562  -5.911  0.00  0.00    -0.266 OA
ATOM      8  H   UNL d   1      28.582 -14.245  -3.776  0.00  0.00     0.190 HD
BRANCH   6   9
ATOM      9  C   UNL d   1      28.274 -13.989  -6.385  0.00  0.00     0.050 A 
ATOM     10  C   UNL d   1      28.358 -12.563  -6.378  0.00  0.00     0.035 A 
ATOM     11  C   UNL d   1      29.240 -12.174  -7.366  0.00  0.00     0.088 A 
ATOM     12  N   UNL d   1      29.705 -13.305  -7.982  0.00  0.00    -0.374 N 
ATOM     13  C   UNL d   1      29.139 -14.406  -7.388  0.00  0.00     0.104 A 
ATOM     14  H   UNL d   1      30.374 -13.325  -8.744  0.00  0.00     0.164 HD
ENDBRANCH   6   9
ENDBRANCH   3   5
BRANCH   1  15
ATOM     15  C   UNL d   1      26.741 -16.626  -0.980  0.00  0.00     0.035 A 
ATOM     16  C   UNL d   1      27.387 -17.286   0.077  0.00  0.00     0.017 A 
ATOM     17  C   UNL d   1      26.655 -18.061   0.982  0.00  0.00     0.003 A 
ATOM     18  C   UNL d   1      25.273 -18.204   0.824  0.00  0.00     0.029 A 
ATOM     19  C   UNL d   1      24.586 -17.533  -0.195  0.00  0.00     0.030 A 
ATOM     20  C   UNL d   1      25.353 -16.784  -1.105  0.00  0.00     0.046 A 
BRANCH  19  21
ATOM     21  N   UNL d   1      23.197 -17.578  -0.271  0.00  0.00    -0.390 N 
ATOM     22  C   UNL d   1      22.501 -18.832  -0.516  0.00  0.00     0.149 C 
ATOM     23  C   UNL d   1      22.487 -16.326  -0.521  0.00  0.00     0.149 C 
ENDBRANCH  19  21
ENDBRANCH   1  15
TORSDOF 4
ENDMDL
