MODEL 1
REMARK VINA RESULT:   -32.213      0.000      0.000
REMARK INTER + INTRA:         -34.000
REMARK INTER:                 -34.600
REMARK INTRA:                   0.600
REMARK CONF_INDEPENDENT:        2.386
REMARK UNBOUND:                 0.600
REMARK  8 active torsions:
REMARK  status: ('A' for Active; 'I' for Inactive)
REMARK    1  A    between atoms: C_2  and  C_3 
REMARK       I    between atoms: C_2  and  N_14 
REMARK    2  A    between atoms: C_3  and  C_4 
REMARK    3  A    between atoms: C_4  and  C_5 
REMARK    4  A    between atoms: N_14  and  N_15 
REMARK    5  A    between atoms: C_25  and  S_26 
REMARK    6  A    between atoms: S_26  and  C_27 
REMARK    7  A    between atoms: C_27  and  C_28 
REMARK    8  A    between atoms: C_28  and  C_30 
ROOT
ATOM      1  N   UNL d   1      26.101 -16.012  -0.566  0.00  0.00    -0.114 NA
ATOM      2  C   UNL d   1      26.591 -16.754  -1.684  0.00  0.00     0.253 C 
ATOM      3  O   UNL d   1      25.946 -16.821  -2.731  0.00  0.00    -0.272 OA
ATOM      4  C   UNL d   1      28.108 -17.066  -1.645  0.00  0.00     0.051 C 
ATOM      5  C   UNL d   1      28.844 -17.493  -0.528  0.00  0.00     0.015 C 
ATOM      6  C   UNL d   1      30.232 -17.169  -0.354  0.00  0.00     0.001 C 
ATOM      7  C   UNL d   1      30.963 -16.553  -1.366  0.00  0.00    -0.001 C 
ATOM      8  C   UNL d   1      30.236 -16.045  -2.422  0.00  0.00     0.023 C 
ATOM      9  C   UNL d   1      28.803 -16.065  -2.305  0.00  0.00     0.253 C 
ATOM     10  N   UNL d   1      28.138 -14.684  -1.694  0.00  0.00     0.135 N 
ATOM     11  C   UNL d   1      27.079 -14.955  -0.286  0.00  0.00     0.386 C 
ATOM     12  H   UNL d   1      27.568 -14.626  -2.578  0.00  0.00     0.321 HD
ENDROOT
BRANCH   1  13
ATOM     13  N   UNL d   1      24.664 -15.563  -0.656  0.00  0.00    -0.279 N 
ATOM     14  C   UNL d   1      23.536 -16.328  -0.910  0.00  0.00     0.232 C 
ATOM     15  O   UNL d   1      22.458 -15.848  -1.257  0.00  0.00    -0.272 OA
ATOM     16  H   UNL d   1      24.536 -14.611  -0.992  0.00  0.00     0.184 HD
BRANCH  14  17
ATOM     17  C   UNL d   1      23.610 -17.775  -0.673  0.00  0.00     0.108 C 
BRANCH  17  18
ATOM     18  C   UNL d   1      22.968 -18.224   0.608  0.00  0.00     0.045 C 
BRANCH  18  19
ATOM     19  C   UNL d   1      21.620 -18.710   0.325  0.00  0.00    -0.054 C 
ATOM     20  C   UNL d   1      20.744 -19.556   1.052  0.00  0.00    -0.011 C 
ATOM     21  C   UNL d   1      20.410 -19.926   2.542  0.00  0.00     0.013 C 
ATOM     22  C   UNL d   1      19.641 -19.892   0.025  0.00  0.00     0.019 C 
ATOM     23  C   UNL d   1      19.233 -20.450   3.035  0.00  0.00     0.001 C 
ATOM     24  C   UNL d   1      18.032 -20.621   2.300  0.00  0.00     0.002 C 
ATOM     25  C   UNL d   1      18.128 -20.282   1.022  0.00  0.00     0.024 C 
ATOM     26  N   UNL d   1      19.902 -19.323  -1.269  0.00  0.00    -0.288 NA
ATOM     27  C   UNL d   1      21.128 -18.117  -1.250  0.00  0.00     0.127 C 
ATOM     28  H   UNL d   1      19.197 -18.818  -1.916  0.00  0.00     0.128 HD
ENDBRANCH  18  19
ENDBRANCH  17  18
ENDBRANCH  14  17
ENDBRANCH   1  13
BRANCH  11  29
ATOM     29  S   UNL d   1      27.468 -14.733   1.731  0.00  0.00    -0.109 SA
BRANCH  29  30
ATOM     30  C   UNL d   1      27.552 -14.048   3.484  0.00  0.00     0.161 C 
BRANCH  30  31
ATOM     31  C   UNL d   1      27.900 -13.984   4.974  0.00  0.00     0.168 C 
ATOM     32  O   UNL d   1      27.803 -15.066   5.484  0.00  0.00    -0.292 OA
BRANCH  31  33
ATOM     33  C   UNL d   1      28.507 -13.306   6.359  0.00  0.00     0.011 C 
ATOM     34  C   UNL d   1      29.250 -14.277   6.795  0.00  0.00     0.017 C 
ATOM     35  C   UNL d   1      29.232 -14.158   8.156  0.00  0.00     0.025 C 
ATOM     36  C   UNL d   1      28.819 -13.006   9.037  0.00  0.00     0.034 C 
ATOM     37 CL   UNL d   1      28.468 -13.347  10.670  0.00  0.00    -0.084 Cl
ATOM     38  C   UNL d   1      28.473 -11.757   8.627  0.00  0.00     0.025 C 
ATOM     39  C   UNL d   1      28.400 -11.857   7.282  0.00  0.00     0.017 C 
ENDBRANCH  31  33
ENDBRANCH  30  31
ENDBRANCH  29  30
ENDBRANCH  11  29
TORSDOF 8
ENDMDL
MODEL 2
REMARK VINA RESULT:   -31.447      5.850      8.909
REMARK INTER + INTRA:         -34.243
REMARK INTER:                 -33.834
REMARK INTRA:                  -0.410
REMARK CONF_INDEPENDENT:        2.386
REMARK UNBOUND:                -0.410
REMARK  8 active torsions:
REMARK  status: ('A' for Active; 'I' for Inactive)
REMARK    1  A    between atoms: C_2  and  C_3 
REMARK       I    between atoms: C_2  and  N_14 
REMARK    2  A    between atoms: C_3  and  C_4 
REMARK    3  A    between atoms: C_4  and  C_5 
REMARK    4  A    between atoms: N_14  and  N_15 
REMARK    5  A    between atoms: C_25  and  S_26 
REMARK    6  A    between atoms: S_26  and  C_27 
REMARK    7  A    between atoms: C_27  and  C_28 
REMARK    8  A    between atoms: C_28  and  C_30 
ROOT
ATOM      1  N   UNL d   1      26.248 -16.873  -1.524  0.00  0.00    -0.114 NA
ATOM      2  C   UNL d   1      25.100 -16.047  -1.716  0.00  0.00     0.253 C 
ATOM      3  O   UNL d   1      24.296 -15.857  -0.801  0.00  0.00    -0.272 OA
ATOM      4  C   UNL d   1      25.176 -15.096  -2.937  0.00  0.00     0.051 C 
ATOM      5  C   UNL d   1      25.655 -15.420  -4.217  0.00  0.00     0.015 C 
ATOM      6  C   UNL d   1      26.281 -14.448  -5.070  0.00  0.00     0.001 C 
ATOM      7  C   UNL d   1      26.298 -13.097  -4.736  0.00  0.00    -0.001 C 
ATOM      8  C   UNL d   1      25.922 -12.781  -3.448  0.00  0.00     0.023 C 
ATOM      9  C   UNL d   1      25.696 -13.875  -2.541  0.00  0.00     0.253 C 
ATOM     10  N   UNL d   1      27.006 -14.304  -1.633  0.00  0.00     0.135 N 
ATOM     11  C   UNL d   1      27.429 -16.032  -1.750  0.00  0.00     0.386 C 
ATOM     12  H   UNL d   1      26.412 -14.127  -0.782  0.00  0.00     0.321 HD
ENDROOT
BRANCH   1  13
ATOM     13  N   UNL d   1      26.265 -17.692  -0.258  0.00  0.00    -0.279 N 
ATOM     14  C   UNL d   1      25.187 -18.181   0.466  0.00  0.00     0.232 C 
ATOM     15  O   UNL d   1      25.277 -18.575   1.628  0.00  0.00    -0.272 OA
ATOM     16  H   UNL d   1      27.058 -17.513   0.355  0.00  0.00     0.184 HD
BRANCH  14  17
ATOM     17  C   UNL d   1      23.893 -18.311  -0.216  0.00  0.00     0.108 C 
BRANCH  17  18
ATOM     18  C   UNL d   1      22.761 -17.604   0.471  0.00  0.00     0.045 C 
BRANCH  18  19
ATOM     19  C   UNL d   1      21.524 -18.348   0.248  0.00  0.00    -0.054 C 
ATOM     20  C   UNL d   1      20.854 -19.330   1.021  0.00  0.00    -0.011 C 
ATOM     21  C   UNL d   1      20.648 -19.722   2.529  0.00  0.00     0.013 C 
ATOM     22  C   UNL d   1      19.803 -19.897   0.043  0.00  0.00     0.019 C 
ATOM     23  C   UNL d   1      19.613 -20.451   3.075  0.00  0.00     0.001 C 
ATOM     24  C   UNL d   1      18.444 -20.868   2.389  0.00  0.00     0.002 C 
ATOM     25  C   UNL d   1      18.429 -20.548   1.103  0.00  0.00     0.024 C 
ATOM     26  N   UNL d   1      19.905 -19.319  -1.270  0.00  0.00    -0.288 NA
ATOM     27  C   UNL d   1      20.873 -17.899  -1.318  0.00  0.00     0.127 C 
ATOM     28  H   UNL d   1      19.094 -18.976  -1.898  0.00  0.00     0.128 HD
ENDBRANCH  18  19
ENDBRANCH  17  18
ENDBRANCH  14  17
ENDBRANCH   1  13
BRANCH  11  29
ATOM     29  S   UNL d   1      28.882 -16.970  -2.880  0.00  0.00    -0.109 SA
BRANCH  29  30
ATOM     30  C   UNL d   1      30.121 -17.381  -4.238  0.00  0.00     0.161 C 
BRANCH  30  31
ATOM     31  C   UNL d   1      30.651 -17.938  -5.562  0.00  0.00     0.168 C 
ATOM     32  O   UNL d   1      31.584 -17.294  -5.956  0.00  0.00    -0.292 OA
BRANCH  31  33
ATOM     33  C   UNL d   1      30.812 -19.048  -6.782  0.00  0.00     0.011 C 
ATOM     34  C   UNL d   1      30.638 -20.153  -6.124  0.00  0.00     0.017 C 
ATOM     35  C   UNL d   1      31.394 -21.084  -6.780  0.00  0.00     0.025 C 
ATOM     36  C   UNL d   1      32.006 -21.058  -8.158  0.00  0.00     0.034 C 
ATOM     37 CL   UNL d   1      33.269 -22.157  -8.482  0.00  0.00    -0.084 Cl
ATOM     38  C   UNL d   1      31.822 -20.103  -9.108  0.00  0.00     0.025 C 
ATOM     39  C   UNL d   1      31.145 -19.125  -8.469  0.00  0.00     0.017 C 
ENDBRANCH  31  33
ENDBRANCH  30  31
ENDBRANCH  29  30
ENDBRANCH  11  29
TORSDOF 8
ENDMDL
MODEL 3
REMARK VINA RESULT:   -29.435      5.569      7.887
REMARK INTER + INTRA:         -31.928
REMARK INTER:                 -31.821
REMARK INTRA:                  -0.107
REMARK CONF_INDEPENDENT:        2.386
REMARK UNBOUND:                -0.107
REMARK  8 active torsions:
REMARK  status: ('A' for Active; 'I' for Inactive)
REMARK    1  A    between atoms: C_2  and  C_3 
REMARK       I    between atoms: C_2  and  N_14 
REMARK    2  A    between atoms: C_3  and  C_4 
REMARK    3  A    between atoms: C_4  and  C_5 
REMARK    4  A    between atoms: N_14  and  N_15 
REMARK    5  A    between atoms: C_25  and  S_26 
REMARK    6  A    between atoms: S_26  and  C_27 
REMARK    7  A    between atoms: C_27  and  C_28 
REMARK    8  A    between atoms: C_28  and  C_30 
ROOT
ATOM      1  N   UNL d   1      26.100 -16.634  -1.880  0.00  0.00    -0.114 NA
ATOM      2  C   UNL d   1      24.954 -15.783  -1.841  0.00  0.00     0.253 C 
ATOM      3  O   UNL d   1      24.237 -15.731  -0.840  0.00  0.00    -0.272 OA
ATOM      4  C   UNL d   1      24.939 -14.657  -2.906  0.00  0.00     0.051 C 
ATOM      5  C   UNL d   1      25.298 -14.783  -4.257  0.00  0.00     0.015 C 
ATOM      6  C   UNL d   1      25.864 -13.695  -5.006  0.00  0.00     0.001 C 
ATOM      7  C   UNL d   1      25.935 -12.412  -4.474  0.00  0.00    -0.001 C 
ATOM      8  C   UNL d   1      25.679 -12.295  -3.124  0.00  0.00     0.023 C 
ATOM      9  C   UNL d   1      25.514 -13.513  -2.377  0.00  0.00     0.253 C 
ATOM     10  N   UNL d   1      26.891 -14.081  -1.666  0.00  0.00     0.135 N 
ATOM     11  C   UNL d   1      27.271 -15.773  -2.081  0.00  0.00     0.386 C 
ATOM     12  H   UNL d   1      26.377 -14.034  -0.748  0.00  0.00     0.321 HD
ENDROOT
BRANCH   1  13
ATOM     13  N   UNL d   1      26.212 -17.636  -0.760  0.00  0.00    -0.279 N 
ATOM     14  C   UNL d   1      25.198 -18.184   0.012  0.00  0.00     0.232 C 
ATOM     15  O   UNL d   1      25.397 -18.755   1.083  0.00  0.00    -0.272 OA
ATOM     16  H   UNL d   1      27.080 -17.587  -0.230  0.00  0.00     0.184 HD
BRANCH  14  17
ATOM     17  C   UNL d   1      23.828 -18.153  -0.517  0.00  0.00     0.108 C 
BRANCH  17  18
ATOM     18  C   UNL d   1      22.800 -17.665   0.461  0.00  0.00     0.045 C 
BRANCH  18  19
ATOM     19  C   UNL d   1      21.549 -18.384   0.243  0.00  0.00    -0.054 C 
ATOM     20  C   UNL d   1      20.863 -19.353   1.018  0.00  0.00    -0.011 C 
ATOM     21  C   UNL d   1      20.655 -19.742   2.527  0.00  0.00     0.013 C 
ATOM     22  C   UNL d   1      19.797 -19.899   0.044  0.00  0.00     0.019 C 
ATOM     23  C   UNL d   1      19.608 -20.451   3.076  0.00  0.00     0.001 C 
ATOM     24  C   UNL d   1      18.428 -20.845   2.395  0.00  0.00     0.002 C 
ATOM     25  C   UNL d   1      18.414 -20.523   1.109  0.00  0.00     0.024 C 
ATOM     26  N   UNL d   1      19.905 -19.323  -1.269  0.00  0.00    -0.288 NA
ATOM     27  C   UNL d   1      20.901 -17.922  -1.320  0.00  0.00     0.127 C 
ATOM     28  H   UNL d   1      19.098 -18.964  -1.894  0.00  0.00     0.128 HD
ENDBRANCH  18  19
ENDBRANCH  17  18
ENDBRANCH  14  17
ENDBRANCH   1  13
BRANCH  11  29
ATOM     29  S   UNL d   1      28.602 -16.534  -3.466  0.00  0.00    -0.109 SA
BRANCH  29  30
ATOM     30  C   UNL d   1      29.952 -17.553  -4.294  0.00  0.00     0.161 C 
BRANCH  30  31
ATOM     31  C   UNL d   1      31.121 -18.535  -4.422  0.00  0.00     0.168 C 
ATOM     32  O   UNL d   1      32.172 -17.958  -4.379  0.00  0.00    -0.292 OA
BRANCH  31  33
ATOM     33  C   UNL d   1      31.856 -20.020  -4.442  0.00  0.00     0.011 C 
ATOM     34  C   UNL d   1      31.011 -20.714  -3.743  0.00  0.00     0.017 C 
ATOM     35  C   UNL d   1      31.763 -21.667  -3.115  0.00  0.00     0.025 C 
ATOM     36  C   UNL d   1      33.166 -22.148  -3.387  0.00  0.00     0.034 C 
ATOM     37 CL   UNL d   1      33.967 -22.993  -2.142  0.00  0.00    -0.084 Cl
ATOM     38  C   UNL d   1      33.956 -21.789  -4.434  0.00  0.00     0.025 C 
ATOM     39  C   UNL d   1      33.278 -20.787  -5.033  0.00  0.00     0.017 C 
ENDBRANCH  31  33
ENDBRANCH  30  31
ENDBRANCH  29  30
ENDBRANCH  11  29
TORSDOF 8
ENDMDL
