MODEL 1
REMARK VINA RESULT:    -9.599      0.000      0.000
REMARK INTER + INTRA:         -14.007
REMARK INTER:                 -11.687
REMARK INTRA:                  -2.321
REMARK CONF_INDEPENDENT:        2.088
REMARK UNBOUND:                -2.321
REMARK  7 active torsions:
REMARK  status: ('A' for Active; 'I' for Inactive)
REMARK    1  A    between atoms: N_1  and  C_2 
REMARK    2  A    between atoms: C_6  and  N_7 
REMARK    3  A    between atoms: C_10  and  C_11 
REMARK    4  A    between atoms: C_11  and  N_12 
REMARK    5  A    between atoms: C_17  and  C_18 
REMARK       I    between atoms: C_18  and  N_20 
REMARK    6  A    between atoms: N_20  and  N_21 
REMARK    7  A    between atoms: C_22  and  C_23 
ROOT
ATOM      1  N   UNL d   1      24.870 -18.181  -0.206  0.00  0.00    -0.207 N 
ATOM      2  N   UNL d   1      25.399 -18.575   0.990  0.00  0.00     0.012 NA
ATOM      3  N   UNL d   1      26.727 -18.228   1.083  0.00  0.00    -0.160 NA
ATOM      4  C   UNL d   1      27.042 -17.452   0.013  0.00  0.00     0.112 C 
ATOM      5  C   UNL d   1      25.789 -17.403  -0.707  0.00  0.00     0.153 C 
ENDROOT
BRANCH   5   6
ATOM      6  C   UNL d   1      25.443 -16.487  -1.668  0.00  0.00     0.292 C 
ATOM      7  O   UNL d   1      25.281 -15.723  -0.738  0.00  0.00    -0.264 OA
ATOM      8  N   UNL d   1      25.213 -16.184  -3.120  0.00  0.00    -0.242 N 
ATOM      9  H   UNL d   1      25.511 -16.791  -3.856  0.00  0.00     0.192 HD
BRANCH   8  10
ATOM     10  N   UNL d   1      24.922 -14.828  -3.719  0.00  0.00    -0.188 NA
ATOM     11  C   UNL d   1      25.833 -13.952  -4.002  0.00  0.00     0.116 C 
BRANCH  11  12
ATOM     12  C   UNL d   1      25.532 -12.508  -4.504  0.00  0.00     0.028 C 
ATOM     13  C   UNL d   1      25.701 -11.622  -3.264  0.00  0.00     0.010 C 
ATOM     14  C   UNL d   1      25.712 -10.130  -3.553  0.00  0.00     0.001 C 
ATOM     15  C   UNL d   1      26.739  -9.781  -4.619  0.00  0.00     0.000 C 
ATOM     16  C   UNL d   1      26.476 -10.572  -5.893  0.00  0.00     0.001 C 
ATOM     17  C   UNL d   1      26.485 -12.079  -5.626  0.00  0.00     0.010 C 
ENDBRANCH  11  12
ENDBRANCH   8  10
ENDBRANCH   5   6
BRANCH   4  18
ATOM     18  C   UNL d   1      28.482 -16.586  -0.262  0.00  0.00     0.297 C 
BRANCH  18  19
ATOM     19  N   UNL d   1      29.092 -15.451   0.946  0.00  0.00    -0.066 N 
ATOM     20  C   UNL d   1      27.785 -14.842   1.949  0.00  0.00     0.235 C 
ATOM     21  C   UNL d   1      27.361 -13.477   1.446  0.00  0.00     0.029 C 
ATOM     22  C   UNL d   1      28.930 -12.891   0.491  0.00  0.00     0.029 C 
ATOM     23  C   UNL d   1      29.843 -14.152   0.148  0.00  0.00     0.235 C 
ATOM     24  H   UNL d   1      29.762 -15.949   1.544  0.00  0.00     0.280 HD
ENDBRANCH  18  19
ENDBRANCH   4  18
BRANCH   1  25
ATOM     25  C   UNL d   1      23.594 -18.186  -0.907  0.00  0.00     0.225 C 
ATOM     26  N   UNL d   1      22.986 -19.376  -1.057  0.00  0.00    -0.081 NA
ATOM     27  O   UNL d   1      21.663 -19.073  -1.400  0.00  0.00    -0.103 OA
ATOM     28  N   UNL d   1      21.373 -17.734  -1.181  0.00  0.00    -0.083 NA
ATOM     29  C   UNL d   1      22.532 -17.159  -0.843  0.00  0.00     0.201 C 
BRANCH  29  30
ATOM     30  N   UNL d   1      22.503 -15.946  -0.222  0.00  0.00    -0.379 N 
ATOM     31  H   UNL d   1      23.339 -15.592   0.261  0.00  0.00     0.158 HD
ATOM     32  H   UNL d   1      21.782 -15.238  -0.295  0.00  0.00     0.158 HD
ENDBRANCH  29  30
ENDBRANCH   1  25
TORSDOF 7
ENDMDL
MODEL 2
REMARK VINA RESULT:    -8.453      2.594      6.472
REMARK INTER + INTRA:         -13.123
REMARK INTER:                 -10.541
REMARK INTRA:                  -2.582
REMARK CONF_INDEPENDENT:        2.088
REMARK UNBOUND:                -2.582
REMARK  7 active torsions:
REMARK  status: ('A' for Active; 'I' for Inactive)
REMARK    1  A    between atoms: N_1  and  C_2 
REMARK    2  A    between atoms: C_6  and  N_7 
REMARK    3  A    between atoms: C_10  and  C_11 
REMARK    4  A    between atoms: C_11  and  N_12 
REMARK    5  A    between atoms: C_17  and  C_18 
REMARK       I    between atoms: C_18  and  N_20 
REMARK    6  A    between atoms: N_20  and  N_21 
REMARK    7  A    between atoms: C_22  and  C_23 
ROOT
ATOM      1  N   UNL d   1      28.140 -14.086  -3.590  0.00  0.00    -0.207 N 
ATOM      2  N   UNL d   1      29.484 -13.866  -3.691  0.00  0.00     0.012 NA
ATOM      3  N   UNL d   1      30.057 -13.716  -2.449  0.00  0.00    -0.160 NA
ATOM      4  C   UNL d   1      29.119 -14.003  -1.509  0.00  0.00     0.112 C 
ATOM      5  C   UNL d   1      27.960 -14.308  -2.318  0.00  0.00     0.153 C 
ENDROOT
BRANCH   5   6
ATOM      6  C   UNL d   1      26.843 -14.991  -1.907  0.00  0.00     0.292 C 
ATOM      7  O   UNL d   1      26.622 -14.014  -1.219  0.00  0.00    -0.264 OA
ATOM      8  N   UNL d   1      26.017 -16.242  -1.967  0.00  0.00    -0.242 N 
ATOM      9  H   UNL d   1      26.150 -16.949  -2.661  0.00  0.00     0.192 HD
BRANCH   8  10
ATOM     10  N   UNL d   1      24.661 -16.454  -1.336  0.00  0.00    -0.188 NA
ATOM     11  C   UNL d   1      24.101 -17.613  -1.197  0.00  0.00     0.116 C 
BRANCH  11  12
ATOM     12  C   UNL d   1      22.653 -17.827  -0.660  0.00  0.00     0.028 C 
ATOM     13  C   UNL d   1      22.018 -18.818  -1.643  0.00  0.00     0.010 C 
ATOM     14  C   UNL d   1      20.684 -19.387  -1.189  0.00  0.00     0.001 C 
ATOM     15  C   UNL d   1      20.785 -19.986   0.206  0.00  0.00     0.000 C 
ATOM     16  C   UNL d   1      21.291 -18.949   1.198  0.00  0.00     0.001 C 
ATOM     17  C   UNL d   1      22.646 -18.381   0.769  0.00  0.00     0.010 C 
ENDBRANCH  11  12
ENDBRANCH   8  10
ENDBRANCH   5   6
BRANCH   4  18
ATOM     18  C   UNL d   1      29.341 -14.175   0.170  0.00  0.00     0.297 C 
BRANCH  18  19
ATOM     19  N   UNL d   1      29.401 -15.779   0.908  0.00  0.00    -0.066 N 
ATOM     20  C   UNL d   1      30.638 -16.770   0.153  0.00  0.00     0.235 C 
ATOM     21  C   UNL d   1      29.992 -17.689  -0.865  0.00  0.00     0.029 C 
ATOM     22  C   UNL d   1      28.168 -17.763  -0.244  0.00  0.00     0.029 C 
ATOM     23  C   UNL d   1      27.886 -16.525   0.721  0.00  0.00     0.235 C 
ATOM     24  H   UNL d   1      29.631 -15.665   1.903  0.00  0.00     0.280 HD
ENDBRANCH  18  19
ENDBRANCH   4  18
BRANCH   1  25
ATOM     25  C   UNL d   1      26.997 -14.357  -4.449  0.00  0.00     0.225 C 
ATOM     26  N   UNL d   1      26.844 -15.622  -4.881  0.00  0.00    -0.081 NA
ATOM     27  O   UNL d   1      25.526 -15.696  -5.344  0.00  0.00    -0.103 OA
ATOM     28  N   UNL d   1      24.781 -14.597  -4.944  0.00  0.00    -0.083 NA
ATOM     29  C   UNL d   1      25.646 -13.762  -4.358  0.00  0.00     0.201 C 
BRANCH  29  30
ATOM     30  N   UNL d   1      25.159 -12.778  -3.550  0.00  0.00    -0.379 N 
ATOM     31  H   UNL d   1      25.740 -12.397  -2.792  0.00  0.00     0.158 HD
ATOM     32  H   UNL d   1      24.316 -12.235  -3.688  0.00  0.00     0.158 HD
ENDBRANCH  29  30
ENDBRANCH   1  25
TORSDOF 7
ENDMDL
MODEL 3
REMARK VINA RESULT:    -8.445      2.524      7.011
REMARK INTER + INTRA:         -12.442
REMARK INTER:                 -10.533
REMARK INTRA:                  -1.909
REMARK CONF_INDEPENDENT:        2.088
REMARK UNBOUND:                -1.909
REMARK  7 active torsions:
REMARK  status: ('A' for Active; 'I' for Inactive)
REMARK    1  A    between atoms: N_1  and  C_2 
REMARK    2  A    between atoms: C_6  and  N_7 
REMARK    3  A    between atoms: C_10  and  C_11 
REMARK    4  A    between atoms: C_11  and  N_12 
REMARK    5  A    between atoms: C_17  and  C_18 
REMARK       I    between atoms: C_18  and  N_20 
REMARK    6  A    between atoms: N_20  and  N_21 
REMARK    7  A    between atoms: C_22  and  C_23 
ROOT
ATOM      1  N   UNL d   1      25.494 -16.007  -1.892  0.00  0.00    -0.207 N 
ATOM      2  N   UNL d   1      25.464 -16.131  -3.252  0.00  0.00     0.012 NA
ATOM      3  N   UNL d   1      25.620 -14.909  -3.865  0.00  0.00    -0.160 NA
ATOM      4  C   UNL d   1      25.920 -13.989  -2.911  0.00  0.00     0.112 C 
ATOM      5  C   UNL d   1      25.903 -14.784  -1.703  0.00  0.00     0.153 C 
ENDROOT
BRANCH   5   6
ATOM      6  C   UNL d   1      26.470 -14.442  -0.502  0.00  0.00     0.292 C 
ATOM      7  O   UNL d   1      27.510 -14.825  -0.998  0.00  0.00    -0.264 OA
ATOM      8  N   UNL d   1      26.288 -13.922   0.894  0.00  0.00    -0.242 N 
ATOM      9  H   UNL d   1      25.449 -13.473   1.203  0.00  0.00     0.192 HD
BRANCH   8  10
ATOM     10  N   UNL d   1      27.384 -13.595   1.881  0.00  0.00    -0.188 NA
ATOM     11  C   UNL d   1      27.444 -14.076   3.081  0.00  0.00     0.116 C 
BRANCH  11  12
ATOM     12  C   UNL d   1      28.502 -13.650   4.143  0.00  0.00     0.028 C 
ATOM     13  C   UNL d   1      27.781 -12.615   5.015  0.00  0.00     0.010 C 
ATOM     14  C   UNL d   1      28.523 -12.236   6.286  0.00  0.00     0.001 C 
ATOM     15  C   UNL d   1      28.897 -13.469   7.095  0.00  0.00     0.000 C 
ATOM     16  C   UNL d   1      29.729 -14.427   6.255  0.00  0.00     0.001 C 
ATOM     17  C   UNL d   1      28.988 -14.839   4.981  0.00  0.00     0.010 C 
ENDBRANCH  11  12
ENDBRANCH   8  10
ENDBRANCH   5   6
BRANCH   4  18
ATOM     18  C   UNL d   1      26.412 -12.374  -3.136  0.00  0.00     0.297 C 
BRANCH  18  19
ATOM     19  N   UNL d   1      25.530 -11.312  -4.239  0.00  0.00    -0.066 N 
ATOM     20  C   UNL d   1      26.203 -11.394  -5.859  0.00  0.00     0.235 C 
ATOM     21  C   UNL d   1      27.126 -10.213  -6.079  0.00  0.00     0.029 C 
ATOM     22  C   UNL d   1      26.484  -8.948  -4.773  0.00  0.00     0.029 C 
ATOM     23  C   UNL d   1      25.634  -9.716  -3.665  0.00  0.00     0.235 C 
ATOM     24  H   UNL d   1      24.552 -11.625  -4.271  0.00  0.00     0.280 HD
ENDBRANCH  18  19
ENDBRANCH   4  18
BRANCH   1  25
ATOM     25  C   UNL d   1      25.436 -16.846  -0.704  0.00  0.00     0.225 C 
ATOM     26  N   UNL d   1      24.349 -17.625  -0.559  0.00  0.00    -0.081 NA
ATOM     27  O   UNL d   1      24.701 -18.570   0.411  0.00  0.00    -0.103 OA
ATOM     28  N   UNL d   1      26.066 -18.569   0.655  0.00  0.00    -0.083 NA
ATOM     29  C   UNL d   1      26.561 -17.540  -0.041  0.00  0.00     0.201 C 
BRANCH  29  30
ATOM     30  N   UNL d   1      27.901 -17.506  -0.293  0.00  0.00    -0.379 N 
ATOM     31  H   UNL d   1      28.286 -16.816  -0.951  0.00  0.00     0.158 HD
ATOM     32  H   UNL d   1      28.631 -17.992   0.214  0.00  0.00     0.158 HD
ENDBRANCH  29  30
ENDBRANCH   1  25
TORSDOF 7
ENDMDL
MODEL 4
REMARK VINA RESULT:    -8.293      3.721      8.214
REMARK INTER + INTRA:         -12.573
REMARK INTER:                 -10.382
REMARK INTRA:                  -2.191
REMARK CONF_INDEPENDENT:        2.088
REMARK UNBOUND:                -2.191
REMARK  7 active torsions:
REMARK  status: ('A' for Active; 'I' for Inactive)
REMARK    1  A    between atoms: N_1  and  C_2 
REMARK    2  A    between atoms: C_6  and  N_7 
REMARK    3  A    between atoms: C_10  and  C_11 
REMARK    4  A    between atoms: C_11  and  N_12 
REMARK    5  A    between atoms: C_17  and  C_18 
REMARK       I    between atoms: C_18  and  N_20 
REMARK    6  A    between atoms: N_20  and  N_21 
REMARK    7  A    between atoms: C_22  and  C_23 
ROOT
ATOM      1  N   UNL d   1      27.481 -12.095  -5.656  0.00  0.00    -0.207 N 
ATOM      2  N   UNL d   1      28.169 -10.922  -5.784  0.00  0.00     0.012 NA
ATOM      3  N   UNL d   1      27.429  -9.859  -5.318  0.00  0.00    -0.160 NA
ATOM      4  C   UNL d   1      26.309 -10.348  -4.724  0.00  0.00     0.112 C 
ATOM      5  C   UNL d   1      26.462 -11.774  -4.909  0.00  0.00     0.153 C 
ENDROOT
BRANCH   5   6
ATOM      6  C   UNL d   1      25.804 -12.755  -4.213  0.00  0.00     0.292 C 
ATOM      7  O   UNL d   1      26.557 -12.475  -3.302  0.00  0.00    -0.264 OA
ATOM      8  N   UNL d   1      24.753 -13.827  -4.201  0.00  0.00    -0.242 N 
ATOM      9  H   UNL d   1      24.056 -13.913  -4.912  0.00  0.00     0.192 HD
BRANCH   8  10
ATOM     10  N   UNL d   1      24.301 -14.628  -3.002  0.00  0.00    -0.188 NA
ATOM     11  C   UNL d   1      25.111 -15.201  -2.169  0.00  0.00     0.116 C 
BRANCH  11  12
ATOM     12  C   UNL d   1      24.654 -16.129  -1.003  0.00  0.00     0.028 C 
ATOM     13  C   UNL d   1      23.155 -16.344  -1.243  0.00  0.00     0.010 C 
ATOM     14  C   UNL d   1      22.530 -17.428  -0.382  0.00  0.00     0.001 C 
ATOM     15  C   UNL d   1      23.297 -18.737  -0.496  0.00  0.00     0.000 C 
ATOM     16  C   UNL d   1      24.759 -18.534  -0.124  0.00  0.00     0.001 C 
ATOM     17  C   UNL d   1      25.413 -17.461  -0.998  0.00  0.00     0.010 C 
ENDBRANCH  11  12
ENDBRANCH   8  10
ENDBRANCH   5   6
BRANCH   4  18
ATOM     18  C   UNL d   1      25.156  -9.494  -3.807  0.00  0.00     0.297 C 
BRANCH  18  19
ATOM     19  N   UNL d   1      24.686  -7.852  -4.260  0.00  0.00    -0.066 N 
ATOM     20  C   UNL d   1      23.767  -7.853  -5.756  0.00  0.00     0.235 C 
ATOM     21  C   UNL d   1      24.683  -7.492  -6.908  0.00  0.00     0.029 C 
ATOM     22  C   UNL d   1      26.110  -6.553  -6.013  0.00  0.00     0.029 C 
ATOM     23  C   UNL d   1      26.090  -6.916  -4.461  0.00  0.00     0.235 C 
ATOM     24  H   UNL d   1      24.097  -7.469  -3.510  0.00  0.00     0.280 HD
ENDBRANCH  18  19
ENDBRANCH   4  18
BRANCH   1  25
ATOM     25  C   UNL d   1      27.670 -13.519  -5.892  0.00  0.00     0.225 C 
ATOM     26  N   UNL d   1      28.155 -13.879  -7.094  0.00  0.00    -0.081 NA
ATOM     27  O   UNL d   1      28.587 -15.200  -6.935  0.00  0.00    -0.103 OA
ATOM     28  N   UNL d   1      28.644 -15.563  -5.598  0.00  0.00    -0.083 NA
ATOM     29  C   UNL d   1      28.117 -14.538  -4.919  0.00  0.00     0.201 C 
BRANCH  29  30
ATOM     30  N   UNL d   1      28.367 -14.442  -3.582  0.00  0.00    -0.379 N 
ATOM     31  H   UNL d   1      27.837 -13.778  -3.003  0.00  0.00     0.158 HD
ATOM     32  H   UNL d   1      28.928 -15.069  -3.018  0.00  0.00     0.158 HD
ENDBRANCH  29  30
ENDBRANCH   1  25
TORSDOF 7
ENDMDL
MODEL 5
REMARK VINA RESULT:    -7.881      2.941      7.638
REMARK INTER + INTRA:         -12.541
REMARK INTER:                  -9.969
REMARK INTRA:                  -2.572
REMARK CONF_INDEPENDENT:        2.088
REMARK UNBOUND:                -2.572
REMARK  7 active torsions:
REMARK  status: ('A' for Active; 'I' for Inactive)
REMARK    1  A    between atoms: N_1  and  C_2 
REMARK    2  A    between atoms: C_6  and  N_7 
REMARK    3  A    between atoms: C_10  and  C_11 
REMARK    4  A    between atoms: C_11  and  N_12 
REMARK    5  A    between atoms: C_17  and  C_18 
REMARK       I    between atoms: C_18  and  N_20 
REMARK    6  A    between atoms: N_20  and  N_21 
REMARK    7  A    between atoms: C_22  and  C_23 
ROOT
ATOM      1  N   UNL d   1      26.021 -12.831  -3.108  0.00  0.00    -0.207 N 
ATOM      2  N   UNL d   1      25.099 -13.261  -4.018  0.00  0.00     0.012 NA
ATOM      3  N   UNL d   1      24.896 -14.618  -3.915  0.00  0.00    -0.160 NA
ATOM      4  C   UNL d   1      25.563 -15.067  -2.820  0.00  0.00     0.112 C 
ATOM      5  C   UNL d   1      26.179 -13.858  -2.321  0.00  0.00     0.153 C 
ENDROOT
BRANCH   5   6
ATOM      6  C   UNL d   1      26.678 -13.667  -1.057  0.00  0.00     0.292 C 
ATOM      7  O   UNL d   1      25.834 -14.470  -0.711  0.00  0.00    -0.264 OA
ATOM      8  N   UNL d   1      27.646 -12.951  -0.161  0.00  0.00    -0.242 N 
ATOM      9  H   UNL d   1      28.421 -12.424  -0.508  0.00  0.00     0.192 HD
BRANCH   8  10
ATOM     10  N   UNL d   1      27.887 -13.229   1.304  0.00  0.00    -0.188 NA
ATOM     11  C   UNL d   1      26.944 -13.336   2.185  0.00  0.00     0.116 C 
BRANCH  11  12
ATOM     12  C   UNL d   1      27.189 -13.501   3.715  0.00  0.00     0.028 C 
ATOM     13  C   UNL d   1      28.154 -14.687   3.828  0.00  0.00     0.010 C 
ATOM     14  C   UNL d   1      28.750 -14.884   5.211  0.00  0.00     0.001 C 
ATOM     15  C   UNL d   1      29.393 -13.604   5.724  0.00  0.00     0.000 C 
ATOM     16  C   UNL d   1      28.383 -12.465   5.732  0.00  0.00     0.001 C 
ATOM     17  C   UNL d   1      27.789 -12.236   4.341  0.00  0.00     0.010 C 
ENDBRANCH  11  12
ENDBRANCH   8  10
ENDBRANCH   5   6
BRANCH   4  18
ATOM     18  C   UNL d   1      25.488 -16.615  -2.113  0.00  0.00     0.297 C 
BRANCH  18  19
ATOM     19  N   UNL d   1      24.637 -16.863  -0.585  0.00  0.00    -0.066 N 
ATOM     20  C   UNL d   1      24.632 -18.561  -0.139  0.00  0.00     0.235 C 
ATOM     21  C   UNL d   1      23.304 -19.178  -0.531  0.00  0.00     0.029 C 
ATOM     22  C   UNL d   1      22.150 -17.636  -0.617  0.00  0.00     0.029 C 
ATOM     23  C   UNL d   1      23.037 -16.318  -0.753  0.00  0.00     0.235 C 
ATOM     24  H   UNL d   1      25.128 -16.331   0.145  0.00  0.00     0.280 HD
ENDBRANCH  18  19
ENDBRANCH   4  18
BRANCH   1  25
ATOM     25  C   UNL d   1      26.640 -11.591  -2.662  0.00  0.00     0.225 C 
ATOM     26  N   UNL d   1      27.979 -11.589  -2.535  0.00  0.00    -0.081 NA
ATOM     27  O   UNL d   1      28.341 -10.238  -2.473  0.00  0.00    -0.103 OA
ATOM     28  N   UNL d   1      27.292  -9.411  -2.847  0.00  0.00    -0.083 NA
ATOM     29  C   UNL d   1      26.233 -10.212  -3.004  0.00  0.00     0.201 C 
BRANCH  29  30
ATOM     30  N   UNL d   1      25.164  -9.749  -3.714  0.00  0.00    -0.379 N 
ATOM     31  H   UNL d   1      24.760 -10.318  -4.469  0.00  0.00     0.158 HD
ATOM     32  H   UNL d   1      24.587  -8.946  -3.497  0.00  0.00     0.158 HD
ENDBRANCH  29  30
ENDBRANCH   1  25
TORSDOF 7
ENDMDL
MODEL 6
REMARK VINA RESULT:    -7.811      3.365      6.410
REMARK INTER + INTRA:         -12.426
REMARK INTER:                  -9.899
REMARK INTRA:                  -2.527
REMARK CONF_INDEPENDENT:        2.088
REMARK UNBOUND:                -2.527
REMARK  7 active torsions:
REMARK  status: ('A' for Active; 'I' for Inactive)
REMARK    1  A    between atoms: N_1  and  C_2 
REMARK    2  A    between atoms: C_6  and  N_7 
REMARK    3  A    between atoms: C_10  and  C_11 
REMARK    4  A    between atoms: C_11  and  N_12 
REMARK    5  A    between atoms: C_17  and  C_18 
REMARK       I    between atoms: C_18  and  N_20 
REMARK    6  A    between atoms: N_20  and  N_21 
REMARK    7  A    between atoms: C_22  and  C_23 
ROOT
ATOM      1  N   UNL d   1      30.183 -15.696  -4.559  0.00  0.00    -0.207 N 
ATOM      2  N   UNL d   1      31.390 -16.279  -4.816  0.00  0.00     0.012 NA
ATOM      3  N   UNL d   1      31.854 -16.967  -3.718  0.00  0.00    -0.160 NA
ATOM      4  C   UNL d   1      30.873 -16.981  -2.778  0.00  0.00     0.112 C 
ATOM      5  C   UNL d   1      29.821 -16.227  -3.424  0.00  0.00     0.153 C 
ENDROOT
BRANCH   5   6
ATOM      6  C   UNL d   1      28.494 -16.226  -3.074  0.00  0.00     0.292 C 
ATOM      7  O   UNL d   1      28.800 -17.117  -2.306  0.00  0.00    -0.264 OA
ATOM      8  N   UNL d   1      27.118 -15.668  -3.287  0.00  0.00    -0.242 N 
ATOM      9  H   UNL d   1      26.944 -14.834  -3.810  0.00  0.00     0.192 HD
BRANCH   8  10
ATOM     10  N   UNL d   1      25.889 -15.968  -2.461  0.00  0.00    -0.188 NA
ATOM     11  C   UNL d   1      25.917 -16.578  -1.319  0.00  0.00     0.116 C 
BRANCH  11  12
ATOM     12  C   UNL d   1      24.647 -16.999  -0.520  0.00  0.00     0.028 C 
ATOM     13  C   UNL d   1      23.489 -16.290  -1.232  0.00  0.00     0.010 C 
ATOM     14  C   UNL d   1      22.107 -16.749  -0.796  0.00  0.00     0.001 C 
ATOM     15  C   UNL d   1      21.969 -18.261  -0.897  0.00  0.00     0.000 C 
ATOM     16  C   UNL d   1      23.048 -18.952  -0.074  0.00  0.00     0.001 C 
ATOM     17  C   UNL d   1      24.448 -18.519  -0.515  0.00  0.00     0.010 C 
ENDBRANCH  11  12
ENDBRANCH   8  10
ENDBRANCH   5   6
BRANCH   4  18
ATOM     18  C   UNL d   1      30.834 -17.861  -1.321  0.00  0.00     0.297 C 
BRANCH  18  19
ATOM     19  N   UNL d   1      30.569 -17.037   0.219  0.00  0.00    -0.066 N 
ATOM     20  C   UNL d   1      29.016 -16.216   0.230  0.00  0.00     0.235 C 
ATOM     21  C   UNL d   1      29.223 -14.747  -0.077  0.00  0.00     0.029 C 
ATOM     22  C   UNL d   1      31.071 -14.488   0.408  0.00  0.00     0.029 C 
ATOM     23  C   UNL d   1      31.810 -15.900   0.454  0.00  0.00     0.235 C 
ATOM     24  H   UNL d   1      30.574 -17.743   0.965  0.00  0.00     0.280 HD
ENDBRANCH  18  19
ENDBRANCH   4  18
BRANCH   1  25
ATOM     25  C   UNL d   1      29.167 -14.908  -5.242  0.00  0.00     0.225 C 
ATOM     26  N   UNL d   1      28.113 -15.576  -5.745  0.00  0.00    -0.081 NA
ATOM     27  O   UNL d   1      27.144 -14.598  -5.995  0.00  0.00    -0.103 OA
ATOM     28  N   UNL d   1      27.468 -13.391  -5.392  0.00  0.00    -0.083 NA
ATOM     29  C   UNL d   1      28.696 -13.553  -4.887  0.00  0.00     0.201 C 
BRANCH  29  30
ATOM     30  N   UNL d   1      29.130 -12.680  -3.934  0.00  0.00    -0.379 N 
ATOM     31  H   UNL d   1      28.781 -11.713  -3.921  0.00  0.00     0.158 HD
ATOM     32  H   UNL d   1      29.664 -12.899  -3.102  0.00  0.00     0.158 HD
ENDBRANCH  29  30
ENDBRANCH   1  25
TORSDOF 7
ENDMDL
MODEL 7
REMARK VINA RESULT:    -7.509      4.581      7.386
REMARK INTER + INTRA:         -12.585
REMARK INTER:                  -9.597
REMARK INTRA:                  -2.988
REMARK CONF_INDEPENDENT:        2.088
REMARK UNBOUND:                -2.988
REMARK  7 active torsions:
REMARK  status: ('A' for Active; 'I' for Inactive)
REMARK    1  A    between atoms: N_1  and  C_2 
REMARK    2  A    between atoms: C_6  and  N_7 
REMARK    3  A    between atoms: C_10  and  C_11 
REMARK    4  A    between atoms: C_11  and  N_12 
REMARK    5  A    between atoms: C_17  and  C_18 
REMARK       I    between atoms: C_18  and  N_20 
REMARK    6  A    between atoms: N_20  and  N_21 
REMARK    7  A    between atoms: C_22  and  C_23 
ROOT
ATOM      1  N   UNL d   1      30.834 -13.681   3.245  0.00  0.00    -0.207 N 
ATOM      2  N   UNL d   1      32.143 -13.296   3.191  0.00  0.00     0.012 NA
ATOM      3  N   UNL d   1      32.862 -14.103   2.339  0.00  0.00    -0.160 NA
ATOM      4  C   UNL d   1      31.993 -14.925   1.695  0.00  0.00     0.112 C 
ATOM      5  C   UNL d   1      30.723 -14.535   2.266  0.00  0.00     0.153 C 
ENDROOT
BRANCH   5   6
ATOM      6  C   UNL d   1      29.484 -14.794   1.737  0.00  0.00     0.292 C 
ATOM      7  O   UNL d   1      30.074 -15.538   0.979  0.00  0.00    -0.264 OA
ATOM      8  N   UNL d   1      28.009 -14.515   1.742  0.00  0.00    -0.242 N 
ATOM      9  H   UNL d   1      27.552 -14.022   2.482  0.00  0.00     0.192 HD
BRANCH   8  10
ATOM     10  N   UNL d   1      26.955 -15.241   0.940  0.00  0.00    -0.188 NA
ATOM     11  C   UNL d   1      27.092 -16.449   0.494  0.00  0.00     0.116 C 
BRANCH  11  12
ATOM     12  C   UNL d   1      26.062 -17.159  -0.436  0.00  0.00     0.028 C 
ATOM     13  C   UNL d   1      25.366 -18.184   0.468  0.00  0.00     0.010 C 
ATOM     14  C   UNL d   1      24.134 -18.829  -0.145  0.00  0.00     0.001 C 
ATOM     15  C   UNL d   1      23.151 -17.781  -0.644  0.00  0.00     0.000 C 
ATOM     16  C   UNL d   1      23.823 -16.852  -1.645  0.00  0.00     0.001 C 
ATOM     17  C   UNL d   1      25.054 -16.174  -1.037  0.00  0.00     0.010 C 
ENDBRANCH  11  12
ENDBRANCH   8  10
ENDBRANCH   5   6
BRANCH   4  18
ATOM     18  C   UNL d   1      32.316 -15.974   0.393  0.00  0.00     0.297 C 
BRANCH  18  19
ATOM     19  N   UNL d   1      31.444 -17.501   0.232  0.00  0.00    -0.066 N 
ATOM     20  C   UNL d   1      32.547 -18.865   0.318  0.00  0.00     0.235 C 
ATOM     21  C   UNL d   1      32.862 -19.345  -1.085  0.00  0.00     0.029 C 
ATOM     22  C   UNL d   1      31.353 -18.684  -2.087  0.00  0.00     0.029 C 
ATOM     23  C   UNL d   1      30.640 -17.519  -1.265  0.00  0.00     0.235 C 
ATOM     24  H   UNL d   1      30.773 -17.571   1.007  0.00  0.00     0.280 HD
ENDBRANCH  18  19
ENDBRANCH   4  18
BRANCH   1  25
ATOM     25  C   UNL d   1      29.585 -13.269   3.871  0.00  0.00     0.225 C 
ATOM     26  N   UNL d   1      28.820 -12.399   3.190  0.00  0.00    -0.081 NA
ATOM     27  O   UNL d   1      27.561 -12.461   3.798  0.00  0.00    -0.103 OA
ATOM     28  N   UNL d   1      27.457 -13.554   4.645  0.00  0.00    -0.083 NA
ATOM     29  C   UNL d   1      28.677 -14.099   4.692  0.00  0.00     0.201 C 
BRANCH  29  30
ATOM     30  N   UNL d   1      28.805 -15.380   5.142  0.00  0.00    -0.379 N 
ATOM     31  H   UNL d   1      29.108 -16.125   4.502  0.00  0.00     0.158 HD
ATOM     32  H   UNL d   1      28.784 -15.695   6.104  0.00  0.00     0.158 HD
ENDBRANCH  29  30
ENDBRANCH   1  25
TORSDOF 7
ENDMDL
MODEL 8
REMARK VINA RESULT:    -7.327      3.199      6.352
REMARK INTER + INTRA:         -12.635
REMARK INTER:                  -9.415
REMARK INTRA:                  -3.219
REMARK CONF_INDEPENDENT:        2.088
REMARK UNBOUND:                -3.219
REMARK  7 active torsions:
REMARK  status: ('A' for Active; 'I' for Inactive)
REMARK    1  A    between atoms: N_1  and  C_2 
REMARK    2  A    between atoms: C_6  and  N_7 
REMARK    3  A    between atoms: C_10  and  C_11 
REMARK    4  A    between atoms: C_11  and  N_12 
REMARK    5  A    between atoms: C_17  and  C_18 
REMARK       I    between atoms: C_18  and  N_20 
REMARK    6  A    between atoms: N_20  and  N_21 
REMARK    7  A    between atoms: C_22  and  C_23 
ROOT
ATOM      1  N   UNL d   1      28.626 -13.277  -4.723  0.00  0.00    -0.207 N 
ATOM      2  N   UNL d   1      29.729 -12.647  -5.224  0.00  0.00     0.012 NA
ATOM      3  N   UNL d   1      30.597 -12.289  -4.217  0.00  0.00    -0.160 NA
ATOM      4  C   UNL d   1      30.147 -12.830  -3.055  0.00  0.00     0.112 C 
ATOM      5  C   UNL d   1      28.943 -13.509  -3.480  0.00  0.00     0.153 C 
ENDROOT
BRANCH   5   6
ATOM      6  C   UNL d   1      28.285 -14.497  -2.792  0.00  0.00     0.292 C 
ATOM      7  O   UNL d   1      27.794 -13.587  -2.154  0.00  0.00    -0.264 OA
ATOM      8  N   UNL d   1      28.048 -15.963  -2.578  0.00  0.00    -0.242 N 
ATOM      9  H   UNL d   1      28.348 -16.663  -3.226  0.00  0.00     0.192 HD
BRANCH   8  10
ATOM     10  N   UNL d   1      27.016 -16.582  -1.664  0.00  0.00    -0.188 NA
ATOM     11  C   UNL d   1      25.760 -16.267  -1.674  0.00  0.00     0.116 C 
BRANCH  11  12
ATOM     12  C   UNL d   1      24.714 -16.809  -0.654  0.00  0.00     0.028 C 
ATOM     13  C   UNL d   1      23.359 -16.354  -1.209  0.00  0.00     0.010 C 
ATOM     14  C   UNL d   1      22.156 -16.982  -0.526  0.00  0.00     0.001 C 
ATOM     15  C   UNL d   1      22.259 -18.500  -0.511  0.00  0.00     0.000 C 
ATOM     16  C   UNL d   1      23.550 -18.941   0.165  0.00  0.00     0.001 C 
ATOM     17  C   UNL d   1      24.775 -18.336  -0.524  0.00  0.00     0.010 C 
ENDBRANCH  11  12
ENDBRANCH   8  10
ENDBRANCH   5   6
BRANCH   4  18
ATOM     18  C   UNL d   1      30.940 -12.876  -1.549  0.00  0.00     0.297 C 
BRANCH  18  19
ATOM     19  N   UNL d   1      30.117 -13.510  -0.120  0.00  0.00    -0.066 N 
ATOM     20  C   UNL d   1      30.237 -12.384   1.223  0.00  0.00     0.235 C 
ATOM     21  C   UNL d   1      31.353 -12.825   2.149  0.00  0.00     0.029 C 
ATOM     22  C   UNL d   1      31.508 -14.701   1.733  0.00  0.00     0.029 C 
ATOM     23  C   UNL d   1      30.835 -14.987   0.316  0.00  0.00     0.235 C 
ATOM     24  H   UNL d   1      29.125 -13.641  -0.353  0.00  0.00     0.280 HD
ENDBRANCH  18  19
ENDBRANCH   4  18
BRANCH   1  25
ATOM     25  C   UNL d   1      27.409 -13.919  -5.197  0.00  0.00     0.225 C 
ATOM     26  N   UNL d   1      27.497 -15.217  -5.536  0.00  0.00    -0.081 NA
ATOM     27  O   UNL d   1      26.175 -15.675  -5.585  0.00  0.00    -0.103 OA
ATOM     28  N   UNL d   1      25.299 -14.769  -5.006  0.00  0.00    -0.083 NA
ATOM     29  C   UNL d   1      26.028 -13.685  -4.723  0.00  0.00     0.201 C 
BRANCH  29  30
ATOM     30  N   UNL d   1      25.536 -12.782  -3.828  0.00  0.00    -0.379 N 
ATOM     31  H   UNL d   1      26.097 -12.502  -3.013  0.00  0.00     0.158 HD
ATOM     32  H   UNL d   1      24.711 -12.204  -3.933  0.00  0.00     0.158 HD
ENDBRANCH  29  30
ENDBRANCH   1  25
TORSDOF 7
ENDMDL
MODEL 9
REMARK VINA RESULT:    -7.069      3.834      6.614
REMARK INTER + INTRA:         -12.478
REMARK INTER:                  -9.157
REMARK INTRA:                  -3.321
REMARK CONF_INDEPENDENT:        2.088
REMARK UNBOUND:                -3.321
REMARK  7 active torsions:
REMARK  status: ('A' for Active; 'I' for Inactive)
REMARK    1  A    between atoms: N_1  and  C_2 
REMARK    2  A    between atoms: C_6  and  N_7 
REMARK    3  A    between atoms: C_10  and  C_11 
REMARK    4  A    between atoms: C_11  and  N_12 
REMARK    5  A    between atoms: C_17  and  C_18 
REMARK       I    between atoms: C_18  and  N_20 
REMARK    6  A    between atoms: N_20  and  N_21 
REMARK    7  A    between atoms: C_22  and  C_23 
ROOT
ATOM      1  N   UNL d   1      30.856 -14.538  -0.957  0.00  0.00    -0.207 N 
ATOM      2  N   UNL d   1      32.055 -13.976  -0.625  0.00  0.00     0.012 NA
ATOM      3  N   UNL d   1      32.033 -13.480   0.658  0.00  0.00    -0.160 NA
ATOM      4  C   UNL d   1      30.867 -13.861   1.242  0.00  0.00     0.112 C 
ATOM      5  C   UNL d   1      30.219 -14.597   0.179  0.00  0.00     0.153 C 
ENDROOT
BRANCH   5   6
ATOM      6  C   UNL d   1      29.184 -15.486   0.324  0.00  0.00     0.292 C 
ATOM      7  O   UNL d   1      28.698 -14.646   1.055  0.00  0.00    -0.264 OA
ATOM      8  N   UNL d   1      28.601 -16.831   0.002  0.00  0.00    -0.242 N 
ATOM      9  H   UNL d   1      28.958 -17.418  -0.724  0.00  0.00     0.192 HD
BRANCH   8  10
ATOM     10  N   UNL d   1      27.219 -17.321   0.367  0.00  0.00    -0.188 NA
ATOM     11  C   UNL d   1      26.146 -17.010  -0.288  0.00  0.00     0.116 C 
BRANCH  11  12
ATOM     12  C   UNL d   1      24.706 -17.410   0.152  0.00  0.00     0.028 C 
ATOM     13  C   UNL d   1      23.788 -16.428  -0.585  0.00  0.00     0.010 C 
ATOM     14  C   UNL d   1      22.311 -16.778  -0.521  0.00  0.00     0.001 C 
ATOM     15  C   UNL d   1      22.062 -18.208  -0.977  0.00  0.00     0.000 C 
ATOM     16  C   UNL d   1      22.880 -19.185  -0.145  0.00  0.00     0.001 C 
ATOM     17  C   UNL d   1      24.375 -18.861  -0.215  0.00  0.00     0.010 C 
ENDBRANCH  11  12
ENDBRANCH   8  10
ENDBRANCH   5   6
BRANCH   4  18
ATOM     18  C   UNL d   1      30.414 -13.697   2.876  0.00  0.00     0.297 C 
BRANCH  18  19
ATOM     19  N   UNL d   1      29.179 -14.749   3.575  0.00  0.00    -0.066 N 
ATOM     20  C   UNL d   1      27.630 -13.925   3.660  0.00  0.00     0.235 C 
ATOM     21  C   UNL d   1      27.420 -13.396   5.065  0.00  0.00     0.029 C 
ATOM     22  C   UNL d   1      28.590 -14.525   6.103  0.00  0.00     0.029 C 
ATOM     23  C   UNL d   1      29.664 -15.202   5.139  0.00  0.00     0.235 C 
ATOM     24  H   UNL d   1      29.080 -15.574   2.970  0.00  0.00     0.280 HD
ENDBRANCH  18  19
ENDBRANCH   4  18
BRANCH   1  25
ATOM     25  C   UNL d   1      30.236 -15.245  -2.068  0.00  0.00     0.225 C 
ATOM     26  N   UNL d   1      30.375 -16.582  -2.094  0.00  0.00    -0.081 NA
ATOM     27  O   UNL d   1      29.410 -17.035  -3.000  0.00  0.00    -0.103 OA
ATOM     28  N   UNL d   1      28.495 -16.041  -3.312  0.00  0.00    -0.083 NA
ATOM     29  C   UNL d   1      28.951 -14.927  -2.728  0.00  0.00     0.201 C 
BRANCH  29  30
ATOM     30  N   UNL d   1      28.092 -13.885  -2.548  0.00  0.00    -0.379 N 
ATOM     31  H   UNL d   1      28.078 -13.374  -1.655  0.00  0.00     0.158 HD
ATOM     32  H   UNL d   1      27.536 -13.421  -3.256  0.00  0.00     0.158 HD
ENDBRANCH  29  30
ENDBRANCH   1  25
TORSDOF 7
ENDMDL
