MODEL 1
REMARK VINA RESULT:    -9.299      0.000      0.000
REMARK INTER + INTRA:         -13.167
REMARK INTER:                 -11.685
REMARK INTRA:                  -1.482
REMARK CONF_INDEPENDENT:        2.386
REMARK UNBOUND:                -1.482
REMARK  8 active torsions:
REMARK  status: ('A' for Active; 'I' for Inactive)
REMARK    1  A    between atoms: C_5  and  N_6 
REMARK    2  A    between atoms: N_6  and  C_7 
REMARK    3  A    between atoms: C_7  and  C_8 
REMARK       I    between atoms: C_8  and  N_10 
REMARK    4  A    between atoms: N_10  and  N_11 
REMARK    5  A    between atoms: C_12  and  C_13 
REMARK    6  A    between atoms: C_16  and  O_17 
REMARK    7  A    between atoms: O_17  and  C_18 
REMARK    8  A    between atoms: C_18  and  C_20 
ROOT
ATOM      1  C   UNL d   1      27.190 -16.428  -1.410  0.00  0.00    -0.017 C 
ATOM      2  C   UNL d   1      26.055 -15.952  -2.095  0.00  0.00     0.015 C 
ATOM      3  C   UNL d   1      26.156 -15.537  -3.455  0.00  0.00     0.038 C 
ATOM      4  C   UNL d   1      27.414 -15.459  -4.055  0.00  0.00     0.079 C 
ATOM      5  C   UNL d   1      28.526 -15.706  -3.289  0.00  0.00     0.038 C 
ATOM      6  C   UNL d   1      28.378 -16.386  -2.106  0.00  0.00     0.015 C 
ENDROOT
BRANCH   1   7
ATOM      7  C   UNL d   1      27.155 -16.924   0.007  0.00  0.00     0.150 C 
ATOM      8  N   UNL d   1      26.302 -17.693   0.649  0.00  0.00    -0.184 NA
BRANCH   8   9
ATOM      9  N   UNL d   1      25.207 -18.224   0.024  0.00  0.00    -0.246 N 
ATOM     10  C   UNL d   1      24.064 -17.535  -0.348  0.00  0.00     0.255 C 
ATOM     11  O   UNL d   1      23.844 -16.342  -0.163  0.00  0.00    -0.270 OA
ATOM     12  H   UNL d   1      25.028 -19.196   0.129  0.00  0.00     0.192 HD
BRANCH  10  13
ATOM     13  C   UNL d   1      23.048 -18.487  -1.058  0.00  0.00     0.224 C 
BRANCH  13  14
ATOM     14  N   UNL d   1      21.686 -18.116  -0.706  0.00  0.00    -0.381 N 
ATOM     15  H   UNL d   1      21.424 -17.170  -0.978  0.00  0.00     0.160 HD
BRANCH  14  16
ATOM     16  C   UNL d   1      20.735 -18.960  -0.179  0.00  0.00     0.028 A 
ATOM     17  C   UNL d   1      19.733 -19.471  -1.017  0.00  0.00     0.029 A 
ATOM     18  C   UNL d   1      18.734 -20.325  -0.530  0.00  0.00     0.009 A 
ATOM     19  C   UNL d   1      18.711 -20.687   0.818  0.00  0.00    -0.062 A 
ATOM     20  C   UNL d   1      17.666 -21.614   1.361  0.00  0.00     0.048 C 
ATOM     21  C   UNL d   1      19.696 -20.175   1.665  0.00  0.00     0.009 A 
ATOM     22  C   UNL d   1      20.690 -19.322   1.170  0.00  0.00     0.029 A 
ENDBRANCH  14  16
ENDBRANCH  13  14
ENDBRANCH  10  13
ENDBRANCH   8   9
ENDBRANCH   1   7
BRANCH   4  23
ATOM     23  O   UNL d   1      27.589 -15.271  -5.462  0.00  0.00    -0.275 OA
BRANCH  23  24
ATOM     24  C   UNL d   1      28.809 -14.881  -6.121  0.00  0.00     0.298 C 
ATOM     25  O   UNL d   1      28.869 -13.886  -6.789  0.00  0.00    -0.259 OA
BRANCH  24  26
ATOM     26  C   UNL d   1      30.036 -15.744  -5.917  0.00  0.00     0.039 C 
ATOM     27  C   UNL d   1      31.133 -15.426  -5.134  0.00  0.00     0.016 C 
ATOM     28  C   UNL d   1      32.235 -16.332  -5.149  0.00  0.00     0.019 C 
ATOM     29  C   UNL d   1      32.038 -17.639  -5.654  0.00  0.00     0.157 C 
ATOM     30  C   UNL d   1      30.755 -18.025  -5.735  0.00  0.00     0.158 C 
ATOM     31  O   UNL d   1      32.496 -18.139  -6.963  0.00  0.00    -0.345 OA
ATOM     32  C   UNL d   1      30.033 -17.032  -6.383  0.00  0.00     0.035 C 
ATOM     33  O   UNL d   1      30.656 -19.338  -6.159  0.00  0.00    -0.345 OA
ATOM     34  C   UNL d   1      31.413 -19.101  -7.331  0.00  0.00     0.341 C 
ENDBRANCH  24  26
ENDBRANCH  23  24
ENDBRANCH   4  23
TORSDOF 8
ENDMDL
MODEL 2
REMARK VINA RESULT:    -9.266      4.086      9.522
REMARK INTER + INTRA:         -13.404
REMARK INTER:                 -11.652
REMARK INTRA:                  -1.751
REMARK CONF_INDEPENDENT:        2.386
REMARK UNBOUND:                -1.751
REMARK  8 active torsions:
REMARK  status: ('A' for Active; 'I' for Inactive)
REMARK    1  A    between atoms: C_5  and  N_6 
REMARK    2  A    between atoms: N_6  and  C_7 
REMARK    3  A    between atoms: C_7  and  C_8 
REMARK       I    between atoms: C_8  and  N_10 
REMARK    4  A    between atoms: N_10  and  N_11 
REMARK    5  A    between atoms: C_12  and  C_13 
REMARK    6  A    between atoms: C_16  and  O_17 
REMARK    7  A    between atoms: O_17  and  C_18 
REMARK    8  A    between atoms: C_18  and  C_20 
ROOT
ATOM      1  C   UNL d   1      27.421 -12.645  -6.120  0.00  0.00    -0.017 C 
ATOM      2  C   UNL d   1      26.285 -12.237  -5.395  0.00  0.00     0.015 C 
ATOM      3  C   UNL d   1      25.608 -13.153  -4.539  0.00  0.00     0.038 C 
ATOM      4  C   UNL d   1      25.983 -14.498  -4.543  0.00  0.00     0.079 C 
ATOM      5  C   UNL d   1      26.942 -14.912  -5.434  0.00  0.00     0.038 C 
ATOM      6  C   UNL d   1      27.766 -13.974  -6.004  0.00  0.00     0.015 C 
ENDROOT
BRANCH   1   7
ATOM      7  C   UNL d   1      28.212 -11.728  -7.006  0.00  0.00     0.150 C 
ATOM      8  N   UNL d   1      29.308 -11.914  -7.711  0.00  0.00    -0.184 NA
BRANCH   8   9
ATOM      9  N   UNL d   1      29.938 -13.128  -7.746  0.00  0.00    -0.246 N 
ATOM     10  C   UNL d   1      31.259 -13.374  -7.411  0.00  0.00     0.255 C 
ATOM     11  O   UNL d   1      32.081 -12.540  -7.042  0.00  0.00    -0.270 OA
ATOM     12  H   UNL d   1      29.581 -13.827  -8.356  0.00  0.00     0.192 HD
BRANCH  10  13
ATOM     13  C   UNL d   1      31.597 -14.892  -7.560  0.00  0.00     0.224 C 
BRANCH  13  14
ATOM     14  N   UNL d   1      30.421 -15.697  -7.272  0.00  0.00    -0.381 N 
ATOM     15  H   UNL d   1      29.551 -15.318  -7.643  0.00  0.00     0.160 HD
BRANCH  14  16
ATOM     16  C   UNL d   1      30.424 -16.939  -6.679  0.00  0.00     0.028 A 
ATOM     17  C   UNL d   1      30.061 -17.055  -5.330  0.00  0.00     0.029 A 
ATOM     18  C   UNL d   1      30.058 -18.293  -4.674  0.00  0.00     0.009 A 
ATOM     19  C   UNL d   1      30.425 -19.454  -5.357  0.00  0.00    -0.062 A 
ATOM     20  C   UNL d   1      30.412 -20.794  -4.685  0.00  0.00     0.048 C 
ATOM     21  C   UNL d   1      30.802 -19.350  -6.697  0.00  0.00     0.009 A 
ATOM     22  C   UNL d   1      30.802 -18.108  -7.344  0.00  0.00     0.029 A 
ENDBRANCH  14  16
ENDBRANCH  13  14
ENDBRANCH  10  13
ENDBRANCH   8   9
ENDBRANCH   1   7
BRANCH   4  23
ATOM     23  O   UNL d   1      25.518 -15.434  -3.566  0.00  0.00    -0.275 OA
BRANCH  23  24
ATOM     24  C   UNL d   1      26.279 -15.954  -2.459  0.00  0.00     0.298 C 
ATOM     25  O   UNL d   1      27.439 -15.686  -2.316  0.00  0.00    -0.259 OA
BRANCH  24  26
ATOM     26  C   UNL d   1      25.561 -16.825  -1.450  0.00  0.00     0.039 C 
ATOM     27  C   UNL d   1      26.086 -17.286  -0.254  0.00  0.00     0.016 C 
ATOM     28  C   UNL d   1      25.282 -18.179   0.515  0.00  0.00     0.019 C 
ATOM     29  C   UNL d   1      23.901 -18.276   0.224  0.00  0.00     0.157 C 
ATOM     30  C   UNL d   1      23.403 -17.262  -0.499  0.00  0.00     0.158 C 
ATOM     31  O   UNL d   1      23.242 -19.389  -0.484  0.00  0.00    -0.345 OA
ATOM     32  C   UNL d   1      24.221 -17.061  -1.603  0.00  0.00     0.035 C 
ATOM     33  O   UNL d   1      22.036 -17.394  -0.668  0.00  0.00    -0.345 OA
ATOM     34  C   UNL d   1      22.149 -18.690  -1.226  0.00  0.00     0.341 C 
ENDBRANCH  24  26
ENDBRANCH  23  24
ENDBRANCH   4  23
TORSDOF 8
ENDMDL
MODEL 3
REMARK VINA RESULT:    -8.913      2.423      5.189
REMARK INTER + INTRA:         -13.587
REMARK INTER:                 -11.299
REMARK INTRA:                  -2.287
REMARK CONF_INDEPENDENT:        2.386
REMARK UNBOUND:                -2.287
REMARK  8 active torsions:
REMARK  status: ('A' for Active; 'I' for Inactive)
REMARK    1  A    between atoms: C_5  and  N_6 
REMARK    2  A    between atoms: N_6  and  C_7 
REMARK    3  A    between atoms: C_7  and  C_8 
REMARK       I    between atoms: C_8  and  N_10 
REMARK    4  A    between atoms: N_10  and  N_11 
REMARK    5  A    between atoms: C_12  and  C_13 
REMARK    6  A    between atoms: C_16  and  O_17 
REMARK    7  A    between atoms: O_17  and  C_18 
REMARK    8  A    between atoms: C_18  and  C_20 
ROOT
ATOM      1  C   UNL d   1      30.568 -16.520  -2.882  0.00  0.00    -0.017 C 
ATOM      2  C   UNL d   1      30.960 -17.079  -4.114  0.00  0.00     0.015 C 
ATOM      3  C   UNL d   1      30.276 -16.728  -5.314  0.00  0.00     0.038 C 
ATOM      4  C   UNL d   1      29.121 -15.948  -5.241  0.00  0.00     0.079 C 
ATOM      5  C   UNL d   1      28.631 -15.611  -4.003  0.00  0.00     0.038 C 
ATOM      6  C   UNL d   1      29.462 -15.699  -2.915  0.00  0.00     0.015 C 
ENDROOT
BRANCH   1   7
ATOM      7  C   UNL d   1      31.266 -16.806  -1.583  0.00  0.00     0.150 C 
ATOM      8  N   UNL d   1      30.843 -17.337  -0.456  0.00  0.00    -0.184 NA
BRANCH   8   9
ATOM      9  N   UNL d   1      29.554 -17.771  -0.309  0.00  0.00    -0.246 N 
ATOM     10  C   UNL d   1      28.436 -16.969  -0.142  0.00  0.00     0.255 C 
ATOM     11  O   UNL d   1      28.425 -15.744  -0.083  0.00  0.00    -0.270 OA
ATOM     12  H   UNL d   1      29.400 -18.687   0.044  0.00  0.00     0.192 HD
BRANCH  10  13
ATOM     13  C   UNL d   1      27.142 -17.837  -0.032  0.00  0.00     0.224 C 
BRANCH  13  14
ATOM     14  N   UNL d   1      25.964 -17.005  -0.218  0.00  0.00    -0.381 N 
ATOM     15  H   UNL d   1      26.163 -16.011  -0.318  0.00  0.00     0.160 HD
BRANCH  14  16
ATOM     16  C   UNL d   1      24.677 -17.462  -0.394  0.00  0.00     0.028 A 
ATOM     17  C   UNL d   1      23.652 -16.541  -0.655  0.00  0.00     0.029 A 
ATOM     18  C   UNL d   1      22.324 -16.951  -0.830  0.00  0.00     0.009 A 
ATOM     19  C   UNL d   1      21.986 -18.302  -0.744  0.00  0.00    -0.062 A 
ATOM     20  C   UNL d   1      20.576 -18.771  -0.946  0.00  0.00     0.048 C 
ATOM     21  C   UNL d   1      22.995 -19.228  -0.470  0.00  0.00     0.009 A 
ATOM     22  C   UNL d   1      24.319 -18.809  -0.296  0.00  0.00     0.029 A 
ENDBRANCH  14  16
ENDBRANCH  13  14
ENDBRANCH  10  13
ENDBRANCH   8   9
ENDBRANCH   1   7
BRANCH   4  23
ATOM     23  O   UNL d   1      28.505 -15.367  -6.394  0.00  0.00    -0.275 OA
BRANCH  23  24
ATOM     24  C   UNL d   1      28.202 -13.971  -6.581  0.00  0.00     0.298 C 
ATOM     25  O   UNL d   1      28.593 -13.370  -7.543  0.00  0.00    -0.259 OA
BRANCH  24  26
ATOM     26  C   UNL d   1      27.338 -13.285  -5.545  0.00  0.00     0.039 C 
ATOM     27  C   UNL d   1      27.350 -11.934  -5.241  0.00  0.00     0.016 C 
ATOM     28  C   UNL d   1      26.528 -11.496  -4.160  0.00  0.00     0.019 C 
ATOM     29  C   UNL d   1      25.506 -12.353  -3.690  0.00  0.00     0.157 C 
ATOM     30  C   UNL d   1      25.165 -13.341  -4.532  0.00  0.00     0.158 C 
ATOM     31  O   UNL d   1      25.540 -13.137  -2.441  0.00  0.00    -0.345 OA
ATOM     32  C   UNL d   1      26.322 -13.985  -4.952  0.00  0.00     0.035 C 
ATOM     33  O   UNL d   1      24.108 -14.079  -4.032  0.00  0.00    -0.345 OA
ATOM     34  C   UNL d   1      24.777 -14.366  -2.817  0.00  0.00     0.341 C 
ENDBRANCH  24  26
ENDBRANCH  23  24
ENDBRANCH   4  23
TORSDOF 8
ENDMDL
MODEL 4
REMARK VINA RESULT:    -8.066      4.487      9.453
REMARK INTER + INTRA:         -13.407
REMARK INTER:                 -10.452
REMARK INTRA:                  -2.955
REMARK CONF_INDEPENDENT:        2.386
REMARK UNBOUND:                -2.955
REMARK  8 active torsions:
REMARK  status: ('A' for Active; 'I' for Inactive)
REMARK    1  A    between atoms: C_5  and  N_6 
REMARK    2  A    between atoms: N_6  and  C_7 
REMARK    3  A    between atoms: C_7  and  C_8 
REMARK       I    between atoms: C_8  and  N_10 
REMARK    4  A    between atoms: N_10  and  N_11 
REMARK    5  A    between atoms: C_12  and  C_13 
REMARK    6  A    between atoms: C_16  and  O_17 
REMARK    7  A    between atoms: O_17  and  C_18 
REMARK    8  A    between atoms: C_18  and  C_20 
ROOT
ATOM      1  C   UNL d   1      25.978 -10.911  -5.065  0.00  0.00    -0.017 C 
ATOM      2  C   UNL d   1      26.324 -10.707  -3.715  0.00  0.00     0.015 C 
ATOM      3  C   UNL d   1      26.275 -11.787  -2.787  0.00  0.00     0.038 C 
ATOM      4  C   UNL d   1      25.736 -13.011  -3.189  0.00  0.00     0.079 C 
ATOM      5  C   UNL d   1      25.192 -13.110  -4.446  0.00  0.00     0.038 C 
ATOM      6  C   UNL d   1      25.529 -12.172  -5.389  0.00  0.00     0.015 C 
ENDROOT
BRANCH   1   7
ATOM      7  C   UNL d   1      26.046  -9.835  -6.110  0.00  0.00     0.150 C 
ATOM      8  N   UNL d   1      26.815  -9.682  -7.166  0.00  0.00    -0.184 NA
BRANCH   8   9
ATOM      9  N   UNL d   1      27.761 -10.611  -7.503  0.00  0.00    -0.246 N 
ATOM     10  C   UNL d   1      27.697 -11.492  -8.571  0.00  0.00     0.255 C 
ATOM     11  O   UNL d   1      26.777 -11.589  -9.377  0.00  0.00    -0.270 OA
ATOM     12  H   UNL d   1      28.369 -10.946  -6.792  0.00  0.00     0.192 HD
BRANCH  10  13
ATOM     13  C   UNL d   1      28.981 -12.381  -8.635  0.00  0.00     0.224 C 
BRANCH  13  14
ATOM     14  N   UNL d   1      28.732 -13.664  -7.998  0.00  0.00    -0.381 N 
ATOM     15  H   UNL d   1      28.609 -14.439  -8.647  0.00  0.00     0.160 HD
BRANCH  14  16
ATOM     16  C   UNL d   1      28.785 -13.912  -6.645  0.00  0.00     0.028 A 
ATOM     17  C   UNL d   1      28.548 -15.213  -6.177  0.00  0.00     0.029 A 
ATOM     18  C   UNL d   1      28.578 -15.519  -4.810  0.00  0.00     0.009 A 
ATOM     19  C   UNL d   1      28.842 -14.521  -3.870  0.00  0.00    -0.062 A 
ATOM     20  C   UNL d   1      28.899 -14.823  -2.403  0.00  0.00     0.048 C 
ATOM     21  C   UNL d   1      29.066 -13.219  -4.322  0.00  0.00     0.009 A 
ATOM     22  C   UNL d   1      29.034 -12.923  -5.690  0.00  0.00     0.029 A 
ENDBRANCH  14  16
ENDBRANCH  13  14
ENDBRANCH  10  13
ENDBRANCH   8   9
ENDBRANCH   1   7
BRANCH   4  23
ATOM     23  O   UNL d   1      25.851 -14.202  -2.405  0.00  0.00    -0.275 OA
BRANCH  23  24
ATOM     24  C   UNL d   1      25.533 -15.538  -2.840  0.00  0.00     0.298 C 
ATOM     25  O   UNL d   1      25.530 -15.833  -4.003  0.00  0.00    -0.259 OA
BRANCH  24  26
ATOM     26  C   UNL d   1      25.239 -16.579  -1.781  0.00  0.00     0.039 C 
ATOM     27  C   UNL d   1      26.129 -17.043  -0.827  0.00  0.00     0.016 C 
ATOM     28  C   UNL d   1      25.688 -18.101   0.023  0.00  0.00     0.019 C 
ATOM     29  C   UNL d   1      24.304 -18.383   0.100  0.00  0.00     0.157 C 
ATOM     30  C   UNL d   1      23.502 -17.404  -0.348  0.00  0.00     0.158 C 
ATOM     31  O   UNL d   1      23.618 -19.527  -0.529  0.00  0.00    -0.345 OA
ATOM     32  C   UNL d   1      23.949 -17.002  -1.599  0.00  0.00     0.035 C 
ATOM     33  O   UNL d   1      22.170 -17.727  -0.161  0.00  0.00    -0.345 OA
ATOM     34  C   UNL d   1      22.283 -18.947  -0.871  0.00  0.00     0.341 C 
ENDBRANCH  24  26
ENDBRANCH  23  24
ENDBRANCH   4  23
TORSDOF 8
ENDMDL
MODEL 5
REMARK VINA RESULT:    -8.045      3.229      8.622
REMARK INTER + INTRA:         -13.414
REMARK INTER:                 -10.431
REMARK INTRA:                  -2.983
REMARK CONF_INDEPENDENT:        2.386
REMARK UNBOUND:                -2.983
REMARK  8 active torsions:
REMARK  status: ('A' for Active; 'I' for Inactive)
REMARK    1  A    between atoms: C_5  and  N_6 
REMARK    2  A    between atoms: N_6  and  C_7 
REMARK    3  A    between atoms: C_7  and  C_8 
REMARK       I    between atoms: C_8  and  N_10 
REMARK    4  A    between atoms: N_10  and  N_11 
REMARK    5  A    between atoms: C_12  and  C_13 
REMARK    6  A    between atoms: C_16  and  O_17 
REMARK    7  A    between atoms: O_17  and  C_18 
REMARK    8  A    between atoms: C_18  and  C_20 
ROOT
ATOM      1  C   UNL d   1      27.779 -13.826  -6.014  0.00  0.00    -0.017 C 
ATOM      2  C   UNL d   1      27.000 -12.792  -5.457  0.00  0.00     0.015 C 
ATOM      3  C   UNL d   1      25.976 -13.091  -4.512  0.00  0.00     0.038 C 
ATOM      4  C   UNL d   1      25.646 -14.423  -4.258  0.00  0.00     0.079 C 
ATOM      5  C   UNL d   1      26.265 -15.407  -4.990  0.00  0.00     0.038 C 
ATOM      6  C   UNL d   1      27.433 -15.107  -5.647  0.00  0.00     0.015 C 
ENDROOT
BRANCH   1   7
ATOM      7  C   UNL d   1      28.903 -13.587  -6.980  0.00  0.00     0.150 C 
ATOM      8  N   UNL d   1      30.148 -14.012  -7.003  0.00  0.00    -0.184 NA
BRANCH   8   9
ATOM      9  N   UNL d   1      30.637 -14.847  -6.036  0.00  0.00    -0.246 N 
ATOM     10  C   UNL d   1      30.586 -16.232  -6.050  0.00  0.00     0.255 C 
ATOM     11  O   UNL d   1      30.082 -16.930  -6.924  0.00  0.00    -0.270 OA
ATOM     12  H   UNL d   1      30.729 -14.496  -5.111  0.00  0.00     0.192 HD
BRANCH  10  13
ATOM     13  C   UNL d   1      31.271 -16.825  -4.777  0.00  0.00     0.224 C 
BRANCH  13  14
ATOM     14  N   UNL d   1      30.269 -17.394  -3.889  0.00  0.00    -0.381 N 
ATOM     15  H   UNL d   1      30.027 -18.362  -4.093  0.00  0.00     0.160 HD
BRANCH  14  16
ATOM     16  C   UNL d   1      29.752 -16.785  -2.768  0.00  0.00     0.028 A 
ATOM     17  C   UNL d   1      29.408 -15.427  -2.822  0.00  0.00     0.029 A 
ATOM     18  C   UNL d   1      28.889 -14.755  -1.708  0.00  0.00     0.009 A 
ATOM     19  C   UNL d   1      28.704 -15.432  -0.501  0.00  0.00    -0.062 A 
ATOM     20  C   UNL d   1      28.132 -14.744   0.702  0.00  0.00     0.048 C 
ATOM     21  C   UNL d   1      29.055 -16.781  -0.429  0.00  0.00     0.009 A 
ATOM     22  C   UNL d   1      29.573 -17.444  -1.549  0.00  0.00     0.029 A 
ENDBRANCH  14  16
ENDBRANCH  13  14
ENDBRANCH  10  13
ENDBRANCH   8   9
ENDBRANCH   1   7
BRANCH   4  23
ATOM     23  O   UNL d   1      24.800 -14.818  -3.175  0.00  0.00    -0.275 OA
BRANCH  23  24
ATOM     24  C   UNL d   1      25.225 -15.125  -1.833  0.00  0.00     0.298 C 
ATOM     25  O   UNL d   1      25.867 -14.344  -1.186  0.00  0.00    -0.259 OA
BRANCH  24  26
ATOM     26  C   UNL d   1      24.805 -16.453  -1.240  0.00  0.00     0.039 C 
ATOM     27  C   UNL d   1      25.620 -17.322  -0.534  0.00  0.00     0.016 C 
ATOM     28  C   UNL d   1      25.060 -18.574  -0.140  0.00  0.00     0.019 C 
ATOM     29  C   UNL d   1      23.655 -18.731  -0.168  0.00  0.00     0.157 C 
ATOM     30  C   UNL d   1      22.958 -17.585  -0.212  0.00  0.00     0.158 C 
ATOM     31  O   UNL d   1      22.889 -19.487  -1.176  0.00  0.00    -0.345 OA
ATOM     32  C   UNL d   1      23.478 -16.789  -1.223  0.00  0.00     0.035 C 
ATOM     33  O   UNL d   1      21.598 -17.827  -0.154  0.00  0.00    -0.345 OA
ATOM     34  C   UNL d   1      21.623 -18.698  -1.270  0.00  0.00     0.341 C 
ENDBRANCH  24  26
ENDBRANCH  23  24
ENDBRANCH   4  23
TORSDOF 8
ENDMDL
MODEL 6
REMARK VINA RESULT:    -7.815      3.546      8.378
REMARK INTER + INTRA:         -13.349
REMARK INTER:                 -10.202
REMARK INTRA:                  -3.147
REMARK CONF_INDEPENDENT:        2.386
REMARK UNBOUND:                -3.147
REMARK  8 active torsions:
REMARK  status: ('A' for Active; 'I' for Inactive)
REMARK    1  A    between atoms: C_5  and  N_6 
REMARK    2  A    between atoms: N_6  and  C_7 
REMARK    3  A    between atoms: C_7  and  C_8 
REMARK       I    between atoms: C_8  and  N_10 
REMARK    4  A    between atoms: N_10  and  N_11 
REMARK    5  A    between atoms: C_12  and  C_13 
REMARK    6  A    between atoms: C_16  and  O_17 
REMARK    7  A    between atoms: O_17  and  C_18 
REMARK    8  A    between atoms: C_18  and  C_20 
ROOT
ATOM      1  C   UNL d   1      28.658 -13.388   0.905  0.00  0.00    -0.017 C 
ATOM      2  C   UNL d   1      27.422 -13.937   1.297  0.00  0.00     0.015 C 
ATOM      3  C   UNL d   1      26.390 -14.148   0.337  0.00  0.00     0.038 C 
ATOM      4  C   UNL d   1      26.555 -13.665  -0.962  0.00  0.00     0.079 C 
ATOM      5  C   UNL d   1      27.675 -12.927  -1.254  0.00  0.00     0.038 C 
ATOM      6  C   UNL d   1      28.759 -13.010  -0.416  0.00  0.00     0.015 C 
ENDROOT
BRANCH   1   7
ATOM      7  C   UNL d   1      29.807 -13.176   1.848  0.00  0.00     0.150 C 
ATOM      8  N   UNL d   1      30.798 -13.960   2.217  0.00  0.00    -0.184 NA
BRANCH   8   9
ATOM      9  N   UNL d   1      30.937 -15.223   1.710  0.00  0.00    -0.246 N 
ATOM     10  C   UNL d   1      31.405 -15.551   0.448  0.00  0.00     0.255 C 
ATOM     11  O   UNL d   1      31.756 -14.760  -0.423  0.00  0.00    -0.270 OA
ATOM     12  H   UNL d   1      30.373 -15.949   2.088  0.00  0.00     0.192 HD
BRANCH  10  13
ATOM     13  C   UNL d   1      31.438 -17.100   0.252  0.00  0.00     0.224 C 
BRANCH  13  14
ATOM     14  N   UNL d   1      30.305 -17.527  -0.554  0.00  0.00    -0.381 N 
ATOM     15  H   UNL d   1      29.663 -18.157  -0.077  0.00  0.00     0.160 HD
BRANCH  14  16
ATOM     16  C   UNL d   1      29.989 -17.054  -1.807  0.00  0.00     0.028 A 
ATOM     17  C   UNL d   1      29.124 -15.956  -1.928  0.00  0.00     0.029 A 
ATOM     18  C   UNL d   1      28.760 -15.442  -3.179  0.00  0.00     0.009 A 
ATOM     19  C   UNL d   1      29.252 -16.021  -4.350  0.00  0.00    -0.062 A 
ATOM     20  C   UNL d   1      28.895 -15.479  -5.701  0.00  0.00     0.048 C 
ATOM     21  C   UNL d   1      30.103 -17.123  -4.244  0.00  0.00     0.009 A 
ATOM     22  C   UNL d   1      30.462 -17.630  -2.989  0.00  0.00     0.029 A 
ENDBRANCH  14  16
ENDBRANCH  13  14
ENDBRANCH  10  13
ENDBRANCH   8   9
ENDBRANCH   1   7
BRANCH   4  23
ATOM     23  O   UNL d   1      25.681 -14.023  -2.037  0.00  0.00    -0.275 OA
BRANCH  23  24
ATOM     24  C   UNL d   1      25.525 -15.339  -2.602  0.00  0.00     0.298 C 
ATOM     25  O   UNL d   1      25.610 -15.526  -3.784  0.00  0.00    -0.259 OA
BRANCH  24  26
ATOM     26  C   UNL d   1      25.287 -16.496  -1.656  0.00  0.00     0.039 C 
ATOM     27  C   UNL d   1      26.244 -17.111  -0.866  0.00  0.00     0.016 C 
ATOM     28  C   UNL d   1      25.838 -18.253  -0.112  0.00  0.00     0.019 C 
ATOM     29  C   UNL d   1      24.457 -18.490   0.076  0.00  0.00     0.157 C 
ATOM     30  C   UNL d   1      23.664 -17.433  -0.159  0.00  0.00     0.158 C 
ATOM     31  O   UNL d   1      23.654 -19.517  -0.613  0.00  0.00    -0.345 OA
ATOM     32  C   UNL d   1      24.002 -16.890  -1.391  0.00  0.00     0.035 C 
ATOM     33  O   UNL d   1      22.343 -17.728   0.127  0.00  0.00    -0.345 OA
ATOM     34  C   UNL d   1      22.323 -18.849  -0.737  0.00  0.00     0.341 C 
ENDBRANCH  24  26
ENDBRANCH  23  24
ENDBRANCH   4  23
TORSDOF 8
ENDMDL
MODEL 7
REMARK VINA RESULT:    -7.810      2.783      5.661
REMARK INTER + INTRA:         -14.019
REMARK INTER:                 -10.196
REMARK INTRA:                  -3.822
REMARK CONF_INDEPENDENT:        2.386
REMARK UNBOUND:                -3.822
REMARK  8 active torsions:
REMARK  status: ('A' for Active; 'I' for Inactive)
REMARK    1  A    between atoms: C_5  and  N_6 
REMARK    2  A    between atoms: N_6  and  C_7 
REMARK    3  A    between atoms: C_7  and  C_8 
REMARK       I    between atoms: C_8  and  N_10 
REMARK    4  A    between atoms: N_10  and  N_11 
REMARK    5  A    between atoms: C_12  and  C_13 
REMARK    6  A    between atoms: C_16  and  O_17 
REMARK    7  A    between atoms: O_17  and  C_18 
REMARK    8  A    between atoms: C_18  and  C_20 
ROOT
ATOM      1  C   UNL d   1      31.015 -16.369  -3.023  0.00  0.00    -0.017 C 
ATOM      2  C   UNL d   1      31.019 -15.066  -3.559  0.00  0.00     0.015 C 
ATOM      3  C   UNL d   1      30.078 -14.698  -4.564  0.00  0.00     0.038 C 
ATOM      4  C   UNL d   1      29.256 -15.677  -5.124  0.00  0.00     0.079 C 
ATOM      5  C   UNL d   1      29.437 -16.985  -4.746  0.00  0.00     0.038 C 
ATOM      6  C   UNL d   1      30.117 -17.250  -3.583  0.00  0.00     0.015 C 
ENDROOT
BRANCH   1   7
ATOM      7  C   UNL d   1      31.944 -16.819  -1.932  0.00  0.00     0.150 C 
ATOM      8  N   UNL d   1      31.719 -17.331  -0.741  0.00  0.00    -0.184 NA
BRANCH   8   9
ATOM      9  N   UNL d   1      30.449 -17.567  -0.293  0.00  0.00    -0.246 N 
ATOM     10  C   UNL d   1      29.377 -16.692  -0.372  0.00  0.00     0.255 C 
ATOM     11  O   UNL d   1      29.400 -15.559  -0.843  0.00  0.00    -0.270 OA
ATOM     12  H   UNL d   1      30.320 -18.234   0.433  0.00  0.00     0.192 HD
BRANCH  10  13
ATOM     13  C   UNL d   1      28.088 -17.336   0.230  0.00  0.00     0.224 C 
BRANCH  13  14
ATOM     14  N   UNL d   1      26.912 -16.594  -0.197  0.00  0.00    -0.381 N 
ATOM     15  H   UNL d   1      27.105 -15.645  -0.512  0.00  0.00     0.160 HD
BRANCH  14  16
ATOM     16  C   UNL d   1      25.641 -17.107  -0.323  0.00  0.00     0.028 A 
ATOM     17  C   UNL d   1      24.604 -16.270  -0.759  0.00  0.00     0.029 A 
ATOM     18  C   UNL d   1      23.290 -16.738  -0.894  0.00  0.00     0.009 A 
ATOM     19  C   UNL d   1      22.979 -18.064  -0.590  0.00  0.00    -0.062 A 
ATOM     20  C   UNL d   1      21.586 -18.596  -0.744  0.00  0.00     0.048 C 
ATOM     21  C   UNL d   1      24.000 -18.904  -0.142  0.00  0.00     0.009 A 
ATOM     22  C   UNL d   1      25.310 -18.428  -0.010  0.00  0.00     0.029 A 
ENDBRANCH  14  16
ENDBRANCH  13  14
ENDBRANCH  10  13
ENDBRANCH   8   9
ENDBRANCH   1   7
BRANCH   4  23
ATOM     23  O   UNL d   1      28.143 -15.364  -5.965  0.00  0.00    -0.275 OA
BRANCH  23  24
ATOM     24  C   UNL d   1      26.777 -15.198  -5.539  0.00  0.00     0.298 C 
ATOM     25  O   UNL d   1      25.903 -15.913  -5.944  0.00  0.00    -0.259 OA
BRANCH  24  26
ATOM     26  C   UNL d   1      26.474 -14.112  -4.528  0.00  0.00     0.039 C 
ATOM     27  C   UNL d   1      25.597 -13.056  -4.707  0.00  0.00     0.016 C 
ATOM     28  C   UNL d   1      25.524 -12.079  -3.669  0.00  0.00     0.019 C 
ATOM     29  C   UNL d   1      26.055 -12.395  -2.397  0.00  0.00     0.157 C 
ATOM     30  C   UNL d   1      26.251 -13.704  -2.175  0.00  0.00     0.158 C 
ATOM     31  O   UNL d   1      27.324 -11.891  -1.840  0.00  0.00    -0.345 OA
ATOM     32  C   UNL d   1      26.950 -14.237  -3.250  0.00  0.00     0.035 C 
ATOM     33  O   UNL d   1      26.693 -13.930  -0.885  0.00  0.00    -0.345 OA
ATOM     34  C   UNL d   1      27.793 -13.050  -1.021  0.00  0.00     0.341 C 
ENDBRANCH  24  26
ENDBRANCH  23  24
ENDBRANCH   4  23
TORSDOF 8
ENDMDL
MODEL 8
REMARK VINA RESULT:    -7.472      3.163      5.233
REMARK INTER + INTRA:         -13.713
REMARK INTER:                  -9.858
REMARK INTRA:                  -3.855
REMARK CONF_INDEPENDENT:        2.386
REMARK UNBOUND:                -3.855
REMARK  8 active torsions:
REMARK  status: ('A' for Active; 'I' for Inactive)
REMARK    1  A    between atoms: C_5  and  N_6 
REMARK    2  A    between atoms: N_6  and  C_7 
REMARK    3  A    between atoms: C_7  and  C_8 
REMARK       I    between atoms: C_8  and  N_10 
REMARK    4  A    between atoms: N_10  and  N_11 
REMARK    5  A    between atoms: C_12  and  C_13 
REMARK    6  A    between atoms: C_16  and  O_17 
REMARK    7  A    between atoms: O_17  and  C_18 
REMARK    8  A    between atoms: C_18  and  C_20 
ROOT
ATOM      1  C   UNL d   1      29.560 -12.810  -0.377  0.00  0.00    -0.017 C 
ATOM      2  C   UNL d   1      28.340 -12.465   0.237  0.00  0.00     0.015 C 
ATOM      3  C   UNL d   1      27.382 -11.672  -0.459  0.00  0.00     0.038 C 
ATOM      4  C   UNL d   1      27.722 -11.111  -1.691  0.00  0.00     0.079 C 
ATOM      5  C   UNL d   1      29.004 -11.274  -2.157  0.00  0.00     0.038 C 
ATOM      6  C   UNL d   1      29.780 -12.274  -1.626  0.00  0.00     0.015 C 
ENDROOT
BRANCH   1   7
ATOM      7  C   UNL d   1      30.599 -13.677   0.274  0.00  0.00     0.150 C 
ATOM      8  N   UNL d   1      30.531 -14.872   0.820  0.00  0.00    -0.184 NA
BRANCH   8   9
ATOM      9  N   UNL d   1      29.360 -15.577   0.854  0.00  0.00    -0.246 N 
ATOM     10  C   UNL d   1      28.494 -15.776  -0.210  0.00  0.00     0.255 C 
ATOM     11  O   UNL d   1      28.632 -15.338  -1.348  0.00  0.00    -0.270 OA
ATOM     12  H   UNL d   1      28.893 -15.678   1.725  0.00  0.00     0.192 HD
BRANCH  10  13
ATOM     13  C   UNL d   1      27.276 -16.654   0.222  0.00  0.00     0.224 C 
BRANCH  13  14
ATOM     14  N   UNL d   1      26.214 -16.557  -0.767  0.00  0.00    -0.381 N 
ATOM     15  H   UNL d   1      26.494 -16.119  -1.643  0.00  0.00     0.160 HD
BRANCH  14  16
ATOM     16  C   UNL d   1      24.958 -17.109  -0.654  0.00  0.00     0.028 A 
ATOM     17  C   UNL d   1      24.833 -18.461  -0.305  0.00  0.00     0.029 A 
ATOM     18  C   UNL d   1      23.580 -19.076  -0.187  0.00  0.00     0.009 A 
ATOM     19  C   UNL d   1      22.412 -18.348  -0.421  0.00  0.00    -0.062 A 
ATOM     20  C   UNL d   1      21.058 -18.975  -0.283  0.00  0.00     0.048 C 
ATOM     21  C   UNL d   1      22.523 -17.004  -0.782  0.00  0.00     0.009 A 
ATOM     22  C   UNL d   1      23.780 -16.398  -0.898  0.00  0.00     0.029 A 
ENDBRANCH  14  16
ENDBRANCH  13  14
ENDBRANCH  10  13
ENDBRANCH   8   9
ENDBRANCH   1   7
BRANCH   4  23
ATOM     23  O   UNL d   1      26.761 -10.497  -2.553  0.00  0.00    -0.275 OA
BRANCH  23  24
ATOM     24  C   UNL d   1      26.100 -11.124  -3.669  0.00  0.00     0.298 C 
ATOM     25  O   UNL d   1      25.641 -10.476  -4.569  0.00  0.00    -0.259 OA
BRANCH  24  26
ATOM     26  C   UNL d   1      26.030 -12.636  -3.698  0.00  0.00     0.039 C 
ATOM     27  C   UNL d   1      24.988 -13.411  -3.217  0.00  0.00     0.016 C 
ATOM     28  C   UNL d   1      25.156 -14.828  -3.246  0.00  0.00     0.019 C 
ATOM     29  C   UNL d   1      26.178 -15.377  -4.055  0.00  0.00     0.157 C 
ATOM     30  C   UNL d   1      26.659 -14.551  -4.997  0.00  0.00     0.158 C 
ATOM     31  O   UNL d   1      27.460 -15.926  -3.576  0.00  0.00    -0.345 OA
ATOM     32  C   UNL d   1      26.972 -13.336  -4.403  0.00  0.00     0.035 C 
ATOM     33  O   UNL d   1      27.592 -15.191  -5.793  0.00  0.00    -0.345 OA
ATOM     34  C   UNL d   1      28.393 -15.569  -4.688  0.00  0.00     0.341 C 
ENDBRANCH  24  26
ENDBRANCH  23  24
ENDBRANCH   4  23
TORSDOF 8
ENDMDL
MODEL 9
REMARK VINA RESULT:    -7.024      3.730      5.617
REMARK INTER + INTRA:         -13.328
REMARK INTER:                  -9.410
REMARK INTRA:                  -3.918
REMARK CONF_INDEPENDENT:        2.386
REMARK UNBOUND:                -3.918
REMARK  8 active torsions:
REMARK  status: ('A' for Active; 'I' for Inactive)
REMARK    1  A    between atoms: C_5  and  N_6 
REMARK    2  A    between atoms: N_6  and  C_7 
REMARK    3  A    between atoms: C_7  and  C_8 
REMARK       I    between atoms: C_8  and  N_10 
REMARK    4  A    between atoms: N_10  and  N_11 
REMARK    5  A    between atoms: C_12  and  C_13 
REMARK    6  A    between atoms: C_16  and  O_17 
REMARK    7  A    between atoms: O_17  and  C_18 
REMARK    8  A    between atoms: C_18  and  C_20 
ROOT
ATOM      1  C   UNL d   1      28.681 -13.473   0.236  0.00  0.00    -0.017 C 
ATOM      2  C   UNL d   1      27.364 -13.778   0.629  0.00  0.00     0.015 C 
ATOM      3  C   UNL d   1      26.281 -13.600  -0.280  0.00  0.00     0.038 C 
ATOM      4  C   UNL d   1      26.513 -12.976  -1.507  0.00  0.00     0.079 C 
ATOM      5  C   UNL d   1      27.766 -12.478  -1.767  0.00  0.00     0.038 C 
ATOM      6  C   UNL d   1      28.827 -12.932  -1.022  0.00  0.00     0.015 C 
ENDROOT
BRANCH   1   7
ATOM      7  C   UNL d   1      29.878 -13.675   1.121  0.00  0.00     0.150 C 
ATOM      8  N   UNL d   1      30.686 -14.700   1.285  0.00  0.00    -0.184 NA
BRANCH   8   9
ATOM      9  N   UNL d   1      30.534 -15.854   0.567  0.00  0.00    -0.246 N 
ATOM     10  C   UNL d   1      30.576 -15.970  -0.813  0.00  0.00     0.255 C 
ATOM     11  O   UNL d   1      30.743 -15.054  -1.613  0.00  0.00    -0.270 OA
ATOM     12  H   UNL d   1      30.028 -16.604   0.979  0.00  0.00     0.192 HD
BRANCH  10  13
ATOM     13  C   UNL d   1      30.381 -17.457  -1.252  0.00  0.00     0.224 C 
BRANCH  13  14
ATOM     14  N   UNL d   1      29.276 -18.054  -0.518  0.00  0.00    -0.381 N 
ATOM     15  H   UNL d   1      29.558 -18.737   0.182  0.00  0.00     0.160 HD
BRANCH  14  16
ATOM     16  C   UNL d   1      27.955 -17.678  -0.610  0.00  0.00     0.028 A 
ATOM     17  C   UNL d   1      27.025 -18.219   0.289  0.00  0.00     0.029 A 
ATOM     18  C   UNL d   1      25.667 -17.880   0.233  0.00  0.00     0.009 A 
ATOM     19  C   UNL d   1      25.202 -16.988  -0.735  0.00  0.00    -0.062 A 
ATOM     20  C   UNL d   1      23.758 -16.593  -0.806  0.00  0.00     0.048 C 
ATOM     21  C   UNL d   1      26.116 -16.453  -1.645  0.00  0.00     0.009 A 
ATOM     22  C   UNL d   1      27.471 -16.798  -1.581  0.00  0.00     0.029 A 
ENDBRANCH  14  16
ENDBRANCH  13  14
ENDBRANCH  10  13
ENDBRANCH   8   9
ENDBRANCH   1   7
BRANCH   4  23
ATOM     23  O   UNL d   1      25.546 -12.957  -2.561  0.00  0.00    -0.275 OA
BRANCH  23  24
ATOM     24  C   UNL d   1      25.494 -13.860  -3.682  0.00  0.00     0.298 C 
ATOM     25  O   UNL d   1      24.488 -14.450  -3.965  0.00  0.00    -0.259 OA
BRANCH  24  26
ATOM     26  C   UNL d   1      26.742 -14.020  -4.524  0.00  0.00     0.039 C 
ATOM     27  C   UNL d   1      27.164 -13.158  -5.523  0.00  0.00     0.016 C 
ATOM     28  C   UNL d   1      28.318 -13.537  -6.272  0.00  0.00     0.019 C 
ATOM     29  C   UNL d   1      29.162 -14.550  -5.760  0.00  0.00     0.157 C 
ATOM     30  C   UNL d   1      29.005 -14.808  -4.452  0.00  0.00     0.158 C 
ATOM     31  O   UNL d   1      29.239 -15.940  -6.246  0.00  0.00    -0.345 OA
ATOM     32  C   UNL d   1      27.653 -14.987  -4.194  0.00  0.00     0.035 C 
ATOM     33  O   UNL d   1      29.921 -15.749  -4.017  0.00  0.00    -0.345 OA
ATOM     34  C   UNL d   1      29.530 -16.699  -4.991  0.00  0.00     0.341 C 
ENDBRANCH  24  26
ENDBRANCH  23  24
ENDBRANCH   4  23
TORSDOF 8
ENDMDL
