MODEL 1
REMARK VINA RESULT:    -7.345      0.000      0.000
REMARK INTER + INTRA:         -10.162
REMARK INTER:                  -9.433
REMARK INTRA:                  -0.729
REMARK CONF_INDEPENDENT:        2.088
REMARK UNBOUND:                -0.729
REMARK  7 active torsions:
REMARK  status: ('A' for Active; 'I' for Inactive)
REMARK    1  A    between atoms: C_2  and  N_15 
REMARK    2  A    between atoms: C_3  and  C_4 
REMARK       I    between atoms: C_4  and  N_6 
REMARK    3  A    between atoms: N_6  and  C_7 
REMARK    4  A    between atoms: N_15  and  N_16 
REMARK       I    between atoms: N_16  and  C_17 
REMARK    5  A    between atoms: C_17  and  C_19 
REMARK    6  A    between atoms: C_21  and  N_22 
REMARK    7  A    between atoms: C_24  and  N_25 
ROOT
ATOM      1  N   UNL d   1      28.427 -14.729   1.713  0.00  0.00    -0.302 N 
ATOM      2  H   UNL d   1      28.915 -15.635   1.717  0.00  0.00     0.186 HD
ENDROOT
BRANCH   1   3
ATOM      3  C   UNL d   1      28.159 -14.125   2.954  0.00  0.00     0.027 C 
ATOM      4  C   UNL d   1      27.689 -12.668   2.847  0.00  0.00     0.070 C 
ATOM      5  C   UNL d   1      28.283 -14.762   4.149  0.00  0.00     0.100 C 
BRANCH   5   6
ATOM      6  C   UNL d   1      28.102 -14.116   5.488  0.00  0.00     0.247 C 
ATOM      7  O   UNL d   1      27.060 -13.521   5.766  0.00  0.00    -0.268 OA
ATOM      8  N   UNL d   1      29.183 -14.127   6.356  0.00  0.00    -0.323 N 
ATOM      9  H   UNL d   1      30.115 -14.114   5.962  0.00  0.00     0.169 HD
BRANCH   8  10
ATOM     10  C   UNL d   1      29.007 -13.663   7.695  0.00  0.00     0.041 A 
ATOM     11  C   UNL d   1      28.986 -14.579   8.760  0.00  0.00     0.032 A 
ATOM     12  C   UNL d   1      28.860 -14.124  10.085  0.00  0.00     0.026 A 
ATOM     13  C   UNL d   1      28.707 -12.766  10.347  0.00  0.00     0.034 A 
ATOM     14 CL   UNL d   1      28.528 -12.200  11.963  0.00  0.00    -0.084 Cl
ATOM     15  C   UNL d   1      28.692 -11.854   9.300  0.00  0.00     0.032 A 
ATOM     16  C   UNL d   1      28.851 -12.284   7.970  0.00  0.00    -0.034 A 
ATOM     17  C   UNL d   1      28.806 -11.231   6.894  0.00  0.00     0.050 C 
ENDBRANCH   8  10
ENDBRANCH   5   6
ENDBRANCH   1   3
BRANCH   1  18
ATOM     18  N   UNL d   1      28.003 -14.274   0.451  0.00  0.00    -0.266 N 
ATOM     19  C   UNL d   1      27.189 -15.060  -0.359  0.00  0.00     0.270 C 
ATOM     20  O   UNL d   1      26.789 -16.183  -0.065  0.00  0.00    -0.266 OA
ATOM     21  H   UNL d   1      28.201 -13.312   0.221  0.00  0.00     0.190 HD
BRANCH  19  22
ATOM     22  C   UNL d   1      26.787 -14.448  -1.673  0.00  0.00     0.038 A 
ATOM     23  C   UNL d   1      26.380 -13.104  -1.747  0.00  0.00     0.046 A 
ATOM     24  C   UNL d   1      26.068 -12.501  -2.978  0.00  0.00     0.029 A 
ATOM     25  C   UNL d   1      26.105 -13.273  -4.141  0.00  0.00     0.065 A 
ATOM     26  C   UNL d   1      26.509 -14.614  -4.080  0.00  0.00     0.106 A 
ATOM     27  C   UNL d   1      26.864 -15.205  -2.853  0.00  0.00     0.053 A 
BRANCH  24  28
ATOM     28  N   UNL d   1      25.531 -11.216  -3.013  0.00  0.00    -0.399 N 
ATOM     29  H   UNL d   1      26.146 -10.432  -2.826  0.00  0.00     0.156 HD
ATOM     30  H   UNL d   1      24.803 -11.023  -3.696  0.00  0.00     0.156 HD
ENDBRANCH  24  28
BRANCH  26  31
ATOM     31  N   UNL d   1      26.542 -15.407  -5.320  0.00  0.00    -0.116 N 
ATOM     32  O   UNL d   1      25.533 -16.066  -5.612  0.00  0.00    -0.532 OA
ATOM     33  O   UNL d   1      27.579 -15.377  -5.996  0.00  0.00    -0.532 OA
ENDBRANCH  26  31
ENDBRANCH  19  22
ENDBRANCH   1  18
TORSDOF 7
ENDMDL
MODEL 2
REMARK VINA RESULT:    -7.164      1.728      2.321
REMARK INTER + INTRA:         -10.189
REMARK INTER:                  -9.252
REMARK INTRA:                  -0.937
REMARK CONF_INDEPENDENT:        2.088
REMARK UNBOUND:                -0.937
REMARK  7 active torsions:
REMARK  status: ('A' for Active; 'I' for Inactive)
REMARK    1  A    between atoms: C_2  and  N_15 
REMARK    2  A    between atoms: C_3  and  C_4 
REMARK       I    between atoms: C_4  and  N_6 
REMARK    3  A    between atoms: N_6  and  C_7 
REMARK    4  A    between atoms: N_15  and  N_16 
REMARK       I    between atoms: N_16  and  C_17 
REMARK    5  A    between atoms: C_17  and  C_19 
REMARK    6  A    between atoms: C_21  and  N_22 
REMARK    7  A    between atoms: C_24  and  N_25 
ROOT
ATOM      1  N   UNL d   1      29.080 -14.825   2.103  0.00  0.00    -0.302 N 
ATOM      2  H   UNL d   1      30.006 -15.209   1.870  0.00  0.00     0.186 HD
ENDROOT
BRANCH   1   3
ATOM      3  C   UNL d   1      28.943 -14.140   3.323  0.00  0.00     0.027 C 
ATOM      4  C   UNL d   1      29.622 -12.764   3.345  0.00  0.00     0.070 C 
ATOM      5  C   UNL d   1      28.260 -14.629   4.393  0.00  0.00     0.100 C 
BRANCH   5   6
ATOM      6  C   UNL d   1      28.182 -13.969   5.735  0.00  0.00     0.247 C 
ATOM      7  O   UNL d   1      27.256 -13.204   6.009  0.00  0.00    -0.268 OA
ATOM      8  N   UNL d   1      29.236 -14.175   6.611  0.00  0.00    -0.323 N 
ATOM      9  H   UNL d   1      30.160 -14.322   6.226  0.00  0.00     0.169 HD
BRANCH   8  10
ATOM     10  C   UNL d   1      29.130 -13.695   7.953  0.00  0.00     0.041 A 
ATOM     11  C   UNL d   1      28.905 -14.596   9.006  0.00  0.00     0.032 A 
ATOM     12  C   UNL d   1      28.848 -14.136  10.335  0.00  0.00     0.026 A 
ATOM     13  C   UNL d   1      28.966 -12.777  10.609  0.00  0.00     0.034 A 
ATOM     14 CL   UNL d   1      28.873 -12.199  12.229  0.00  0.00    -0.084 Cl
ATOM     15  C   UNL d   1      29.155 -11.872   9.572  0.00  0.00     0.032 A 
ATOM     16  C   UNL d   1      29.251 -12.315   8.241  0.00  0.00    -0.034 A 
ATOM     17  C   UNL d   1      29.440 -11.266   7.177  0.00  0.00     0.050 C 
ENDBRANCH   8  10
ENDBRANCH   5   6
ENDBRANCH   1   3
BRANCH   1  18
ATOM     18  N   UNL d   1      28.049 -15.138   1.198  0.00  0.00    -0.266 N 
ATOM     19  C   UNL d   1      28.285 -15.951   0.095  0.00  0.00     0.270 C 
ATOM     20  O   UNL d   1      29.374 -16.445  -0.188  0.00  0.00    -0.266 OA
ATOM     21  H   UNL d   1      27.114 -14.861   1.456  0.00  0.00     0.190 HD
BRANCH  19  22
ATOM     22  C   UNL d   1      27.094 -16.229  -0.781  0.00  0.00     0.038 A 
ATOM     23  C   UNL d   1      26.032 -17.028  -0.321  0.00  0.00     0.046 A 
ATOM     24  C   UNL d   1      24.883 -17.238  -1.102  0.00  0.00     0.029 A 
ATOM     25  C   UNL d   1      24.825 -16.691  -2.386  0.00  0.00     0.065 A 
ATOM     26  C   UNL d   1      25.878 -15.892  -2.856  0.00  0.00     0.106 A 
ATOM     27  C   UNL d   1      27.009 -15.646  -2.055  0.00  0.00     0.053 A 
BRANCH  24  28
ATOM     28  N   UNL d   1      23.910 -18.146  -0.689  0.00  0.00    -0.399 N 
ATOM     29  H   UNL d   1      24.077 -18.677   0.159  0.00  0.00     0.156 HD
ATOM     30  H   UNL d   1      22.936 -17.904  -0.847  0.00  0.00     0.156 HD
ENDBRANCH  24  28
BRANCH  26  31
ATOM     31  N   UNL d   1      25.792 -15.325  -4.212  0.00  0.00    -0.116 N 
ATOM     32  O   UNL d   1      24.797 -14.639  -4.491  0.00  0.00    -0.532 OA
ATOM     33  O   UNL d   1      26.714 -15.575  -5.000  0.00  0.00    -0.532 OA
ENDBRANCH  26  31
ENDBRANCH  19  22
ENDBRANCH   1  18
TORSDOF 7
ENDMDL
MODEL 3
REMARK VINA RESULT:    -7.159      6.356      9.252
REMARK INTER + INTRA:          -9.841
REMARK INTER:                  -9.247
REMARK INTRA:                  -0.594
REMARK CONF_INDEPENDENT:        2.088
REMARK UNBOUND:                -0.594
REMARK  7 active torsions:
REMARK  status: ('A' for Active; 'I' for Inactive)
REMARK    1  A    between atoms: C_2  and  N_15 
REMARK    2  A    between atoms: C_3  and  C_4 
REMARK       I    between atoms: C_4  and  N_6 
REMARK    3  A    between atoms: N_6  and  C_7 
REMARK    4  A    between atoms: N_15  and  N_16 
REMARK       I    between atoms: N_16  and  C_17 
REMARK    5  A    between atoms: C_17  and  C_19 
REMARK    6  A    between atoms: C_21  and  N_22 
REMARK    7  A    between atoms: C_24  and  N_25 
ROOT
ATOM      1  N   UNL d   1      28.430 -12.780  -2.675  0.00  0.00    -0.302 N 
ATOM      2  H   UNL d   1      29.207 -12.957  -3.325  0.00  0.00     0.186 HD
ENDROOT
BRANCH   1   3
ATOM      3  C   UNL d   1      27.306 -13.620  -2.754  0.00  0.00     0.027 C 
ATOM      4  C   UNL d   1      26.416 -13.358  -3.977  0.00  0.00     0.070 C 
ATOM      5  C   UNL d   1      27.023 -14.594  -1.846  0.00  0.00     0.100 C 
BRANCH   5   6
ATOM      6  C   UNL d   1      25.784 -15.434  -1.849  0.00  0.00     0.247 C 
ATOM      7  O   UNL d   1      25.230 -15.740  -2.906  0.00  0.00    -0.268 OA
ATOM      8  N   UNL d   1      25.234 -15.767  -0.620  0.00  0.00    -0.323 N 
ATOM      9  H   UNL d   1      25.347 -15.119   0.149  0.00  0.00     0.169 HD
BRANCH   8  10
ATOM     10  C   UNL d   1      24.147 -16.693  -0.571  0.00  0.00     0.041 A 
ATOM     11  C   UNL d   1      22.847 -16.268  -0.892  0.00  0.00     0.032 A 
ATOM     12  C   UNL d   1      21.780 -17.185  -0.892  0.00  0.00     0.026 A 
ATOM     13  C   UNL d   1      21.997 -18.510  -0.528  0.00  0.00     0.034 A 
ATOM     14 CL   UNL d   1      20.694 -19.636  -0.501  0.00  0.00    -0.084 Cl
ATOM     15  C   UNL d   1      23.272 -18.934  -0.175  0.00  0.00     0.032 A 
ATOM     16  C   UNL d   1      24.359 -18.042  -0.202  0.00  0.00    -0.034 A 
ATOM     17  C   UNL d   1      25.704 -18.580   0.210  0.00  0.00     0.050 C 
ENDBRANCH   8  10
ENDBRANCH   5   6
ENDBRANCH   1   3
BRANCH   1  18
ATOM     18  N   UNL d   1      28.567 -11.639  -1.862  0.00  0.00    -0.266 N 
ATOM     19  C   UNL d   1      27.925 -11.555  -0.631  0.00  0.00     0.270 C 
ATOM     20  O   UNL d   1      27.199 -12.428  -0.161  0.00  0.00    -0.266 OA
ATOM     21  H   UNL d   1      29.250 -10.953  -2.146  0.00  0.00     0.190 HD
BRANCH  19  22
ATOM     22  C   UNL d   1      28.172 -10.294   0.151  0.00  0.00     0.038 A 
ATOM     23  C   UNL d   1      29.476  -9.793   0.317  0.00  0.00     0.046 A 
ATOM     24  C   UNL d   1      29.713  -8.580   0.986  0.00  0.00     0.029 A 
ATOM     25  C   UNL d   1      28.636  -7.893   1.550  0.00  0.00     0.065 A 
ATOM     26  C   UNL d   1      27.332  -8.383   1.392  0.00  0.00     0.106 A 
ATOM     27  C   UNL d   1      27.090  -9.575   0.683  0.00  0.00     0.053 A 
BRANCH  24  28
ATOM     28  N   UNL d   1      31.017  -8.176   1.263  0.00  0.00    -0.399 N 
ATOM     29  H   UNL d   1      31.159  -7.263   1.682  0.00  0.00     0.156 HD
ATOM     30  H   UNL d   1      31.681  -8.883   1.567  0.00  0.00     0.156 HD
ENDBRANCH  24  28
BRANCH  26  31
ATOM     31  N   UNL d   1      26.213  -7.639   1.994  0.00  0.00    -0.116 N 
ATOM     32  O   UNL d   1      26.389  -7.135   3.114  0.00  0.00    -0.532 OA
ATOM     33  O   UNL d   1      25.156  -7.568   1.352  0.00  0.00    -0.532 OA
ENDBRANCH  26  31
ENDBRANCH  19  22
ENDBRANCH   1  18
TORSDOF 7
ENDMDL
MODEL 4
REMARK VINA RESULT:    -7.111      9.394     10.523
REMARK INTER + INTRA:          -9.759
REMARK INTER:                  -9.199
REMARK INTRA:                  -0.560
REMARK CONF_INDEPENDENT:        2.088
REMARK UNBOUND:                -0.560
REMARK  7 active torsions:
REMARK  status: ('A' for Active; 'I' for Inactive)
REMARK    1  A    between atoms: C_2  and  N_15 
REMARK    2  A    between atoms: C_3  and  C_4 
REMARK       I    between atoms: C_4  and  N_6 
REMARK    3  A    between atoms: N_6  and  C_7 
REMARK    4  A    between atoms: N_15  and  N_16 
REMARK       I    between atoms: N_16  and  C_17 
REMARK    5  A    between atoms: C_17  and  C_19 
REMARK    6  A    between atoms: C_21  and  N_22 
REMARK    7  A    between atoms: C_24  and  N_25 
ROOT
ATOM      1  N   UNL d   1      31.190 -20.868   2.939  0.00  0.00    -0.302 N 
ATOM      2  H   UNL d   1      30.939 -19.887   2.758  0.00  0.00     0.186 HD
ENDROOT
BRANCH   1   3
ATOM      3  C   UNL d   1      31.577 -21.215   4.245  0.00  0.00     0.027 C 
ATOM      4  C   UNL d   1      30.412 -21.647   5.146  0.00  0.00     0.070 C 
ATOM      5  C   UNL d   1      32.864 -21.190   4.685  0.00  0.00     0.100 C 
BRANCH   5   6
ATOM      6  C   UNL d   1      33.294 -21.455   6.095  0.00  0.00     0.247 C 
ATOM      7  O   UNL d   1      32.463 -21.680   6.976  0.00  0.00    -0.268 OA
ATOM      8  N   UNL d   1      34.645 -21.340   6.385  0.00  0.00    -0.323 N 
ATOM      9  H   UNL d   1      35.195 -20.676   5.856  0.00  0.00     0.169 HD
BRANCH   8  10
ATOM     10  C   UNL d   1      35.117 -21.735   7.674  0.00  0.00     0.041 A 
ATOM     11  C   UNL d   1      35.492 -20.761   8.614  0.00  0.00     0.032 A 
ATOM     12  C   UNL d   1      35.912 -21.141   9.902  0.00  0.00     0.026 A 
ATOM     13  C   UNL d   1      36.005 -22.488  10.237  0.00  0.00     0.034 A 
ATOM     14 CL   UNL d   1      36.541 -22.967  11.802  0.00  0.00    -0.084 Cl
ATOM     15  C   UNL d   1      35.669 -23.461   9.305  0.00  0.00     0.032 A 
ATOM     16  C   UNL d   1      35.213 -23.102   8.023  0.00  0.00    -0.034 A 
ATOM     17  C   UNL d   1      34.886 -24.220   7.069  0.00  0.00     0.050 C 
ENDBRANCH   8  10
ENDBRANCH   5   6
ENDBRANCH   1   3
BRANCH   1  18
ATOM     18  N   UNL d   1      31.208 -21.708   1.810  0.00  0.00    -0.266 N 
ATOM     19  C   UNL d   1      30.047 -22.326   1.357  0.00  0.00     0.270 C 
ATOM     20  O   UNL d   1      28.943 -22.209   1.883  0.00  0.00    -0.266 OA
ATOM     21  H   UNL d   1      32.061 -21.734   1.273  0.00  0.00     0.190 HD
BRANCH  19  22
ATOM     22  C   UNL d   1      30.197 -23.179   0.128  0.00  0.00     0.038 A 
ATOM     23  C   UNL d   1      29.924 -24.558   0.170  0.00  0.00     0.046 A 
ATOM     24  C   UNL d   1      29.992 -25.353  -0.987  0.00  0.00     0.029 A 
ATOM     25  C   UNL d   1      30.400 -24.771  -2.189  0.00  0.00     0.065 A 
ATOM     26  C   UNL d   1      30.676 -23.397  -2.243  0.00  0.00     0.106 A 
ATOM     27  C   UNL d   1      30.564 -22.593  -1.094  0.00  0.00     0.053 A 
BRANCH  24  28
ATOM     28  N   UNL d   1      29.859 -26.737  -0.896  0.00  0.00    -0.399 N 
ATOM     29  H   UNL d   1      29.883 -27.164   0.024  0.00  0.00     0.156 HD
ATOM     30  H   UNL d   1      29.239 -27.200  -1.555  0.00  0.00     0.156 HD
ENDBRANCH  24  28
BRANCH  26  31
ATOM     31  N   UNL d   1      31.104 -22.806  -3.522  0.00  0.00    -0.116 N 
ATOM     32  O   UNL d   1      32.041 -23.349  -4.126  0.00  0.00    -0.532 OA
ATOM     33  O   UNL d   1      30.509 -21.794  -3.917  0.00  0.00    -0.532 OA
ENDBRANCH  26  31
ENDBRANCH  19  22
ENDBRANCH   1  18
TORSDOF 7
ENDMDL
MODEL 5
REMARK VINA RESULT:    -6.837     10.384     14.933
REMARK INTER + INTRA:          -9.592
REMARK INTER:                  -8.925
REMARK INTRA:                  -0.667
REMARK CONF_INDEPENDENT:        2.088
REMARK UNBOUND:                -0.667
REMARK  7 active torsions:
REMARK  status: ('A' for Active; 'I' for Inactive)
REMARK    1  A    between atoms: C_2  and  N_15 
REMARK    2  A    between atoms: C_3  and  C_4 
REMARK       I    between atoms: C_4  and  N_6 
REMARK    3  A    between atoms: N_6  and  C_7 
REMARK    4  A    between atoms: N_15  and  N_16 
REMARK       I    between atoms: N_16  and  C_17 
REMARK    5  A    between atoms: C_17  and  C_19 
REMARK    6  A    between atoms: C_21  and  N_22 
REMARK    7  A    between atoms: C_24  and  N_25 
ROOT
ATOM      1  N   UNL d   1      31.265 -20.939   4.167  0.00  0.00    -0.302 N 
ATOM      2  H   UNL d   1      30.953 -20.015   4.492  0.00  0.00     0.186 HD
ENDROOT
BRANCH   1   3
ATOM      3  C   UNL d   1      30.506 -21.575   3.170  0.00  0.00     0.027 C 
ATOM      4  C   UNL d   1      29.085 -21.949   3.613  0.00  0.00     0.070 C 
ATOM      5  C   UNL d   1      30.966 -21.830   1.915  0.00  0.00     0.100 C 
BRANCH   5   6
ATOM      6  C   UNL d   1      30.218 -22.593   0.867  0.00  0.00     0.247 C 
ATOM      7  O   UNL d   1      28.989 -22.533   0.797  0.00  0.00    -0.268 OA
ATOM      8  N   UNL d   1      30.948 -23.442   0.049  0.00  0.00    -0.323 N 
ATOM      9  H   UNL d   1      31.779 -23.878   0.428  0.00  0.00     0.169 HD
BRANCH   8  10
ATOM     10  C   UNL d   1      30.302 -24.067  -1.061  0.00  0.00     0.041 A 
ATOM     11  C   UNL d   1      29.573 -25.253  -0.872  0.00  0.00     0.032 A 
ATOM     12  C   UNL d   1      28.894 -25.849  -1.951  0.00  0.00     0.026 A 
ATOM     13  C   UNL d   1      28.980 -25.293  -3.224  0.00  0.00     0.034 A 
ATOM     14 CL   UNL d   1      28.174 -26.026  -4.557  0.00  0.00    -0.084 Cl
ATOM     15  C   UNL d   1      29.726 -24.140  -3.429  0.00  0.00     0.032 A 
ATOM     16  C   UNL d   1      30.384 -23.508  -2.358  0.00  0.00    -0.034 A 
ATOM     17  C   UNL d   1      31.184 -22.272  -2.671  0.00  0.00     0.050 C 
ENDBRANCH   8  10
ENDBRANCH   5   6
ENDBRANCH   1   3
BRANCH   1  18
ATOM     18  N   UNL d   1      32.365 -21.484   4.856  0.00  0.00    -0.266 N 
ATOM     19  C   UNL d   1      32.290 -21.770   6.215  0.00  0.00     0.270 C 
ATOM     20  O   UNL d   1      31.301 -21.573   6.917  0.00  0.00    -0.266 OA
ATOM     21  H   UNL d   1      33.153 -21.779   4.300  0.00  0.00     0.190 HD
BRANCH  19  22
ATOM     22  C   UNL d   1      33.526 -22.371   6.827  0.00  0.00     0.038 A 
ATOM     23  C   UNL d   1      34.164 -23.473   6.228  0.00  0.00     0.046 A 
ATOM     24  C   UNL d   1      35.357 -23.999   6.751  0.00  0.00     0.029 A 
ATOM     25  C   UNL d   1      35.885 -23.455   7.924  0.00  0.00     0.065 A 
ATOM     26  C   UNL d   1      35.258 -22.356   8.530  0.00  0.00     0.106 A 
ATOM     27  C   UNL d   1      34.087 -21.801   7.981  0.00  0.00     0.053 A 
BRANCH  24  28
ATOM     28  N   UNL d   1      35.892 -25.176   6.229  0.00  0.00    -0.399 N 
ATOM     29  H   UNL d   1      36.716 -25.568   6.673  0.00  0.00     0.156 HD
ATOM     30  H   UNL d   1      35.248 -25.867   5.857  0.00  0.00     0.156 HD
ENDBRANCH  24  28
BRANCH  26  31
ATOM     31  N   UNL d   1      35.834 -21.799   9.765  0.00  0.00    -0.116 N 
ATOM     32  O   UNL d   1      36.366 -22.586  10.562  0.00  0.00    -0.532 OA
ATOM     33  O   UNL d   1      35.745 -20.577   9.941  0.00  0.00    -0.532 OA
ENDBRANCH  26  31
ENDBRANCH  19  22
ENDBRANCH   1  18
TORSDOF 7
ENDMDL
MODEL 6
REMARK VINA RESULT:    -6.810      7.555     11.371
REMARK INTER + INTRA:          -9.650
REMARK INTER:                  -8.898
REMARK INTRA:                  -0.752
REMARK CONF_INDEPENDENT:        2.088
REMARK UNBOUND:                -0.752
REMARK  7 active torsions:
REMARK  status: ('A' for Active; 'I' for Inactive)
REMARK    1  A    between atoms: C_2  and  N_15 
REMARK    2  A    between atoms: C_3  and  C_4 
REMARK       I    between atoms: C_4  and  N_6 
REMARK    3  A    between atoms: N_6  and  C_7 
REMARK    4  A    between atoms: N_15  and  N_16 
REMARK       I    between atoms: N_16  and  C_17 
REMARK    5  A    between atoms: C_17  and  C_19 
REMARK    6  A    between atoms: C_21  and  N_22 
REMARK    7  A    between atoms: C_24  and  N_25 
ROOT
ATOM      1  N   UNL d   1      25.033 -13.422  -3.928  0.00  0.00    -0.302 N 
ATOM      2  H   UNL d   1      24.348 -12.656  -3.964  0.00  0.00     0.186 HD
ENDROOT
BRANCH   1   3
ATOM      3  C   UNL d   1      26.162 -13.330  -4.760  0.00  0.00     0.027 C 
ATOM      4  C   UNL d   1      26.380 -11.936  -5.363  0.00  0.00     0.070 C 
ATOM      5  C   UNL d   1      27.006 -14.368  -5.009  0.00  0.00     0.100 C 
BRANCH   5   6
ATOM      6  C   UNL d   1      28.155 -14.328  -5.968  0.00  0.00     0.247 C 
ATOM      7  O   UNL d   1      28.291 -15.199  -6.828  0.00  0.00    -0.268 OA
ATOM      8  N   UNL d   1      29.106 -13.335  -5.786  0.00  0.00    -0.323 N 
ATOM      9  H   UNL d   1      29.282 -13.004  -4.846  0.00  0.00     0.169 HD
BRANCH   8  10
ATOM     10  C   UNL d   1      30.131 -13.164  -6.767  0.00  0.00     0.041 A 
ATOM     11  C   UNL d   1      31.461 -13.494  -6.459  0.00  0.00     0.032 A 
ATOM     12  C   UNL d   1      32.467 -13.374  -7.435  0.00  0.00     0.026 A 
ATOM     13  C   UNL d   1      32.159 -12.880  -8.699  0.00  0.00     0.034 A 
ATOM     14 CL   UNL d   1      33.386 -12.705  -9.894  0.00  0.00    -0.084 Cl
ATOM     15  C   UNL d   1      30.853 -12.518  -9.004  0.00  0.00     0.032 A 
ATOM     16  C   UNL d   1      29.826 -12.664  -8.054  0.00  0.00    -0.034 A 
ATOM     17  C   UNL d   1      28.442 -12.233  -8.463  0.00  0.00     0.050 C 
ENDBRANCH   8  10
ENDBRANCH   5   6
ENDBRANCH   1   3
BRANCH   1  18
ATOM     18  N   UNL d   1      24.680 -14.515  -3.115  0.00  0.00    -0.266 N 
ATOM     19  C   UNL d   1      25.594 -15.076  -2.229  0.00  0.00     0.270 C 
ATOM     20  O   UNL d   1      26.753 -14.692  -2.086  0.00  0.00    -0.266 OA
ATOM     21  H   UNL d   1      23.707 -14.783  -3.105  0.00  0.00     0.190 HD
BRANCH  19  22
ATOM     22  C   UNL d   1      25.085 -16.223  -1.401  0.00  0.00     0.038 A 
ATOM     23  C   UNL d   1      25.907 -16.839  -0.440  0.00  0.00     0.046 A 
ATOM     24  C   UNL d   1      25.421 -17.865   0.388  0.00  0.00     0.029 A 
ATOM     25  C   UNL d   1      24.113 -18.322   0.208  0.00  0.00     0.065 A 
ATOM     26  C   UNL d   1      23.284 -17.716  -0.747  0.00  0.00     0.106 A 
ATOM     27  C   UNL d   1      23.758 -16.658  -1.545  0.00  0.00     0.053 A 
BRANCH  24  28
ATOM     28  N   UNL d   1      26.289 -18.557   1.230  0.00  0.00    -0.399 N 
ATOM     29  H   UNL d   1      27.237 -18.210   1.334  0.00  0.00     0.156 HD
ATOM     30  H   UNL d   1      25.902 -18.978   2.070  0.00  0.00     0.156 HD
ENDBRANCH  24  28
BRANCH  26  31
ATOM     31  N   UNL d   1      21.909 -18.214  -0.916  0.00  0.00    -0.116 N 
ATOM     32  O   UNL d   1      20.986 -17.386  -0.895  0.00  0.00    -0.532 OA
ATOM     33  O   UNL d   1      21.753 -19.434  -1.061  0.00  0.00    -0.532 OA
ENDBRANCH  26  31
ENDBRANCH  19  22
ENDBRANCH   1  18
TORSDOF 7
ENDMDL
MODEL 7
REMARK VINA RESULT:    -6.787      7.916     11.198
REMARK INTER + INTRA:          -9.769
REMARK INTER:                  -8.875
REMARK INTRA:                  -0.894
REMARK CONF_INDEPENDENT:        2.088
REMARK UNBOUND:                -0.894
REMARK  7 active torsions:
REMARK  status: ('A' for Active; 'I' for Inactive)
REMARK    1  A    between atoms: C_2  and  N_15 
REMARK    2  A    between atoms: C_3  and  C_4 
REMARK       I    between atoms: C_4  and  N_6 
REMARK    3  A    between atoms: N_6  and  C_7 
REMARK    4  A    between atoms: N_15  and  N_16 
REMARK       I    between atoms: N_16  and  C_17 
REMARK    5  A    between atoms: C_17  and  C_19 
REMARK    6  A    between atoms: C_21  and  N_22 
REMARK    7  A    between atoms: C_24  and  N_25 
ROOT
ATOM      1  N   UNL d   1      25.609 -11.497  -4.478  0.00  0.00    -0.302 N 
ATOM      2  H   UNL d   1      24.794 -11.185  -5.023  0.00  0.00     0.186 HD
ENDROOT
BRANCH   1   3
ATOM      3  C   UNL d   1      26.057 -12.816  -4.666  0.00  0.00     0.027 C 
ATOM      4  C   UNL d   1      25.173 -13.875  -3.992  0.00  0.00     0.070 C 
ATOM      5  C   UNL d   1      27.161 -13.145  -5.388  0.00  0.00     0.100 C 
BRANCH   5   6
ATOM      6  C   UNL d   1      27.718 -14.529  -5.520  0.00  0.00     0.247 C 
ATOM      7  O   UNL d   1      26.981 -15.486  -5.762  0.00  0.00    -0.268 OA
ATOM      8  N   UNL d   1      29.070 -14.703  -5.263  0.00  0.00    -0.323 N 
ATOM      9  H   UNL d   1      29.513 -14.093  -4.588  0.00  0.00     0.169 HD
BRANCH   8  10
ATOM     10  C   UNL d   1      29.671 -15.971  -5.528  0.00  0.00     0.041 A 
ATOM     11  C   UNL d   1      30.143 -16.270  -6.817  0.00  0.00     0.032 A 
ATOM     12  C   UNL d   1      30.780 -17.498  -7.074  0.00  0.00     0.026 A 
ATOM     13  C   UNL d   1      30.904 -18.445  -6.062  0.00  0.00     0.034 A 
ATOM     14 CL   UNL d   1      31.660 -19.962  -6.370  0.00  0.00    -0.084 Cl
ATOM     15  C   UNL d   1      30.411 -18.175  -4.792  0.00  0.00     0.032 A 
ATOM     16  C   UNL d   1      29.802 -16.940  -4.506  0.00  0.00    -0.034 A 
ATOM     17  C   UNL d   1      29.281 -16.735  -3.107  0.00  0.00     0.050 C 
ENDBRANCH   8  10
ENDBRANCH   5   6
ENDBRANCH   1   3
BRANCH   1  18
ATOM     18  N   UNL d   1      26.097 -10.574  -3.534  0.00  0.00    -0.266 N 
ATOM     19  C   UNL d   1      25.595  -9.278  -3.472  0.00  0.00     0.270 C 
ATOM     20  O   UNL d   1      24.720  -8.832  -4.210  0.00  0.00    -0.266 OA
ATOM     21  H   UNL d   1      26.723 -10.929  -2.827  0.00  0.00     0.190 HD
BRANCH  19  22
ATOM     22  C   UNL d   1      26.185  -8.399  -2.403  0.00  0.00     0.038 A 
ATOM     23  C   UNL d   1      27.311  -7.599  -2.669  0.00  0.00     0.046 A 
ATOM     24  C   UNL d   1      27.829  -6.721  -1.702  0.00  0.00     0.029 A 
ATOM     25  C   UNL d   1      27.249  -6.690  -0.432  0.00  0.00     0.065 A 
ATOM     26  C   UNL d   1      26.126  -7.483  -0.155  0.00  0.00     0.106 A 
ATOM     27  C   UNL d   1      25.581  -8.329  -1.138  0.00  0.00     0.053 A 
BRANCH  24  28
ATOM     28  N   UNL d   1      29.026  -6.047  -1.935  0.00  0.00    -0.399 N 
ATOM     29  H   UNL d   1      29.847  -6.329  -1.410  0.00  0.00     0.156 HD
ATOM     30  H   UNL d   1      29.221  -5.739  -2.883  0.00  0.00     0.156 HD
ENDBRANCH  24  28
BRANCH  26  31
ATOM     31  N   UNL d   1      25.531  -7.432   1.191  0.00  0.00    -0.116 N 
ATOM     32  O   UNL d   1      25.453  -6.327   1.748  0.00  0.00    -0.532 OA
ATOM     33  O   UNL d   1      25.153  -8.498   1.695  0.00  0.00    -0.532 OA
ENDBRANCH  26  31
ENDBRANCH  19  22
ENDBRANCH   1  18
TORSDOF 7
ENDMDL
MODEL 8
REMARK VINA RESULT:    -6.747      7.123     11.559
REMARK INTER + INTRA:          -9.612
REMARK INTER:                  -8.835
REMARK INTRA:                  -0.777
REMARK CONF_INDEPENDENT:        2.088
REMARK UNBOUND:                -0.777
REMARK  7 active torsions:
REMARK  status: ('A' for Active; 'I' for Inactive)
REMARK    1  A    between atoms: C_2  and  N_15 
REMARK    2  A    between atoms: C_3  and  C_4 
REMARK       I    between atoms: C_4  and  N_6 
REMARK    3  A    between atoms: N_6  and  C_7 
REMARK    4  A    between atoms: N_15  and  N_16 
REMARK       I    between atoms: N_16  and  C_17 
REMARK    5  A    between atoms: C_17  and  C_19 
REMARK    6  A    between atoms: C_21  and  N_22 
REMARK    7  A    between atoms: C_24  and  N_25 
ROOT
ATOM      1  N   UNL d   1      33.166 -19.144   0.686  0.00  0.00    -0.302 N 
ATOM      2  H   UNL d   1      34.086 -19.321   0.259  0.00  0.00     0.186 HD
ENDROOT
BRANCH   1   3
ATOM      3  C   UNL d   1      32.284 -18.285   0.008  0.00  0.00     0.027 C 
ATOM      4  C   UNL d   1      32.752 -16.824  -0.038  0.00  0.00     0.070 C 
ATOM      5  C   UNL d   1      31.124 -18.695  -0.573  0.00  0.00     0.100 C 
BRANCH   5   6
ATOM      6  C   UNL d   1      30.118 -17.788  -1.211  0.00  0.00     0.247 C 
ATOM      7  O   UNL d   1      30.326 -17.295  -2.320  0.00  0.00    -0.268 OA
ATOM      8  N   UNL d   1      28.998 -17.449  -0.466  0.00  0.00    -0.323 N 
ATOM      9  H   UNL d   1      29.088 -17.398   0.540  0.00  0.00     0.169 HD
BRANCH   8  10
ATOM     10  C   UNL d   1      27.943 -16.717  -1.090  0.00  0.00     0.041 A 
ATOM     11  C   UNL d   1      28.241 -15.631  -1.930  0.00  0.00     0.032 A 
ATOM     12  C   UNL d   1      27.208 -14.935  -2.586  0.00  0.00     0.026 A 
ATOM     13  C   UNL d   1      25.880 -15.288  -2.367  0.00  0.00     0.034 A 
ATOM     14 CL   UNL d   1      24.607 -14.428  -3.145  0.00  0.00    -0.084 Cl
ATOM     15  C   UNL d   1      25.571 -16.337  -1.512  0.00  0.00     0.032 A 
ATOM     16  C   UNL d   1      26.590 -17.069  -0.875  0.00  0.00    -0.034 A 
ATOM     17  C   UNL d   1      26.166 -18.181   0.049  0.00  0.00     0.050 C 
ENDBRANCH   8  10
ENDBRANCH   5   6
ENDBRANCH   1   3
BRANCH   1  18
ATOM     18  N   UNL d   1      32.967 -19.717   1.956  0.00  0.00    -0.266 N 
ATOM     19  C   UNL d   1      33.955 -20.488   2.559  0.00  0.00     0.270 C 
ATOM     20  O   UNL d   1      35.048 -20.739   2.056  0.00  0.00    -0.266 OA
ATOM     21  H   UNL d   1      32.139 -19.436   2.460  0.00  0.00     0.190 HD
BRANCH  19  22
ATOM     22  C   UNL d   1      33.626 -21.022   3.926  0.00  0.00     0.038 A 
ATOM     23  C   UNL d   1      34.643 -21.466   4.790  0.00  0.00     0.046 A 
ATOM     24  C   UNL d   1      34.355 -21.902   6.095  0.00  0.00     0.029 A 
ATOM     25  C   UNL d   1      33.025 -21.953   6.516  0.00  0.00     0.065 A 
ATOM     26  C   UNL d   1      32.002 -21.514   5.663  0.00  0.00     0.106 A 
ATOM     27  C   UNL d   1      32.295 -21.036   4.373  0.00  0.00     0.053 A 
BRANCH  24  28
ATOM     28  N   UNL d   1      35.355 -22.470   6.881  0.00  0.00    -0.399 N 
ATOM     29  H   UNL d   1      35.934 -23.197   6.473  0.00  0.00     0.156 HD
ATOM     30  H   UNL d   1      35.842 -21.869   7.540  0.00  0.00     0.156 HD
ENDBRANCH  24  28
BRANCH  26  31
ATOM     31  N   UNL d   1      30.607 -21.576   6.131  0.00  0.00    -0.116 N 
ATOM     32  O   UNL d   1      30.406 -21.562   7.355  0.00  0.00    -0.532 OA
ATOM     33  O   UNL d   1      29.715 -21.649   5.276  0.00  0.00    -0.532 OA
ENDBRANCH  26  31
ENDBRANCH  19  22
ENDBRANCH   1  18
TORSDOF 7
ENDMDL
MODEL 9
REMARK VINA RESULT:    -6.619      6.258      7.262
REMARK INTER + INTRA:          -9.575
REMARK INTER:                  -8.707
REMARK INTRA:                  -0.868
REMARK CONF_INDEPENDENT:        2.088
REMARK UNBOUND:                -0.868
REMARK  7 active torsions:
REMARK  status: ('A' for Active; 'I' for Inactive)
REMARK    1  A    between atoms: C_2  and  N_15 
REMARK    2  A    between atoms: C_3  and  C_4 
REMARK       I    between atoms: C_4  and  N_6 
REMARK    3  A    between atoms: N_6  and  C_7 
REMARK    4  A    between atoms: N_15  and  N_16 
REMARK       I    between atoms: N_16  and  C_17 
REMARK    5  A    between atoms: C_17  and  C_19 
REMARK    6  A    between atoms: C_21  and  N_22 
REMARK    7  A    between atoms: C_24  and  N_25 
ROOT
ATOM      1  N   UNL d   1      31.772 -17.535   0.014  0.00  0.00    -0.302 N 
ATOM      2  H   UNL d   1      32.434 -17.175  -0.687  0.00  0.00     0.186 HD
ENDROOT
BRANCH   1   3
ATOM      3  C   UNL d   1      32.299 -18.230   1.117  0.00  0.00     0.027 C 
ATOM      4  C   UNL d   1      32.883 -17.320   2.205  0.00  0.00     0.070 C 
ATOM      5  C   UNL d   1      32.287 -19.586   1.233  0.00  0.00     0.100 C 
BRANCH   5   6
ATOM      6  C   UNL d   1      32.929 -20.356   2.344  0.00  0.00     0.247 C 
ATOM      7  O   UNL d   1      33.778 -21.217   2.108  0.00  0.00    -0.268 OA
ATOM      8  N   UNL d   1      32.462 -20.133   3.631  0.00  0.00    -0.323 N 
ATOM      9  H   UNL d   1      31.491 -19.878   3.752  0.00  0.00     0.169 HD
BRANCH   8  10
ATOM     10  C   UNL d   1      33.149 -20.728   4.734  0.00  0.00     0.041 A 
ATOM     11  C   UNL d   1      34.549 -20.656   4.811  0.00  0.00     0.032 A 
ATOM     12  C   UNL d   1      35.228 -21.197   5.919  0.00  0.00     0.026 A 
ATOM     13  C   UNL d   1      34.519 -21.851   6.922  0.00  0.00     0.034 A 
ATOM     14 CL   UNL d   1      35.341 -22.538   8.270  0.00  0.00    -0.084 Cl
ATOM     15  C   UNL d   1      33.137 -21.958   6.839  0.00  0.00     0.032 A 
ATOM     16  C   UNL d   1      32.436 -21.393   5.758  0.00  0.00    -0.034 A 
ATOM     17  C   UNL d   1      30.940 -21.569   5.739  0.00  0.00     0.050 C 
ENDBRANCH   8  10
ENDBRANCH   5   6
ENDBRANCH   1   3
BRANCH   1  18
ATOM     18  N   UNL d   1      30.409 -17.364  -0.294  0.00  0.00    -0.266 N 
ATOM     19  C   UNL d   1      30.012 -16.647  -1.418  0.00  0.00     0.270 C 
ATOM     20  O   UNL d   1      30.782 -16.108  -2.210  0.00  0.00    -0.266 OA
ATOM     21  H   UNL d   1      29.747 -17.892   0.253  0.00  0.00     0.190 HD
BRANCH  19  22
ATOM     22  C   UNL d   1      28.529 -16.559  -1.648  0.00  0.00     0.038 A 
ATOM     23  C   UNL d   1      27.621 -17.040  -0.687  0.00  0.00     0.046 A 
ATOM     24  C   UNL d   1      26.233 -16.900  -0.858  0.00  0.00     0.029 A 
ATOM     25  C   UNL d   1      25.748 -16.327  -2.036  0.00  0.00     0.065 A 
ATOM     26  C   UNL d   1      26.643 -15.845  -3.001  0.00  0.00     0.106 A 
ATOM     27  C   UNL d   1      28.033 -15.945  -2.809  0.00  0.00     0.053 A 
BRANCH  24  28
ATOM     28  N   UNL d   1      25.352 -17.509   0.033  0.00  0.00    -0.399 N 
ATOM     29  H   UNL d   1      25.714 -17.831   0.924  0.00  0.00     0.156 HD
ATOM     30  H   UNL d   1      24.397 -17.162   0.070  0.00  0.00     0.156 HD
ENDBRANCH  24  28
BRANCH  26  31
ATOM     31  N   UNL d   1      26.107 -15.244  -4.234  0.00  0.00    -0.116 N 
ATOM     32  O   UNL d   1      25.157 -14.454  -4.127  0.00  0.00    -0.532 OA
ATOM     33  O   UNL d   1      26.629 -15.570  -5.308  0.00  0.00    -0.532 OA
ENDBRANCH  26  31
ENDBRANCH  19  22
ENDBRANCH   1  18
TORSDOF 7
ENDMDL
