MODEL 1
REMARK VINA RESULT:   -11.602      0.000      0.000
REMARK INTER + INTRA:         -15.731
REMARK INTER:                 -14.585
REMARK INTRA:                  -1.146
REMARK CONF_INDEPENDENT:        2.983
REMARK UNBOUND:                -1.146
REMARK  10 active torsions:
REMARK  status: ('A' for Active; 'I' for Inactive)
REMARK    1  A    between atoms: O_2  and  C_3 
REMARK    2  A    between atoms: C_7  and  C_6 
REMARK    3  A    between atoms: C_7  and  N_28 
REMARK    4  A    between atoms: C_7  and  C_8 
REMARK    5  A    between atoms: C_8  and  N_9 
REMARK       I    between atoms: N_9  and  C_10 
REMARK    6  A    between atoms: C_10  and  C_12 
REMARK    7  A    between atoms: C_15  and  S_16 
REMARK    8  A    between atoms: S_16  and  C_17 
REMARK    9  A    between atoms: C_17  and  C_18 
REMARK   10  A    between atoms: C_32  and  O_33 
ROOT
ATOM      1  N   UNL d   1      29.019 -15.641   0.273  0.00  0.00    -0.354 N 
ATOM      2  C   UNL d   1      28.249 -15.803  -0.854  0.00  0.00     0.256 C 
ATOM      3  O   UNL d   1      28.599 -15.375  -1.960  0.00  0.00    -0.268 OA
ATOM      4  H   UNL d   1      28.800 -16.231   1.069  0.00  0.00     0.162 HD
ENDROOT
BRANCH   1   5
ATOM      5  C   UNL d   1      29.931 -14.503   0.486  0.00  0.00     0.161 C 
BRANCH   5   6
ATOM      6  C   UNL d   1      30.823 -14.620   1.811  0.00  0.00     0.237 C 
BRANCH   6   7
ATOM      7  N   UNL d   1      31.568 -16.000   1.728  0.00  0.00    -0.069 N 
ATOM      8  C   UNL d   1      31.928 -16.392   0.307  0.00  0.00     0.270 C 
ATOM      9  C   UNL d   1      32.840 -16.091   2.522  0.00  0.00     0.270 C 
ATOM     10  H   UNL d   1      30.920 -16.703   2.107  0.00  0.00     0.279 HD
ENDBRANCH   6   7
BRANCH   6  11
ATOM     11  C   UNL d   1      30.014 -14.372   3.110  0.00  0.00    -0.023 C 
ATOM     12  C   UNL d   1      30.442 -14.827   4.355  0.00  0.00     0.012 C 
ATOM     13  C   UNL d   1      29.839 -14.490   5.574  0.00  0.00     0.040 C 
ATOM     14  C   UNL d   1      28.669 -13.754   5.607  0.00  0.00     0.101 C 
ATOM     15  C   UNL d   1      28.132 -13.382   4.370  0.00  0.00     0.102 C 
ATOM     16  C   UNL d   1      28.775 -13.752   3.168  0.00  0.00     0.049 C 
BRANCH  14  17
ATOM     17  O   UNL d   1      28.289 -13.383   6.868  0.00  0.00    -0.353 OA
ATOM     18  C   UNL d   1      29.325 -13.081   7.806  0.00  0.00     0.210 C 
ENDBRANCH  14  17
BRANCH  15  19
ATOM     19  O   UNL d   1      27.030 -12.624   4.062  0.00  0.00    -0.353 OA
ATOM     20  C   UNL d   1      27.115 -12.015   2.804  0.00  0.00     0.210 C 
ENDBRANCH  15  19
ENDBRANCH   6  11
ENDBRANCH   5   6
ENDBRANCH   1   5
BRANCH   2  21
ATOM     21  C   UNL d   1      27.014 -16.595  -0.715  0.00  0.00     0.090 C 
ATOM     22  C   UNL d   1      27.006 -17.724   0.070  0.00  0.00     0.139 C 
ATOM     23  N   UNL d   1      25.944 -18.559   0.201  0.00  0.00    -0.234 NA
ATOM     24  C   UNL d   1      24.840 -18.224  -0.475  0.00  0.00     0.189 C 
ATOM     25  N   UNL d   1      24.737 -17.145  -1.251  0.00  0.00    -0.210 NA
ATOM     26  C   UNL d   1      25.849 -16.422  -1.426  0.00  0.00     0.146 C 
ATOM     27 CL   UNL d   1      25.715 -15.549  -2.903  0.00  0.00    -0.061 Cl
BRANCH  24  28
ATOM     28  S   UNL d   1      23.448 -19.266  -0.590  0.00  0.00    -0.086 SA
BRANCH  28  29
ATOM     29  C   UNL d   1      21.990 -18.160  -0.478  0.00  0.00     0.121 C 
BRANCH  29  30
ATOM     30  C   UNL d   1      20.779 -18.952   0.000  0.00  0.00    -0.049 A 
ATOM     31  C   UNL d   1      20.657 -19.345   1.340  0.00  0.00     0.008 A 
ATOM     32  C   UNL d   1      19.660 -20.253   1.719  0.00  0.00     0.007 A 
ATOM     33  C   UNL d   1      18.705 -20.696   0.796  0.00  0.00    -0.062 A 
ATOM     34  C   UNL d   1      17.562 -21.570   1.207  0.00  0.00     0.048 C 
ATOM     35  C   UNL d   1      18.780 -20.256  -0.521  0.00  0.00     0.007 A 
ATOM     36  C   UNL d   1      19.779 -19.369  -0.897  0.00  0.00     0.008 A 
ENDBRANCH  29  30
ENDBRANCH  28  29
ENDBRANCH  24  28
ENDBRANCH   2  21
TORSDOF 10
ENDMDL
MODEL 2
REMARK VINA RESULT:   -10.876      1.954      2.973
REMARK INTER + INTRA:         -15.550
REMARK INTER:                 -13.859
REMARK INTRA:                  -1.692
REMARK CONF_INDEPENDENT:        2.983
REMARK UNBOUND:                -1.692
REMARK  10 active torsions:
REMARK  status: ('A' for Active; 'I' for Inactive)
REMARK    1  A    between atoms: O_2  and  C_3 
REMARK    2  A    between atoms: C_7  and  C_6 
REMARK    3  A    between atoms: C_7  and  N_28 
REMARK    4  A    between atoms: C_7  and  C_8 
REMARK    5  A    between atoms: C_8  and  N_9 
REMARK       I    between atoms: N_9  and  C_10 
REMARK    6  A    between atoms: C_10  and  C_12 
REMARK    7  A    between atoms: C_15  and  S_16 
REMARK    8  A    between atoms: S_16  and  C_17 
REMARK    9  A    between atoms: C_17  and  C_18 
REMARK   10  A    between atoms: C_32  and  O_33 
ROOT
ATOM      1  N   UNL d   1      29.466 -14.887   1.217  0.00  0.00    -0.354 N 
ATOM      2  C   UNL d   1      28.426 -14.558   0.381  0.00  0.00     0.256 C 
ATOM      3  O   UNL d   1      28.426 -13.526  -0.298  0.00  0.00    -0.268 OA
ATOM      4  H   UNL d   1      29.516 -15.850   1.533  0.00  0.00     0.162 HD
ENDROOT
BRANCH   1   5
ATOM      5  C   UNL d   1      30.325 -13.894   1.888  0.00  0.00     0.161 C 
BRANCH   5   6
ATOM      6  C   UNL d   1      29.831 -13.490   3.357  0.00  0.00     0.237 C 
BRANCH   6   7
ATOM      7  N   UNL d   1      29.281 -14.802   4.020  0.00  0.00    -0.069 N 
ATOM      8  C   UNL d   1      29.896 -15.080   5.379  0.00  0.00     0.270 C 
ATOM      9  C   UNL d   1      27.792 -14.845   4.220  0.00  0.00     0.270 C 
ATOM     10  H   UNL d   1      29.527 -15.574   3.386  0.00  0.00     0.279 HD
ENDBRANCH   6   7
BRANCH   6  11
ATOM     11  C   UNL d   1      28.862 -12.281   3.359  0.00  0.00    -0.023 C 
ATOM     12  C   UNL d   1      28.729 -11.431   4.455  0.00  0.00     0.012 C 
ATOM     13  C   UNL d   1      27.997 -10.236   4.449  0.00  0.00     0.040 C 
ATOM     14  C   UNL d   1      27.237  -9.875   3.353  0.00  0.00     0.101 C 
ATOM     15  C   UNL d   1      27.238 -10.765   2.273  0.00  0.00     0.102 C 
ATOM     16  C   UNL d   1      27.989 -11.960   2.329  0.00  0.00     0.049 C 
BRANCH  14  17
ATOM     17  O   UNL d   1      26.703  -8.618   3.444  0.00  0.00    -0.353 OA
ATOM     18  C   UNL d   1      27.501  -7.608   4.068  0.00  0.00     0.210 C 
ENDBRANCH  14  17
BRANCH  15  19
ATOM     19  O   UNL d   1      26.639 -10.681   1.041  0.00  0.00    -0.353 OA
ATOM     20  C   UNL d   1      27.556 -10.544  -0.008  0.00  0.00     0.210 C 
ENDBRANCH  15  19
ENDBRANCH   6  11
ENDBRANCH   5   6
ENDBRANCH   1   5
BRANCH   2  21
ATOM     21  C   UNL d   1      27.334 -15.539   0.252  0.00  0.00     0.090 C 
ATOM     22  C   UNL d   1      27.409 -16.744   0.909  0.00  0.00     0.139 C 
ATOM     23  N   UNL d   1      26.494 -17.740   0.793  0.00  0.00    -0.234 NA
ATOM     24  C   UNL d   1      25.449 -17.493  -0.004  0.00  0.00     0.189 C 
ATOM     25  N   UNL d   1      25.272 -16.355  -0.675  0.00  0.00    -0.210 NA
ATOM     26  C   UNL d   1      26.260 -15.457  -0.606  0.00  0.00     0.146 C 
ATOM     27 CL   UNL d   1      26.181 -14.438  -1.991  0.00  0.00    -0.061 Cl
BRANCH  24  28
ATOM     28  S   UNL d   1      24.278 -18.711  -0.432  0.00  0.00    -0.086 SA
BRANCH  28  29
ATOM     29  C   UNL d   1      22.754 -17.797  -0.880  0.00  0.00     0.121 C 
BRANCH  29  30
ATOM     30  C   UNL d   1      21.531 -18.565  -0.392  0.00  0.00    -0.049 A 
ATOM     31  C   UNL d   1      21.407 -18.946   0.951  0.00  0.00     0.008 A 
ATOM     32  C   UNL d   1      20.396 -19.833   1.340  0.00  0.00     0.007 A 
ATOM     33  C   UNL d   1      19.431 -20.268   0.423  0.00  0.00    -0.062 A 
ATOM     34  C   UNL d   1      18.275 -21.121   0.845  0.00  0.00     0.048 C 
ATOM     35  C   UNL d   1      19.509 -19.840  -0.897  0.00  0.00     0.007 A 
ATOM     36  C   UNL d   1      20.522 -18.973  -1.283  0.00  0.00     0.008 A 
ENDBRANCH  29  30
ENDBRANCH  28  29
ENDBRANCH  24  28
ENDBRANCH   2  21
TORSDOF 10
ENDMDL
MODEL 3
REMARK VINA RESULT:   -10.600      3.973      9.957
REMARK INTER + INTRA:         -14.776
REMARK INTER:                 -13.583
REMARK INTRA:                  -1.193
REMARK CONF_INDEPENDENT:        2.983
REMARK UNBOUND:                -1.193
REMARK  10 active torsions:
REMARK  status: ('A' for Active; 'I' for Inactive)
REMARK    1  A    between atoms: O_2  and  C_3 
REMARK    2  A    between atoms: C_7  and  C_6 
REMARK    3  A    between atoms: C_7  and  N_28 
REMARK    4  A    between atoms: C_7  and  C_8 
REMARK    5  A    between atoms: C_8  and  N_9 
REMARK       I    between atoms: N_9  and  C_10 
REMARK    6  A    between atoms: C_10  and  C_12 
REMARK    7  A    between atoms: C_15  and  S_16 
REMARK    8  A    between atoms: S_16  and  C_17 
REMARK    9  A    between atoms: C_17  and  C_18 
REMARK   10  A    between atoms: C_32  and  O_33 
ROOT
ATOM      1  N   UNL d   1      28.102 -14.796   2.411  0.00  0.00    -0.354 N 
ATOM      2  C   UNL d   1      27.409 -13.747   2.966  0.00  0.00     0.256 C 
ATOM      3  O   UNL d   1      26.342 -13.339   2.495  0.00  0.00    -0.268 OA
ATOM      4  H   UNL d   1      28.813 -15.234   2.987  0.00  0.00     0.162 HD
ENDROOT
BRANCH   1   5
ATOM      5  C   UNL d   1      28.075 -15.129   0.975  0.00  0.00     0.161 C 
BRANCH   5   6
ATOM      6  C   UNL d   1      27.914 -16.693   0.670  0.00  0.00     0.237 C 
BRANCH   6   7
ATOM      7  N   UNL d   1      29.197 -17.128  -0.123  0.00  0.00    -0.069 N 
ATOM      8  C   UNL d   1      29.008 -17.075  -1.628  0.00  0.00     0.270 C 
ATOM      9  C   UNL d   1      30.435 -16.328   0.170  0.00  0.00     0.270 C 
ATOM     10  H   UNL d   1      29.391 -18.101   0.148  0.00  0.00     0.279 HD
ENDBRANCH   6   7
BRANCH   6  11
ATOM     11  C   UNL d   1      26.561 -17.043   0.001  0.00  0.00    -0.023 C 
ATOM     12  C   UNL d   1      25.870 -18.220   0.284  0.00  0.00     0.012 C 
ATOM     13  C   UNL d   1      24.573 -18.506  -0.164  0.00  0.00     0.040 C 
ATOM     14  C   UNL d   1      23.924 -17.660  -1.043  0.00  0.00     0.101 C 
ATOM     15  C   UNL d   1      24.632 -16.527  -1.456  0.00  0.00     0.102 C 
ATOM     16  C   UNL d   1      25.940 -16.285  -0.980  0.00  0.00     0.049 C 
BRANCH  14  17
ATOM     17  O   UNL d   1      22.617 -18.000  -1.268  0.00  0.00    -0.353 OA
ATOM     18  C   UNL d   1      21.891 -18.580  -0.180  0.00  0.00     0.210 C 
ENDBRANCH  14  17
BRANCH  15  19
ATOM     19  O   UNL d   1      24.262 -15.484  -2.268  0.00  0.00    -0.353 OA
ATOM     20  C   UNL d   1      25.331 -14.944  -2.993  0.00  0.00     0.210 C 
ENDBRANCH  15  19
ENDBRANCH   6  11
ENDBRANCH   5   6
ENDBRANCH   1   5
BRANCH   2  21
ATOM     21  C   UNL d   1      27.943 -13.176   4.215  0.00  0.00     0.090 C 
ATOM     22  C   UNL d   1      28.127 -13.979   5.316  0.00  0.00     0.139 C 
ATOM     23  N   UNL d   1      28.540 -13.534   6.529  0.00  0.00    -0.234 NA
ATOM     24  C   UNL d   1      28.797 -12.224   6.623  0.00  0.00     0.189 C 
ATOM     25  N   UNL d   1      28.666 -11.362   5.616  0.00  0.00    -0.210 NA
ATOM     26  C   UNL d   1      28.152 -11.841   4.478  0.00  0.00     0.146 C 
ATOM     27 CL   UNL d   1      27.449 -10.540   3.597  0.00  0.00    -0.061 Cl
BRANCH  24  28
ATOM     28  S   UNL d   1      29.146 -11.436   8.138  0.00  0.00    -0.086 SA
BRANCH  28  29
ATOM     29  C   UNL d   1      28.158 -12.325   9.400  0.00  0.00     0.121 C 
BRANCH  29  30
ATOM     30  C   UNL d   1      29.019 -13.386  10.075  0.00  0.00    -0.049 A 
ATOM     31  C   UNL d   1      30.139 -13.924   9.428  0.00  0.00     0.008 A 
ATOM     32  C   UNL d   1      30.789 -15.045   9.961  0.00  0.00     0.007 A 
ATOM     33  C   UNL d   1      30.401 -15.578  11.196  0.00  0.00    -0.062 A 
ATOM     34  C   UNL d   1      31.156 -16.700  11.839  0.00  0.00     0.048 C 
ATOM     35  C   UNL d   1      29.331 -15.007  11.876  0.00  0.00     0.007 A 
ATOM     36  C   UNL d   1      28.680 -13.905  11.337  0.00  0.00     0.008 A 
ENDBRANCH  29  30
ENDBRANCH  28  29
ENDBRANCH  24  28
ENDBRANCH   2  21
TORSDOF 10
ENDMDL
MODEL 4
REMARK VINA RESULT:   -10.547      3.845      9.771
REMARK INTER + INTRA:         -15.051
REMARK INTER:                 -13.530
REMARK INTRA:                  -1.521
REMARK CONF_INDEPENDENT:        2.983
REMARK UNBOUND:                -1.521
REMARK  10 active torsions:
REMARK  status: ('A' for Active; 'I' for Inactive)
REMARK    1  A    between atoms: O_2  and  C_3 
REMARK    2  A    between atoms: C_7  and  C_6 
REMARK    3  A    between atoms: C_7  and  N_28 
REMARK    4  A    between atoms: C_7  and  C_8 
REMARK    5  A    between atoms: C_8  and  N_9 
REMARK       I    between atoms: N_9  and  C_10 
REMARK    6  A    between atoms: C_10  and  C_12 
REMARK    7  A    between atoms: C_15  and  S_16 
REMARK    8  A    between atoms: S_16  and  C_17 
REMARK    9  A    between atoms: C_17  and  C_18 
REMARK   10  A    between atoms: C_32  and  O_33 
ROOT
ATOM      1  N   UNL d   1      28.161 -14.658   2.203  0.00  0.00    -0.354 N 
ATOM      2  C   UNL d   1      27.369 -13.620   2.630  0.00  0.00     0.256 C 
ATOM      3  O   UNL d   1      26.306 -13.326   2.071  0.00  0.00    -0.268 OA
ATOM      4  H   UNL d   1      28.864 -14.998   2.850  0.00  0.00     0.162 HD
ENDROOT
BRANCH   1   5
ATOM      5  C   UNL d   1      28.239 -15.106   0.800  0.00  0.00     0.161 C 
BRANCH   5   6
ATOM      6  C   UNL d   1      28.032 -16.682   0.605  0.00  0.00     0.237 C 
BRANCH   6   7
ATOM      7  N   UNL d   1      29.301 -17.209  -0.154  0.00  0.00    -0.069 N 
ATOM      8  C   UNL d   1      29.188 -17.071  -1.661  0.00  0.00     0.270 C 
ATOM      9  C   UNL d   1      30.597 -16.553   0.230  0.00  0.00     0.270 C 
ATOM     10  H   UNL d   1      29.383 -18.208   0.077  0.00  0.00     0.279 HD
ENDBRANCH   6   7
BRANCH   6  11
ATOM     11  C   UNL d   1      26.669 -17.038  -0.040  0.00  0.00    -0.023 C 
ATOM     12  C   UNL d   1      25.971 -18.201   0.281  0.00  0.00     0.012 C 
ATOM     13  C   UNL d   1      24.667 -18.488  -0.145  0.00  0.00     0.040 C 
ATOM     14  C   UNL d   1      24.015 -17.659  -1.039  0.00  0.00     0.101 C 
ATOM     15  C   UNL d   1      24.727 -16.543  -1.489  0.00  0.00     0.102 C 
ATOM     16  C   UNL d   1      26.043 -16.300  -1.034  0.00  0.00     0.049 C 
BRANCH  14  17
ATOM     17  O   UNL d   1      22.703 -17.994  -1.241  0.00  0.00    -0.353 OA
ATOM     18  C   UNL d   1      21.998 -18.583  -0.145  0.00  0.00     0.210 C 
ENDBRANCH  14  17
BRANCH  15  19
ATOM     19  O   UNL d   1      24.357 -15.519  -2.324  0.00  0.00    -0.353 OA
ATOM     20  C   UNL d   1      25.435 -14.955  -3.016  0.00  0.00     0.210 C 
ENDBRANCH  15  19
ENDBRANCH   6  11
ENDBRANCH   5   6
ENDBRANCH   1   5
BRANCH   2  21
ATOM     21  C   UNL d   1      27.790 -12.914   3.853  0.00  0.00     0.090 C 
ATOM     22  C   UNL d   1      28.135 -11.584   3.796  0.00  0.00     0.139 C 
ATOM     23  N   UNL d   1      28.607 -10.869   4.848  0.00  0.00    -0.234 NA
ATOM     24  C   UNL d   1      28.711 -11.523   6.010  0.00  0.00     0.189 C 
ATOM     25  N   UNL d   1      28.391 -12.806   6.178  0.00  0.00    -0.210 NA
ATOM     26  C   UNL d   1      28.036 -13.485   5.081  0.00  0.00     0.146 C 
ATOM     27 CL   UNL d   1      28.323 -15.160   5.350  0.00  0.00    -0.061 Cl
BRANCH  24  28
ATOM     28  S   UNL d   1      29.475 -10.836   7.418  0.00  0.00    -0.086 SA
BRANCH  28  29
ATOM     29  C   UNL d   1      28.526 -11.465   8.854  0.00  0.00     0.121 C 
BRANCH  29  30
ATOM     30  C   UNL d   1      29.054 -12.836   9.259  0.00  0.00    -0.049 A 
ATOM     31  C   UNL d   1      28.303 -13.683  10.085  0.00  0.00     0.008 A 
ATOM     32  C   UNL d   1      28.885 -14.837  10.626  0.00  0.00     0.007 A 
ATOM     33  C   UNL d   1      30.184 -15.220  10.268  0.00  0.00    -0.062 A 
ATOM     34  C   UNL d   1      30.780 -16.509  10.741  0.00  0.00     0.048 C 
ATOM     35  C   UNL d   1      30.911 -14.418   9.397  0.00  0.00     0.007 A 
ATOM     36  C   UNL d   1      30.337 -13.267   8.874  0.00  0.00     0.008 A 
ENDBRANCH  29  30
ENDBRANCH  28  29
ENDBRANCH  24  28
ENDBRANCH   2  21
TORSDOF 10
ENDMDL
MODEL 5
REMARK VINA RESULT:   -10.444      1.772      3.213
REMARK INTER + INTRA:         -14.671
REMARK INTER:                 -13.427
REMARK INTRA:                  -1.243
REMARK CONF_INDEPENDENT:        2.983
REMARK UNBOUND:                -1.243
REMARK  10 active torsions:
REMARK  status: ('A' for Active; 'I' for Inactive)
REMARK    1  A    between atoms: O_2  and  C_3 
REMARK    2  A    between atoms: C_7  and  C_6 
REMARK    3  A    between atoms: C_7  and  N_28 
REMARK    4  A    between atoms: C_7  and  C_8 
REMARK    5  A    between atoms: C_8  and  N_9 
REMARK       I    between atoms: N_9  and  C_10 
REMARK    6  A    between atoms: C_10  and  C_12 
REMARK    7  A    between atoms: C_15  and  S_16 
REMARK    8  A    between atoms: S_16  and  C_17 
REMARK    9  A    between atoms: C_17  and  C_18 
REMARK   10  A    between atoms: C_32  and  O_33 
ROOT
ATOM      1  N   UNL d   1      29.517 -15.051   1.186  0.00  0.00    -0.354 N 
ATOM      2  C   UNL d   1      28.925 -14.999  -0.053  0.00  0.00     0.256 C 
ATOM      3  O   UNL d   1      29.439 -14.402  -1.006  0.00  0.00    -0.268 OA
ATOM      4  H   UNL d   1      29.179 -15.760   1.828  0.00  0.00     0.162 HD
ENDROOT
BRANCH   1   5
ATOM      5  C   UNL d   1      30.388 -13.991   1.723  0.00  0.00     0.161 C 
BRANCH   5   6
ATOM      6  C   UNL d   1      29.981 -13.491   3.189  0.00  0.00     0.237 C 
BRANCH   6   7
ATOM      7  N   UNL d   1      29.310 -14.715   3.909  0.00  0.00    -0.069 N 
ATOM      8  C   UNL d   1      29.694 -14.822   5.373  0.00  0.00     0.270 C 
ATOM      9  C   UNL d   1      27.808 -14.740   3.867  0.00  0.00     0.270 C 
ATOM     10  H   UNL d   1      29.644 -15.557   3.421  0.00  0.00     0.279 HD
ENDBRANCH   6   7
BRANCH   6  11
ATOM     11  C   UNL d   1      29.149 -12.184   3.174  0.00  0.00    -0.023 C 
ATOM     12  C   UNL d   1      28.490 -11.731   2.033  0.00  0.00     0.012 C 
ATOM     13  C   UNL d   1      27.595 -10.653   2.009  0.00  0.00     0.040 C 
ATOM     14  C   UNL d   1      27.395  -9.871   3.131  0.00  0.00     0.101 C 
ATOM     15  C   UNL d   1      28.134 -10.213   4.268  0.00  0.00     0.102 C 
ATOM     16  C   UNL d   1      29.029 -11.306   4.242  0.00  0.00     0.049 C 
BRANCH  14  17
ATOM     17  O   UNL d   1      26.387  -8.956   2.990  0.00  0.00    -0.353 OA
ATOM     18  C   UNL d   1      25.137  -9.426   2.478  0.00  0.00     0.210 C 
ENDBRANCH  14  17
BRANCH  15  19
ATOM     19  O   UNL d   1      28.133  -9.680   5.533  0.00  0.00    -0.353 OA
ATOM     20  C   UNL d   1      28.560 -10.584   6.513  0.00  0.00     0.210 C 
ENDBRANCH  15  19
ENDBRANCH   6  11
ENDBRANCH   5   6
ENDBRANCH   1   5
BRANCH   2  21
ATOM     21  C   UNL d   1      27.682 -15.769  -0.236  0.00  0.00     0.090 C 
ATOM     22  C   UNL d   1      27.421 -16.856   0.565  0.00  0.00     0.139 C 
ATOM     23  N   UNL d   1      26.345 -17.671   0.426  0.00  0.00    -0.234 NA
ATOM     24  C   UNL d   1      25.488 -17.358  -0.552  0.00  0.00     0.189 C 
ATOM     25  N   UNL d   1      25.638 -16.320  -1.375  0.00  0.00    -0.210 NA
ATOM     26  C   UNL d   1      26.772 -15.620  -1.258  0.00  0.00     0.146 C 
ATOM     27 CL   UNL d   1      27.086 -14.822  -2.750  0.00  0.00    -0.061 Cl
BRANCH  24  28
ATOM     28  S   UNL d   1      24.160 -18.388  -1.012  0.00  0.00    -0.086 SA
BRANCH  28  29
ATOM     29  C   UNL d   1      22.641 -17.497  -0.500  0.00  0.00     0.121 C 
BRANCH  29  30
ATOM     30  C   UNL d   1      21.532 -18.500  -0.203  0.00  0.00    -0.049 A 
ATOM     31  C   UNL d   1      20.678 -18.953  -1.217  0.00  0.00     0.008 A 
ATOM     32  C   UNL d   1      19.535 -19.696  -0.895  0.00  0.00     0.007 A 
ATOM     33  C   UNL d   1      19.285 -20.090   0.425  0.00  0.00    -0.062 A 
ATOM     34  C   UNL d   1      18.135 -20.983   0.772  0.00  0.00     0.048 C 
ATOM     35  C   UNL d   1      20.165 -19.700   1.427  0.00  0.00     0.007 A 
ATOM     36  C   UNL d   1      21.288 -18.951   1.107  0.00  0.00     0.008 A 
ENDBRANCH  29  30
ENDBRANCH  28  29
ENDBRANCH  24  28
ENDBRANCH   2  21
TORSDOF 10
ENDMDL
MODEL 6
REMARK VINA RESULT:   -10.019      1.319      1.806
REMARK INTER + INTRA:         -14.289
REMARK INTER:                 -13.002
REMARK INTRA:                  -1.287
REMARK CONF_INDEPENDENT:        2.983
REMARK UNBOUND:                -1.287
REMARK  10 active torsions:
REMARK  status: ('A' for Active; 'I' for Inactive)
REMARK    1  A    between atoms: O_2  and  C_3 
REMARK    2  A    between atoms: C_7  and  C_6 
REMARK    3  A    between atoms: C_7  and  N_28 
REMARK    4  A    between atoms: C_7  and  C_8 
REMARK    5  A    between atoms: C_8  and  N_9 
REMARK       I    between atoms: N_9  and  C_10 
REMARK    6  A    between atoms: C_10  and  C_12 
REMARK    7  A    between atoms: C_15  and  S_16 
REMARK    8  A    between atoms: S_16  and  C_17 
REMARK    9  A    between atoms: C_17  and  C_18 
REMARK   10  A    between atoms: C_32  and  O_33 
ROOT
ATOM      1  N   UNL d   1      28.934 -15.724   0.767  0.00  0.00    -0.354 N 
ATOM      2  C   UNL d   1      28.035 -15.554  -0.258  0.00  0.00     0.256 C 
ATOM      3  O   UNL d   1      28.238 -14.768  -1.190  0.00  0.00    -0.268 OA
ATOM      4  H   UNL d   1      28.826 -16.554   1.341  0.00  0.00     0.162 HD
ENDROOT
BRANCH   1   5
ATOM      5  C   UNL d   1      29.842 -14.666   1.245  0.00  0.00     0.161 C 
BRANCH   5   6
ATOM      6  C   UNL d   1      29.122 -13.262   1.521  0.00  0.00     0.237 C 
BRANCH   6   7
ATOM      7  N   UNL d   1      30.113 -12.148   1.029  0.00  0.00    -0.069 N 
ATOM      8  C   UNL d   1      31.009 -11.624   2.136  0.00  0.00     0.270 C 
ATOM      9  C   UNL d   1      31.027 -12.552  -0.093  0.00  0.00     0.270 C 
ATOM     10  H   UNL d   1      29.531 -11.373   0.685  0.00  0.00     0.279 HD
ENDBRANCH   6   7
BRANCH   6  11
ATOM     11  C   UNL d   1      28.619 -13.116   2.979  0.00  0.00    -0.023 C 
ATOM     12  C   UNL d   1      28.465 -14.208   3.830  0.00  0.00     0.012 C 
ATOM     13  C   UNL d   1      28.175 -14.115   5.198  0.00  0.00     0.040 C 
ATOM     14  C   UNL d   1      27.897 -12.893   5.782  0.00  0.00     0.101 C 
ATOM     15  C   UNL d   1      27.915 -11.779   4.936  0.00  0.00     0.102 C 
ATOM     16  C   UNL d   1      28.208 -11.926   3.562  0.00  0.00     0.049 C 
BRANCH  14  17
ATOM     17  O   UNL d   1      27.780 -12.950   7.144  0.00  0.00    -0.353 OA
ATOM     18  C   UNL d   1      28.962 -12.719   7.917  0.00  0.00     0.210 C 
ENDBRANCH  14  17
BRANCH  15  19
ATOM     19  O   UNL d   1      27.733 -10.445   5.205  0.00  0.00    -0.353 OA
ATOM     20  C   UNL d   1      28.027  -9.619   4.114  0.00  0.00     0.210 C 
ENDBRANCH  15  19
ENDBRANCH   6  11
ENDBRANCH   5   6
ENDBRANCH   1   5
BRANCH   2  21
ATOM     21  C   UNL d   1      26.842 -16.420  -0.256  0.00  0.00     0.090 C 
ATOM     22  C   UNL d   1      26.896 -17.664   0.327  0.00  0.00     0.139 C 
ATOM     23  N   UNL d   1      25.879 -18.562   0.314  0.00  0.00    -0.234 NA
ATOM     24  C   UNL d   1      24.754 -18.173  -0.297  0.00  0.00     0.189 C 
ATOM     25  N   UNL d   1      24.591 -16.986  -0.880  0.00  0.00    -0.210 NA
ATOM     26  C   UNL d   1      25.664 -16.188  -0.929  0.00  0.00     0.146 C 
ATOM     27 CL   UNL d   1      25.476 -15.087  -2.238  0.00  0.00    -0.061 Cl
BRANCH  24  28
ATOM     28  S   UNL d   1      23.415 -19.250  -0.587  0.00  0.00    -0.086 SA
BRANCH  28  29
ATOM     29  C   UNL d   1      21.919 -18.191  -0.592  0.00  0.00     0.121 C 
BRANCH  29  30
ATOM     30  C   UNL d   1      20.731 -18.975  -0.047  0.00  0.00    -0.049 A 
ATOM     31  C   UNL d   1      20.658 -19.325   1.308  0.00  0.00     0.008 A 
ATOM     32  C   UNL d   1      19.682 -20.226   1.751  0.00  0.00     0.007 A 
ATOM     33  C   UNL d   1      18.700 -20.706   0.876  0.00  0.00    -0.062 A 
ATOM     34  C   UNL d   1      17.579 -21.575   1.355  0.00  0.00     0.048 C 
ATOM     35  C   UNL d   1      18.727 -20.310  -0.456  0.00  0.00     0.007 A 
ATOM     36  C   UNL d   1      19.705 -19.429  -0.896  0.00  0.00     0.008 A 
ENDBRANCH  29  30
ENDBRANCH  28  29
ENDBRANCH  24  28
ENDBRANCH   2  21
TORSDOF 10
ENDMDL
MODEL 7
REMARK VINA RESULT:    -9.579      5.045     10.098
REMARK INTER + INTRA:         -14.116
REMARK INTER:                 -12.562
REMARK INTRA:                  -1.554
REMARK CONF_INDEPENDENT:        2.983
REMARK UNBOUND:                -1.554
REMARK  10 active torsions:
REMARK  status: ('A' for Active; 'I' for Inactive)
REMARK    1  A    between atoms: O_2  and  C_3 
REMARK    2  A    between atoms: C_7  and  C_6 
REMARK    3  A    between atoms: C_7  and  N_28 
REMARK    4  A    between atoms: C_7  and  C_8 
REMARK    5  A    between atoms: C_8  and  N_9 
REMARK       I    between atoms: N_9  and  C_10 
REMARK    6  A    between atoms: C_10  and  C_12 
REMARK    7  A    between atoms: C_15  and  S_16 
REMARK    8  A    between atoms: S_16  and  C_17 
REMARK    9  A    between atoms: C_17  and  C_18 
REMARK   10  A    between atoms: C_32  and  O_33 
ROOT
ATOM      1  N   UNL d   1      28.828 -14.392   1.976  0.00  0.00    -0.354 N 
ATOM      2  C   UNL d   1      27.831 -13.571   2.447  0.00  0.00     0.256 C 
ATOM      3  O   UNL d   1      26.749 -13.446   1.864  0.00  0.00    -0.268 OA
ATOM      4  H   UNL d   1      29.565 -14.641   2.627  0.00  0.00     0.162 HD
ENDROOT
BRANCH   1   5
ATOM      5  C   UNL d   1      29.036 -14.692   0.548  0.00  0.00     0.161 C 
BRANCH   5   6
ATOM      6  C   UNL d   1      27.881 -15.588  -0.107  0.00  0.00     0.237 C 
BRANCH   6   7
ATOM      7  N   UNL d   1      28.144 -17.065   0.355  0.00  0.00    -0.069 N 
ATOM      8  C   UNL d   1      26.872 -17.885   0.468  0.00  0.00     0.270 C 
ATOM      9  C   UNL d   1      29.074 -17.856  -0.522  0.00  0.00     0.270 C 
ATOM     10  H   UNL d   1      28.578 -17.006   1.286  0.00  0.00     0.279 HD
ENDBRANCH   6   7
BRANCH   6  11
ATOM     11  C   UNL d   1      27.745 -15.378  -1.636  0.00  0.00    -0.023 C 
ATOM     12  C   UNL d   1      28.835 -15.449  -2.500  0.00  0.00     0.012 C 
ATOM     13  C   UNL d   1      28.743 -15.433  -3.898  0.00  0.00     0.040 C 
ATOM     14  C   UNL d   1      27.531 -15.217  -4.526  0.00  0.00     0.101 C 
ATOM     15  C   UNL d   1      26.425 -15.012  -3.695  0.00  0.00     0.102 C 
ATOM     16  C   UNL d   1      26.570 -15.033  -2.289  0.00  0.00     0.049 C 
BRANCH  14  17
ATOM     17  O   UNL d   1      27.580 -15.376  -5.885  0.00  0.00    -0.353 OA
ATOM     18  C   UNL d   1      28.663 -14.754  -6.582  0.00  0.00     0.210 C 
ENDBRANCH  14  17
BRANCH  15  19
ATOM     19  O   UNL d   1      25.099 -14.823  -3.994  0.00  0.00    -0.353 OA
ATOM     20  C   UNL d   1      24.696 -13.486  -3.889  0.00  0.00     0.210 C 
ENDBRANCH  15  19
ENDBRANCH   6  11
ENDBRANCH   5   6
ENDBRANCH   1   5
BRANCH   2  21
ATOM     21  C   UNL d   1      28.066 -12.905   3.740  0.00  0.00     0.090 C 
ATOM     22  C   UNL d   1      28.506 -11.603   3.773  0.00  0.00     0.139 C 
ATOM     23  N   UNL d   1      28.823 -10.929   4.908  0.00  0.00    -0.234 NA
ATOM     24  C   UNL d   1      28.665 -11.597   6.056  0.00  0.00     0.189 C 
ATOM     25  N   UNL d   1      28.231 -12.854   6.137  0.00  0.00    -0.210 NA
ATOM     26  C   UNL d   1      28.040 -13.499   4.981  0.00  0.00     0.146 C 
ATOM     27 CL   UNL d   1      28.156 -15.193   5.266  0.00  0.00    -0.061 Cl
BRANCH  24  28
ATOM     28  S   UNL d   1      29.200 -10.974   7.594  0.00  0.00    -0.086 SA
BRANCH  28  29
ATOM     29  C   UNL d   1      28.155 -11.799   8.854  0.00  0.00     0.121 C 
BRANCH  29  30
ATOM     30  C   UNL d   1      28.910 -12.979   9.456  0.00  0.00    -0.049 A 
ATOM     31  C   UNL d   1      30.133 -13.402   8.919  0.00  0.00     0.008 A 
ATOM     32  C   UNL d   1      30.704 -14.611   9.336  0.00  0.00     0.007 A 
ATOM     33  C   UNL d   1      30.124 -15.360  10.367  0.00  0.00    -0.062 A 
ATOM     34  C   UNL d   1      30.781 -16.592  10.908  0.00  0.00     0.048 C 
ATOM     35  C   UNL d   1      28.945 -14.911  10.950  0.00  0.00     0.007 A 
ATOM     36  C   UNL d   1      28.373 -13.720  10.524  0.00  0.00     0.008 A 
ENDBRANCH  29  30
ENDBRANCH  28  29
ENDBRANCH  24  28
ENDBRANCH   2  21
TORSDOF 10
ENDMDL
MODEL 8
REMARK VINA RESULT:    -9.553      4.280     10.016
REMARK INTER + INTRA:         -14.100
REMARK INTER:                 -12.536
REMARK INTRA:                  -1.563
REMARK CONF_INDEPENDENT:        2.983
REMARK UNBOUND:                -1.563
REMARK  10 active torsions:
REMARK  status: ('A' for Active; 'I' for Inactive)
REMARK    1  A    between atoms: O_2  and  C_3 
REMARK    2  A    between atoms: C_7  and  C_6 
REMARK    3  A    between atoms: C_7  and  N_28 
REMARK    4  A    between atoms: C_7  and  C_8 
REMARK    5  A    between atoms: C_8  and  N_9 
REMARK       I    between atoms: N_9  and  C_10 
REMARK    6  A    between atoms: C_10  and  C_12 
REMARK    7  A    between atoms: C_15  and  S_16 
REMARK    8  A    between atoms: S_16  and  C_17 
REMARK    9  A    between atoms: C_17  and  C_18 
REMARK   10  A    between atoms: C_32  and  O_33 
ROOT
ATOM      1  N   UNL d   1      28.628 -14.473   2.491  0.00  0.00    -0.354 N 
ATOM      2  C   UNL d   1      27.714 -13.496   2.805  0.00  0.00     0.256 C 
ATOM      3  O   UNL d   1      26.792 -13.186   2.043  0.00  0.00    -0.268 OA
ATOM      4  H   UNL d   1      29.183 -14.847   3.254  0.00  0.00     0.162 HD
ENDROOT
BRANCH   1   5
ATOM      5  C   UNL d   1      29.039 -14.799   1.113  0.00  0.00     0.161 C 
BRANCH   5   6
ATOM      6  C   UNL d   1      28.311 -16.088   0.502  0.00  0.00     0.237 C 
BRANCH   6   7
ATOM      7  N   UNL d   1      29.449 -17.063   0.033  0.00  0.00    -0.069 N 
ATOM      8  C   UNL d   1      29.334 -17.445  -1.432  0.00  0.00     0.270 C 
ATOM      9  C   UNL d   1      30.850 -16.554   0.223  0.00  0.00     0.270 C 
ATOM     10  H   UNL d   1      29.354 -17.916   0.601  0.00  0.00     0.279 HD
ENDBRANCH   6   7
BRANCH   6  11
ATOM     11  C   UNL d   1      27.249 -15.733  -0.569  0.00  0.00    -0.023 C 
ATOM     12  C   UNL d   1      27.361 -14.613  -1.390  0.00  0.00     0.012 C 
ATOM     13  C   UNL d   1      26.521 -14.339  -2.479  0.00  0.00     0.040 C 
ATOM     14  C   UNL d   1      25.418 -15.130  -2.739  0.00  0.00     0.101 C 
ATOM     15  C   UNL d   1      25.193 -16.195  -1.862  0.00  0.00     0.102 C 
ATOM     16  C   UNL d   1      26.066 -16.427  -0.775  0.00  0.00     0.049 C 
BRANCH  14  17
ATOM     17  O   UNL d   1      24.788 -14.823  -3.915  0.00  0.00    -0.353 OA
ATOM     18  C   UNL d   1      25.150 -13.596  -4.555  0.00  0.00     0.210 C 
ENDBRANCH  14  17
BRANCH  15  19
ATOM     19  O   UNL d   1      24.233 -17.177  -1.869  0.00  0.00    -0.353 OA
ATOM     20  C   UNL d   1      24.255 -17.977  -0.721  0.00  0.00     0.210 C 
ENDBRANCH  15  19
ENDBRANCH   6  11
ENDBRANCH   5   6
ENDBRANCH   1   5
BRANCH   2  21
ATOM     21  C   UNL d   1      27.818 -12.885   4.142  0.00  0.00     0.090 C 
ATOM     22  C   UNL d   1      27.972 -11.525   4.267  0.00  0.00     0.139 C 
ATOM     23  N   UNL d   1      28.152 -10.878   5.446  0.00  0.00    -0.234 NA
ATOM     24  C   UNL d   1      28.155 -11.641   6.545  0.00  0.00     0.189 C 
ATOM     25  N   UNL d   1      28.000 -12.964   6.537  0.00  0.00    -0.210 NA
ATOM     26  C   UNL d   1      27.936 -13.555   5.339  0.00  0.00     0.146 C 
ATOM     27 CL   UNL d   1      28.413 -15.200   5.506  0.00  0.00    -0.061 Cl
BRANCH  24  28
ATOM     28  S   UNL d   1      28.564 -11.025   8.123  0.00  0.00    -0.086 SA
BRANCH  28  29
ATOM     29  C   UNL d   1      30.324 -11.465   8.385  0.00  0.00     0.121 C 
BRANCH  29  30
ATOM     30  C   UNL d   1      30.424 -12.880   8.942  0.00  0.00    -0.049 A 
ATOM     31  C   UNL d   1      29.274 -13.597   9.299  0.00  0.00     0.008 A 
ATOM     32  C   UNL d   1      29.386 -14.800  10.009  0.00  0.00     0.007 A 
ATOM     33  C   UNL d   1      30.641 -15.359  10.277  0.00  0.00    -0.062 A 
ATOM     34  C   UNL d   1      30.780 -16.700  10.929  0.00  0.00     0.048 C 
ATOM     35  C   UNL d   1      31.786 -14.685   9.867  0.00  0.00     0.007 A 
ATOM     36  C   UNL d   1      31.671 -13.486   9.178  0.00  0.00     0.008 A 
ENDBRANCH  29  30
ENDBRANCH  28  29
ENDBRANCH  24  28
ENDBRANCH   2  21
TORSDOF 10
ENDMDL
MODEL 9
REMARK VINA RESULT:    -9.252      4.431      6.170
REMARK INTER + INTRA:         -14.184
REMARK INTER:                 -12.235
REMARK INTRA:                  -1.949
REMARK CONF_INDEPENDENT:        2.983
REMARK UNBOUND:                -1.949
REMARK  10 active torsions:
REMARK  status: ('A' for Active; 'I' for Inactive)
REMARK    1  A    between atoms: O_2  and  C_3 
REMARK    2  A    between atoms: C_7  and  C_6 
REMARK    3  A    between atoms: C_7  and  N_28 
REMARK    4  A    between atoms: C_7  and  C_8 
REMARK    5  A    between atoms: C_8  and  N_9 
REMARK       I    between atoms: N_9  and  C_10 
REMARK    6  A    between atoms: C_10  and  C_12 
REMARK    7  A    between atoms: C_15  and  S_16 
REMARK    8  A    between atoms: S_16  and  C_17 
REMARK    9  A    between atoms: C_17  and  C_18 
REMARK   10  A    between atoms: C_32  and  O_33 
ROOT
ATOM      1  N   UNL d   1      31.382 -19.508  -0.076  0.00  0.00    -0.354 N 
ATOM      2  C   UNL d   1      31.603 -18.351  -0.784  0.00  0.00     0.256 C 
ATOM      3  O   UNL d   1      32.736 -17.995  -1.128  0.00  0.00    -0.268 OA
ATOM      4  H   UNL d   1      30.431 -19.862  -0.058  0.00  0.00     0.162 HD
ENDROOT
BRANCH   1   5
ATOM      5  C   UNL d   1      32.355 -20.094   0.864  0.00  0.00     0.161 C 
BRANCH   5   6
ATOM      6  C   UNL d   1      32.657 -19.181   2.144  0.00  0.00     0.237 C 
BRANCH   6   7
ATOM      7  N   UNL d   1      33.817 -18.206   1.735  0.00  0.00    -0.069 N 
ATOM      8  C   UNL d   1      34.126 -17.173   2.804  0.00  0.00     0.270 C 
ATOM      9  C   UNL d   1      35.125 -18.868   1.403  0.00  0.00     0.270 C 
ATOM     10  H   UNL d   1      33.499 -17.715   0.889  0.00  0.00     0.279 HD
ENDBRANCH   6   7
BRANCH   6  11
ATOM     11  C   UNL d   1      32.899 -20.007   3.433  0.00  0.00    -0.023 C 
ATOM     12  C   UNL d   1      34.162 -20.465   3.801  0.00  0.00     0.012 C 
ATOM     13  C   UNL d   1      34.461 -21.068   5.031  0.00  0.00     0.040 C 
ATOM     14  C   UNL d   1      33.461 -21.363   5.937  0.00  0.00     0.101 C 
ATOM     15  C   UNL d   1      32.156 -21.036   5.555  0.00  0.00     0.102 C 
ATOM     16  C   UNL d   1      31.905 -20.434   4.302  0.00  0.00     0.049 C 
BRANCH  14  17
ATOM     17  O   UNL d   1      33.928 -21.812   7.143  0.00  0.00    -0.353 OA
ATOM     18  C   UNL d   1      34.210 -23.209   7.262  0.00  0.00     0.210 C 
ENDBRANCH  14  17
BRANCH  15  19
ATOM     19  O   UNL d   1      30.967 -21.151   6.231  0.00  0.00    -0.353 OA
ATOM     20  C   UNL d   1      30.030 -21.950   5.565  0.00  0.00     0.210 C 
ENDBRANCH  15  19
ENDBRANCH   6  11
ENDBRANCH   5   6
ENDBRANCH   1   5
BRANCH   2  21
ATOM     21  C   UNL d   1      30.417 -17.584  -1.204  0.00  0.00     0.090 C 
ATOM     22  C   UNL d   1      29.417 -17.313  -0.300  0.00  0.00     0.139 C 
ATOM     23  N   UNL d   1      28.256 -16.682  -0.607  0.00  0.00    -0.234 NA
ATOM     24  C   UNL d   1      28.113 -16.292  -1.879  0.00  0.00     0.189 C 
ATOM     25  N   UNL d   1      29.025 -16.491  -2.830  0.00  0.00    -0.210 NA
ATOM     26  C   UNL d   1      30.099 -17.213  -2.490  0.00  0.00     0.146 C 
ATOM     27 CL   UNL d   1      30.767 -17.915  -3.913  0.00  0.00    -0.061 Cl
BRANCH  24  28
ATOM     28  S   UNL d   1      26.622 -15.646  -2.508  0.00  0.00    -0.086 SA
BRANCH  28  29
ATOM     29  C   UNL d   1      25.565 -15.324  -1.045  0.00  0.00     0.121 C 
BRANCH  29  30
ATOM     30  C   UNL d   1      24.477 -16.388  -0.952  0.00  0.00    -0.049 A 
ATOM     31  C   UNL d   1      23.129 -16.059  -1.144  0.00  0.00     0.008 A 
ATOM     32  C   UNL d   1      22.127 -16.991  -0.841  0.00  0.00     0.007 A 
ATOM     33  C   UNL d   1      22.455 -18.294  -0.448  0.00  0.00    -0.062 A 
ATOM     34  C   UNL d   1      21.404 -19.338  -0.235  0.00  0.00     0.048 C 
ATOM     35  C   UNL d   1      23.794 -18.646  -0.320  0.00  0.00     0.007 A 
ATOM     36  C   UNL d   1      24.784 -17.716  -0.605  0.00  0.00     0.008 A 
ENDBRANCH  29  30
ENDBRANCH  28  29
ENDBRANCH  24  28
ENDBRANCH   2  21
TORSDOF 10
ENDMDL
