MODEL 1
REMARK VINA RESULT:    -7.494      0.000      0.000
REMARK INTER + INTRA:         -10.008
REMARK INTER:                  -8.389
REMARK INTRA:                  -1.619
REMARK CONF_INDEPENDENT:        0.895
REMARK UNBOUND:                -1.619
REMARK  3 active torsions:
REMARK  status: ('A' for Active; 'I' for Inactive)
REMARK    1  A    between atoms: C_9  and  N_10 
REMARK    2  A    between atoms: C_20  and  C_21 
REMARK    3  A    between atoms: C_26  and  N_27 
ROOT
ATOM      1  N   UNL d   1      31.367 -13.025  -4.235  0.00  0.00    -0.101 N 
ATOM      2  C   UNL d   1      30.446 -13.488  -3.510  0.00  0.00    -0.005 C 
ATOM      3  C   UNL d   1      29.335 -14.047  -2.636  0.00  0.00     0.184 C 
ATOM      4  C   UNL d   1      29.707 -15.231  -1.772  0.00  0.00     0.241 C 
ATOM      5  O   UNL d   1      30.826 -15.725  -1.708  0.00  0.00    -0.272 OA
ATOM      6  N   UNL d   1      28.643 -15.675  -0.975  0.00  0.00    -0.309 N 
ATOM      7  C   UNL d   1      27.337 -15.738  -1.431  0.00  0.00     0.162 A 
ATOM      8  N   UNL d   1      26.406 -16.415  -0.666  0.00  0.00    -0.046 NA
ATOM      9  C   UNL d   1      25.223 -16.633  -1.179  0.00  0.00     0.707 A 
ATOM     10  N   UNL d   1      24.904 -16.166  -2.425  0.00  0.00    -0.154 N 
ATOM     11  C   UNL d   1      25.748 -15.454  -3.202  0.00  0.00     0.270 A 
ATOM     12  O   UNL d   1      25.407 -15.043  -4.313  0.00  0.00    -0.267 OA
ATOM     13  C   UNL d   1      27.080 -15.212  -2.636  0.00  0.00     0.067 A 
ATOM     14  C   UNL d   1      28.110 -14.470  -3.445  0.00  0.00     0.089 C 
ATOM     15  H   UNL d   1      28.874 -16.233  -0.161  0.00  0.00     0.170 HD
ATOM     16  H   UNL d   1      23.963 -16.263  -2.770  0.00  0.00     0.187 HD
ENDROOT
BRANCH  14  17
ATOM     17  C   UNL d   1      27.528 -13.233  -4.104  0.00  0.00    -0.015 C 
ATOM     18  C   UNL d   1      27.044 -12.213  -3.245  0.00  0.00     0.010 C 
ATOM     19  C   UNL d   1      26.619 -10.994  -3.749  0.00  0.00     0.001 C 
ATOM     20  C   UNL d   1      26.402 -10.872  -5.112  0.00  0.00     0.002 C 
ATOM     21  C   UNL d   1      26.749 -11.911  -5.977  0.00  0.00     0.037 C 
ATOM     22  C   UNL d   1      27.407 -13.053  -5.496  0.00  0.00     0.110 C 
BRANCH  22  23
ATOM     23  N   UNL d   1      27.949 -13.992  -6.510  0.00  0.00    -0.115 N 
ATOM     24  O   UNL d   1      27.736 -15.200  -6.341  0.00  0.00    -0.532 OA
ATOM     25  O   UNL d   1      28.538 -13.546  -7.500  0.00  0.00    -0.532 OA
ENDBRANCH  22  23
ENDBRANCH  14  17
BRANCH   9  26
ATOM     26  N   UNL d   1      24.172 -17.277  -0.549  0.00  0.00    -0.216 N 
ATOM     27  C   UNL d   1      24.290 -18.575   0.130  0.00  0.00     0.141 C 
ATOM     28  C   UNL d   1      23.229 -19.541  -0.409  0.00  0.00     0.020 C 
ATOM     29  C   UNL d   1      21.823 -18.947  -0.302  0.00  0.00     0.003 C 
ATOM     30  C   UNL d   1      21.777 -17.536  -0.895  0.00  0.00     0.020 C 
ATOM     31  C   UNL d   1      22.882 -16.634  -0.321  0.00  0.00     0.141 C 
ENDBRANCH   9  26
TORSDOF 3
ENDMDL
MODEL 2
REMARK VINA RESULT:    -7.337      1.999      2.795
REMARK INTER + INTRA:         -10.474
REMARK INTER:                  -8.232
REMARK INTRA:                  -2.242
REMARK CONF_INDEPENDENT:        0.895
REMARK UNBOUND:                -2.242
REMARK  3 active torsions:
REMARK  status: ('A' for Active; 'I' for Inactive)
REMARK    1  A    between atoms: C_9  and  N_10 
REMARK    2  A    between atoms: C_20  and  C_21 
REMARK    3  A    between atoms: C_26  and  N_27 
ROOT
ATOM      1  N   UNL d   1      29.301 -12.558  -7.548  0.00  0.00    -0.101 N 
ATOM      2  C   UNL d   1      28.844 -13.117  -6.515  0.00  0.00    -0.005 C 
ATOM      3  C   UNL d   1      28.293 -13.791  -5.269  0.00  0.00     0.184 C 
ATOM      4  C   UNL d   1      28.578 -15.270  -5.138  0.00  0.00     0.241 C 
ATOM      5  O   UNL d   1      29.239 -15.927  -5.933  0.00  0.00    -0.272 OA
ATOM      6  N   UNL d   1      28.064 -15.818  -3.955  0.00  0.00    -0.309 N 
ATOM      7  C   UNL d   1      26.829 -15.466  -3.437  0.00  0.00     0.162 A 
ATOM      8  N   UNL d   1      26.302 -16.230  -2.414  0.00  0.00    -0.046 NA
ATOM      9  C   UNL d   1      25.065 -16.014  -2.051  0.00  0.00     0.707 A 
ATOM     10  N   UNL d   1      24.325 -15.027  -2.644  0.00  0.00    -0.154 N 
ATOM     11  C   UNL d   1      24.795 -14.210  -3.611  0.00  0.00     0.270 A 
ATOM     12  O   UNL d   1      24.091 -13.325  -4.103  0.00  0.00    -0.267 OA
ATOM     13  C   UNL d   1      26.180 -14.453  -4.028  0.00  0.00     0.067 A 
ATOM     14  C   UNL d   1      26.780 -13.628  -5.136  0.00  0.00     0.089 C 
ATOM     15  H   UNL d   1      28.464 -16.693  -3.635  0.00  0.00     0.170 HD
ATOM     16  H   UNL d   1      23.406 -14.812  -2.294  0.00  0.00     0.187 HD
ENDROOT
BRANCH  14  17
ATOM     17  C   UNL d   1      26.476 -12.151  -4.969  0.00  0.00    -0.015 C 
ATOM     18  C   UNL d   1      25.962 -11.467  -6.100  0.00  0.00     0.010 C 
ATOM     19  C   UNL d   1      25.530 -10.153  -6.008  0.00  0.00     0.001 C 
ATOM     20  C   UNL d   1      25.860  -9.417  -4.881  0.00  0.00     0.002 C 
ATOM     21  C   UNL d   1      26.484 -10.032  -3.796  0.00  0.00     0.037 C 
ATOM     22  C   UNL d   1      26.704 -11.418  -3.787  0.00  0.00     0.110 C 
BRANCH  22  23
ATOM     23  N   UNL d   1      27.152 -12.019  -2.505  0.00  0.00    -0.115 N 
ATOM     24  O   UNL d   1      26.280 -12.454  -1.742  0.00  0.00    -0.532 OA
ATOM     25  O   UNL d   1      28.361 -12.113  -2.267  0.00  0.00    -0.532 OA
ENDBRANCH  22  23
ENDBRANCH  14  17
BRANCH   9  26
ATOM     26  N   UNL d   1      24.389 -16.673  -1.039  0.00  0.00    -0.216 N 
ATOM     27  C   UNL d   1      25.010 -17.653  -0.137  0.00  0.00     0.141 C 
ATOM     28  C   UNL d   1      24.196 -18.952  -0.145  0.00  0.00     0.020 C 
ATOM     29  C   UNL d   1      22.725 -18.696   0.188  0.00  0.00     0.003 C 
ATOM     30  C   UNL d   1      22.155 -17.569  -0.677  0.00  0.00     0.020 C 
ATOM     31  C   UNL d   1      23.035 -16.308  -0.633  0.00  0.00     0.141 C 
ENDBRANCH   9  26
TORSDOF 3
ENDMDL
MODEL 3
REMARK VINA RESULT:    -7.304      3.280      6.539
REMARK INTER + INTRA:          -9.504
REMARK INTER:                  -8.199
REMARK INTRA:                  -1.305
REMARK CONF_INDEPENDENT:        0.895
REMARK UNBOUND:                -1.305
REMARK  3 active torsions:
REMARK  status: ('A' for Active; 'I' for Inactive)
REMARK    1  A    between atoms: C_9  and  N_10 
REMARK    2  A    between atoms: C_20  and  C_21 
REMARK    3  A    between atoms: C_26  and  N_27 
ROOT
ATOM      1  N   UNL d   1      25.494 -12.414  -3.251  0.00  0.00    -0.101 N 
ATOM      2  C   UNL d   1      26.309 -12.815  -2.378  0.00  0.00    -0.005 C 
ATOM      3  C   UNL d   1      27.292 -13.299  -1.325  0.00  0.00     0.184 C 
ATOM      4  C   UNL d   1      28.527 -12.448  -1.134  0.00  0.00     0.241 C 
ATOM      5  O   UNL d   1      28.755 -11.403  -1.733  0.00  0.00    -0.272 OA
ATOM      6  N   UNL d   1      29.373 -12.939  -0.131  0.00  0.00    -0.309 N 
ATOM      7  C   UNL d   1      29.625 -14.289   0.048  0.00  0.00     0.162 A 
ATOM      8  N   UNL d   1      30.653 -14.661   0.892  0.00  0.00    -0.046 NA
ATOM      9  C   UNL d   1      31.009 -15.918   0.920  0.00  0.00     0.707 A 
ATOM     10  N   UNL d   1      30.352 -16.848   0.161  0.00  0.00    -0.154 N 
ATOM     11  C   UNL d   1      29.306 -16.561  -0.643  0.00  0.00     0.270 A 
ATOM     12  O   UNL d   1      28.738 -17.439  -1.297  0.00  0.00    -0.267 OA
ATOM     13  C   UNL d   1      28.906 -15.150  -0.685  0.00  0.00     0.067 A 
ATOM     14  C   UNL d   1      27.783 -14.721  -1.591  0.00  0.00     0.089 C 
ATOM     15  H   UNL d   1      30.038 -12.290   0.276  0.00  0.00     0.170 HD
ATOM     16  H   UNL d   1      30.577 -17.825   0.259  0.00  0.00     0.187 HD
ENDROOT
BRANCH  14  17
ATOM     17  C   UNL d   1      26.593 -15.657  -1.499  0.00  0.00    -0.015 C 
ATOM     18  C   UNL d   1      26.310 -16.217  -0.226  0.00  0.00     0.010 C 
ATOM     19  C   UNL d   1      25.169 -16.975  -0.015  0.00  0.00     0.001 C 
ATOM     20  C   UNL d   1      24.448 -17.422  -1.110  0.00  0.00     0.002 C 
ATOM     21  C   UNL d   1      24.780 -16.990  -2.395  0.00  0.00     0.037 C 
ATOM     22  C   UNL d   1      25.783 -16.028  -2.591  0.00  0.00     0.110 C 
BRANCH  22  23
ATOM     23  N   UNL d   1      25.907 -15.455  -3.955  0.00  0.00    -0.115 N 
ATOM     24  O   UNL d   1      24.939 -14.825  -4.399  0.00  0.00    -0.532 OA
ATOM     25  O   UNL d   1      26.970 -15.575  -4.572  0.00  0.00    -0.532 OA
ENDBRANCH  22  23
ENDBRANCH  14  17
BRANCH   9  26
ATOM     26  N   UNL d   1      32.003 -16.463   1.715  0.00  0.00    -0.216 N 
ATOM     27  C   UNL d   1      32.730 -15.716   2.751  0.00  0.00     0.141 C 
ATOM     28  C   UNL d   1      34.240 -15.857   2.527  0.00  0.00     0.020 C 
ATOM     29  C   UNL d   1      34.664 -17.325   2.454  0.00  0.00     0.003 C 
ATOM     30  C   UNL d   1      33.787 -18.100   1.467  0.00  0.00     0.020 C 
ATOM     31  C   UNL d   1      32.288 -17.894   1.743  0.00  0.00     0.141 C 
ENDBRANCH   9  26
TORSDOF 3
ENDMDL
MODEL 4
REMARK VINA RESULT:    -7.083      2.823      6.913
REMARK INTER + INTRA:         -10.239
REMARK INTER:                  -7.978
REMARK INTRA:                  -2.261
REMARK CONF_INDEPENDENT:        0.895
REMARK UNBOUND:                -2.261
REMARK  3 active torsions:
REMARK  status: ('A' for Active; 'I' for Inactive)
REMARK    1  A    between atoms: C_9  and  N_10 
REMARK    2  A    between atoms: C_20  and  C_21 
REMARK    3  A    between atoms: C_26  and  N_27 
ROOT
ATOM      1  N   UNL d   1      30.498 -17.947  -4.039  0.00  0.00    -0.101 N 
ATOM      2  C   UNL d   1      29.832 -17.041  -4.609  0.00  0.00    -0.005 C 
ATOM      3  C   UNL d   1      29.029 -15.949  -5.296  0.00  0.00     0.184 C 
ATOM      4  C   UNL d   1      29.687 -15.299  -6.492  0.00  0.00     0.241 C 
ATOM      5  O   UNL d   1      30.778 -15.618  -6.949  0.00  0.00    -0.272 OA
ATOM      6  N   UNL d   1      28.879 -14.322  -7.090  0.00  0.00    -0.309 N 
ATOM      7  C   UNL d   1      28.107 -13.434  -6.359  0.00  0.00     0.162 A 
ATOM      8  N   UNL d   1      27.543 -12.358  -7.017  0.00  0.00    -0.046 NA
ATOM      9  C   UNL d   1      26.970 -11.425  -6.303  0.00  0.00     0.707 A 
ATOM     10  N   UNL d   1      26.897 -11.534  -4.940  0.00  0.00    -0.154 N 
ATOM     11  C   UNL d   1      27.380 -12.582  -4.241  0.00  0.00     0.270 A 
ATOM     12  O   UNL d   1      27.276 -12.640  -3.013  0.00  0.00    -0.267 OA
ATOM     13  C   UNL d   1      28.031 -13.630  -5.036  0.00  0.00     0.067 A 
ATOM     14  C   UNL d   1      28.646 -14.817  -4.344  0.00  0.00     0.089 C 
ATOM     15  H   UNL d   1      29.089 -14.068  -8.049  0.00  0.00     0.170 HD
ATOM     16  H   UNL d   1      26.376 -10.853  -4.411  0.00  0.00     0.187 HD
ENDROOT
BRANCH  14  17
ATOM     17  C   UNL d   1      27.731 -15.386  -3.276  0.00  0.00    -0.015 C 
ATOM     18  C   UNL d   1      28.330 -15.752  -2.043  0.00  0.00     0.010 C 
ATOM     19  C   UNL d   1      27.558 -16.154  -0.964  0.00  0.00     0.001 C 
ATOM     20  C   UNL d   1      26.225 -16.468  -1.173  0.00  0.00     0.002 C 
ATOM     21  C   UNL d   1      25.634 -16.239  -2.416  0.00  0.00     0.037 C 
ATOM     22  C   UNL d   1      26.349 -15.603  -3.443  0.00  0.00     0.110 C 
BRANCH  22  23
ATOM     23  N   UNL d   1      25.577 -15.188  -4.640  0.00  0.00    -0.115 N 
ATOM     24  O   UNL d   1      24.649 -14.386  -4.472  0.00  0.00    -0.532 OA
ATOM     25  O   UNL d   1      25.910 -15.605  -5.755  0.00  0.00    -0.532 OA
ENDBRANCH  22  23
ENDBRANCH  14  17
BRANCH   9  26
ATOM     26  N   UNL d   1      26.345 -10.293  -6.796  0.00  0.00    -0.216 N 
ATOM     27  C   UNL d   1      26.667  -9.673  -8.089  0.00  0.00     0.141 C 
ATOM     28  C   UNL d   1      26.968  -8.183  -7.888  0.00  0.00     0.020 C 
ATOM     29  C   UNL d   1      25.824  -7.471  -7.163  0.00  0.00     0.003 C 
ATOM     30  C   UNL d   1      25.424  -8.228  -5.894  0.00  0.00     0.020 C 
ATOM     31  C   UNL d   1      25.158  -9.718  -6.172  0.00  0.00     0.141 C 
ENDBRANCH   9  26
TORSDOF 3
ENDMDL
MODEL 5
REMARK VINA RESULT:    -7.082      2.286      4.119
REMARK INTER + INTRA:         -10.053
REMARK INTER:                  -7.976
REMARK INTRA:                  -2.076
REMARK CONF_INDEPENDENT:        0.895
REMARK UNBOUND:                -2.076
REMARK  3 active torsions:
REMARK  status: ('A' for Active; 'I' for Inactive)
REMARK    1  A    between atoms: C_9  and  N_10 
REMARK    2  A    between atoms: C_20  and  C_21 
REMARK    3  A    between atoms: C_26  and  N_27 
ROOT
ATOM      1  N   UNL d   1      28.444  -9.827  -7.574  0.00  0.00    -0.101 N 
ATOM      2  C   UNL d   1      27.885 -10.720  -6.883  0.00  0.00    -0.005 C 
ATOM      3  C   UNL d   1      27.211 -11.798  -6.050  0.00  0.00     0.184 C 
ATOM      4  C   UNL d   1      25.937 -11.387  -5.346  0.00  0.00     0.241 C 
ATOM      5  O   UNL d   1      25.413 -10.283  -5.436  0.00  0.00    -0.272 OA
ATOM      6  N   UNL d   1      25.358 -12.436  -4.619  0.00  0.00    -0.309 N 
ATOM      7  C   UNL d   1      26.102 -13.345  -3.886  0.00  0.00     0.162 A 
ATOM      8  N   UNL d   1      25.439 -14.184  -3.011  0.00  0.00    -0.046 NA
ATOM      9  C   UNL d   1      26.150 -14.911  -2.189  0.00  0.00     0.707 A 
ATOM     10  N   UNL d   1      27.518 -14.869  -2.223  0.00  0.00    -0.154 N 
ATOM     11  C   UNL d   1      28.227 -14.111  -3.087  0.00  0.00     0.270 A 
ATOM     12  O   UNL d   1      29.461 -14.120  -3.086  0.00  0.00    -0.267 OA
ATOM     13  C   UNL d   1      27.435 -13.288  -4.007  0.00  0.00     0.067 A 
ATOM     14  C   UNL d   1      28.134 -12.371  -4.975  0.00  0.00     0.089 C 
ATOM     15  H   UNL d   1      24.375 -12.353  -4.386  0.00  0.00     0.170 HD
ATOM     16  H   UNL d   1      28.052 -15.498  -1.647  0.00  0.00     0.187 HD
ENDROOT
BRANCH  14  17
ATOM     17  C   UNL d   1      29.296 -13.058  -5.668  0.00  0.00    -0.015 C 
ATOM     18  C   UNL d   1      30.427 -12.259  -5.975  0.00  0.00     0.010 C 
ATOM     19  C   UNL d   1      31.586 -12.823  -6.484  0.00  0.00     0.001 C 
ATOM     20  C   UNL d   1      31.546 -14.125  -6.957  0.00  0.00     0.002 C 
ATOM     21  C   UNL d   1      30.399 -14.901  -6.785  0.00  0.00     0.037 C 
ATOM     22  C   UNL d   1      29.307 -14.414  -6.051  0.00  0.00     0.110 C 
BRANCH  22  23
ATOM     23  N   UNL d   1      28.235 -15.385  -5.717  0.00  0.00    -0.115 N 
ATOM     24  O   UNL d   1      28.529 -16.325  -4.968  0.00  0.00    -0.532 OA
ATOM     25  O   UNL d   1      27.091 -15.200  -6.145  0.00  0.00    -0.532 OA
ENDBRANCH  22  23
ENDBRANCH  14  17
BRANCH   9  26
ATOM     26  N   UNL d   1      25.653 -15.812  -1.264  0.00  0.00    -0.216 N 
ATOM     27  C   UNL d   1      26.414 -16.310  -0.109  0.00  0.00     0.141 C 
ATOM     28  C   UNL d   1      26.397 -17.844  -0.101  0.00  0.00     0.020 C 
ATOM     29  C   UNL d   1      24.969 -18.390  -0.143  0.00  0.00     0.003 C 
ATOM     30  C   UNL d   1      24.166 -17.739  -1.273  0.00  0.00     0.020 C 
ATOM     31  C   UNL d   1      24.248 -16.204  -1.227  0.00  0.00     0.141 C 
ENDBRANCH   9  26
TORSDOF 3
ENDMDL
MODEL 6
REMARK VINA RESULT:    -7.027      7.962      9.103
REMARK INTER + INTRA:          -9.423
REMARK INTER:                  -7.922
REMARK INTRA:                  -1.502
REMARK CONF_INDEPENDENT:        0.895
REMARK UNBOUND:                -1.502
REMARK  3 active torsions:
REMARK  status: ('A' for Active; 'I' for Inactive)
REMARK    1  A    between atoms: C_9  and  N_10 
REMARK    2  A    between atoms: C_20  and  C_21 
REMARK    3  A    between atoms: C_26  and  N_27 
ROOT
ATOM      1  N   UNL d   1      27.030 -11.860  -0.848  0.00  0.00    -0.101 N 
ATOM      2  C   UNL d   1      27.489 -12.139   0.292  0.00  0.00    -0.005 C 
ATOM      3  C   UNL d   1      28.042 -12.477   1.667  0.00  0.00     0.184 C 
ATOM      4  C   UNL d   1      27.709 -13.856   2.192  0.00  0.00     0.241 C 
ATOM      5  O   UNL d   1      27.073 -14.703   1.577  0.00  0.00    -0.272 OA
ATOM      6  N   UNL d   1      28.273 -14.106   3.450  0.00  0.00    -0.309 N 
ATOM      7  C   UNL d   1      28.328 -13.153   4.453  0.00  0.00     0.162 A 
ATOM      8  N   UNL d   1      28.673 -13.560   5.728  0.00  0.00    -0.046 NA
ATOM      9  C   UNL d   1      28.548 -12.703   6.707  0.00  0.00     0.707 A 
ATOM     10  N   UNL d   1      28.125 -11.424   6.467  0.00  0.00    -0.154 N 
ATOM     11  C   UNL d   1      27.824 -10.947   5.241  0.00  0.00     0.270 A 
ATOM     12  O   UNL d   1      27.460  -9.780   5.076  0.00  0.00    -0.267 OA
ATOM     13  C   UNL d   1      27.954 -11.906   4.138  0.00  0.00     0.067 A 
ATOM     14  C   UNL d   1      27.593 -11.485   2.739  0.00  0.00     0.089 C 
ATOM     15  H   UNL d   1      28.372 -15.075   3.731  0.00  0.00     0.170 HD
ATOM     16  H   UNL d   1      28.119 -10.750   7.216  0.00  0.00     0.187 HD
ENDROOT
BRANCH  14  17
ATOM     17  C   UNL d   1      28.165 -10.123   2.392  0.00  0.00    -0.015 C 
ATOM     18  C   UNL d   1      29.568 -10.043   2.200  0.00  0.00     0.010 C 
ATOM     19  C   UNL d   1      30.164  -8.875   1.751  0.00  0.00     0.001 C 
ATOM     20  C   UNL d   1      29.428  -7.702   1.758  0.00  0.00     0.002 C 
ATOM     21  C   UNL d   1      28.068  -7.726   2.068  0.00  0.00     0.037 C 
ATOM     22  C   UNL d   1      27.404  -8.942   2.285  0.00  0.00     0.110 C 
BRANCH  22  23
ATOM     23  N   UNL d   1      25.923  -8.893   2.372  0.00  0.00    -0.115 N 
ATOM     24  O   UNL d   1      25.377  -9.598   3.230  0.00  0.00    -0.532 OA
ATOM     25  O   UNL d   1      25.295  -8.123   1.637  0.00  0.00    -0.532 OA
ENDBRANCH  22  23
ENDBRANCH  14  17
BRANCH   9  26
ATOM     26  N   UNL d   1      28.862 -12.936   8.035  0.00  0.00    -0.216 N 
ATOM     27  C   UNL d   1      29.664 -14.075   8.504  0.00  0.00     0.141 C 
ATOM     28  C   UNL d   1      28.904 -14.825   9.605  0.00  0.00     0.020 C 
ATOM     29  C   UNL d   1      28.493 -13.889  10.742  0.00  0.00     0.003 C 
ATOM     30  C   UNL d   1      27.786 -12.645  10.199  0.00  0.00     0.020 C 
ATOM     31  C   UNL d   1      28.598 -11.959   9.087  0.00  0.00     0.141 C 
ENDBRANCH   9  26
TORSDOF 3
ENDMDL
MODEL 7
REMARK VINA RESULT:    -6.805      2.544      6.686
REMARK INTER + INTRA:          -9.936
REMARK INTER:                  -7.700
REMARK INTRA:                  -2.237
REMARK CONF_INDEPENDENT:        0.895
REMARK UNBOUND:                -2.237
REMARK  3 active torsions:
REMARK  status: ('A' for Active; 'I' for Inactive)
REMARK    1  A    between atoms: C_9  and  N_10 
REMARK    2  A    between atoms: C_20  and  C_21 
REMARK    3  A    between atoms: C_26  and  N_27 
ROOT
ATOM      1  N   UNL d   1      30.222 -17.522  -4.325  0.00  0.00    -0.101 N 
ATOM      2  C   UNL d   1      29.466 -16.556  -4.612  0.00  0.00    -0.005 C 
ATOM      3  C   UNL d   1      28.555 -15.390  -4.957  0.00  0.00     0.184 C 
ATOM      4  C   UNL d   1      29.061 -14.451  -6.030  0.00  0.00     0.241 C 
ATOM      5  O   UNL d   1      30.112 -14.593  -6.643  0.00  0.00    -0.272 OA
ATOM      6  N   UNL d   1      28.159 -13.417  -6.314  0.00  0.00    -0.309 N 
ATOM      7  C   UNL d   1      27.430 -12.763  -5.335  0.00  0.00     0.162 A 
ATOM      8  N   UNL d   1      26.760 -11.604  -5.677  0.00  0.00    -0.046 NA
ATOM      9  C   UNL d   1      26.226 -10.891  -4.721  0.00  0.00     0.707 A 
ATOM     10  N   UNL d   1      26.297 -11.303  -3.418  0.00  0.00    -0.154 N 
ATOM     11  C   UNL d   1      26.890 -12.449  -3.021  0.00  0.00     0.270 A 
ATOM     12  O   UNL d   1      26.914 -12.784  -1.834  0.00  0.00    -0.267 OA
ATOM     13  C   UNL d   1      27.497 -13.252  -4.089  0.00  0.00     0.067 A 
ATOM     14  C   UNL d   1      28.226 -14.523  -3.743  0.00  0.00     0.089 C 
ATOM     15  H   UNL d   1      28.259 -12.944  -7.205  0.00  0.00     0.170 HD
ATOM     16  H   UNL d   1      25.806 -10.791  -2.703  0.00  0.00     0.187 HD
ENDROOT
BRANCH  14  17
ATOM     17  C   UNL d   1      27.448 -15.370  -2.754  0.00  0.00    -0.015 C 
ATOM     18  C   UNL d   1      28.186 -15.978  -1.705  0.00  0.00     0.010 C 
ATOM     19  C   UNL d   1      27.547 -16.658  -0.681  0.00  0.00     0.001 C 
ATOM     20  C   UNL d   1      26.209 -16.986  -0.826  0.00  0.00     0.002 C 
ATOM     21  C   UNL d   1      25.481 -16.508  -1.917  0.00  0.00     0.037 C 
ATOM     22  C   UNL d   1      26.063 -15.617  -2.831  0.00  0.00     0.110 C 
BRANCH  22  23
ATOM     23  N   UNL d   1      25.155 -14.978  -3.817  0.00  0.00    -0.115 N 
ATOM     24  O   UNL d   1      24.319 -14.173  -3.386  0.00  0.00    -0.532 OA
ATOM     25  O   UNL d   1      25.293 -15.223  -5.020  0.00  0.00    -0.532 OA
ENDBRANCH  22  23
ENDBRANCH  14  17
BRANCH   9  26
ATOM     26  N   UNL d   1      25.510  -9.718  -4.886  0.00  0.00    -0.216 N 
ATOM     27  C   UNL d   1      24.857  -9.322  -6.143  0.00  0.00     0.141 C 
ATOM     28  C   UNL d   1      25.307  -7.910  -6.536  0.00  0.00     0.020 C 
ATOM     29  C   UNL d   1      25.064  -6.907  -5.407  0.00  0.00     0.003 C 
ATOM     30  C   UNL d   1      25.635  -7.424  -4.083  0.00  0.00     0.020 C 
ATOM     31  C   UNL d   1      25.156  -8.851  -3.767  0.00  0.00     0.141 C 
ENDBRANCH   9  26
TORSDOF 3
ENDMDL
MODEL 8
REMARK VINA RESULT:    -6.370      3.375      5.702
REMARK INTER + INTRA:          -9.509
REMARK INTER:                  -7.265
REMARK INTRA:                  -2.244
REMARK CONF_INDEPENDENT:        0.895
REMARK UNBOUND:                -2.244
REMARK  3 active torsions:
REMARK  status: ('A' for Active; 'I' for Inactive)
REMARK    1  A    between atoms: C_9  and  N_10 
REMARK    2  A    between atoms: C_20  and  C_21 
REMARK    3  A    between atoms: C_26  and  N_27 
ROOT
ATOM      1  N   UNL d   1      26.285 -13.153   0.705  0.00  0.00    -0.101 N 
ATOM      2  C   UNL d   1      26.729 -13.984  -0.132  0.00  0.00    -0.005 C 
ATOM      3  C   UNL d   1      27.264 -14.987  -1.141  0.00  0.00     0.184 C 
ATOM      4  C   UNL d   1      28.082 -16.124  -0.572  0.00  0.00     0.241 C 
ATOM      5  O   UNL d   1      28.298 -16.300   0.621  0.00  0.00    -0.272 OA
ATOM      6  N   UNL d   1      28.519 -17.022  -1.555  0.00  0.00    -0.309 N 
ATOM      7  C   UNL d   1      28.969 -16.614  -2.800  0.00  0.00     0.162 A 
ATOM      8  N   UNL d   1      29.606 -17.539  -3.604  0.00  0.00    -0.046 NA
ATOM      9  C   UNL d   1      30.189 -17.115  -4.694  0.00  0.00     0.707 A 
ATOM     10  N   UNL d   1      30.135 -15.795  -5.049  0.00  0.00    -0.154 N 
ATOM     11  C   UNL d   1      29.485 -14.849  -4.337  0.00  0.00     0.270 A 
ATOM     12  O   UNL d   1      29.453 -13.673  -4.707  0.00  0.00    -0.267 OA
ATOM     13  C   UNL d   1      28.834 -15.317  -3.108  0.00  0.00     0.067 A 
ATOM     14  C   UNL d   1      28.126 -14.330  -2.218  0.00  0.00     0.089 C 
ATOM     15  H   UNL d   1      28.789 -17.950  -1.250  0.00  0.00     0.170 HD
ATOM     16  H   UNL d   1      30.511 -15.498  -5.934  0.00  0.00     0.187 HD
ENDROOT
BRANCH  14  17
ATOM     17  C   UNL d   1      27.249 -13.380  -3.012  0.00  0.00    -0.015 C 
ATOM     18  C   UNL d   1      27.306 -12.006  -2.662  0.00  0.00     0.010 C 
ATOM     19  C   UNL d   1      26.645 -11.048  -3.415  0.00  0.00     0.001 C 
ATOM     20  C   UNL d   1      25.701 -11.458  -4.343  0.00  0.00     0.002 C 
ATOM     21  C   UNL d   1      25.529 -12.815  -4.620  0.00  0.00     0.037 C 
ATOM     22  C   UNL d   1      26.367 -13.777  -4.037  0.00  0.00     0.110 C 
BRANCH  22  23
ATOM     23  N   UNL d   1      26.270 -15.161  -4.566  0.00  0.00    -0.115 N 
ATOM     24  O   UNL d   1      25.531 -15.951  -3.966  0.00  0.00    -0.532 OA
ATOM     25  O   UNL d   1      26.878 -15.462  -5.599  0.00  0.00    -0.532 OA
ENDBRANCH  22  23
ENDBRANCH  14  17
BRANCH   9  26
ATOM     26  N   UNL d   1      30.855 -17.903  -5.618  0.00  0.00    -0.216 N 
ATOM     27  C   UNL d   1      31.770 -17.376  -6.641  0.00  0.00     0.141 C 
ATOM     28  C   UNL d   1      31.349 -17.887  -8.024  0.00  0.00     0.020 C 
ATOM     29  C   UNL d   1      31.251 -19.413  -8.054  0.00  0.00     0.003 C 
ATOM     30  C   UNL d   1      30.405 -19.930  -6.887  0.00  0.00     0.020 C 
ATOM     31  C   UNL d   1      30.875 -19.360  -5.537  0.00  0.00     0.141 C 
ENDBRANCH   9  26
TORSDOF 3
ENDMDL
MODEL 9
REMARK VINA RESULT:    -6.352      3.015      6.393
REMARK INTER + INTRA:          -9.504
REMARK INTER:                  -7.247
REMARK INTRA:                  -2.257
REMARK CONF_INDEPENDENT:        0.895
REMARK UNBOUND:                -2.257
REMARK  3 active torsions:
REMARK  status: ('A' for Active; 'I' for Inactive)
REMARK    1  A    between atoms: C_9  and  N_10 
REMARK    2  A    between atoms: C_20  and  C_21 
REMARK    3  A    between atoms: C_26  and  N_27 
ROOT
ATOM      1  N   UNL d   1      23.335 -17.676  -1.643  0.00  0.00    -0.101 N 
ATOM      2  C   UNL d   1      24.550 -17.452  -1.395  0.00  0.00    -0.005 C 
ATOM      3  C   UNL d   1      26.015 -17.181  -1.096  0.00  0.00     0.184 C 
ATOM      4  C   UNL d   1      26.566 -17.834   0.153  0.00  0.00     0.241 C 
ATOM      5  O   UNL d   1      25.930 -18.575   0.892  0.00  0.00    -0.272 OA
ATOM      6  N   UNL d   1      27.926 -17.563   0.350  0.00  0.00    -0.309 N 
ATOM      7  C   UNL d   1      28.490 -16.321   0.105  0.00  0.00     0.162 A 
ATOM      8  N   UNL d   1      29.772 -16.080   0.560  0.00  0.00    -0.046 NA
ATOM      9  C   UNL d   1      30.235 -14.859   0.492  0.00  0.00     0.707 A 
ATOM     10  N   UNL d   1      29.481 -13.855  -0.051  0.00  0.00    -0.154 N 
ATOM     11  C   UNL d   1      28.243 -14.032  -0.560  0.00  0.00     0.270 A 
ATOM     12  O   UNL d   1      27.609 -13.096  -1.052  0.00  0.00    -0.267 OA
ATOM     13  C   UNL d   1      27.715 -15.399  -0.481  0.00  0.00     0.067 A 
ATOM     14  C   UNL d   1      26.323 -15.690  -0.976  0.00  0.00     0.089 C 
ATOM     15  H   UNL d   1      28.442 -18.190   0.957  0.00  0.00     0.170 HD
ATOM     16  H   UNL d   1      29.882 -12.940  -0.177  0.00  0.00     0.187 HD
ENDROOT
BRANCH  14  17
ATOM     17  C   UNL d   1      26.055 -15.042  -2.322  0.00  0.00    -0.015 C 
ATOM     18  C   UNL d   1      24.779 -14.449  -2.510  0.00  0.00     0.010 C 
ATOM     19  C   UNL d   1      24.490 -13.720  -3.652  0.00  0.00     0.001 C 
ATOM     20  C   UNL d   1      25.347 -13.804  -4.737  0.00  0.00     0.002 C 
ATOM     21  C   UNL d   1      26.557 -14.491  -4.626  0.00  0.00     0.037 C 
ATOM     22  C   UNL d   1      26.968 -15.025  -3.395  0.00  0.00     0.110 C 
BRANCH  22  23
ATOM     23  N   UNL d   1      28.363 -15.525  -3.312  0.00  0.00    -0.115 N 
ATOM     24  O   UNL d   1      29.275 -14.715  -3.524  0.00  0.00    -0.532 OA
ATOM     25  O   UNL d   1      28.571 -16.700  -2.989  0.00  0.00    -0.532 OA
ENDBRANCH  22  23
ENDBRANCH  14  17
BRANCH   9  26
ATOM     26  N   UNL d   1      31.496 -14.446   0.885  0.00  0.00    -0.216 N 
ATOM     27  C   UNL d   1      32.498 -13.880  -0.030  0.00  0.00     0.141 C 
ATOM     28  C   UNL d   1      33.817 -14.650   0.106  0.00  0.00     0.020 C 
ATOM     29  C   UNL d   1      34.300 -14.686   1.557  0.00  0.00     0.003 C 
ATOM     30  C   UNL d   1      33.181 -15.146   2.496  0.00  0.00     0.020 C 
ATOM     31  C   UNL d   1      31.886 -14.342   2.287  0.00  0.00     0.141 C 
ENDBRANCH   9  26
TORSDOF 3
ENDMDL
