MODEL 1
REMARK VINA RESULT:    -8.217      0.000      0.000
REMARK INTER + INTRA:         -12.549
REMARK INTER:                 -10.007
REMARK INTRA:                  -2.542
REMARK CONF_INDEPENDENT:        1.790
REMARK UNBOUND:                -2.542
REMARK  6 active torsions:
REMARK  status: ('A' for Active; 'I' for Inactive)
REMARK    1  A    between atoms: C_2  and  N_3 
REMARK    2  A    between atoms: C_2  and  C_14 
REMARK    3  A    between atoms: N_3  and  C_4 
REMARK    4  A    between atoms: C_7  and  C_8 
REMARK       I    between atoms: C_8  and  N_9 
REMARK    5  A    between atoms: C_14  and  O_15 
REMARK    6  A    between atoms: C_14  and  C_16 
ROOT
ATOM      1  N   UNL d   1      25.369 -15.707  -1.028  0.00  0.00    -0.269 NA
ATOM      2  H   UNL d   1      24.954 -14.775  -1.014  0.00  0.00     0.129 HD
ENDROOT
BRANCH   1   3
ATOM      3  C   UNL d   1      26.226 -15.892  -2.255  0.00  0.00     0.091 C 
ATOM      4  C   UNL d   1      27.549 -15.172  -2.083  0.00  0.00     0.029 C 
BRANCH   3   5
ATOM      5  C   UNL d   1      25.529 -15.324  -3.538  0.00  0.00     0.168 C 
BRANCH   5   6
ATOM      6  O   UNL d   1      24.442 -14.450  -3.195  0.00  0.00    -0.389 OA
ATOM      7  H   UNL d   1      23.985 -14.833  -2.429  0.00  0.00     0.210 HD
ENDBRANCH   5   6
BRANCH   5   8
ATOM      8  C   UNL d   1      26.460 -14.555  -4.454  0.00  0.00    -0.028 A 
ATOM      9  C   UNL d   1      27.417 -15.200  -5.254  0.00  0.00     0.011 A 
ATOM     10  C   UNL d   1      28.200 -14.500  -6.158  0.00  0.00     0.019 A 
ATOM     11  C   UNL d   1      28.076 -13.123  -6.235  0.00  0.00     0.011 A 
ATOM     12 BR   UNL d   1      29.162 -12.178  -7.454  0.00  0.00    -0.051 Br
ATOM     13  C   UNL d   1      27.171 -12.445  -5.418  0.00  0.00     0.019 A 
ATOM     14  C   UNL d   1      26.358 -13.158  -4.535  0.00  0.00     0.011 A 
ENDBRANCH   5   8
ENDBRANCH   3   5
ENDBRANCH   1   3
BRANCH   1  15
ATOM     15  C   UNL d   1      24.302 -16.616  -0.878  0.00  0.00     0.125 C 
ATOM     16  N   UNL d   1      23.040 -16.134  -1.041  0.00  0.00    -0.246 NA
ATOM     17  C   UNL d   1      21.995 -17.015  -0.895  0.00  0.00     0.135 C 
ATOM     18  C   UNL d   1      22.142 -18.380  -0.689  0.00  0.00     0.051 C 
ATOM     19  C   UNL d   1      23.437 -18.852  -0.537  0.00  0.00     0.045 C 
ATOM     20  C   UNL d   1      24.500 -17.960  -0.525  0.00  0.00     0.075 C 
ATOM     21 CL   UNL d   1      25.933 -18.570   0.230  0.00  0.00    -0.081 Cl
BRANCH  18  22
ATOM     22  C   UNL d   1      21.047 -19.369  -0.533  0.00  0.00     0.250 C 
ATOM     23  N   UNL d   1      20.819 -19.916   0.696  0.00  0.00    -0.366 N 
ATOM     24  H   UNL d   1      21.336 -19.724   1.538  0.00  0.00     0.159 HD
ATOM     25  H   UNL d   1      20.063 -20.590   0.751  0.00  0.00     0.159 HD
ATOM     26  O   UNL d   1      20.358 -19.699  -1.484  0.00  0.00    -0.268 OA
ENDBRANCH  18  22
ENDBRANCH   1  15
TORSDOF 6
ENDMDL
MODEL 2
REMARK VINA RESULT:    -7.410      5.659      8.069
REMARK INTER + INTRA:         -10.713
REMARK INTER:                  -9.200
REMARK INTRA:                  -1.513
REMARK CONF_INDEPENDENT:        1.790
REMARK UNBOUND:                -1.513
REMARK  6 active torsions:
REMARK  status: ('A' for Active; 'I' for Inactive)
REMARK    1  A    between atoms: C_2  and  N_3 
REMARK    2  A    between atoms: C_2  and  C_14 
REMARK    3  A    between atoms: N_3  and  C_4 
REMARK    4  A    between atoms: C_7  and  C_8 
REMARK       I    between atoms: C_8  and  N_9 
REMARK    5  A    between atoms: C_14  and  O_15 
REMARK    6  A    between atoms: C_14  and  C_16 
ROOT
ATOM      1  N   UNL d   1      27.848 -15.030   1.643  0.00  0.00    -0.269 NA
ATOM      2  H   UNL d   1      28.771 -15.411   1.855  0.00  0.00     0.129 HD
ENDROOT
BRANCH   1   3
ATOM      3  C   UNL d   1      27.620 -14.982   0.153  0.00  0.00     0.091 C 
ATOM      4  C   UNL d   1      26.284 -14.332  -0.150  0.00  0.00     0.029 C 
BRANCH   3   5
ATOM      5  C   UNL d   1      27.615 -16.415  -0.478  0.00  0.00     0.168 C 
BRANCH   5   6
ATOM      6  O   UNL d   1      28.508 -17.295   0.223  0.00  0.00    -0.389 OA
ATOM      7  H   UNL d   1      28.816 -16.831   1.019  0.00  0.00     0.210 HD
ENDBRANCH   5   6
BRANCH   5   8
ATOM      8  C   UNL d   1      26.251 -17.073  -0.501  0.00  0.00    -0.028 A 
ATOM      9  C   UNL d   1      25.755 -17.796   0.596  0.00  0.00     0.011 A 
ATOM     10  C   UNL d   1      24.471 -18.316   0.605  0.00  0.00     0.019 A 
ATOM     11  C   UNL d   1      23.675 -18.166  -0.518  0.00  0.00     0.011 A 
ATOM     12 BR   UNL d   1      21.935 -18.895  -0.504  0.00  0.00    -0.051 Br
ATOM     13  C   UNL d   1      24.153 -17.498  -1.645  0.00  0.00     0.019 A 
ATOM     14  C   UNL d   1      25.436 -16.945  -1.635  0.00  0.00     0.011 A 
ENDBRANCH   5   8
ENDBRANCH   3   5
ENDBRANCH   1   3
BRANCH   1  15
ATOM     15  C   UNL d   1      27.765 -13.797   2.321  0.00  0.00     0.125 C 
ATOM     16  N   UNL d   1      27.783 -12.664   1.567  0.00  0.00    -0.246 NA
ATOM     17  C   UNL d   1      27.702 -11.458   2.222  0.00  0.00     0.135 C 
ATOM     18  C   UNL d   1      27.508 -11.320   3.590  0.00  0.00     0.051 C 
ATOM     19  C   UNL d   1      27.481 -12.486   4.337  0.00  0.00     0.045 C 
ATOM     20  C   UNL d   1      27.715 -13.708   3.721  0.00  0.00     0.075 C 
ATOM     21 CL   UNL d   1      28.223 -14.964   4.798  0.00  0.00    -0.081 Cl
BRANCH  18  22
ATOM     22  C   UNL d   1      27.408 -10.042   4.339  0.00  0.00     0.250 C 
ATOM     23  N   UNL d   1      28.154  -9.878   5.470  0.00  0.00    -0.366 N 
ATOM     24  H   UNL d   1      28.780 -10.555   5.873  0.00  0.00     0.159 HD
ATOM     25  H   UNL d   1      28.048  -8.991   5.948  0.00  0.00     0.159 HD
ATOM     26  O   UNL d   1      26.669  -9.148   3.961  0.00  0.00    -0.268 OA
ENDBRANCH  18  22
ENDBRANCH   1  15
TORSDOF 6
ENDMDL
MODEL 3
REMARK VINA RESULT:    -7.401      6.673      8.623
REMARK INTER + INTRA:         -10.873
REMARK INTER:                  -9.191
REMARK INTRA:                  -1.682
REMARK CONF_INDEPENDENT:        1.790
REMARK UNBOUND:                -1.682
REMARK  6 active torsions:
REMARK  status: ('A' for Active; 'I' for Inactive)
REMARK    1  A    between atoms: C_2  and  N_3 
REMARK    2  A    between atoms: C_2  and  C_14 
REMARK    3  A    between atoms: N_3  and  C_4 
REMARK    4  A    between atoms: C_7  and  C_8 
REMARK       I    between atoms: C_8  and  N_9 
REMARK    5  A    between atoms: C_14  and  O_15 
REMARK    6  A    between atoms: C_14  and  C_16 
ROOT
ATOM      1  N   UNL d   1      27.788 -15.102   2.739  0.00  0.00    -0.269 NA
ATOM      2  H   UNL d   1      28.347 -15.949   2.630  0.00  0.00     0.129 HD
ENDROOT
BRANCH   1   3
ATOM      3  C   UNL d   1      27.772 -14.305   1.460  0.00  0.00     0.091 C 
ATOM      4  C   UNL d   1      26.452 -13.574   1.315  0.00  0.00     0.029 C 
BRANCH   3   5
ATOM      5  C   UNL d   1      27.957 -15.222   0.203  0.00  0.00     0.168 C 
BRANCH   5   6
ATOM      6  O   UNL d   1      29.075 -16.109   0.367  0.00  0.00    -0.389 OA
ATOM      7  H   UNL d   1      29.238 -16.207   1.320  0.00  0.00     0.210 HD
ENDBRANCH   5   6
BRANCH   5   8
ATOM      8  C   UNL d   1      26.745 -16.072  -0.122  0.00  0.00    -0.028 A 
ATOM      9  C   UNL d   1      26.542 -17.332   0.463  0.00  0.00     0.011 A 
ATOM     10  C   UNL d   1      25.388 -18.063   0.234  0.00  0.00     0.019 A 
ATOM     11  C   UNL d   1      24.434 -17.563  -0.637  0.00  0.00     0.011 A 
ATOM     12 BR   UNL d   1      22.875 -18.575  -0.958  0.00  0.00    -0.051 Br
ATOM     13  C   UNL d   1      24.627 -16.337  -1.274  0.00  0.00     0.019 A 
ATOM     14  C   UNL d   1      25.776 -15.588  -1.012  0.00  0.00     0.011 A 
ENDBRANCH   5   8
ENDBRANCH   3   5
ENDBRANCH   1   3
BRANCH   1  15
ATOM     15  C   UNL d   1      28.296 -14.438   3.874  0.00  0.00     0.125 C 
ATOM     16  N   UNL d   1      27.397 -13.886   4.733  0.00  0.00    -0.246 NA
ATOM     17  C   UNL d   1      27.887 -13.237   5.842  0.00  0.00     0.135 C 
ATOM     18  C   UNL d   1      29.229 -13.190   6.195  0.00  0.00     0.051 C 
ATOM     19  C   UNL d   1      30.127 -13.769   5.312  0.00  0.00     0.045 C 
ATOM     20  C   UNL d   1      29.673 -14.294   4.110  0.00  0.00     0.075 C 
ATOM     21 CL   UNL d   1      30.893 -14.442   2.891  0.00  0.00    -0.081 Cl
BRANCH  18  22
ATOM     22  C   UNL d   1      29.803 -12.510   7.383  0.00  0.00     0.250 C 
ATOM     23  N   UNL d   1      31.157 -12.512   7.557  0.00  0.00    -0.366 N 
ATOM     24  H   UNL d   1      31.833 -12.948   6.953  0.00  0.00     0.159 HD
ATOM     25  H   UNL d   1      31.500 -12.038   8.385  0.00  0.00     0.159 HD
ATOM     26  O   UNL d   1      29.084 -11.958   8.199  0.00  0.00    -0.268 OA
ENDBRANCH  18  22
ENDBRANCH   1  15
TORSDOF 6
ENDMDL
MODEL 4
REMARK VINA RESULT:    -7.310      4.136      8.112
REMARK INTER + INTRA:         -10.924
REMARK INTER:                  -9.100
REMARK INTRA:                  -1.824
REMARK CONF_INDEPENDENT:        1.790
REMARK UNBOUND:                -1.824
REMARK  6 active torsions:
REMARK  status: ('A' for Active; 'I' for Inactive)
REMARK    1  A    between atoms: C_2  and  N_3 
REMARK    2  A    between atoms: C_2  and  C_14 
REMARK    3  A    between atoms: N_3  and  C_4 
REMARK    4  A    between atoms: C_7  and  C_8 
REMARK       I    between atoms: C_8  and  N_9 
REMARK    5  A    between atoms: C_14  and  O_15 
REMARK    6  A    between atoms: C_14  and  C_16 
ROOT
ATOM      1  N   UNL d   1      24.856 -16.076  -1.027  0.00  0.00    -0.269 NA
ATOM      2  H   UNL d   1      25.421 -16.788  -0.563  0.00  0.00     0.129 HD
ENDROOT
BRANCH   1   3
ATOM      3  C   UNL d   1      23.453 -16.577  -1.260  0.00  0.00     0.091 C 
ATOM      4  C   UNL d   1      22.538 -16.107  -0.145  0.00  0.00     0.029 C 
BRANCH   3   5
ATOM      5  C   UNL d   1      23.396 -18.141  -1.305  0.00  0.00     0.168 C 
BRANCH   5   6
ATOM      6  O   UNL d   1      24.467 -18.722  -0.543  0.00  0.00    -0.389 OA
ATOM      7  H   UNL d   1      25.014 -17.996  -0.201  0.00  0.00     0.210 HD
ENDBRANCH   5   6
BRANCH   5   8
ATOM      8  C   UNL d   1      22.098 -18.726  -0.786  0.00  0.00    -0.028 A 
ATOM      9  C   UNL d   1      21.046 -19.080  -1.645  0.00  0.00     0.011 A 
ATOM     10  C   UNL d   1      19.899 -19.700  -1.174  0.00  0.00     0.019 A 
ATOM     11  C   UNL d   1      19.765 -19.926   0.186  0.00  0.00     0.011 A 
ATOM     12 BR   UNL d   1      18.191 -20.752   0.819  0.00  0.00    -0.051 Br
ATOM     13  C   UNL d   1      20.769 -19.540   1.074  0.00  0.00     0.019 A 
ATOM     14  C   UNL d   1      21.938 -18.948   0.590  0.00  0.00     0.011 A 
ENDBRANCH   5   8
ENDBRANCH   3   5
ENDBRANCH   1   3
BRANCH   1  15
ATOM     15  C   UNL d   1      25.573 -15.691  -2.178  0.00  0.00     0.125 C 
ATOM     16  N   UNL d   1      24.857 -15.227  -3.238  0.00  0.00    -0.246 NA
ATOM     17  C   UNL d   1      25.551 -14.850  -4.363  0.00  0.00     0.135 C 
ATOM     18  C   UNL d   1      26.936 -14.821  -4.458  0.00  0.00     0.051 C 
ATOM     19  C   UNL d   1      27.646 -15.288  -3.363  0.00  0.00     0.045 C 
ATOM     20  C   UNL d   1      26.968 -15.818  -2.274  0.00  0.00     0.075 C 
ATOM     21 CL   UNL d   1      27.925 -16.861  -1.278  0.00  0.00    -0.081 Cl
BRANCH  18  22
ATOM     22  C   UNL d   1      27.728 -14.416  -5.646  0.00  0.00     0.250 C 
ATOM     23  N   UNL d   1      27.944 -13.088  -5.876  0.00  0.00    -0.366 N 
ATOM     24  H   UNL d   1      27.607 -12.325  -5.314  0.00  0.00     0.159 HD
ATOM     25  H   UNL d   1      28.487 -12.862  -6.702  0.00  0.00     0.159 HD
ATOM     26  O   UNL d   1      28.178 -15.249  -6.415  0.00  0.00    -0.268 OA
ENDBRANCH  18  22
ENDBRANCH   1  15
TORSDOF 6
ENDMDL
MODEL 5
REMARK VINA RESULT:    -7.028      6.148      8.789
REMARK INTER + INTRA:         -10.734
REMARK INTER:                  -8.818
REMARK INTRA:                  -1.915
REMARK CONF_INDEPENDENT:        1.790
REMARK UNBOUND:                -1.915
REMARK  6 active torsions:
REMARK  status: ('A' for Active; 'I' for Inactive)
REMARK    1  A    between atoms: C_2  and  N_3 
REMARK    2  A    between atoms: C_2  and  C_14 
REMARK    3  A    between atoms: N_3  and  C_4 
REMARK    4  A    between atoms: C_7  and  C_8 
REMARK       I    between atoms: C_8  and  N_9 
REMARK    5  A    between atoms: C_14  and  O_15 
REMARK    6  A    between atoms: C_14  and  C_16 
ROOT
ATOM      1  N   UNL d   1      28.239 -15.061   2.031  0.00  0.00    -0.269 NA
ATOM      2  H   UNL d   1      28.737 -15.950   2.091  0.00  0.00     0.129 HD
ENDROOT
BRANCH   1   3
ATOM      3  C   UNL d   1      27.954 -14.705   0.594  0.00  0.00     0.091 C 
ATOM      4  C   UNL d   1      26.580 -14.076   0.473  0.00  0.00     0.029 C 
BRANCH   3   5
ATOM      5  C   UNL d   1      27.990 -15.968  -0.333  0.00  0.00     0.168 C 
BRANCH   5   6
ATOM      6  O   UNL d   1      28.914 -16.950   0.162  0.00  0.00    -0.389 OA
ATOM      7  H   UNL d   1      29.324 -16.590   0.966  0.00  0.00     0.210 HD
ENDBRANCH   5   6
BRANCH   5   8
ATOM      8  C   UNL d   1      26.646 -16.649  -0.498  0.00  0.00    -0.028 A 
ATOM      9  C   UNL d   1      26.205 -17.648   0.384  0.00  0.00     0.011 A 
ATOM     10  C   UNL d   1      24.939 -18.200   0.284  0.00  0.00     0.019 A 
ATOM     11  C   UNL d   1      24.106 -17.796  -0.747  0.00  0.00     0.011 A 
ATOM     12 BR   UNL d   1      22.391 -18.569  -0.887  0.00  0.00    -0.051 Br
ATOM     13  C   UNL d   1      24.531 -16.842  -1.672  0.00  0.00     0.019 A 
ATOM     14  C   UNL d   1      25.795 -16.262  -1.544  0.00  0.00     0.011 A 
ENDBRANCH   5   8
ENDBRANCH   3   5
ENDBRANCH   1   3
BRANCH   1  15
ATOM     15  C   UNL d   1      29.009 -14.128   2.756  0.00  0.00     0.125 C 
ATOM     16  N   UNL d   1      30.085 -13.580   2.129  0.00  0.00    -0.246 NA
ATOM     17  C   UNL d   1      30.840 -12.670   2.831  0.00  0.00     0.135 C 
ATOM     18  C   UNL d   1      30.524 -12.202   4.099  0.00  0.00     0.051 C 
ATOM     19  C   UNL d   1      29.417 -12.765   4.715  0.00  0.00     0.045 C 
ATOM     20  C   UNL d   1      28.729 -13.796   4.091  0.00  0.00     0.075 C 
ATOM     21 CL   UNL d   1      27.782 -14.771   5.162  0.00  0.00    -0.081 Cl
BRANCH  18  22
ATOM     22  C   UNL d   1      31.302 -11.217   4.892  0.00  0.00     0.250 C 
ATOM     23  N   UNL d   1      32.420 -11.636   5.554  0.00  0.00    -0.366 N 
ATOM     24  H   UNL d   1      32.783 -12.574   5.574  0.00  0.00     0.159 HD
ATOM     25  H   UNL d   1      32.915 -10.928   6.084  0.00  0.00     0.159 HD
ATOM     26  O   UNL d   1      30.955 -10.051   4.961  0.00  0.00    -0.268 OA
ENDBRANCH  18  22
ENDBRANCH   1  15
TORSDOF 6
ENDMDL
MODEL 6
REMARK VINA RESULT:    -6.749      2.172      2.748
REMARK INTER + INTRA:         -10.627
REMARK INTER:                  -8.539
REMARK INTRA:                  -2.088
REMARK CONF_INDEPENDENT:        1.790
REMARK UNBOUND:                -2.088
REMARK  6 active torsions:
REMARK  status: ('A' for Active; 'I' for Inactive)
REMARK    1  A    between atoms: C_2  and  N_3 
REMARK    2  A    between atoms: C_2  and  C_14 
REMARK    3  A    between atoms: N_3  and  C_4 
REMARK    4  A    between atoms: C_7  and  C_8 
REMARK       I    between atoms: C_8  and  N_9 
REMARK    5  A    between atoms: C_14  and  O_15 
REMARK    6  A    between atoms: C_14  and  C_16 
ROOT
ATOM      1  N   UNL d   1      26.347 -14.633  -2.099  0.00  0.00    -0.269 NA
ATOM      2  H   UNL d   1      25.823 -13.768  -1.958  0.00  0.00     0.129 HD
ENDROOT
BRANCH   1   3
ATOM      3  C   UNL d   1      26.777 -14.769  -3.538  0.00  0.00     0.091 C 
ATOM      4  C   UNL d   1      28.137 -14.130  -3.740  0.00  0.00     0.029 C 
BRANCH   3   5
ATOM      5  C   UNL d   1      25.767 -14.074  -4.512  0.00  0.00     0.168 C 
BRANCH   5   6
ATOM      6  O   UNL d   1      24.410 -14.416  -4.185  0.00  0.00    -0.389 OA
ATOM      7  H   UNL d   1      24.346 -14.476  -3.217  0.00  0.00     0.210 HD
ENDBRANCH   5   6
BRANCH   5   8
ATOM      8  C   UNL d   1      25.865 -12.562  -4.524  0.00  0.00    -0.028 A 
ATOM      9  C   UNL d   1      25.985 -11.834  -5.719  0.00  0.00     0.011 A 
ATOM     10  C   UNL d   1      25.980 -10.448  -5.730  0.00  0.00     0.019 A 
ATOM     11  C   UNL d   1      25.911  -9.764  -4.528  0.00  0.00     0.011 A 
ATOM     12 BR   UNL d   1      25.926  -7.878  -4.554  0.00  0.00    -0.051 Br
ATOM     13  C   UNL d   1      25.842 -10.456  -3.319  0.00  0.00     0.019 A 
ATOM     14  C   UNL d   1      25.811 -11.852  -3.316  0.00  0.00     0.011 A 
ENDBRANCH   5   8
ENDBRANCH   3   5
ENDBRANCH   1   3
BRANCH   1  15
ATOM     15  C   UNL d   1      25.536 -15.671  -1.596  0.00  0.00     0.125 C 
ATOM     16  N   UNL d   1      24.191 -15.552  -1.758  0.00  0.00    -0.246 NA
ATOM     17  C   UNL d   1      23.395 -16.561  -1.270  0.00  0.00     0.135 C 
ATOM     18  C   UNL d   1      23.875 -17.737  -0.710  0.00  0.00     0.051 C 
ATOM     19  C   UNL d   1      25.249 -17.843  -0.564  0.00  0.00     0.045 C 
ATOM     20  C   UNL d   1      26.065 -16.774  -0.907  0.00  0.00     0.075 C 
ATOM     21 CL   UNL d   1      27.627 -16.801  -0.160  0.00  0.00    -0.081 Cl
BRANCH  18  22
ATOM     22  C   UNL d   1      23.057 -18.855  -0.177  0.00  0.00     0.250 C 
ATOM     23  N   UNL d   1      22.040 -18.576   0.690  0.00  0.00    -0.366 N 
ATOM     24  H   UNL d   1      21.780 -17.665   1.028  0.00  0.00     0.159 HD
ATOM     25  H   UNL d   1      21.513 -19.373   1.029  0.00  0.00     0.159 HD
ATOM     26  O   UNL d   1      23.285 -20.009  -0.498  0.00  0.00    -0.268 OA
ENDBRANCH  18  22
ENDBRANCH   1  15
TORSDOF 6
ENDMDL
MODEL 7
REMARK VINA RESULT:    -6.739      4.349      7.783
REMARK INTER + INTRA:         -10.568
REMARK INTER:                  -8.528
REMARK INTRA:                  -2.040
REMARK CONF_INDEPENDENT:        1.790
REMARK UNBOUND:                -2.040
REMARK  6 active torsions:
REMARK  status: ('A' for Active; 'I' for Inactive)
REMARK    1  A    between atoms: C_2  and  N_3 
REMARK    2  A    between atoms: C_2  and  C_14 
REMARK    3  A    between atoms: N_3  and  C_4 
REMARK    4  A    between atoms: C_7  and  C_8 
REMARK       I    between atoms: C_8  and  N_9 
REMARK    5  A    between atoms: C_14  and  O_15 
REMARK    6  A    between atoms: C_14  and  C_16 
ROOT
ATOM      1  N   UNL d   1      27.593 -15.062  -2.227  0.00  0.00    -0.269 NA
ATOM      2  H   UNL d   1      28.426 -15.390  -2.719  0.00  0.00     0.129 HD
ENDROOT
BRANCH   1   3
ATOM      3  C   UNL d   1      26.567 -16.162  -2.123  0.00  0.00     0.091 C 
ATOM      4  C   UNL d   1      25.388 -15.865  -3.029  0.00  0.00     0.029 C 
BRANCH   3   5
ATOM      5  C   UNL d   1      26.028 -16.314  -0.660  0.00  0.00     0.168 C 
BRANCH   5   6
ATOM      6  O   UNL d   1      25.863 -15.032  -0.032  0.00  0.00    -0.389 OA
ATOM      7  H   UNL d   1      26.238 -14.361  -0.626  0.00  0.00     0.210 HD
ENDBRANCH   5   6
BRANCH   5   8
ATOM      8  C   UNL d   1      24.702 -17.041  -0.566  0.00  0.00    -0.028 A 
ATOM      9  C   UNL d   1      23.477 -16.356  -0.548  0.00  0.00     0.011 A 
ATOM     10  C   UNL d   1      22.266 -17.029  -0.556  0.00  0.00     0.019 A 
ATOM     11  C   UNL d   1      22.264 -18.414  -0.525  0.00  0.00     0.011 A 
ATOM     12 BR   UNL d   1      20.609 -19.321  -0.516  0.00  0.00    -0.051 Br
ATOM     13  C   UNL d   1      23.462 -19.126  -0.491  0.00  0.00     0.019 A 
ATOM     14  C   UNL d   1      24.680 -18.443  -0.520  0.00  0.00     0.011 A 
ENDBRANCH   5   8
ENDBRANCH   3   5
ENDBRANCH   1   3
BRANCH   1  15
ATOM     15  C   UNL d   1      27.177 -13.891  -2.893  0.00  0.00     0.125 C 
ATOM     16  N   UNL d   1      26.468 -12.979  -2.175  0.00  0.00    -0.246 NA
ATOM     17  C   UNL d   1      26.060 -11.835  -2.819  0.00  0.00     0.135 C 
ATOM     18  C   UNL d   1      26.403 -11.504  -4.123  0.00  0.00     0.051 C 
ATOM     19  C   UNL d   1      27.136 -12.442  -4.833  0.00  0.00     0.045 C 
ATOM     20  C   UNL d   1      27.428 -13.671  -4.257  0.00  0.00     0.075 C 
ATOM     21 CL   UNL d   1      27.808 -14.919  -5.394  0.00  0.00    -0.081 Cl
BRANCH  18  22
ATOM     22  C   UNL d   1      25.993 -10.280  -4.856  0.00  0.00     0.250 C 
ATOM     23  N   UNL d   1      25.155 -10.401  -5.928  0.00  0.00    -0.366 N 
ATOM     24  H   UNL d   1      24.779 -11.258  -6.295  0.00  0.00     0.159 HD
ATOM     25  H   UNL d   1      24.907  -9.537  -6.398  0.00  0.00     0.159 HD
ATOM     26  O   UNL d   1      26.397  -9.180  -4.519  0.00  0.00    -0.268 OA
ENDBRANCH  18  22
ENDBRANCH   1  15
TORSDOF 6
ENDMDL
MODEL 8
REMARK VINA RESULT:    -6.725      9.780     11.345
REMARK INTER + INTRA:         -10.839
REMARK INTER:                  -8.515
REMARK INTRA:                  -2.324
REMARK CONF_INDEPENDENT:        1.790
REMARK UNBOUND:                -2.324
REMARK  6 active torsions:
REMARK  status: ('A' for Active; 'I' for Inactive)
REMARK    1  A    between atoms: C_2  and  N_3 
REMARK    2  A    between atoms: C_2  and  C_14 
REMARK    3  A    between atoms: N_3  and  C_4 
REMARK    4  A    between atoms: C_7  and  C_8 
REMARK       I    between atoms: C_8  and  N_9 
REMARK    5  A    between atoms: C_14  and  O_15 
REMARK    6  A    between atoms: C_14  and  C_16 
ROOT
ATOM      1  N   UNL d   1      31.357 -21.187   0.946  0.00  0.00    -0.269 NA
ATOM      2  H   UNL d   1      30.489 -20.688   0.746  0.00  0.00     0.129 HD
ENDROOT
BRANCH   1   3
ATOM      3  C   UNL d   1      31.398 -22.503   0.212  0.00  0.00     0.091 C 
ATOM      4  C   UNL d   1      31.481 -22.266  -1.283  0.00  0.00     0.029 C 
BRANCH   3   5
ATOM      5  C   UNL d   1      30.119 -23.363   0.494  0.00  0.00     0.168 C 
BRANCH   5   6
ATOM      6  O   UNL d   1      28.975 -22.529   0.738  0.00  0.00    -0.389 OA
ATOM      7  H   UNL d   1      29.274 -21.762   1.255  0.00  0.00     0.210 HD
ENDBRANCH   5   6
BRANCH   5   8
ATOM      8  C   UNL d   1      29.757 -24.315  -0.628  0.00  0.00    -0.028 A 
ATOM      9  C   UNL d   1      28.905 -23.937  -1.678  0.00  0.00     0.011 A 
ATOM     10  C   UNL d   1      28.652 -24.779  -2.749  0.00  0.00     0.019 A 
ATOM     11  C   UNL d   1      29.211 -26.047  -2.757  0.00  0.00     0.011 A 
ATOM     12 BR   UNL d   1      28.845 -27.193  -4.210  0.00  0.00    -0.051 Br
ATOM     13  C   UNL d   1      30.022 -26.473  -1.705  0.00  0.00     0.019 A 
ATOM     14  C   UNL d   1      30.302 -25.607  -0.646  0.00  0.00     0.011 A 
ENDBRANCH   5   8
ENDBRANCH   3   5
ENDBRANCH   1   3
BRANCH   1  15
ATOM     15  C   UNL d   1      31.455 -21.260   2.351  0.00  0.00     0.125 C 
ATOM     16  N   UNL d   1      30.336 -21.609   3.041  0.00  0.00    -0.246 NA
ATOM     17  C   UNL d   1      30.425 -21.682   4.411  0.00  0.00     0.135 C 
ATOM     18  C   UNL d   1      31.602 -21.518   5.130  0.00  0.00     0.051 C 
ATOM     19  C   UNL d   1      32.733 -21.176   4.406  0.00  0.00     0.045 C 
ATOM     20  C   UNL d   1      32.636 -20.943   3.041  0.00  0.00     0.075 C 
ATOM     21 CL   UNL d   1      33.924 -19.989   2.387  0.00  0.00    -0.081 Cl
BRANCH  18  22
ATOM     22  C   UNL d   1      31.748 -21.595   6.605  0.00  0.00     0.250 C 
ATOM     23  N   UNL d   1      33.000 -21.692   7.141  0.00  0.00    -0.366 N 
ATOM     24  H   UNL d   1      33.865 -21.728   6.629  0.00  0.00     0.159 HD
ATOM     25  H   UNL d   1      33.048 -21.745   8.152  0.00  0.00     0.159 HD
ATOM     26  O   UNL d   1      30.772 -21.579   7.335  0.00  0.00    -0.268 OA
ENDBRANCH  18  22
ENDBRANCH   1  15
TORSDOF 6
ENDMDL
MODEL 9
REMARK VINA RESULT:    -6.458      5.865      7.989
REMARK INTER + INTRA:         -10.636
REMARK INTER:                  -8.248
REMARK INTRA:                  -2.388
REMARK CONF_INDEPENDENT:        1.790
REMARK UNBOUND:                -2.388
REMARK  6 active torsions:
REMARK  status: ('A' for Active; 'I' for Inactive)
REMARK    1  A    between atoms: C_2  and  N_3 
REMARK    2  A    between atoms: C_2  and  C_14 
REMARK    3  A    between atoms: N_3  and  C_4 
REMARK    4  A    between atoms: C_7  and  C_8 
REMARK       I    between atoms: C_8  and  N_9 
REMARK    5  A    between atoms: C_14  and  O_15 
REMARK    6  A    between atoms: C_14  and  C_16 
ROOT
ATOM      1  N   UNL d   1      27.618 -15.063   0.978  0.00  0.00    -0.269 NA
ATOM      2  H   UNL d   1      26.860 -15.227   1.642  0.00  0.00     0.129 HD
ENDROOT
BRANCH   1   3
ATOM      3  C   UNL d   1      28.484 -13.914   1.429  0.00  0.00     0.091 C 
ATOM      4  C   UNL d   1      29.689 -14.434   2.188  0.00  0.00     0.029 C 
BRANCH   3   5
ATOM      5  C   UNL d   1      27.704 -12.936   2.371  0.00  0.00     0.168 C 
BRANCH   5   6
ATOM      6  O   UNL d   1      26.284 -13.091   2.221  0.00  0.00    -0.389 OA
ATOM      7  H   UNL d   1      26.121 -13.494   1.352  0.00  0.00     0.210 HD
ENDBRANCH   5   6
BRANCH   5   8
ATOM      8  C   UNL d   1      28.028 -13.109   3.841  0.00  0.00    -0.028 A 
ATOM      9  C   UNL d   1      27.772 -14.309   4.523  0.00  0.00     0.011 A 
ATOM     10  C   UNL d   1      28.156 -14.493   5.842  0.00  0.00     0.019 A 
ATOM     11  C   UNL d   1      28.757 -13.447   6.522  0.00  0.00     0.011 A 
ATOM     12 BR   UNL d   1      29.257 -13.701   8.323  0.00  0.00    -0.051 Br
ATOM     13  C   UNL d   1      28.980 -12.223   5.890  0.00  0.00     0.019 A 
ATOM     14  C   UNL d   1      28.625 -12.055   4.550  0.00  0.00     0.011 A 
ENDBRANCH   5   8
ENDBRANCH   3   5
ENDBRANCH   1   3
BRANCH   1  15
ATOM     15  C   UNL d   1      27.010 -14.919  -0.286  0.00  0.00     0.125 C 
ATOM     16  N   UNL d   1      26.819 -13.655  -0.750  0.00  0.00    -0.246 NA
ATOM     17  C   UNL d   1      26.226 -13.508  -1.982  0.00  0.00     0.135 C 
ATOM     18  C   UNL d   1      25.898 -14.561  -2.825  0.00  0.00     0.051 C 
ATOM     19  C   UNL d   1      26.112 -15.841  -2.337  0.00  0.00     0.045 C 
ATOM     20  C   UNL d   1      26.563 -16.018  -1.037  0.00  0.00     0.075 C 
ATOM     21 CL   UNL d   1      26.238 -17.585  -0.376  0.00  0.00    -0.081 Cl
BRANCH  18  22
ATOM     22  C   UNL d   1      25.265 -14.452  -4.163  0.00  0.00     0.250 C 
ATOM     23  N   UNL d   1      24.559 -13.325  -4.471  0.00  0.00    -0.366 N 
ATOM     24  H   UNL d   1      24.405 -12.536  -3.866  0.00  0.00     0.159 HD
ATOM     25  H   UNL d   1      24.142 -13.299  -5.395  0.00  0.00     0.159 HD
ATOM     26  O   UNL d   1      25.365 -15.351  -4.981  0.00  0.00    -0.268 OA
ENDBRANCH  18  22
ENDBRANCH   1  15
TORSDOF 6
ENDMDL
