MODEL 1
REMARK VINA RESULT:   -10.563      0.000      0.000
REMARK INTER + INTRA:         -13.292
REMARK INTER:                 -12.353
REMARK INTRA:                  -0.939
REMARK CONF_INDEPENDENT:        1.790
REMARK UNBOUND:                -0.939
REMARK  6 active torsions:
REMARK  status: ('A' for Active; 'I' for Inactive)
REMARK       I    between atoms: N_1  and  C_2 
REMARK       I    between atoms: C_2  and  N_4 
REMARK    1  A    between atoms: N_4  and  C_5 
REMARK    2  A    between atoms: C_9  and  C_10 
REMARK    3  A    between atoms: C_10  and  O_12 
REMARK    4  A    between atoms: O_12  and  C_13 
REMARK    5  A    between atoms: C_16  and  N_17 
REMARK       I    between atoms: N_17  and  C_18 
REMARK    6  A    between atoms: C_18  and  C_20 
ROOT
ATOM      1  O   UNL d   1      26.817 -15.780  -1.201  0.00  0.00    -0.275 OA
ENDROOT
BRANCH   1   2
ATOM      2  C   UNL d   1      26.697 -14.394  -1.159  0.00  0.00     0.298 C 
ATOM      3  O   UNL d   1      26.282 -13.669  -2.059  0.00  0.00    -0.259 OA
BRANCH   2   4
ATOM      4  C   UNL d   1      27.071 -13.832   0.166  0.00  0.00     0.042 A 
ATOM      5  C   UNL d   1      26.674 -12.517   0.454  0.00  0.00     0.018 A 
ATOM      6  C   UNL d   1      26.889 -11.973   1.720  0.00  0.00     0.003 A 
ATOM      7  C   UNL d   1      27.540 -12.725   2.703  0.00  0.00     0.029 A 
ATOM      8  C   UNL d   1      27.970 -14.027   2.417  0.00  0.00     0.037 A 
ATOM      9  C   UNL d   1      27.742 -14.570   1.145  0.00  0.00     0.047 A 
BRANCH   8  10
ATOM     10  N   UNL d   1      28.567 -14.813   3.429  0.00  0.00    -0.309 N 
ATOM     11  C   UNL d   1      28.135 -14.794   4.731  0.00  0.00     0.318 C 
ATOM     12  N   UNL d   1      28.851 -15.574   5.577  0.00  0.00    -0.352 N 
ATOM     13  O   UNL d   1      27.174 -14.172   5.169  0.00  0.00    -0.247 OA
ATOM     14  H   UNL d   1      28.532 -15.574   6.538  0.00  0.00     0.160 HD
ATOM     15  H   UNL d   1      29.674 -16.101   5.340  0.00  0.00     0.160 HD
ATOM     16  H   UNL d   1      29.195 -15.552   3.149  0.00  0.00     0.170 HD
ENDBRANCH   8  10
ENDBRANCH   2   4
ENDBRANCH   1   2
BRANCH   1  17
ATOM     17  C   UNL d   1      25.692 -16.579  -0.887  0.00  0.00     0.079 A 
ATOM     18  C   UNL d   1      25.858 -17.680  -0.044  0.00  0.00     0.039 A 
ATOM     19  C   UNL d   1      24.781 -18.571   0.186  0.00  0.00     0.032 A 
ATOM     20  C   UNL d   1      23.514 -18.325  -0.372  0.00  0.00     0.035 A 
ATOM     21  C   UNL d   1      23.396 -17.223  -1.221  0.00  0.00     0.032 A 
ATOM     22  C   UNL d   1      24.463 -16.367  -1.488  0.00  0.00     0.039 A 
BRANCH  20  23
ATOM     23  N   UNL d   1      22.391 -19.153  -0.051  0.00  0.00    -0.321 N 
ATOM     24  C   UNL d   1      21.070 -18.897  -0.434  0.00  0.00     0.279 C 
ATOM     25  O   UNL d   1      20.728 -17.952  -1.156  0.00  0.00    -0.265 OA
ATOM     26  H   UNL d   1      22.570 -19.979   0.506  0.00  0.00     0.169 HD
BRANCH  24  27
ATOM     27  C   UNL d   1      20.038 -19.789   0.056  0.00  0.00     0.142 A 
ATOM     28  C   UNL d   1      19.727 -20.310   1.300  0.00  0.00     0.045 A 
ATOM     29  C   UNL d   1      18.465 -20.953   1.171  0.00  0.00     0.027 A 
ATOM     30  C   UNL d   1      18.095 -20.819  -0.144  0.00  0.00     0.143 A 
ATOM     31  O   UNL d   1      19.034 -20.119  -0.823  0.00  0.00    -0.317 OA
ENDBRANCH  24  27
ENDBRANCH  20  23
ENDBRANCH   1  17
TORSDOF 6
ENDMDL
MODEL 2
REMARK VINA RESULT:   -10.430      4.247      6.062
REMARK INTER + INTRA:         -13.730
REMARK INTER:                 -12.219
REMARK INTRA:                  -1.511
REMARK CONF_INDEPENDENT:        1.790
REMARK UNBOUND:                -1.511
REMARK  6 active torsions:
REMARK  status: ('A' for Active; 'I' for Inactive)
REMARK       I    between atoms: N_1  and  C_2 
REMARK       I    between atoms: C_2  and  N_4 
REMARK    1  A    between atoms: N_4  and  C_5 
REMARK    2  A    between atoms: C_9  and  C_10 
REMARK    3  A    between atoms: C_10  and  O_12 
REMARK    4  A    between atoms: O_12  and  C_13 
REMARK    5  A    between atoms: C_16  and  N_17 
REMARK       I    between atoms: N_17  and  C_18 
REMARK    6  A    between atoms: C_18  and  C_20 
ROOT
ATOM      1  O   UNL d   1      26.044 -15.844  -1.969  0.00  0.00    -0.275 OA
ENDROOT
BRANCH   1   2
ATOM      2  C   UNL d   1      25.904 -15.283  -3.235  0.00  0.00     0.298 C 
ATOM      3  O   UNL d   1      24.880 -14.798  -3.709  0.00  0.00    -0.259 OA
BRANCH   2   4
ATOM      4  C   UNL d   1      27.186 -15.253  -3.988  0.00  0.00     0.042 A 
ATOM      5  C   UNL d   1      28.304 -15.863  -3.399  0.00  0.00     0.018 A 
ATOM      6  C   UNL d   1      29.503 -15.974  -4.103  0.00  0.00     0.003 A 
ATOM      7  C   UNL d   1      29.610 -15.440  -5.391  0.00  0.00     0.029 A 
ATOM      8  C   UNL d   1      28.511 -14.799  -5.976  0.00  0.00     0.037 A 
ATOM      9  C   UNL d   1      27.306 -14.700  -5.266  0.00  0.00     0.047 A 
BRANCH   8  10
ATOM     10  N   UNL d   1      28.596 -14.319  -7.303  0.00  0.00    -0.309 N 
ATOM     11  C   UNL d   1      28.524 -12.984  -7.612  0.00  0.00     0.318 C 
ATOM     12  N   UNL d   1      28.576 -12.705  -8.936  0.00  0.00    -0.352 N 
ATOM     13  O   UNL d   1      28.447 -12.057  -6.814  0.00  0.00    -0.247 OA
ATOM     14  H   UNL d   1      28.535 -11.721  -9.172  0.00  0.00     0.160 HD
ATOM     15  H   UNL d   1      28.607 -13.381  -9.681  0.00  0.00     0.160 HD
ATOM     16  H   UNL d   1      28.914 -14.954  -8.020  0.00  0.00     0.170 HD
ENDBRANCH   8  10
ENDBRANCH   2   4
ENDBRANCH   1   2
BRANCH   1  17
ATOM     17  C   UNL d   1      24.985 -16.614  -1.435  0.00  0.00     0.079 A 
ATOM     18  C   UNL d   1      23.716 -16.039  -1.330  0.00  0.00     0.039 A 
ATOM     19  C   UNL d   1      22.668 -16.739  -0.683  0.00  0.00     0.032 A 
ATOM     20  C   UNL d   1      22.866 -18.044  -0.200  0.00  0.00     0.035 A 
ATOM     21  C   UNL d   1      24.153 -18.574  -0.310  0.00  0.00     0.032 A 
ATOM     22  C   UNL d   1      25.201 -17.875  -0.905  0.00  0.00     0.039 A 
BRANCH  20  23
ATOM     23  N   UNL d   1      21.783 -18.802   0.349  0.00  0.00    -0.321 N 
ATOM     24  C   UNL d   1      20.729 -19.349  -0.392  0.00  0.00     0.279 C 
ATOM     25  O   UNL d   1      20.647 -19.292  -1.626  0.00  0.00    -0.265 OA
ATOM     26  H   UNL d   1      21.778 -18.942   1.352  0.00  0.00     0.169 HD
BRANCH  24  27
ATOM     27  C   UNL d   1      19.662 -20.009   0.333  0.00  0.00     0.142 A 
ATOM     28  C   UNL d   1      18.603 -20.818  -0.038  0.00  0.00     0.045 A 
ATOM     29  C   UNL d   1      18.035 -21.327   1.163  0.00  0.00     0.027 A 
ATOM     30  C   UNL d   1      18.755 -20.777   2.194  0.00  0.00     0.143 A 
ATOM     31  O   UNL d   1      19.737 -19.983   1.706  0.00  0.00    -0.317 OA
ENDBRANCH  24  27
ENDBRANCH  20  23
ENDBRANCH   1  17
TORSDOF 6
ENDMDL
MODEL 3
REMARK VINA RESULT:    -9.969      0.978      1.605
REMARK INTER + INTRA:         -13.419
REMARK INTER:                 -11.759
REMARK INTRA:                  -1.660
REMARK CONF_INDEPENDENT:        1.790
REMARK UNBOUND:                -1.660
REMARK  6 active torsions:
REMARK  status: ('A' for Active; 'I' for Inactive)
REMARK       I    between atoms: N_1  and  C_2 
REMARK       I    between atoms: C_2  and  N_4 
REMARK    1  A    between atoms: N_4  and  C_5 
REMARK    2  A    between atoms: C_9  and  C_10 
REMARK    3  A    between atoms: C_10  and  O_12 
REMARK    4  A    between atoms: O_12  and  C_13 
REMARK    5  A    between atoms: C_16  and  N_17 
REMARK       I    between atoms: N_17  and  C_18 
REMARK    6  A    between atoms: C_18  and  C_20 
ROOT
ATOM      1  O   UNL d   1      26.322 -15.984  -1.736  0.00  0.00    -0.275 OA
ENDROOT
BRANCH   1   2
ATOM      2  C   UNL d   1      27.518 -15.986  -1.026  0.00  0.00     0.298 C 
ATOM      3  O   UNL d   1      28.540 -16.602  -1.316  0.00  0.00    -0.259 OA
BRANCH   2   4
ATOM      4  C   UNL d   1      27.481 -15.075   0.149  0.00  0.00     0.042 A 
ATOM      5  C   UNL d   1      26.670 -13.934   0.067  0.00  0.00     0.018 A 
ATOM      6  C   UNL d   1      26.498 -13.104   1.174  0.00  0.00     0.003 A 
ATOM      7  C   UNL d   1      27.170 -13.384   2.369  0.00  0.00     0.029 A 
ATOM      8  C   UNL d   1      28.009 -14.502   2.454  0.00  0.00     0.037 A 
ATOM      9  C   UNL d   1      28.168 -15.337   1.338  0.00  0.00     0.047 A 
BRANCH   8  10
ATOM     10  N   UNL d   1      28.634 -14.826   3.679  0.00  0.00    -0.309 N 
ATOM     11  C   UNL d   1      27.995 -14.715   4.888  0.00  0.00     0.318 C 
ATOM     12  N   UNL d   1      28.759 -15.023   5.964  0.00  0.00    -0.352 N 
ATOM     13  O   UNL d   1      26.825 -14.398   5.064  0.00  0.00    -0.247 OA
ATOM     14  H   UNL d   1      28.291 -14.954   6.859  0.00  0.00     0.160 HD
ATOM     15  H   UNL d   1      29.735 -15.264   5.945  0.00  0.00     0.160 HD
ATOM     16  H   UNL d   1      29.504 -15.338   3.649  0.00  0.00     0.170 HD
ENDBRANCH   8  10
ENDBRANCH   2   4
ENDBRANCH   1   2
BRANCH   1  17
ATOM     17  C   UNL d   1      25.225 -16.728  -1.243  0.00  0.00     0.079 A 
ATOM     18  C   UNL d   1      23.931 -16.246  -1.452  0.00  0.00     0.039 A 
ATOM     19  C   UNL d   1      22.822 -16.900  -0.861  0.00  0.00     0.032 A 
ATOM     20  C   UNL d   1      22.998 -18.079  -0.115  0.00  0.00     0.035 A 
ATOM     21  C   UNL d   1      24.308 -18.517   0.083  0.00  0.00     0.032 A 
ATOM     22  C   UNL d   1      25.408 -17.854  -0.458  0.00  0.00     0.039 A 
BRANCH  20  23
ATOM     23  N   UNL d   1      21.874 -18.811   0.386  0.00  0.00    -0.321 N 
ATOM     24  C   UNL d   1      20.838 -19.329  -0.399  0.00  0.00     0.279 C 
ATOM     25  O   UNL d   1      20.808 -19.268  -1.635  0.00  0.00    -0.265 OA
ATOM     26  H   UNL d   1      21.824 -18.953   1.388  0.00  0.00     0.169 HD
BRANCH  24  27
ATOM     27  C   UNL d   1      19.726 -19.965   0.280  0.00  0.00     0.142 A 
ATOM     28  C   UNL d   1      18.626 -20.689  -0.144  0.00  0.00     0.045 A 
ATOM     29  C   UNL d   1      18.017 -21.228   1.023  0.00  0.00     0.027 A 
ATOM     30  C   UNL d   1      18.754 -20.776   2.089  0.00  0.00     0.143 A 
ATOM     31  O   UNL d   1      19.786 -20.016   1.652  0.00  0.00    -0.317 OA
ENDBRANCH  24  27
ENDBRANCH  20  23
ENDBRANCH   1  17
TORSDOF 6
ENDMDL
MODEL 4
REMARK VINA RESULT:    -9.853      3.538      5.206
REMARK INTER + INTRA:         -12.713
REMARK INTER:                 -11.642
REMARK INTRA:                  -1.070
REMARK CONF_INDEPENDENT:        1.790
REMARK UNBOUND:                -1.070
REMARK  6 active torsions:
REMARK  status: ('A' for Active; 'I' for Inactive)
REMARK       I    between atoms: N_1  and  C_2 
REMARK       I    between atoms: C_2  and  N_4 
REMARK    1  A    between atoms: N_4  and  C_5 
REMARK    2  A    between atoms: C_9  and  C_10 
REMARK    3  A    between atoms: C_10  and  O_12 
REMARK    4  A    between atoms: O_12  and  C_13 
REMARK    5  A    between atoms: C_16  and  N_17 
REMARK       I    between atoms: N_17  and  C_18 
REMARK    6  A    between atoms: C_18  and  C_20 
ROOT
ATOM      1  O   UNL d   1      27.400 -15.902  -1.099  0.00  0.00    -0.275 OA
ENDROOT
BRANCH   1   2
ATOM      2  C   UNL d   1      27.317 -14.514  -1.149  0.00  0.00     0.298 C 
ATOM      3  O   UNL d   1      27.637 -13.730  -0.260  0.00  0.00    -0.259 OA
BRANCH   2   4
ATOM      4  C   UNL d   1      26.843 -14.022  -2.470  0.00  0.00     0.042 A 
ATOM      5  C   UNL d   1      25.529 -13.536  -2.554  0.00  0.00     0.018 A 
ATOM      6  C   UNL d   1      25.063 -12.952  -3.731  0.00  0.00     0.003 A 
ATOM      7  C   UNL d   1      25.894 -12.882  -4.854  0.00  0.00     0.029 A 
ATOM      8  C   UNL d   1      27.197 -13.392  -4.793  0.00  0.00     0.037 A 
ATOM      9  C   UNL d   1      27.661 -13.970  -3.602  0.00  0.00     0.047 A 
BRANCH   8  10
ATOM     10  N   UNL d   1      28.062 -13.262  -5.903  0.00  0.00    -0.309 N 
ATOM     11  C   UNL d   1      28.513 -14.341  -6.620  0.00  0.00     0.318 C 
ATOM     12  N   UNL d   1      29.371 -14.037  -7.623  0.00  0.00    -0.352 N 
ATOM     13  O   UNL d   1      28.195 -15.512  -6.447  0.00  0.00    -0.247 OA
ATOM     14  H   UNL d   1      29.701 -14.827  -8.163  0.00  0.00     0.160 HD
ATOM     15  H   UNL d   1      29.728 -13.121  -7.837  0.00  0.00     0.160 HD
ATOM     16  H   UNL d   1      28.191 -12.343  -6.300  0.00  0.00     0.170 HD
ENDBRANCH   8  10
ENDBRANCH   2   4
ENDBRANCH   1   2
BRANCH   1  17
ATOM     17  C   UNL d   1      26.227 -16.655  -0.856  0.00  0.00     0.079 A 
ATOM     18  C   UNL d   1      26.170 -17.473   0.274  0.00  0.00     0.039 A 
ATOM     19  C   UNL d   1      25.063 -18.334   0.476  0.00  0.00     0.032 A 
ATOM     20  C   UNL d   1      23.978 -18.329  -0.417  0.00  0.00     0.035 A 
ATOM     21  C   UNL d   1      24.083 -17.509  -1.542  0.00  0.00     0.032 A 
ATOM     22  C   UNL d   1      25.188 -16.692  -1.770  0.00  0.00     0.039 A 
BRANCH  20  23
ATOM     23  N   UNL d   1      22.804 -19.108  -0.160  0.00  0.00    -0.321 N 
ATOM     24  C   UNL d   1      21.492 -18.689  -0.408  0.00  0.00     0.279 C 
ATOM     25  O   UNL d   1      21.198 -17.612  -0.943  0.00  0.00    -0.265 OA
ATOM     26  H   UNL d   1      22.938 -20.027   0.244  0.00  0.00     0.169 HD
BRANCH  24  27
ATOM     27  C   UNL d   1      20.413 -19.566   0.000  0.00  0.00     0.142 A 
ATOM     28  C   UNL d   1      20.083 -20.199   1.185  0.00  0.00     0.045 A 
ATOM     29  C   UNL d   1      18.783 -20.748   1.008  0.00  0.00     0.027 A 
ATOM     30  C   UNL d   1      18.408 -20.450  -0.278  0.00  0.00     0.143 A 
ATOM     31  O   UNL d   1      19.382 -19.738  -0.893  0.00  0.00    -0.317 OA
ENDBRANCH  24  27
ENDBRANCH  20  23
ENDBRANCH   1  17
TORSDOF 6
ENDMDL
MODEL 5
REMARK VINA RESULT:    -9.828      4.001      5.140
REMARK INTER + INTRA:         -13.146
REMARK INTER:                 -11.618
REMARK INTRA:                  -1.528
REMARK CONF_INDEPENDENT:        1.790
REMARK UNBOUND:                -1.528
REMARK  6 active torsions:
REMARK  status: ('A' for Active; 'I' for Inactive)
REMARK       I    between atoms: N_1  and  C_2 
REMARK       I    between atoms: C_2  and  N_4 
REMARK    1  A    between atoms: N_4  and  C_5 
REMARK    2  A    between atoms: C_9  and  C_10 
REMARK    3  A    between atoms: C_10  and  O_12 
REMARK    4  A    between atoms: O_12  and  C_13 
REMARK    5  A    between atoms: C_16  and  N_17 
REMARK       I    between atoms: N_17  and  C_18 
REMARK    6  A    between atoms: C_18  and  C_20 
ROOT
ATOM      1  O   UNL d   1      26.191 -15.686  -2.279  0.00  0.00    -0.275 OA
ENDROOT
BRANCH   1   2
ATOM      2  C   UNL d   1      26.059 -15.343  -3.621  0.00  0.00     0.298 C 
ATOM      3  O   UNL d   1      25.528 -16.017  -4.499  0.00  0.00    -0.259 OA
BRANCH   2   4
ATOM      4  C   UNL d   1      26.584 -13.982  -3.912  0.00  0.00     0.042 A 
ATOM      5  C   UNL d   1      27.906 -13.876  -4.369  0.00  0.00     0.018 A 
ATOM      6  C   UNL d   1      28.420 -12.643  -4.772  0.00  0.00     0.003 A 
ATOM      7  C   UNL d   1      27.628 -11.494  -4.685  0.00  0.00     0.029 A 
ATOM      8  C   UNL d   1      26.317 -11.582  -4.200  0.00  0.00     0.037 A 
ATOM      9  C   UNL d   1      25.806 -12.827  -3.806  0.00  0.00     0.047 A 
BRANCH   8  10
ATOM     10  N   UNL d   1      25.493 -10.434  -4.176  0.00  0.00    -0.309 N 
ATOM     11  C   UNL d   1      25.692  -9.399  -3.297  0.00  0.00     0.318 C 
ATOM     12  N   UNL d   1      24.780  -8.401  -3.381  0.00  0.00    -0.352 N 
ATOM     13  O   UNL d   1      26.608  -9.298  -2.490  0.00  0.00    -0.247 OA
ATOM     14  H   UNL d   1      24.926  -7.629  -2.743  0.00  0.00     0.160 HD
ATOM     15  H   UNL d   1      23.971  -8.389  -3.979  0.00  0.00     0.160 HD
ATOM     16  H   UNL d   1      24.866 -10.281  -4.952  0.00  0.00     0.170 HD
ENDBRANCH   8  10
ENDBRANCH   2   4
ENDBRANCH   1   2
BRANCH   1  17
ATOM     17  C   UNL d   1      25.166 -16.437  -1.656  0.00  0.00     0.079 A 
ATOM     18  C   UNL d   1      23.871 -15.916  -1.620  0.00  0.00     0.039 A 
ATOM     19  C   UNL d   1      22.853 -16.582  -0.893  0.00  0.00     0.032 A 
ATOM     20  C   UNL d   1      23.112 -17.809  -0.258  0.00  0.00     0.035 A 
ATOM     21  C   UNL d   1      24.422 -18.286  -0.305  0.00  0.00     0.032 A 
ATOM     22  C   UNL d   1      25.439 -17.614  -0.980  0.00  0.00     0.039 A 
BRANCH  20  23
ATOM     23  N   UNL d   1      22.063 -18.548   0.378  0.00  0.00    -0.321 N 
ATOM     24  C   UNL d   1      21.027 -19.210  -0.292  0.00  0.00     0.279 C 
ATOM     25  O   UNL d   1      20.935 -19.285  -1.524  0.00  0.00    -0.265 OA
ATOM     26  H   UNL d   1      22.069 -18.582   1.390  0.00  0.00     0.169 HD
BRANCH  24  27
ATOM     27  C   UNL d   1      19.992 -19.832   0.510  0.00  0.00     0.142 A 
ATOM     28  C   UNL d   1      18.945 -20.692   0.230  0.00  0.00     0.045 A 
ATOM     29  C   UNL d   1      18.415 -21.112   1.482  0.00  0.00     0.027 A 
ATOM     30  C   UNL d   1      19.142 -20.462   2.448  0.00  0.00     0.143 A 
ATOM     31  O   UNL d   1      20.094 -19.690   1.873  0.00  0.00    -0.317 OA
ENDBRANCH  24  27
ENDBRANCH  20  23
ENDBRANCH   1  17
TORSDOF 6
ENDMDL
MODEL 6
REMARK VINA RESULT:    -9.762      4.168      5.849
REMARK INTER + INTRA:         -12.516
REMARK INTER:                 -11.552
REMARK INTRA:                  -0.964
REMARK CONF_INDEPENDENT:        1.790
REMARK UNBOUND:                -0.964
REMARK  6 active torsions:
REMARK  status: ('A' for Active; 'I' for Inactive)
REMARK       I    between atoms: N_1  and  C_2 
REMARK       I    between atoms: C_2  and  N_4 
REMARK    1  A    between atoms: N_4  and  C_5 
REMARK    2  A    between atoms: C_9  and  C_10 
REMARK    3  A    between atoms: C_10  and  O_12 
REMARK    4  A    between atoms: O_12  and  C_13 
REMARK    5  A    between atoms: C_16  and  N_17 
REMARK       I    between atoms: N_17  and  C_18 
REMARK    6  A    between atoms: C_18  and  C_20 
ROOT
ATOM      1  O   UNL d   1      27.105 -15.471  -1.642  0.00  0.00    -0.275 OA
ENDROOT
BRANCH   1   2
ATOM      2  C   UNL d   1      27.945 -15.791  -2.705  0.00  0.00     0.298 C 
ATOM      3  O   UNL d   1      28.753 -16.714  -2.746  0.00  0.00    -0.259 OA
BRANCH   2   4
ATOM      4  C   UNL d   1      27.724 -14.913  -3.885  0.00  0.00     0.042 A 
ATOM      5  C   UNL d   1      26.709 -13.948  -3.801  0.00  0.00     0.018 A 
ATOM      6  C   UNL d   1      26.529 -13.017  -4.824  0.00  0.00     0.003 A 
ATOM      7  C   UNL d   1      27.338 -13.066  -5.964  0.00  0.00     0.029 A 
ATOM      8  C   UNL d   1      28.333 -14.045  -6.074  0.00  0.00     0.037 A 
ATOM      9  C   UNL d   1      28.513 -14.971  -5.036  0.00  0.00     0.047 A 
BRANCH   8  10
ATOM     10  N   UNL d   1      29.196 -14.055  -7.193  0.00  0.00    -0.309 N 
ATOM     11  C   UNL d   1      30.504 -13.645  -7.122  0.00  0.00     0.318 C 
ATOM     12  N   UNL d   1      31.173 -13.677  -8.300  0.00  0.00    -0.352 N 
ATOM     13  O   UNL d   1      31.100 -13.292  -6.112  0.00  0.00    -0.247 OA
ATOM     14  H   UNL d   1      32.141 -13.386  -8.253  0.00  0.00     0.160 HD
ATOM     15  H   UNL d   1      30.781 -13.916  -9.195  0.00  0.00     0.160 HD
ATOM     16  H   UNL d   1      28.903 -14.559  -8.017  0.00  0.00     0.170 HD
ENDBRANCH   8  10
ENDBRANCH   2   4
ENDBRANCH   1   2
BRANCH   1  17
ATOM     17  C   UNL d   1      26.043 -16.347  -1.315  0.00  0.00     0.079 A 
ATOM     18  C   UNL d   1      24.756 -16.049  -1.768  0.00  0.00     0.039 A 
ATOM     19  C   UNL d   1      23.654 -16.835  -1.351  0.00  0.00     0.032 A 
ATOM     20  C   UNL d   1      23.844 -17.963  -0.535  0.00  0.00     0.035 A 
ATOM     21  C   UNL d   1      25.143 -18.215  -0.091  0.00  0.00     0.032 A 
ATOM     22  C   UNL d   1      26.227 -17.420  -0.460  0.00  0.00     0.039 A 
BRANCH  20  23
ATOM     23  N   UNL d   1      22.754 -18.830  -0.205  0.00  0.00    -0.321 N 
ATOM     24  C   UNL d   1      21.404 -18.552  -0.449  0.00  0.00     0.279 C 
ATOM     25  O   UNL d   1      21.001 -17.543  -1.043  0.00  0.00    -0.265 OA
ATOM     26  H   UNL d   1      22.980 -19.706   0.250  0.00  0.00     0.169 HD
BRANCH  24  27
ATOM     27  C   UNL d   1      20.419 -19.498   0.034  0.00  0.00     0.142 A 
ATOM     28  C   UNL d   1      20.170 -20.085   1.262  0.00  0.00     0.045 A 
ATOM     29  C   UNL d   1      18.925 -20.763   1.147  0.00  0.00     0.027 A 
ATOM     30  C   UNL d   1      18.503 -20.582  -0.146  0.00  0.00     0.143 A 
ATOM     31  O   UNL d   1      19.395 -19.821  -0.824  0.00  0.00    -0.317 OA
ENDBRANCH  24  27
ENDBRANCH  20  23
ENDBRANCH   1  17
TORSDOF 6
ENDMDL
MODEL 7
REMARK VINA RESULT:    -9.729      3.390      4.936
REMARK INTER + INTRA:         -13.142
REMARK INTER:                 -11.518
REMARK INTRA:                  -1.623
REMARK CONF_INDEPENDENT:        1.790
REMARK UNBOUND:                -1.623
REMARK  6 active torsions:
REMARK  status: ('A' for Active; 'I' for Inactive)
REMARK       I    between atoms: N_1  and  C_2 
REMARK       I    between atoms: C_2  and  N_4 
REMARK    1  A    between atoms: N_4  and  C_5 
REMARK    2  A    between atoms: C_9  and  C_10 
REMARK    3  A    between atoms: C_10  and  O_12 
REMARK    4  A    between atoms: O_12  and  C_13 
REMARK    5  A    between atoms: C_16  and  N_17 
REMARK       I    between atoms: N_17  and  C_18 
REMARK    6  A    between atoms: C_18  and  C_20 
ROOT
ATOM      1  O   UNL d   1      26.645 -16.185  -1.580  0.00  0.00    -0.275 OA
ENDROOT
BRANCH   1   2
ATOM      2  C   UNL d   1      26.754 -14.816  -1.362  0.00  0.00     0.298 C 
ATOM      3  O   UNL d   1      27.064 -14.266  -0.309  0.00  0.00    -0.259 OA
BRANCH   2   4
ATOM      4  C   UNL d   1      26.515 -14.024  -2.598  0.00  0.00     0.042 A 
ATOM      5  C   UNL d   1      26.657 -14.678  -3.831  0.00  0.00     0.018 A 
ATOM      6  C   UNL d   1      26.333 -14.027  -5.021  0.00  0.00     0.003 A 
ATOM      7  C   UNL d   1      25.900 -12.697  -4.995  0.00  0.00     0.029 A 
ATOM      8  C   UNL d   1      25.786 -12.022  -3.773  0.00  0.00     0.037 A 
ATOM      9  C   UNL d   1      26.105 -12.688  -2.580  0.00  0.00     0.047 A 
BRANCH   8  10
ATOM     10  N   UNL d   1      25.284 -10.701  -3.737  0.00  0.00    -0.309 N 
ATOM     11  C   UNL d   1      26.026  -9.641  -3.281  0.00  0.00     0.318 C 
ATOM     12  N   UNL d   1      25.373  -8.454  -3.274  0.00  0.00    -0.352 N 
ATOM     13  O   UNL d   1      27.195  -9.675  -2.918  0.00  0.00    -0.247 OA
ATOM     14  H   UNL d   1      25.916  -7.665  -2.949  0.00  0.00     0.160 HD
ATOM     15  H   UNL d   1      24.407  -8.310  -3.518  0.00  0.00     0.160 HD
ATOM     16  H   UNL d   1      24.434 -10.501  -4.243  0.00  0.00     0.170 HD
ENDBRANCH   8  10
ENDBRANCH   2   4
ENDBRANCH   1   2
BRANCH   1  17
ATOM     17  C   UNL d   1      25.500 -16.870  -1.109  0.00  0.00     0.079 A 
ATOM     18  C   UNL d   1      24.235 -16.346  -1.387  0.00  0.00     0.039 A 
ATOM     19  C   UNL d   1      23.078 -16.936  -0.821  0.00  0.00     0.032 A 
ATOM     20  C   UNL d   1      23.177 -18.095  -0.032  0.00  0.00     0.035 A 
ATOM     21  C   UNL d   1      24.460 -18.576   0.235  0.00  0.00     0.032 A 
ATOM     22  C   UNL d   1      25.606 -17.974  -0.281  0.00  0.00     0.039 A 
BRANCH  20  23
ATOM     23  N   UNL d   1      22.006 -18.767   0.446  0.00  0.00    -0.321 N 
ATOM     24  C   UNL d   1      20.970 -19.249  -0.363  0.00  0.00     0.279 C 
ATOM     25  O   UNL d   1      20.981 -19.207  -1.600  0.00  0.00    -0.265 OA
ATOM     26  H   UNL d   1      21.919 -18.889   1.448  0.00  0.00     0.169 HD
BRANCH  24  27
ATOM     27  C   UNL d   1      19.811 -19.821   0.291  0.00  0.00     0.142 A 
ATOM     28  C   UNL d   1      18.729 -20.566  -0.144  0.00  0.00     0.045 A 
ATOM     29  C   UNL d   1      18.041 -21.009   1.019  0.00  0.00     0.027 A 
ATOM     30  C   UNL d   1      18.718 -20.483   2.092  0.00  0.00     0.143 A 
ATOM     31  O   UNL d   1      19.784 -19.768   1.665  0.00  0.00    -0.317 OA
ENDBRANCH  24  27
ENDBRANCH  20  23
ENDBRANCH   1  17
TORSDOF 6
ENDMDL
MODEL 8
REMARK VINA RESULT:    -9.353      4.041      5.187
REMARK INTER + INTRA:         -12.644
REMARK INTER:                 -11.143
REMARK INTRA:                  -1.501
REMARK CONF_INDEPENDENT:        1.790
REMARK UNBOUND:                -1.501
REMARK  6 active torsions:
REMARK  status: ('A' for Active; 'I' for Inactive)
REMARK       I    between atoms: N_1  and  C_2 
REMARK       I    between atoms: C_2  and  N_4 
REMARK    1  A    between atoms: N_4  and  C_5 
REMARK    2  A    between atoms: C_9  and  C_10 
REMARK    3  A    between atoms: C_10  and  O_12 
REMARK    4  A    between atoms: O_12  and  C_13 
REMARK    5  A    between atoms: C_16  and  N_17 
REMARK       I    between atoms: N_17  and  C_18 
REMARK    6  A    between atoms: C_18  and  C_20 
ROOT
ATOM      1  O   UNL d   1      25.969 -15.794  -1.990  0.00  0.00    -0.275 OA
ENDROOT
BRANCH   1   2
ATOM      2  C   UNL d   1      25.767 -15.131  -3.196  0.00  0.00     0.298 C 
ATOM      3  O   UNL d   1      24.773 -14.487  -3.519  0.00  0.00    -0.259 OA
BRANCH   2   4
ATOM      4  C   UNL d   1      26.951 -15.213  -4.093  0.00  0.00     0.042 A 
ATOM      5  C   UNL d   1      26.863 -14.593  -5.349  0.00  0.00     0.018 A 
ATOM      6  C   UNL d   1      27.975 -14.531  -6.188  0.00  0.00     0.003 A 
ATOM      7  C   UNL d   1      29.181 -15.123  -5.796  0.00  0.00     0.029 A 
ATOM      8  C   UNL d   1      29.272 -15.773  -4.559  0.00  0.00     0.037 A 
ATOM      9  C   UNL d   1      28.150 -15.823  -3.718  0.00  0.00     0.047 A 
BRANCH   8  10
ATOM     10  N   UNL d   1      30.506 -16.312  -4.132  0.00  0.00    -0.309 N 
ATOM     11  C   UNL d   1      30.772 -17.658  -4.154  0.00  0.00     0.318 C 
ATOM     12  N   UNL d   1      31.987 -18.004  -3.666  0.00  0.00    -0.352 N 
ATOM     13  O   UNL d   1      30.037 -18.536  -4.589  0.00  0.00    -0.247 OA
ATOM     14  H   UNL d   1      32.195 -18.994  -3.689  0.00  0.00     0.160 HD
ATOM     15  H   UNL d   1      32.658 -17.377  -3.254  0.00  0.00     0.160 HD
ATOM     16  H   UNL d   1      31.280 -15.679  -3.993  0.00  0.00     0.170 HD
ENDBRANCH   8  10
ENDBRANCH   2   4
ENDBRANCH   1   2
BRANCH   1  17
ATOM     17  C   UNL d   1      24.920 -16.572  -1.446  0.00  0.00     0.079 A 
ATOM     18  C   UNL d   1      23.654 -15.997  -1.306  0.00  0.00     0.039 A 
ATOM     19  C   UNL d   1      22.618 -16.706  -0.649  0.00  0.00     0.032 A 
ATOM     20  C   UNL d   1      22.825 -18.019  -0.191  0.00  0.00     0.035 A 
ATOM     21  C   UNL d   1      24.108 -18.548  -0.336  0.00  0.00     0.032 A 
ATOM     22  C   UNL d   1      25.145 -17.841  -0.941  0.00  0.00     0.039 A 
BRANCH  20  23
ATOM     23  N   UNL d   1      21.752 -18.785   0.368  0.00  0.00    -0.321 N 
ATOM     24  C   UNL d   1      20.709 -19.360  -0.367  0.00  0.00     0.279 C 
ATOM     25  O   UNL d   1      20.630 -19.326  -1.602  0.00  0.00    -0.265 OA
ATOM     26  H   UNL d   1      21.745 -18.908   1.373  0.00  0.00     0.169 HD
BRANCH  24  27
ATOM     27  C   UNL d   1      19.650 -20.025   0.366  0.00  0.00     0.142 A 
ATOM     28  C   UNL d   1      18.569 -20.807  -0.000  0.00  0.00     0.045 A 
ATOM     29  C   UNL d   1      18.025 -21.341   1.201  0.00  0.00     0.027 A 
ATOM     30  C   UNL d   1      18.778 -20.832   2.228  0.00  0.00     0.143 A 
ATOM     31  O   UNL d   1      19.760 -20.039   1.737  0.00  0.00    -0.317 OA
ENDBRANCH  24  27
ENDBRANCH  20  23
ENDBRANCH   1  17
TORSDOF 6
ENDMDL
MODEL 9
REMARK VINA RESULT:    -9.063      3.912      5.660
REMARK INTER + INTRA:         -12.380
REMARK INTER:                 -10.853
REMARK INTRA:                  -1.527
REMARK CONF_INDEPENDENT:        1.790
REMARK UNBOUND:                -1.527
REMARK  6 active torsions:
REMARK  status: ('A' for Active; 'I' for Inactive)
REMARK       I    between atoms: N_1  and  C_2 
REMARK       I    between atoms: C_2  and  N_4 
REMARK    1  A    between atoms: N_4  and  C_5 
REMARK    2  A    between atoms: C_9  and  C_10 
REMARK    3  A    between atoms: C_10  and  O_12 
REMARK    4  A    between atoms: O_12  and  C_13 
REMARK    5  A    between atoms: C_16  and  N_17 
REMARK       I    between atoms: N_17  and  C_18 
REMARK    6  A    between atoms: C_18  and  C_20 
ROOT
ATOM      1  O   UNL d   1      26.595 -15.798  -1.746  0.00  0.00    -0.275 OA
ENDROOT
BRANCH   1   2
ATOM      2  C   UNL d   1      27.866 -16.005  -1.218  0.00  0.00     0.298 C 
ATOM      3  O   UNL d   1      28.169 -16.019  -0.028  0.00  0.00    -0.259 OA
BRANCH   2   4
ATOM      4  C   UNL d   1      28.877 -16.292  -2.270  0.00  0.00     0.042 A 
ATOM      5  C   UNL d   1      29.680 -17.431  -2.111  0.00  0.00     0.018 A 
ATOM      6  C   UNL d   1      30.564 -17.822  -3.117  0.00  0.00     0.003 A 
ATOM      7  C   UNL d   1      30.684 -17.053  -4.280  0.00  0.00     0.029 A 
ATOM      8  C   UNL d   1      29.911 -15.896  -4.436  0.00  0.00     0.037 A 
ATOM      9  C   UNL d   1      29.018 -15.515  -3.423  0.00  0.00     0.047 A 
BRANCH   8  10
ATOM     10  N   UNL d   1      29.980 -15.155  -5.638  0.00  0.00    -0.309 N 
ATOM     11  C   UNL d   1      28.934 -15.084  -6.523  0.00  0.00     0.318 C 
ATOM     12  N   UNL d   1      29.190 -14.369  -7.645  0.00  0.00    -0.352 N 
ATOM     13  O   UNL d   1      27.822 -15.575  -6.374  0.00  0.00    -0.247 OA
ATOM     14  H   UNL d   1      28.420 -14.303  -8.299  0.00  0.00     0.160 HD
ATOM     15  H   UNL d   1      30.071 -13.950  -7.891  0.00  0.00     0.160 HD
ATOM     16  H   UNL d   1      30.743 -14.504  -5.753  0.00  0.00     0.170 HD
ENDBRANCH   8  10
ENDBRANCH   2   4
ENDBRANCH   1   2
BRANCH   1  17
ATOM     17  C   UNL d   1      25.507 -16.547  -1.238  0.00  0.00     0.079 A 
ATOM     18  C   UNL d   1      24.206 -16.105  -1.489  0.00  0.00     0.039 A 
ATOM     19  C   UNL d   1      23.102 -16.760  -0.888  0.00  0.00     0.032 A 
ATOM     20  C   UNL d   1      23.293 -17.901  -0.090  0.00  0.00     0.035 A 
ATOM     21  C   UNL d   1      24.609 -18.299   0.148  0.00  0.00     0.032 A 
ATOM     22  C   UNL d   1      25.703 -17.633  -0.403  0.00  0.00     0.039 A 
BRANCH  20  23
ATOM     23  N   UNL d   1      22.178 -18.639   0.424  0.00  0.00    -0.321 N 
ATOM     24  C   UNL d   1      21.136 -19.162  -0.350  0.00  0.00     0.279 C 
ATOM     25  O   UNL d   1      21.093 -19.102  -1.585  0.00  0.00    -0.265 OA
ATOM     26  H   UNL d   1      22.140 -18.780   1.426  0.00  0.00     0.169 HD
BRANCH  24  27
ATOM     27  C   UNL d   1      20.035 -19.802   0.342  0.00  0.00     0.142 A 
ATOM     28  C   UNL d   1      19.058 -20.707  -0.033  0.00  0.00     0.045 A 
ATOM     29  C   UNL d   1      18.398 -21.115   1.159  0.00  0.00     0.027 A 
ATOM     30  C   UNL d   1      18.983 -20.415   2.184  0.00  0.00     0.143 A 
ATOM     31  O   UNL d   1      19.969 -19.622   1.704  0.00  0.00    -0.317 OA
ENDBRANCH  24  27
ENDBRANCH  20  23
ENDBRANCH   1  17
TORSDOF 6
ENDMDL
