MODEL 1
REMARK VINA RESULT:   -10.448      0.000      0.000
REMARK INTER + INTRA:         -14.553
REMARK INTER:                 -13.431
REMARK INTRA:                  -1.122
REMARK CONF_INDEPENDENT:        2.983
REMARK UNBOUND:                -1.122
REMARK  10 active torsions:
REMARK  status: ('A' for Active; 'I' for Inactive)
REMARK    1  A    between atoms: O_2  and  C_3 
REMARK    2  A    between atoms: C_7  and  C_6 
REMARK    3  A    between atoms: C_7  and  N_27 
REMARK    4  A    between atoms: C_7  and  C_8 
REMARK    5  A    between atoms: C_8  and  N_9 
REMARK       I    between atoms: N_9  and  C_10 
REMARK    6  A    between atoms: C_10  and  C_12 
REMARK    7  A    between atoms: C_15  and  S_16 
REMARK    8  A    between atoms: S_16  and  C_17 
REMARK    9  A    between atoms: C_17  and  C_18 
REMARK   10  A    between atoms: C_31  and  O_32 
ROOT
ATOM      1  N   UNL d   1      28.700 -15.228   1.153  0.00  0.00    -0.354 N 
ATOM      2  C   UNL d   1      27.779 -14.990   0.139  0.00  0.00     0.256 C 
ATOM      3  O   UNL d   1      27.811 -13.988  -0.549  0.00  0.00    -0.268 OA
ATOM      4  H   UNL d   1      28.619 -16.064   1.724  0.00  0.00     0.162 HD
ENDROOT
BRANCH   1   5
ATOM      5  C   UNL d   1      29.689 -14.204   1.459  0.00  0.00     0.161 C 
BRANCH   5   6
ATOM      6  C   UNL d   1      29.667 -13.592   2.894  0.00  0.00     0.237 C 
BRANCH   6   7
ATOM      7  N   UNL d   1      29.268 -14.662   3.929  0.00  0.00    -0.069 N 
ATOM      8  C   UNL d   1      30.029 -14.575   5.221  0.00  0.00     0.270 C 
ATOM      9  C   UNL d   1      27.780 -14.662   4.199  0.00  0.00     0.270 C 
ATOM     10  H   UNL d   1      29.501 -15.575   3.522  0.00  0.00     0.279 HD
ENDBRANCH   6   7
BRANCH   6  11
ATOM     11  C   UNL d   1      28.702 -12.420   2.900  0.00  0.00    -0.023 A 
ATOM     12  C   UNL d   1      27.755 -12.244   1.888  0.00  0.00     0.012 A 
ATOM     13  C   UNL d   1      26.970 -11.090   1.843  0.00  0.00     0.040 A 
ATOM     14  C   UNL d   1      27.046 -10.098   2.837  0.00  0.00     0.101 A 
ATOM     15  C   UNL d   1      27.986 -10.283   3.873  0.00  0.00     0.102 A 
ATOM     16  C   UNL d   1      28.793 -11.440   3.890  0.00  0.00     0.049 A 
BRANCH  14  17
ATOM     17  O   UNL d   1      25.968  -9.246   2.790  0.00  0.00    -0.353 OA
ATOM     18  C   UNL d   1      25.905  -8.127   1.910  0.00  0.00     0.210 C 
ENDBRANCH  14  17
BRANCH  15  19
ATOM     19  O   UNL d   1      28.285  -9.535   4.983  0.00  0.00    -0.353 OA
ATOM     20  C   UNL d   1      28.204  -8.149   4.803  0.00  0.00     0.210 C 
ENDBRANCH  15  19
ENDBRANCH   6  11
ENDBRANCH   5   6
ENDBRANCH   1   5
BRANCH   2  21
ATOM     21  C   UNL d   1      26.754 -16.017  -0.111  0.00  0.00     0.090 A 
ATOM     22  C   UNL d   1      26.750 -17.196   0.608  0.00  0.00     0.139 A 
ATOM     23  N   UNL d   1      25.838 -18.189   0.432  0.00  0.00    -0.234 NA
ATOM     24  C   UNL d   1      24.922 -17.993  -0.526  0.00  0.00     0.189 A 
ATOM     25  N   UNL d   1      24.864 -16.894  -1.295  0.00  0.00    -0.210 NA
ATOM     26  C   UNL d   1      25.782 -15.941  -1.071  0.00  0.00     0.146 A 
ATOM     27 CL   UNL d   1      25.600 -14.600  -2.140  0.00  0.00    -0.061 Cl
BRANCH  24  28
ATOM     28  S   UNL d   1      23.625 -19.144  -0.830  0.00  0.00    -0.086 SA
BRANCH  28  29
ATOM     29  C   UNL d   1      22.079 -18.164  -0.735  0.00  0.00     0.121 C 
BRANCH  29  30
ATOM     30  C   UNL d   1      20.923 -19.008  -0.204  0.00  0.00    -0.049 A 
ATOM     31  C   UNL d   1      19.874 -19.411  -1.045  0.00  0.00     0.008 A 
ATOM     32  C   UNL d   1      18.758 -20.077  -0.521  0.00  0.00     0.001 A 
ATOM     33  C   UNL d   1      18.708 -20.421   0.829  0.00  0.00     0.000 A 
ATOM     34  C   UNL d   1      19.747 -20.048   1.673  0.00  0.00     0.001 A 
ATOM     35  C   UNL d   1      20.824 -19.325   1.165  0.00  0.00     0.008 A 
ENDBRANCH  29  30
ENDBRANCH  28  29
ENDBRANCH  24  28
ENDBRANCH   2  21
TORSDOF 10
ENDMDL
MODEL 2
REMARK VINA RESULT:    -9.964      2.247      3.168
REMARK INTER + INTRA:         -14.313
REMARK INTER:                 -12.947
REMARK INTRA:                  -1.366
REMARK CONF_INDEPENDENT:        2.983
REMARK UNBOUND:                -1.366
REMARK  10 active torsions:
REMARK  status: ('A' for Active; 'I' for Inactive)
REMARK    1  A    between atoms: O_2  and  C_3 
REMARK    2  A    between atoms: C_7  and  C_6 
REMARK    3  A    between atoms: C_7  and  N_27 
REMARK    4  A    between atoms: C_7  and  C_8 
REMARK    5  A    between atoms: C_8  and  N_9 
REMARK       I    between atoms: N_9  and  C_10 
REMARK    6  A    between atoms: C_10  and  C_12 
REMARK    7  A    between atoms: C_15  and  S_16 
REMARK    8  A    between atoms: S_16  and  C_17 
REMARK    9  A    between atoms: C_17  and  C_18 
REMARK   10  A    between atoms: C_31  and  O_32 
ROOT
ATOM      1  N   UNL d   1      28.650 -14.945  -0.180  0.00  0.00    -0.354 N 
ATOM      2  C   UNL d   1      28.540 -16.305  -0.449  0.00  0.00     0.256 C 
ATOM      3  O   UNL d   1      29.508 -17.036  -0.518  0.00  0.00    -0.268 OA
ATOM      4  H   UNL d   1      27.818 -14.363  -0.160  0.00  0.00     0.162 HD
ENDROOT
BRANCH   1   5
ATOM      5  C   UNL d   1      29.978 -14.358  -0.059  0.00  0.00     0.161 C 
BRANCH   5   6
ATOM      6  C   UNL d   1      30.758 -14.617   1.267  0.00  0.00     0.237 C 
BRANCH   6   7
ATOM      7  N   UNL d   1      31.267 -16.070   1.317  0.00  0.00    -0.069 N 
ATOM      8  C   UNL d   1      31.962 -16.517   0.062  0.00  0.00     0.270 C 
ATOM      9  C   UNL d   1      32.150 -16.320   2.519  0.00  0.00     0.270 C 
ATOM     10  H   UNL d   1      30.443 -16.674   1.417  0.00  0.00     0.279 HD
ENDBRANCH   6   7
BRANCH   6  11
ATOM     11  C   UNL d   1      29.838 -14.305   2.432  0.00  0.00    -0.023 A 
ATOM     12  C   UNL d   1      30.229 -14.522   3.756  0.00  0.00     0.012 A 
ATOM     13  C   UNL d   1      29.319 -14.355   4.802  0.00  0.00     0.040 A 
ATOM     14  C   UNL d   1      28.006 -13.900   4.582  0.00  0.00     0.101 A 
ATOM     15  C   UNL d   1      27.614 -13.658   3.249  0.00  0.00     0.102 A 
ATOM     16  C   UNL d   1      28.535 -13.859   2.199  0.00  0.00     0.049 A 
BRANCH  14  17
ATOM     17  O   UNL d   1      27.412 -13.479   5.749  0.00  0.00    -0.353 OA
ATOM     18  C   UNL d   1      28.139 -12.858   6.806  0.00  0.00     0.210 C 
ENDBRANCH  14  17
BRANCH  15  19
ATOM     19  O   UNL d   1      26.442 -13.194   2.708  0.00  0.00    -0.353 OA
ATOM     20  C   UNL d   1      26.438 -13.077   1.313  0.00  0.00     0.210 C 
ENDBRANCH  15  19
ENDBRANCH   6  11
ENDBRANCH   5   6
ENDBRANCH   1   5
BRANCH   2  21
ATOM     21  C   UNL d   1      27.188 -16.860  -0.624  0.00  0.00     0.090 A 
ATOM     22  C   UNL d   1      26.730 -17.871   0.197  0.00  0.00     0.139 A 
ATOM     23  N   UNL d   1      25.496 -18.433   0.095  0.00  0.00    -0.234 NA
ATOM     24  C   UNL d   1      24.715 -17.977  -0.894  0.00  0.00     0.189 A 
ATOM     25  N   UNL d   1      25.083 -17.019  -1.759  0.00  0.00    -0.210 NA
ATOM     26  C   UNL d   1      26.307 -16.491  -1.605  0.00  0.00     0.146 A 
ATOM     27 CL   UNL d   1      26.652 -15.290  -2.793  0.00  0.00    -0.061 Cl
BRANCH  24  28
ATOM     28  S   UNL d   1      23.063 -18.542  -1.118  0.00  0.00    -0.086 SA
BRANCH  28  29
ATOM     29  C   UNL d   1      22.268 -18.372   0.525  0.00  0.00     0.121 C 
BRANCH  29  30
ATOM     30  C   UNL d   1      20.958 -19.153   0.588  0.00  0.00    -0.049 A 
ATOM     31  C   UNL d   1      20.249 -19.472  -0.580  0.00  0.00     0.008 A 
ATOM     32  C   UNL d   1      18.987 -20.078  -0.504  0.00  0.00     0.001 A 
ATOM     33  C   UNL d   1      18.453 -20.447   0.730  0.00  0.00     0.000 A 
ATOM     34  C   UNL d   1      19.151 -20.158   1.896  0.00  0.00     0.001 A 
ATOM     35  C   UNL d   1      20.373 -19.493   1.823  0.00  0.00     0.008 A 
ENDBRANCH  29  30
ENDBRANCH  28  29
ENDBRANCH  24  28
ENDBRANCH   2  21
TORSDOF 10
ENDMDL
MODEL 3
REMARK VINA RESULT:    -9.696      2.160      3.110
REMARK INTER + INTRA:         -14.158
REMARK INTER:                 -12.679
REMARK INTRA:                  -1.478
REMARK CONF_INDEPENDENT:        2.983
REMARK UNBOUND:                -1.478
REMARK  10 active torsions:
REMARK  status: ('A' for Active; 'I' for Inactive)
REMARK    1  A    between atoms: O_2  and  C_3 
REMARK    2  A    between atoms: C_7  and  C_6 
REMARK    3  A    between atoms: C_7  and  N_27 
REMARK    4  A    between atoms: C_7  and  C_8 
REMARK    5  A    between atoms: C_8  and  N_9 
REMARK       I    between atoms: N_9  and  C_10 
REMARK    6  A    between atoms: C_10  and  C_12 
REMARK    7  A    between atoms: C_15  and  S_16 
REMARK    8  A    between atoms: S_16  and  C_17 
REMARK    9  A    between atoms: C_17  and  C_18 
REMARK   10  A    between atoms: C_31  and  O_32 
ROOT
ATOM      1  N   UNL d   1      29.003 -17.379  -0.413  0.00  0.00    -0.354 N 
ATOM      2  C   UNL d   1      28.132 -16.772  -1.311  0.00  0.00     0.256 C 
ATOM      3  O   UNL d   1      28.524 -16.168  -2.290  0.00  0.00    -0.268 OA
ATOM      4  H   UNL d   1      28.636 -17.849   0.410  0.00  0.00     0.162 HD
ENDROOT
BRANCH   1   5
ATOM      5  C   UNL d   1      30.437 -17.216  -0.605  0.00  0.00     0.161 C 
BRANCH   5   6
ATOM      6  C   UNL d   1      31.131 -16.032   0.137  0.00  0.00     0.237 C 
BRANCH   6   7
ATOM      7  N   UNL d   1      31.617 -16.481   1.529  0.00  0.00    -0.069 N 
ATOM      8  C   UNL d   1      32.364 -17.785   1.523  0.00  0.00     0.270 C 
ATOM      9  C   UNL d   1      32.439 -15.412   2.213  0.00  0.00     0.270 C 
ATOM     10  H   UNL d   1      30.781 -16.634   2.104  0.00  0.00     0.279 HD
ENDBRANCH   6   7
BRANCH   6  11
ATOM     11  C   UNL d   1      30.143 -14.884   0.232  0.00  0.00    -0.023 A 
ATOM     12  C   UNL d   1      30.220 -13.777  -0.617  0.00  0.00     0.012 A 
ATOM     13  C   UNL d   1      29.386 -12.674  -0.424  0.00  0.00     0.040 A 
ATOM     14  C   UNL d   1      28.396 -12.654   0.576  0.00  0.00     0.101 A 
ATOM     15  C   UNL d   1      28.300 -13.780   1.421  0.00  0.00     0.102 A 
ATOM     16  C   UNL d   1      29.170 -14.875   1.233  0.00  0.00     0.049 A 
BRANCH  14  17
ATOM     17  O   UNL d   1      27.482 -11.649   0.367  0.00  0.00    -0.353 OA
ATOM     18  C   UNL d   1      27.470 -10.444   1.128  0.00  0.00     0.210 C 
ENDBRANCH  14  17
BRANCH  15  19
ATOM     19  O   UNL d   1      27.447 -14.081   2.452  0.00  0.00    -0.353 OA
ATOM     20  C   UNL d   1      28.049 -14.171   3.713  0.00  0.00     0.210 C 
ENDBRANCH  15  19
ENDBRANCH   6  11
ENDBRANCH   5   6
ENDBRANCH   1   5
BRANCH   2  21
ATOM     21  C   UNL d   1      26.688 -16.904  -1.060  0.00  0.00     0.090 A 
ATOM     22  C   UNL d   1      26.221 -17.731  -0.058  0.00  0.00     0.139 A 
ATOM     23  N   UNL d   1      24.903 -17.904   0.231  0.00  0.00    -0.234 NA
ATOM     24  C   UNL d   1      24.032 -17.242  -0.543  0.00  0.00     0.189 A 
ATOM     25  N   UNL d   1      24.390 -16.439  -1.558  0.00  0.00    -0.210 NA
ATOM     26  C   UNL d   1      25.704 -16.296  -1.792  0.00  0.00     0.146 A 
ATOM     27 CL   UNL d   1      26.016 -15.256  -3.131  0.00  0.00    -0.061 Cl
BRANCH  24  28
ATOM     28  S   UNL d   1      22.296 -17.295  -0.256  0.00  0.00    -0.086 SA
BRANCH  28  29
ATOM     29  C   UNL d   1      21.745 -18.911  -0.924  0.00  0.00     0.121 C 
BRANCH  29  30
ATOM     30  C   UNL d   1      20.626 -19.506  -0.074  0.00  0.00    -0.049 A 
ATOM     31  C   UNL d   1      19.489 -20.074  -0.670  0.00  0.00     0.008 A 
ATOM     32  C   UNL d   1      18.413 -20.504   0.118  0.00  0.00     0.001 A 
ATOM     33  C   UNL d   1      18.488 -20.449   1.510  0.00  0.00     0.000 A 
ATOM     34  C   UNL d   1      19.614 -19.909   2.117  0.00  0.00     0.001 A 
ATOM     35  C   UNL d   1      20.655 -19.418   1.331  0.00  0.00     0.008 A 
ENDBRANCH  29  30
ENDBRANCH  28  29
ENDBRANCH  24  28
ENDBRANCH   2  21
TORSDOF 10
ENDMDL
MODEL 4
REMARK VINA RESULT:    -9.539      4.126      9.769
REMARK INTER + INTRA:         -13.753
REMARK INTER:                 -12.522
REMARK INTRA:                  -1.231
REMARK CONF_INDEPENDENT:        2.983
REMARK UNBOUND:                -1.231
REMARK  10 active torsions:
REMARK  status: ('A' for Active; 'I' for Inactive)
REMARK    1  A    between atoms: O_2  and  C_3 
REMARK    2  A    between atoms: C_7  and  C_6 
REMARK    3  A    between atoms: C_7  and  N_27 
REMARK    4  A    between atoms: C_7  and  C_8 
REMARK    5  A    between atoms: C_8  and  N_9 
REMARK       I    between atoms: N_9  and  C_10 
REMARK    6  A    between atoms: C_10  and  C_12 
REMARK    7  A    between atoms: C_15  and  S_16 
REMARK    8  A    between atoms: S_16  and  C_17 
REMARK    9  A    between atoms: C_17  and  C_18 
REMARK   10  A    between atoms: C_31  and  O_32 
ROOT
ATOM      1  N   UNL d   1      28.127 -14.343   2.444  0.00  0.00    -0.354 N 
ATOM      2  C   UNL d   1      27.393 -13.274   2.947  0.00  0.00     0.256 C 
ATOM      3  O   UNL d   1      26.439 -12.805   2.359  0.00  0.00    -0.268 OA
ATOM      4  H   UNL d   1      28.936 -14.686   2.953  0.00  0.00     0.162 HD
ENDROOT
BRANCH   1   5
ATOM      5  C   UNL d   1      27.793 -14.866   1.127  0.00  0.00     0.161 C 
BRANCH   5   6
ATOM      6  C   UNL d   1      27.779 -16.417   0.953  0.00  0.00     0.237 C 
BRANCH   6   7
ATOM      7  N   UNL d   1      29.027 -16.882   0.179  0.00  0.00    -0.069 N 
ATOM      8  C   UNL d   1      28.772 -17.171  -1.273  0.00  0.00     0.270 C 
ATOM      9  C   UNL d   1      30.178 -15.912   0.323  0.00  0.00     0.270 C 
ATOM     10  H   UNL d   1      29.327 -17.770   0.598  0.00  0.00     0.279 HD
ENDBRANCH   6   7
BRANCH   6  11
ATOM     11  C   UNL d   1      26.499 -16.806   0.238  0.00  0.00    -0.023 A 
ATOM     12  C   UNL d   1      25.859 -18.023   0.487  0.00  0.00     0.012 A 
ATOM     13  C   UNL d   1      24.759 -18.418  -0.278  0.00  0.00     0.040 A 
ATOM     14  C   UNL d   1      24.209 -17.589  -1.273  0.00  0.00     0.101 A 
ATOM     15  C   UNL d   1      24.837 -16.349  -1.511  0.00  0.00     0.102 A 
ATOM     16  C   UNL d   1      25.966 -15.977  -0.751  0.00  0.00     0.049 A 
BRANCH  14  17
ATOM     17  O   UNL d   1      22.953 -18.009  -1.646  0.00  0.00    -0.353 OA
ATOM     18  C   UNL d   1      22.034 -18.603  -0.733  0.00  0.00     0.210 C 
ENDBRANCH  14  17
BRANCH  15  19
ATOM     19  O   UNL d   1      24.541 -15.322  -2.371  0.00  0.00    -0.353 OA
ATOM     20  C   UNL d   1      25.530 -15.042  -3.322  0.00  0.00     0.210 C 
ENDBRANCH  15  19
ENDBRANCH   6  11
ENDBRANCH   5   6
ENDBRANCH   1   5
BRANCH   2  21
ATOM     21  C   UNL d   1      27.789 -12.727   4.255  0.00  0.00     0.090 A 
ATOM     22  C   UNL d   1      27.888 -11.364   4.447  0.00  0.00     0.139 A 
ATOM     23  N   UNL d   1      28.249 -10.787   5.625  0.00  0.00    -0.234 NA
ATOM     24  C   UNL d   1      28.550 -11.622   6.629  0.00  0.00     0.189 A 
ATOM     25  N   UNL d   1      28.511 -12.960   6.529  0.00  0.00    -0.210 NA
ATOM     26  C   UNL d   1      28.138 -13.476   5.347  0.00  0.00     0.146 A 
ATOM     27 CL   UNL d   1      28.151 -15.200   5.357  0.00  0.00    -0.061 Cl
BRANCH  24  28
ATOM     28  S   UNL d   1      28.960 -11.040   8.239  0.00  0.00    -0.086 SA
BRANCH  28  29
ATOM     29  C   UNL d   1      28.156 -12.213   9.395  0.00  0.00     0.121 C 
BRANCH  29  30
ATOM     30  C   UNL d   1      29.066 -13.400   9.699  0.00  0.00    -0.049 A 
ATOM     31  C   UNL d   1      28.871 -14.188  10.844  0.00  0.00     0.008 A 
ATOM     32  C   UNL d   1      29.786 -15.195  11.178  0.00  0.00     0.001 A 
ATOM     33  C   UNL d   1      30.859 -15.485  10.336  0.00  0.00     0.000 A 
ATOM     34  C   UNL d   1      31.056 -14.729   9.188  0.00  0.00     0.001 A 
ATOM     35  C   UNL d   1      30.186 -13.682   8.892  0.00  0.00     0.008 A 
ENDBRANCH  29  30
ENDBRANCH  28  29
ENDBRANCH  24  28
ENDBRANCH   2  21
TORSDOF 10
ENDMDL
MODEL 5
REMARK VINA RESULT:    -9.444      4.145      9.422
REMARK INTER + INTRA:         -13.490
REMARK INTER:                 -12.427
REMARK INTRA:                  -1.063
REMARK CONF_INDEPENDENT:        2.983
REMARK UNBOUND:                -1.063
REMARK  10 active torsions:
REMARK  status: ('A' for Active; 'I' for Inactive)
REMARK    1  A    between atoms: O_2  and  C_3 
REMARK    2  A    between atoms: C_7  and  C_6 
REMARK    3  A    between atoms: C_7  and  N_27 
REMARK    4  A    between atoms: C_7  and  C_8 
REMARK    5  A    between atoms: C_8  and  N_9 
REMARK       I    between atoms: N_9  and  C_10 
REMARK    6  A    between atoms: C_10  and  C_12 
REMARK    7  A    between atoms: C_15  and  S_16 
REMARK    8  A    between atoms: S_16  and  C_17 
REMARK    9  A    between atoms: C_17  and  C_18 
REMARK   10  A    between atoms: C_31  and  O_32 
ROOT
ATOM      1  N   UNL d   1      28.297 -15.565   1.359  0.00  0.00    -0.354 N 
ATOM      2  C   UNL d   1      27.612 -14.373   1.572  0.00  0.00     0.256 C 
ATOM      3  O   UNL d   1      26.903 -13.869   0.723  0.00  0.00    -0.268 OA
ATOM      4  H   UNL d   1      28.904 -15.937   2.084  0.00  0.00     0.162 HD
ENDROOT
BRANCH   1   5
ATOM      5  C   UNL d   1      28.230 -16.189   0.045  0.00  0.00     0.161 C 
BRANCH   5   6
ATOM      6  C   UNL d   1      26.828 -16.287  -0.632  0.00  0.00     0.237 C 
BRANCH   6   7
ATOM      7  N   UNL d   1      26.225 -17.689  -0.419  0.00  0.00    -0.069 N 
ATOM      8  C   UNL d   1      26.584 -18.314   0.900  0.00  0.00     0.270 C 
ATOM      9  C   UNL d   1      24.724 -17.694  -0.607  0.00  0.00     0.270 C 
ATOM     10  H   UNL d   1      26.622 -18.300  -1.141  0.00  0.00     0.279 HD
ENDBRANCH   6   7
BRANCH   6  11
ATOM     11  C   UNL d   1      26.984 -15.963  -2.106  0.00  0.00    -0.023 A 
ATOM     12  C   UNL d   1      28.222 -16.046  -2.749  0.00  0.00     0.012 A 
ATOM     13  C   UNL d   1      28.368 -15.615  -4.069  0.00  0.00     0.040 A 
ATOM     14  C   UNL d   1      27.276 -15.149  -4.825  0.00  0.00     0.101 A 
ATOM     15  C   UNL d   1      26.020 -15.085  -4.186  0.00  0.00     0.102 A 
ATOM     16  C   UNL d   1      25.894 -15.496  -2.843  0.00  0.00     0.049 A 
BRANCH  14  17
ATOM     17  O   UNL d   1      27.567 -15.113  -6.168  0.00  0.00    -0.353 OA
ATOM     18  C   UNL d   1      28.821 -14.666  -6.676  0.00  0.00     0.210 C 
ENDBRANCH  14  17
BRANCH  15  19
ATOM     19  O   UNL d   1      24.780 -14.711  -4.639  0.00  0.00    -0.353 OA
ATOM     20  C   UNL d   1      24.158 -13.700  -3.897  0.00  0.00     0.210 C 
ENDBRANCH  15  19
ENDBRANCH   6  11
ENDBRANCH   5   6
ENDBRANCH   1   5
BRANCH   2  21
ATOM     21  C   UNL d   1      27.745 -13.734   2.891  0.00  0.00     0.090 A 
ATOM     22  C   UNL d   1      28.060 -14.482   4.007  0.00  0.00     0.139 A 
ATOM     23  N   UNL d   1      28.198 -13.962   5.256  0.00  0.00    -0.234 NA
ATOM     24  C   UNL d   1      27.976 -12.646   5.380  0.00  0.00     0.189 A 
ATOM     25  N   UNL d   1      27.637 -11.843   4.360  0.00  0.00    -0.210 NA
ATOM     26  C   UNL d   1      27.526 -12.407   3.147  0.00  0.00     0.146 A 
ATOM     27 CL   UNL d   1      27.068 -11.266   1.938  0.00  0.00    -0.061 Cl
BRANCH  24  28
ATOM     28  S   UNL d   1      28.187 -11.802   6.911  0.00  0.00    -0.086 SA
BRANCH  28  29
ATOM     29  C   UNL d   1      29.560 -12.672   7.757  0.00  0.00     0.121 C 
BRANCH  29  30
ATOM     30  C   UNL d   1      29.102 -13.263   9.088  0.00  0.00    -0.049 A 
ATOM     31  C   UNL d   1      28.138 -12.614   9.875  0.00  0.00     0.008 A 
ATOM     32  C   UNL d   1      27.817 -13.098  11.150  0.00  0.00     0.001 A 
ATOM     33  C   UNL d   1      28.390 -14.277  11.624  0.00  0.00     0.000 A 
ATOM     34  C   UNL d   1      29.330 -14.944  10.850  0.00  0.00     0.001 A 
ATOM     35  C   UNL d   1      29.701 -14.425   9.612  0.00  0.00     0.008 A 
ENDBRANCH  29  30
ENDBRANCH  28  29
ENDBRANCH  24  28
ENDBRANCH   2  21
TORSDOF 10
ENDMDL
MODEL 6
REMARK VINA RESULT:    -9.349      1.352      2.170
REMARK INTER + INTRA:         -13.455
REMARK INTER:                 -12.332
REMARK INTRA:                  -1.123
REMARK CONF_INDEPENDENT:        2.983
REMARK UNBOUND:                -1.123
REMARK  10 active torsions:
REMARK  status: ('A' for Active; 'I' for Inactive)
REMARK    1  A    between atoms: O_2  and  C_3 
REMARK    2  A    between atoms: C_7  and  C_6 
REMARK    3  A    between atoms: C_7  and  N_27 
REMARK    4  A    between atoms: C_7  and  C_8 
REMARK    5  A    between atoms: C_8  and  N_9 
REMARK       I    between atoms: N_9  and  C_10 
REMARK    6  A    between atoms: C_10  and  C_12 
REMARK    7  A    between atoms: C_15  and  S_16 
REMARK    8  A    between atoms: S_16  and  C_17 
REMARK    9  A    between atoms: C_17  and  C_18 
REMARK   10  A    between atoms: C_31  and  O_32 
ROOT
ATOM      1  N   UNL d   1      28.713 -15.615   0.397  0.00  0.00    -0.354 N 
ATOM      2  C   UNL d   1      27.707 -15.430  -0.546  0.00  0.00     0.256 C 
ATOM      3  O   UNL d   1      27.733 -14.526  -1.357  0.00  0.00    -0.268 OA
ATOM      4  H   UNL d   1      28.638 -16.365   1.077  0.00  0.00     0.162 HD
ENDROOT
BRANCH   1   5
ATOM      5  C   UNL d   1      29.794 -14.642   0.470  0.00  0.00     0.161 C 
BRANCH   5   6
ATOM      6  C   UNL d   1      29.896 -13.779   1.766  0.00  0.00     0.237 C 
BRANCH   6   7
ATOM      7  N   UNL d   1      29.399 -14.579   2.985  0.00  0.00    -0.069 N 
ATOM      8  C   UNL d   1      30.238 -14.396   4.218  0.00  0.00     0.270 C 
ATOM      9  C   UNL d   1      27.947 -14.294   3.295  0.00  0.00     0.270 C 
ATOM     10  H   UNL d   1      29.465 -15.573   2.740  0.00  0.00     0.279 HD
ENDBRANCH   6   7
BRANCH   6  11
ATOM     11  C   UNL d   1      29.088 -12.511   1.560  0.00  0.00    -0.023 A 
ATOM     12  C   UNL d   1      28.965 -11.548   2.564  0.00  0.00     0.012 A 
ATOM     13  C   UNL d   1      28.109 -10.456   2.401  0.00  0.00     0.040 A 
ATOM     14  C   UNL d   1      27.396 -10.241   1.208  0.00  0.00     0.101 A 
ATOM     15  C   UNL d   1      27.536 -11.200   0.182  0.00  0.00     0.102 A 
ATOM     16  C   UNL d   1      28.381 -12.313   0.373  0.00  0.00     0.049 A 
BRANCH  14  17
ATOM     17  O   UNL d   1      26.906  -8.958   1.132  0.00  0.00    -0.353 OA
ATOM     18  C   UNL d   1      27.658  -7.875   0.589  0.00  0.00     0.210 C 
ENDBRANCH  14  17
BRANCH  15  19
ATOM     19  O   UNL d   1      27.011 -11.271  -1.083  0.00  0.00    -0.353 OA
ATOM     20  C   UNL d   1      27.667 -10.490  -2.042  0.00  0.00     0.210 C 
ENDBRANCH  15  19
ENDBRANCH   6  11
ENDBRANCH   5   6
ENDBRANCH   1   5
BRANCH   2  21
ATOM     21  C   UNL d   1      26.596 -16.396  -0.559  0.00  0.00     0.090 A 
ATOM     22  C   UNL d   1      26.502 -17.374   0.411  0.00  0.00     0.139 A 
ATOM     23  N   UNL d   1      25.506 -18.299   0.462  0.00  0.00    -0.234 NA
ATOM     24  C   UNL d   1      24.597 -18.250  -0.521  0.00  0.00     0.189 A 
ATOM     25  N   UNL d   1      24.622 -17.356  -1.522  0.00  0.00    -0.210 NA
ATOM     26  C   UNL d   1      25.620 -16.458  -1.517  0.00  0.00     0.146 A 
ATOM     27 CL   UNL d   1      25.538 -15.388  -2.866  0.00  0.00    -0.061 Cl
BRANCH  24  28
ATOM     28  S   UNL d   1      23.203 -19.324  -0.561  0.00  0.00    -0.086 SA
BRANCH  28  29
ATOM     29  C   UNL d   1      21.875 -18.425   0.327  0.00  0.00     0.121 C 
BRANCH  29  30
ATOM     30  C   UNL d   1      20.665 -19.324   0.565  0.00  0.00    -0.049 A 
ATOM     31  C   UNL d   1      19.844 -19.730  -0.498  0.00  0.00     0.008 A 
ATOM     32  C   UNL d   1      18.666 -20.450  -0.253  0.00  0.00     0.001 A 
ATOM     33  C   UNL d   1      18.334 -20.844   1.043  0.00  0.00     0.000 A 
ATOM     34  C   UNL d   1      19.146 -20.468   2.105  0.00  0.00     0.001 A 
ATOM     35  C   UNL d   1      20.280 -19.693   1.869  0.00  0.00     0.008 A 
ENDBRANCH  29  30
ENDBRANCH  28  29
ENDBRANCH  24  28
ENDBRANCH   2  21
TORSDOF 10
ENDMDL
MODEL 7
REMARK VINA RESULT:    -9.323      3.612      5.585
REMARK INTER + INTRA:         -13.795
REMARK INTER:                 -12.306
REMARK INTRA:                  -1.489
REMARK CONF_INDEPENDENT:        2.983
REMARK UNBOUND:                -1.489
REMARK  10 active torsions:
REMARK  status: ('A' for Active; 'I' for Inactive)
REMARK    1  A    between atoms: O_2  and  C_3 
REMARK    2  A    between atoms: C_7  and  C_6 
REMARK    3  A    between atoms: C_7  and  N_27 
REMARK    4  A    between atoms: C_7  and  C_8 
REMARK    5  A    between atoms: C_8  and  N_9 
REMARK       I    between atoms: N_9  and  C_10 
REMARK    6  A    between atoms: C_10  and  C_12 
REMARK    7  A    between atoms: C_15  and  S_16 
REMARK    8  A    between atoms: S_16  and  C_17 
REMARK    9  A    between atoms: C_17  and  C_18 
REMARK   10  A    between atoms: C_31  and  O_32 
ROOT
ATOM      1  N   UNL d   1      28.967 -14.732   3.869  0.00  0.00    -0.354 N 
ATOM      2  C   UNL d   1      27.802 -14.157   3.373  0.00  0.00     0.256 C 
ATOM      3  O   UNL d   1      27.067 -13.477   4.062  0.00  0.00    -0.268 OA
ATOM      4  H   UNL d   1      29.537 -15.319   3.267  0.00  0.00     0.162 HD
ENDROOT
BRANCH   1   5
ATOM      5  C   UNL d   1      29.276 -14.585   5.284  0.00  0.00     0.161 C 
BRANCH   5   6
ATOM      6  C   UNL d   1      29.510 -13.139   5.821  0.00  0.00     0.237 C 
BRANCH   6   7
ATOM      7  N   UNL d   1      30.951 -12.681   5.521  0.00  0.00    -0.069 N 
ATOM      8  C   UNL d   1      31.105 -11.975   4.204  0.00  0.00     0.270 C 
ATOM      9  C   UNL d   1      31.519 -11.834   6.637  0.00  0.00     0.270 C 
ATOM     10  H   UNL d   1      31.528 -13.527   5.460  0.00  0.00     0.279 HD
ENDBRANCH   6   7
BRANCH   6  11
ATOM     11  C   UNL d   1      29.217 -13.128   7.310  0.00  0.00    -0.023 A 
ATOM     12  C   UNL d   1      28.427 -12.136   7.896  0.00  0.00     0.012 A 
ATOM     13  C   UNL d   1      28.281 -12.071   9.283  0.00  0.00     0.040 A 
ATOM     14  C   UNL d   1      28.858 -13.027  10.139  0.00  0.00     0.101 A 
ATOM     15  C   UNL d   1      29.639 -14.044   9.549  0.00  0.00     0.102 A 
ATOM     16  C   UNL d   1      29.801 -14.080   8.148  0.00  0.00     0.049 A 
BRANCH  14  17
ATOM     17  O   UNL d   1      28.311 -12.978  11.399  0.00  0.00    -0.353 OA
ATOM     18  C   UNL d   1      28.172 -14.130  12.226  0.00  0.00     0.210 C 
ENDBRANCH  14  17
BRANCH  15  19
ATOM     19  O   UNL d   1      30.301 -15.118  10.086  0.00  0.00    -0.353 OA
ATOM     20  C   UNL d   1      31.657 -15.207   9.750  0.00  0.00     0.210 C 
ENDBRANCH  15  19
ENDBRANCH   6  11
ENDBRANCH   5   6
ENDBRANCH   1   5
BRANCH   2  21
ATOM     21  C   UNL d   1      27.483 -14.370   1.952  0.00  0.00     0.090 A 
ATOM     22  C   UNL d   1      27.727 -15.590   1.352  0.00  0.00     0.139 A 
ATOM     23  N   UNL d   1      27.461 -15.860   0.046  0.00  0.00    -0.234 NA
ATOM     24  C   UNL d   1      26.963 -14.850  -0.681  0.00  0.00     0.189 A 
ATOM     25  N   UNL d   1      26.720 -13.623  -0.194  0.00  0.00    -0.210 NA
ATOM     26  C   UNL d   1      26.991 -13.415   1.104  0.00  0.00     0.146 A 
ATOM     27 CL   UNL d   1      26.651 -11.795   1.588  0.00  0.00    -0.061 Cl
BRANCH  24  28
ATOM     28  S   UNL d   1      26.492 -15.053  -2.365  0.00  0.00    -0.086 SA
BRANCH  28  29
ATOM     29  C   UNL d   1      24.663 -15.174  -2.344  0.00  0.00     0.121 C 
BRANCH  29  30
ATOM     30  C   UNL d   1      24.200 -16.376  -1.526  0.00  0.00    -0.049 A 
ATOM     31  C   UNL d   1      22.933 -16.396  -0.922  0.00  0.00     0.008 A 
ATOM     32  C   UNL d   1      22.566 -17.448  -0.071  0.00  0.00     0.001 A 
ATOM     33  C   UNL d   1      23.423 -18.531   0.124  0.00  0.00     0.000 A 
ATOM     34  C   UNL d   1      24.672 -18.538  -0.483  0.00  0.00     0.001 A 
ATOM     35  C   UNL d   1      25.063 -17.460  -1.273  0.00  0.00     0.008 A 
ENDBRANCH  29  30
ENDBRANCH  28  29
ENDBRANCH  24  28
ENDBRANCH   2  21
TORSDOF 10
ENDMDL
MODEL 8
REMARK VINA RESULT:    -9.002      5.064      7.575
REMARK INTER + INTRA:         -13.114
REMARK INTER:                 -11.985
REMARK INTRA:                  -1.129
REMARK CONF_INDEPENDENT:        2.983
REMARK UNBOUND:                -1.129
REMARK  10 active torsions:
REMARK  status: ('A' for Active; 'I' for Inactive)
REMARK    1  A    between atoms: O_2  and  C_3 
REMARK    2  A    between atoms: C_7  and  C_6 
REMARK    3  A    between atoms: C_7  and  N_27 
REMARK    4  A    between atoms: C_7  and  C_8 
REMARK    5  A    between atoms: C_8  and  N_9 
REMARK       I    between atoms: N_9  and  C_10 
REMARK    6  A    between atoms: C_10  and  C_12 
REMARK    7  A    between atoms: C_15  and  S_16 
REMARK    8  A    between atoms: S_16  and  C_17 
REMARK    9  A    between atoms: C_17  and  C_18 
REMARK   10  A    between atoms: C_31  and  O_32 
ROOT
ATOM      1  N   UNL d   1      28.908 -17.430  -0.517  0.00  0.00    -0.354 N 
ATOM      2  C   UNL d   1      28.061 -16.735  -1.373  0.00  0.00     0.256 C 
ATOM      3  O   UNL d   1      28.478 -16.058  -2.292  0.00  0.00    -0.268 OA
ATOM      4  H   UNL d   1      28.520 -17.960   0.258  0.00  0.00     0.162 HD
ENDROOT
BRANCH   1   5
ATOM      5  C   UNL d   1      30.347 -17.277  -0.674  0.00  0.00     0.161 C 
BRANCH   5   6
ATOM      6  C   UNL d   1      31.113 -18.414  -1.417  0.00  0.00     0.237 C 
BRANCH   6   7
ATOM      7  N   UNL d   1      32.589 -18.447  -0.976  0.00  0.00    -0.069 N 
ATOM      8  C   UNL d   1      33.566 -18.498  -2.115  0.00  0.00     0.270 C 
ATOM      9  C   UNL d   1      32.928 -17.301  -0.049  0.00  0.00     0.270 C 
ATOM     10  H   UNL d   1      32.725 -19.314  -0.445  0.00  0.00     0.279 HD
ENDBRANCH   6   7
BRANCH   6  11
ATOM     11  C   UNL d   1      30.980 -18.183  -2.911  0.00  0.00    -0.023 A 
ATOM     12  C   UNL d   1      30.978 -16.897  -3.458  0.00  0.00     0.012 A 
ATOM     13  C   UNL d   1      30.720 -16.702  -4.817  0.00  0.00     0.040 A 
ATOM     14  C   UNL d   1      30.524 -17.780  -5.699  0.00  0.00     0.101 A 
ATOM     15  C   UNL d   1      30.549 -19.082  -5.155  0.00  0.00     0.102 A 
ATOM     16  C   UNL d   1      30.780 -19.261  -3.775  0.00  0.00     0.049 A 
BRANCH  14  17
ATOM     17  O   UNL d   1      30.637 -17.390  -7.012  0.00  0.00    -0.353 OA
ATOM     18  C   UNL d   1      31.254 -18.201  -8.009  0.00  0.00     0.210 C 
ENDBRANCH  14  17
BRANCH  15  19
ATOM     19  O   UNL d   1      30.421 -20.319  -5.733  0.00  0.00    -0.353 OA
ATOM     20  C   UNL d   1      31.428 -21.234  -5.404  0.00  0.00     0.210 C 
ENDBRANCH  15  19
ENDBRANCH   6  11
ENDBRANCH   5   6
ENDBRANCH   1   5
BRANCH   2  21
ATOM     21  C   UNL d   1      26.611 -16.862  -1.155  0.00  0.00     0.090 A 
ATOM     22  C   UNL d   1      26.120 -17.645  -0.130  0.00  0.00     0.139 A 
ATOM     23  N   UNL d   1      24.795 -17.812   0.131  0.00  0.00    -0.234 NA
ATOM     24  C   UNL d   1      23.943 -17.190  -0.696  0.00  0.00     0.189 A 
ATOM     25  N   UNL d   1      24.326 -16.432  -1.736  0.00  0.00    -0.210 NA
ATOM     26  C   UNL d   1      25.645 -16.293  -1.941  0.00  0.00     0.146 A 
ATOM     27 CL   UNL d   1      25.990 -15.313  -3.317  0.00  0.00    -0.061 Cl
BRANCH  24  28
ATOM     28  S   UNL d   1      22.200 -17.238  -0.453  0.00  0.00    -0.086 SA
BRANCH  28  29
ATOM     29  C   UNL d   1      21.701 -18.950  -0.879  0.00  0.00     0.121 C 
BRANCH  29  30
ATOM     30  C   UNL d   1      20.566 -19.433   0.019  0.00  0.00    -0.049 A 
ATOM     31  C   UNL d   1      20.656 -19.336   1.416  0.00  0.00     0.008 A 
ATOM     32  C   UNL d   1      19.665 -19.896   2.234  0.00  0.00     0.001 A 
ATOM     33  C   UNL d   1      18.534 -20.486   1.672  0.00  0.00     0.000 A 
ATOM     34  C   UNL d   1      18.418 -20.573   0.290  0.00  0.00     0.001 A 
ATOM     35  C   UNL d   1      19.436 -20.078  -0.522  0.00  0.00     0.008 A 
ENDBRANCH  29  30
ENDBRANCH  28  29
ENDBRANCH  24  28
ENDBRANCH   2  21
TORSDOF 10
ENDMDL
MODEL 9
REMARK VINA RESULT:    -8.616      3.796      5.240
REMARK INTER + INTRA:         -13.220
REMARK INTER:                 -11.599
REMARK INTRA:                  -1.621
REMARK CONF_INDEPENDENT:        2.983
REMARK UNBOUND:                -1.621
REMARK  10 active torsions:
REMARK  status: ('A' for Active; 'I' for Inactive)
REMARK    1  A    between atoms: O_2  and  C_3 
REMARK    2  A    between atoms: C_7  and  C_6 
REMARK    3  A    between atoms: C_7  and  N_27 
REMARK    4  A    between atoms: C_7  and  C_8 
REMARK    5  A    between atoms: C_8  and  N_9 
REMARK       I    between atoms: N_9  and  C_10 
REMARK    6  A    between atoms: C_10  and  C_12 
REMARK    7  A    between atoms: C_15  and  S_16 
REMARK    8  A    between atoms: S_16  and  C_17 
REMARK    9  A    between atoms: C_17  and  C_18 
REMARK   10  A    between atoms: C_31  and  O_32 
ROOT
ATOM      1  N   UNL d   1      27.397 -17.138  -0.986  0.00  0.00    -0.354 N 
ATOM      2  C   UNL d   1      26.522 -17.528   0.022  0.00  0.00     0.256 C 
ATOM      3  O   UNL d   1      26.897 -17.781   1.149  0.00  0.00    -0.268 OA
ATOM      4  H   UNL d   1      27.047 -16.965  -1.923  0.00  0.00     0.162 HD
ENDROOT
BRANCH   1   5
ATOM      5  C   UNL d   1      28.826 -17.112  -0.704  0.00  0.00     0.161 C 
BRANCH   5   6
ATOM      6  C   UNL d   1      29.593 -15.787  -1.005  0.00  0.00     0.237 C 
BRANCH   6   7
ATOM      7  N   UNL d   1      29.831 -14.996   0.296  0.00  0.00    -0.069 N 
ATOM      8  C   UNL d   1      28.652 -14.985   1.228  0.00  0.00     0.270 C 
ATOM      9  C   UNL d   1      31.068 -15.466   1.026  0.00  0.00     0.270 C 
ATOM     10  H   UNL d   1      29.991 -14.019   0.028  0.00  0.00     0.279 HD
ENDBRANCH   6   7
BRANCH   6  11
ATOM     11  C   UNL d   1      28.786 -14.986  -2.009  0.00  0.00    -0.023 A 
ATOM     12  C   UNL d   1      28.206 -13.759  -1.674  0.00  0.00     0.012 A 
ATOM     13  C   UNL d   1      27.358 -13.105  -2.570  0.00  0.00     0.040 A 
ATOM     14  C   UNL d   1      27.107 -13.608  -3.859  0.00  0.00     0.101 A 
ATOM     15  C   UNL d   1      27.709 -14.835  -4.210  0.00  0.00     0.102 A 
ATOM     16  C   UNL d   1      28.539 -15.499  -3.284  0.00  0.00     0.049 A 
BRANCH  14  17
ATOM     17  O   UNL d   1      26.545 -12.655  -4.676  0.00  0.00    -0.353 OA
ATOM     18  C   UNL d   1      26.238 -11.337  -4.228  0.00  0.00     0.210 C 
ENDBRANCH  14  17
BRANCH  15  19
ATOM     19  O   UNL d   1      27.688 -15.566  -5.370  0.00  0.00    -0.353 OA
ATOM     20  C   UNL d   1      28.595 -15.148  -6.351  0.00  0.00     0.210 C 
ENDBRANCH  15  19
ENDBRANCH   6  11
ENDBRANCH   5   6
ENDBRANCH   1   5
BRANCH   2  21
ATOM     21  C   UNL d   1      25.089 -17.601  -0.307  0.00  0.00     0.090 A 
ATOM     22  C   UNL d   1      24.325 -18.674   0.108  0.00  0.00     0.139 A 
ATOM     23  N   UNL d   1      22.999 -18.811  -0.160  0.00  0.00    -0.234 NA
ATOM     24  C   UNL d   1      22.438 -17.844  -0.899  0.00  0.00     0.189 A 
ATOM     25  N   UNL d   1      23.105 -16.779  -1.372  0.00  0.00    -0.210 NA
ATOM     26  C   UNL d   1      24.409 -16.689  -1.069  0.00  0.00     0.146 A 
ATOM     27 CL   UNL d   1      25.140 -15.286  -1.755  0.00  0.00    -0.061 Cl
BRANCH  24  28
ATOM     28  S   UNL d   1      20.717 -17.829  -1.270  0.00  0.00    -0.086 SA
BRANCH  28  29
ATOM     29  C   UNL d   1      20.221 -19.592  -1.329  0.00  0.00     0.121 C 
BRANCH  29  30
ATOM     30  C   UNL d   1      19.745 -20.078   0.037  0.00  0.00    -0.049 A 
ATOM     31  C   UNL d   1      18.585 -20.857   0.165  0.00  0.00     0.008 A 
ATOM     32  C   UNL d   1      18.089 -21.192   1.433  0.00  0.00     0.001 A 
ATOM     33  C   UNL d   1      18.784 -20.824   2.584  0.00  0.00     0.000 A 
ATOM     34  C   UNL d   1      19.945 -20.070   2.476  0.00  0.00     0.001 A 
ATOM     35  C   UNL d   1      20.400 -19.679   1.219  0.00  0.00     0.008 A 
ENDBRANCH  29  30
ENDBRANCH  28  29
ENDBRANCH  24  28
ENDBRANCH   2  21
TORSDOF 10
ENDMDL
