MODEL 1
REMARK VINA RESULT:   -29.656      0.000      0.000
REMARK INTER + INTRA:         -31.962
REMARK INTER:                 -31.148
REMARK INTRA:                  -0.814
REMARK CONF_INDEPENDENT:        1.492
REMARK UNBOUND:                -0.814
REMARK  5 active torsions:
REMARK  status: ('A' for Active; 'I' for Inactive)
REMARK       I    between atoms: C_2  and  N_3 
REMARK    1  A    between atoms: C_2  and  C_12 
REMARK    2  A    between atoms: N_3  and  N_4 
REMARK    3  A    between atoms: N_4  and  C_5 
REMARK    4  A    between atoms: C_17  and  S_18 
REMARK    5  A    between atoms: S_18  and  C_19 
ROOT
ATOM      1  C   UNL d   1      23.549 -17.269  -0.780  0.00  0.00     0.069 A 
ATOM      2  C   UNL d   1      24.123 -18.230   0.078  0.00  0.00     0.021 A 
ATOM      3  C   UNL d   1      25.509 -18.398   0.159  0.00  0.00     0.020 A 
ATOM      4  C   UNL d   1      26.305 -17.559  -0.583  0.00  0.00     0.118 A 
ATOM      5  N   UNL d   1      25.801 -16.558  -1.328  0.00  0.00    -0.253 NA
ATOM      6  C   UNL d   1      24.439 -16.397  -1.413  0.00  0.00     0.113 A 
ENDROOT
BRANCH   1   7
ATOM      7  C   UNL d   1      22.034 -17.298  -0.867  0.00  0.00     0.269 C 
ATOM      8  O   UNL d   1      21.455 -16.247  -1.064  0.00  0.00    -0.266 OA
ATOM      9  N   UNL d   1      21.372 -18.541  -0.682  0.00  0.00    -0.283 N 
ATOM     10  H   UNL d   1      21.883 -19.398  -0.851  0.00  0.00     0.184 HD
BRANCH   9  11
ATOM     11  N   UNL d   1      19.905 -18.600  -0.899  0.00  0.00    -0.203 NA
ATOM     12  H   UNL d   1      19.697 -18.616  -1.902  0.00  0.00     0.153 HD
BRANCH  11  13
ATOM     13  C   UNL d   1      19.150 -19.559  -0.133  0.00  0.00     0.027 C 
ATOM     14  C   UNL d   1      18.268 -20.451  -0.745  0.00  0.00     0.028 C 
ATOM     15  C   UNL d   1      17.457 -21.324   0.011  0.00  0.00     0.044 C 
ATOM     16  C   UNL d   1      17.463 -21.281   1.399  0.00  0.00     0.116 C 
ATOM     17  F   UNL d   1      16.607 -22.034   2.104  0.00  0.00    -0.206 F 
ATOM     18  C   UNL d   1      18.345 -20.443   2.049  0.00  0.00     0.044 C 
ATOM     19  C   UNL d   1      19.257 -19.674   1.285  0.00  0.00     0.028 C 
ENDBRANCH  11  13
ENDBRANCH   9  11
ENDBRANCH   1   7
BRANCH   6  20
ATOM     20  S   UNL d   1      24.082 -14.967  -2.396  0.00  0.00    -0.070 SA
BRANCH  20  21
ATOM     21  C   UNL d   1      25.525 -14.633  -3.348  0.00  0.00     0.007 C 
ATOM     22  C   UNL d   1      25.688 -15.386  -4.504  0.00  0.00     0.019 C 
ATOM     23  C   UNL d   1      26.822 -15.200  -5.276  0.00  0.00     0.001 C 
ATOM     24  C   UNL d   1      27.634 -14.079  -5.076  0.00  0.00     0.000 C 
ATOM     25  C   UNL d   1      27.432 -13.271  -3.973  0.00  0.00     0.001 C 
ATOM     26  C   UNL d   1      26.445 -13.619  -3.052  0.00  0.00     0.019 C 
ENDBRANCH  20  21
ENDBRANCH   6  20
TORSDOF 5
ENDMDL
MODEL 2
REMARK VINA RESULT:   -28.782      1.041      1.275
REMARK INTER + INTRA:         -31.426
REMARK INTER:                 -30.273
REMARK INTRA:                  -1.153
REMARK CONF_INDEPENDENT:        1.492
REMARK UNBOUND:                -1.153
REMARK  5 active torsions:
REMARK  status: ('A' for Active; 'I' for Inactive)
REMARK       I    between atoms: C_2  and  N_3 
REMARK    1  A    between atoms: C_2  and  C_12 
REMARK    2  A    between atoms: N_3  and  N_4 
REMARK    3  A    between atoms: N_4  and  C_5 
REMARK    4  A    between atoms: C_17  and  S_18 
REMARK    5  A    between atoms: S_18  and  C_19 
ROOT
ATOM      1  C   UNL d   1      23.714 -17.993  -0.828  0.00  0.00     0.069 A 
ATOM      2  C   UNL d   1      24.354 -18.853   0.089  0.00  0.00     0.021 A 
ATOM      3  C   UNL d   1      25.632 -18.570   0.582  0.00  0.00     0.020 A 
ATOM      4  C   UNL d   1      26.229 -17.396   0.190  0.00  0.00     0.118 A 
ATOM      5  N   UNL d   1      25.607 -16.496  -0.595  0.00  0.00    -0.253 NA
ATOM      6  C   UNL d   1      24.354 -16.778  -1.085  0.00  0.00     0.113 A 
ENDROOT
BRANCH   1   7
ATOM      7  C   UNL d   1      22.395 -18.500  -1.382  0.00  0.00     0.269 C 
ATOM      8  O   UNL d   1      22.431 -19.277  -2.317  0.00  0.00    -0.266 OA
ATOM      9  N   UNL d   1      21.191 -18.017  -0.804  0.00  0.00    -0.283 N 
ATOM     10  H   UNL d   1      21.211 -17.655   0.141  0.00  0.00     0.184 HD
BRANCH   9  11
ATOM     11  N   UNL d   1      19.905 -18.608  -1.251  0.00  0.00    -0.203 NA
ATOM     12  H   UNL d   1      19.960 -18.862  -2.243  0.00  0.00     0.153 HD
BRANCH  11  13
ATOM     13  C   UNL d   1      19.308 -19.625  -0.422  0.00  0.00     0.027 C 
ATOM     14  C   UNL d   1      18.287 -20.449  -0.897  0.00  0.00     0.028 C 
ATOM     15  C   UNL d   1      17.636 -21.378  -0.058  0.00  0.00     0.044 C 
ATOM     16  C   UNL d   1      17.948 -21.459   1.292  0.00  0.00     0.116 C 
ATOM     17  F   UNL d   1      17.245 -22.264   2.103  0.00  0.00    -0.206 F 
ATOM     18  C   UNL d   1      18.975 -20.692   1.801  0.00  0.00     0.044 C 
ATOM     19  C   UNL d   1      19.720 -19.868   0.922  0.00  0.00     0.028 C 
ENDBRANCH  11  13
ENDBRANCH   9  11
ENDBRANCH   1   7
BRANCH   6  20
ATOM     20  S   UNL d   1      23.768 -15.389  -2.017  0.00  0.00    -0.070 SA
BRANCH  20  21
ATOM     21  C   UNL d   1      25.095 -14.882  -3.058  0.00  0.00     0.007 C 
ATOM     22  C   UNL d   1      25.116 -13.541  -3.418  0.00  0.00     0.019 C 
ATOM     23  C   UNL d   1      26.112 -13.087  -4.267  0.00  0.00     0.001 C 
ATOM     24  C   UNL d   1      27.240 -13.874  -4.515  0.00  0.00     0.000 C 
ATOM     25  C   UNL d   1      27.267 -15.190  -4.090  0.00  0.00     0.001 C 
ATOM     26  C   UNL d   1      26.144 -15.720  -3.459  0.00  0.00     0.019 C 
ENDBRANCH  20  21
ENDBRANCH   6  20
TORSDOF 5
ENDMDL
