MODEL 1
REMARK VINA RESULT:    -8.610      0.000      0.000
REMARK INTER + INTRA:         -11.487
REMARK INTER:                 -10.101
REMARK INTRA:                  -1.386
REMARK CONF_INDEPENDENT:        1.492
REMARK UNBOUND:                -1.386
REMARK  5 active torsions:
REMARK  status: ('A' for Active; 'I' for Inactive)
REMARK    1  A    between atoms: C_5  and  C_6 
REMARK       I    between atoms: C_6  and  N_8 
REMARK    2  A    between atoms: N_8  and  N_9 
REMARK       I    between atoms: N_9  and  C_10 
REMARK    3  A    between atoms: C_10  and  C_12 
REMARK    4  A    between atoms: C_12  and  C_13 
REMARK    5  A    between atoms: C_20  and  O_21 
ROOT
ATOM      1  C   UNL d   1      22.223 -18.250  -0.479  0.00  0.00     0.272 C 
ATOM      2  O   UNL d   1      22.003 -17.309  -1.247  0.00  0.00    -0.266 OA
ATOM      3  N   UNL d   1      23.501 -18.571  -0.076  0.00  0.00    -0.263 N 
ATOM      4  H   UNL d   1      23.744 -19.341   0.549  0.00  0.00     0.190 HD
ENDROOT
BRANCH   3   5
ATOM      5  N   UNL d   1      24.627 -17.818  -0.518  0.00  0.00    -0.267 N 
ATOM      6  C   UNL d   1      25.723 -17.876   0.319  0.00  0.00     0.240 C 
ATOM      7  O   UNL d   1      25.599 -18.575   1.330  0.00  0.00    -0.272 OA
ATOM      8  H   UNL d   1      24.564 -17.347  -1.417  0.00  0.00     0.190 HD
BRANCH   6   9
ATOM      9  C   UNL d   1      26.991 -17.081  -0.072  0.00  0.00     0.143 C 
BRANCH   9  10
ATOM     10  C   UNL d   1      26.967 -16.339  -1.418  0.00  0.00    -0.048 A 
ATOM     11  C   UNL d   1      28.093 -16.335  -2.265  0.00  0.00     0.007 A 
ATOM     12  C   UNL d   1      28.070 -15.653  -3.498  0.00  0.00     0.002 A 
ATOM     13  C   UNL d   1      26.934 -14.950  -3.902  0.00  0.00     0.024 A 
ATOM     14  C   UNL d   1      25.822 -14.944  -3.083  0.00  0.00     0.034 A 
ATOM     15 CL   UNL d   1      24.403 -14.076  -3.522  0.00  0.00    -0.084 Cl
ATOM     16  C   UNL d   1      25.838 -15.645  -1.880  0.00  0.00     0.031 A 
ENDBRANCH   9  10
ENDBRANCH   6   9
ENDBRANCH   3   5
BRANCH   1  17
ATOM     17  C   UNL d   1      21.075 -19.074   0.041  0.00  0.00     0.066 A 
ATOM     18  C   UNL d   1      20.815 -19.249   1.412  0.00  0.00     0.020 A 
ATOM     19  C   UNL d   1      19.717 -20.013   1.851  0.00  0.00     0.008 A 
ATOM     20  C   UNL d   1      18.847 -20.609   0.933  0.00  0.00    -0.059 A 
ATOM     21  C   UNL d   1      17.654 -21.411   1.364  0.00  0.00     0.048 C 
ATOM     22  C   UNL d   1      19.105 -20.448  -0.431  0.00  0.00     0.044 A 
ATOM     23  C   UNL d   1      20.203 -19.700  -0.869  0.00  0.00     0.082 A 
BRANCH  23  24
ATOM     24  O   UNL d   1      20.349 -19.636  -2.231  0.00  0.00    -0.360 OA
ATOM     25  H   UNL d   1      19.456 -19.654  -2.637  0.00  0.00     0.217 HD
ENDBRANCH  23  24
ENDBRANCH   1  17
TORSDOF 5
ENDMDL
MODEL 2
REMARK VINA RESULT:    -7.534      2.412      2.726
REMARK INTER + INTRA:         -10.326
REMARK INTER:                  -9.025
REMARK INTRA:                  -1.300
REMARK CONF_INDEPENDENT:        1.492
REMARK UNBOUND:                -1.300
REMARK  5 active torsions:
REMARK  status: ('A' for Active; 'I' for Inactive)
REMARK    1  A    between atoms: C_5  and  C_6 
REMARK       I    between atoms: C_6  and  N_8 
REMARK    2  A    between atoms: N_8  and  N_9 
REMARK       I    between atoms: N_9  and  C_10 
REMARK    3  A    between atoms: C_10  and  C_12 
REMARK    4  A    between atoms: C_12  and  C_13 
REMARK    5  A    between atoms: C_20  and  O_21 
ROOT
ATOM      1  C   UNL d   1      22.252 -18.480  -0.848  0.00  0.00     0.272 C 
ATOM      2  O   UNL d   1      22.680 -18.890  -1.931  0.00  0.00    -0.266 OA
ATOM      3  N   UNL d   1      22.799 -17.381  -0.225  0.00  0.00    -0.263 N 
ATOM      4  H   UNL d   1      22.492 -17.001   0.673  0.00  0.00     0.190 HD
ENDROOT
BRANCH   3   5
ATOM      5  N   UNL d   1      23.877 -16.658  -0.811  0.00  0.00    -0.267 N 
ATOM      6  C   UNL d   1      25.133 -17.116  -0.466  0.00  0.00     0.240 C 
ATOM      7  O   UNL d   1      25.167 -18.091   0.290  0.00  0.00    -0.272 OA
ATOM      8  H   UNL d   1      23.653 -15.911  -1.463  0.00  0.00     0.190 HD
BRANCH   6   9
ATOM      9  C   UNL d   1      26.367 -16.386  -1.046  0.00  0.00     0.143 C 
BRANCH   9  10
ATOM     10  C   UNL d   1      26.758 -15.047  -0.402  0.00  0.00    -0.048 A 
ATOM     11  C   UNL d   1      26.849 -13.869  -1.171  0.00  0.00     0.007 A 
ATOM     12  C   UNL d   1      27.209 -12.642  -0.579  0.00  0.00     0.002 A 
ATOM     13  C   UNL d   1      27.501 -12.568   0.784  0.00  0.00     0.024 A 
ATOM     14  C   UNL d   1      27.416 -13.713   1.552  0.00  0.00     0.034 A 
ATOM     15 CL   UNL d   1      27.786 -13.682   3.232  0.00  0.00    -0.084 Cl
ATOM     16  C   UNL d   1      27.030 -14.917   0.969  0.00  0.00     0.031 A 
ENDBRANCH   9  10
ENDBRANCH   6   9
ENDBRANCH   3   5
BRANCH   1  17
ATOM     17  C   UNL d   1      21.100 -19.188  -0.183  0.00  0.00     0.066 A 
ATOM     18  C   UNL d   1      20.986 -19.324   1.212  0.00  0.00     0.020 A 
ATOM     19  C   UNL d   1      19.880 -19.978   1.789  0.00  0.00     0.008 A 
ATOM     20  C   UNL d   1      18.860 -20.499   0.989  0.00  0.00    -0.059 A 
ATOM     21  C   UNL d   1      17.655 -21.182   1.570  0.00  0.00     0.048 C 
ATOM     22  C   UNL d   1      18.971 -20.376  -0.399  0.00  0.00     0.044 A 
ATOM     23  C   UNL d   1      20.075 -19.738  -0.975  0.00  0.00     0.082 A 
BRANCH  23  24
ATOM     24  O   UNL d   1      20.068 -19.700  -2.345  0.00  0.00    -0.360 OA
ATOM     25  H   UNL d   1      20.963 -19.949  -2.664  0.00  0.00     0.217 HD
ENDBRANCH  23  24
ENDBRANCH   1  17
TORSDOF 5
ENDMDL
MODEL 3
REMARK VINA RESULT:    -7.520      1.598      2.303
REMARK INTER + INTRA:         -10.187
REMARK INTER:                  -9.012
REMARK INTRA:                  -1.175
REMARK CONF_INDEPENDENT:        1.492
REMARK UNBOUND:                -1.175
REMARK  5 active torsions:
REMARK  status: ('A' for Active; 'I' for Inactive)
REMARK    1  A    between atoms: C_5  and  C_6 
REMARK       I    between atoms: C_6  and  N_8 
REMARK    2  A    between atoms: N_8  and  N_9 
REMARK       I    between atoms: N_9  and  C_10 
REMARK    3  A    between atoms: C_10  and  C_12 
REMARK    4  A    between atoms: C_12  and  C_13 
REMARK    5  A    between atoms: C_20  and  O_21 
ROOT
ATOM      1  C   UNL d   1      21.864 -18.363  -0.644  0.00  0.00     0.272 C 
ATOM      2  O   UNL d   1      22.309 -18.556  -1.780  0.00  0.00    -0.266 OA
ATOM      3  N   UNL d   1      22.415 -17.422   0.198  0.00  0.00    -0.263 N 
ATOM      4  H   UNL d   1      22.095 -17.225   1.147  0.00  0.00     0.190 HD
ENDROOT
BRANCH   3   5
ATOM      5  N   UNL d   1      23.517 -16.618  -0.212  0.00  0.00    -0.267 N 
ATOM      6  C   UNL d   1      24.676 -17.320  -0.476  0.00  0.00     0.240 C 
ATOM      7  O   UNL d   1      24.613 -18.546  -0.337  0.00  0.00    -0.272 OA
ATOM      8  H   UNL d   1      23.364 -15.620  -0.328  0.00  0.00     0.190 HD
BRANCH   6   9
ATOM      9  C   UNL d   1      25.931 -16.531  -0.916  0.00  0.00     0.143 C 
BRANCH   9  10
ATOM     10  C   UNL d   1      25.805 -15.657  -2.174  0.00  0.00    -0.048 A 
ATOM     11  C   UNL d   1      24.660 -14.868  -2.399  0.00  0.00     0.007 A 
ATOM     12  C   UNL d   1      24.546 -14.067  -3.553  0.00  0.00     0.002 A 
ATOM     13  C   UNL d   1      25.561 -14.051  -4.511  0.00  0.00     0.024 A 
ATOM     14  C   UNL d   1      26.691 -14.819  -4.305  0.00  0.00     0.034 A 
ATOM     15 CL   UNL d   1      27.963 -14.853  -5.464  0.00  0.00    -0.084 Cl
ATOM     16  C   UNL d   1      26.813 -15.584  -3.149  0.00  0.00     0.031 A 
ENDBRANCH   9  10
ENDBRANCH   6   9
ENDBRANCH   3   5
BRANCH   1  17
ATOM     17  C   UNL d   1      20.686 -19.166  -0.157  0.00  0.00     0.066 A 
ATOM     18  C   UNL d   1      19.708 -19.693  -1.018  0.00  0.00     0.020 A 
ATOM     19  C   UNL d   1      18.635 -20.455  -0.519  0.00  0.00     0.008 A 
ATOM     20  C   UNL d   1      18.520 -20.718   0.849  0.00  0.00    -0.059 A 
ATOM     21  C   UNL d   1      17.403 -21.546   1.416  0.00  0.00     0.048 C 
ATOM     22  C   UNL d   1      19.484 -20.189   1.713  0.00  0.00     0.044 A 
ATOM     23  C   UNL d   1      20.543 -19.421   1.220  0.00  0.00     0.082 A 
BRANCH  23  24
ATOM     24  O   UNL d   1      21.407 -18.950   2.175  0.00  0.00    -0.360 OA
ATOM     25  H   UNL d   1      21.080 -19.240   3.054  0.00  0.00     0.217 HD
ENDBRANCH  23  24
ENDBRANCH   1  17
TORSDOF 5
ENDMDL
MODEL 4
REMARK VINA RESULT:    -7.006      2.696      8.416
REMARK INTER + INTRA:         -10.463
REMARK INTER:                  -8.497
REMARK INTRA:                  -1.966
REMARK CONF_INDEPENDENT:        1.492
REMARK UNBOUND:                -1.966
REMARK  5 active torsions:
REMARK  status: ('A' for Active; 'I' for Inactive)
REMARK    1  A    between atoms: C_5  and  C_6 
REMARK       I    between atoms: C_6  and  N_8 
REMARK    2  A    between atoms: N_8  and  N_9 
REMARK       I    between atoms: N_9  and  C_10 
REMARK    3  A    between atoms: C_10  and  C_12 
REMARK    4  A    between atoms: C_12  and  C_13 
REMARK    5  A    between atoms: C_20  and  O_21 
ROOT
ATOM      1  C   UNL d   1      24.971 -16.455  -1.341  0.00  0.00     0.272 C 
ATOM      2  O   UNL d   1      24.495 -15.452  -1.881  0.00  0.00    -0.266 OA
ATOM      3  N   UNL d   1      24.167 -17.443  -0.818  0.00  0.00    -0.263 N 
ATOM      4  H   UNL d   1      24.503 -18.289  -0.354  0.00  0.00     0.190 HD
ENDROOT
BRANCH   3   5
ATOM      5  N   UNL d   1      22.747 -17.358  -0.890  0.00  0.00    -0.267 N 
ATOM      6  C   UNL d   1      22.099 -18.575  -0.954  0.00  0.00     0.240 C 
ATOM      7  O   UNL d   1      22.820 -19.577  -0.931  0.00  0.00    -0.272 OA
ATOM      8  H   UNL d   1      22.320 -16.437  -0.837  0.00  0.00     0.190 HD
BRANCH   6   9
ATOM      9  C   UNL d   1      20.555 -18.583  -1.046  0.00  0.00     0.143 C 
BRANCH   9  10
ATOM     10  C   UNL d   1      19.798 -19.505  -0.077  0.00  0.00    -0.048 A 
ATOM     11  C   UNL d   1      18.719 -20.295  -0.519  0.00  0.00     0.007 A 
ATOM     12  C   UNL d   1      18.025 -21.138   0.371  0.00  0.00     0.002 A 
ATOM     13  C   UNL d   1      18.382 -21.199   1.719  0.00  0.00     0.024 A 
ATOM     14  C   UNL d   1      19.439 -20.431   2.168  0.00  0.00     0.034 A 
ATOM     15 CL   UNL d   1      19.908 -20.451   3.824  0.00  0.00    -0.084 Cl
ATOM     16  C   UNL d   1      20.141 -19.622   1.279  0.00  0.00     0.031 A 
ENDBRANCH   9  10
ENDBRANCH   6   9
ENDBRANCH   3   5
BRANCH   1  17
ATOM     17  C   UNL d   1      26.466 -16.617  -1.250  0.00  0.00     0.066 A 
ATOM     18  C   UNL d   1      27.364 -15.930  -2.086  0.00  0.00     0.020 A 
ATOM     19  C   UNL d   1      28.755 -16.098  -1.952  0.00  0.00     0.008 A 
ATOM     20  C   UNL d   1      29.281 -16.946  -0.973  0.00  0.00    -0.059 A 
ATOM     21  C   UNL d   1      30.759 -17.132  -0.784  0.00  0.00     0.048 C 
ATOM     22  C   UNL d   1      28.395 -17.639  -0.144  0.00  0.00     0.044 A 
ATOM     23  C   UNL d   1      27.012 -17.483  -0.285  0.00  0.00     0.082 A 
BRANCH  23  24
ATOM     24  O   UNL d   1      26.256 -18.233   0.579  0.00  0.00    -0.360 OA
ATOM     25  H   UNL d   1      26.127 -17.715   1.403  0.00  0.00     0.217 HD
ENDBRANCH  23  24
ENDBRANCH   1  17
TORSDOF 5
ENDMDL
MODEL 5
REMARK VINA RESULT:    -6.867      2.916      8.527
REMARK INTER + INTRA:         -10.364
REMARK INTER:                  -8.359
REMARK INTRA:                  -2.005
REMARK CONF_INDEPENDENT:        1.492
REMARK UNBOUND:                -2.005
REMARK  5 active torsions:
REMARK  status: ('A' for Active; 'I' for Inactive)
REMARK    1  A    between atoms: C_5  and  C_6 
REMARK       I    between atoms: C_6  and  N_8 
REMARK    2  A    between atoms: N_8  and  N_9 
REMARK       I    between atoms: N_9  and  C_10 
REMARK    3  A    between atoms: C_10  and  C_12 
REMARK    4  A    between atoms: C_12  and  C_13 
REMARK    5  A    between atoms: C_20  and  O_21 
ROOT
ATOM      1  C   UNL d   1      26.591 -16.138  -2.081  0.00  0.00     0.272 C 
ATOM      2  O   UNL d   1      27.457 -16.890  -1.623  0.00  0.00    -0.266 OA
ATOM      3  N   UNL d   1      25.263 -16.276  -1.744  0.00  0.00    -0.263 N 
ATOM      4  H   UNL d   1      24.504 -15.690  -2.096  0.00  0.00     0.190 HD
ENDROOT
BRANCH   3   5
ATOM      5  N   UNL d   1      24.831 -17.286  -0.837  0.00  0.00    -0.267 N 
ATOM      6  C   UNL d   1      23.496 -17.215  -0.490  0.00  0.00     0.240 C 
ATOM      7  O   UNL d   1      22.846 -16.303  -1.010  0.00  0.00    -0.272 OA
ATOM      8  H   UNL d   1      25.501 -17.997  -0.559  0.00  0.00     0.190 HD
BRANCH   6   9
ATOM      9  C   UNL d   1      22.937 -18.264   0.499  0.00  0.00     0.143 C 
BRANCH   9  10
ATOM     10  C   UNL d   1      21.584 -18.907   0.151  0.00  0.00    -0.048 A 
ATOM     11  C   UNL d   1      21.201 -19.112  -1.189  0.00  0.00     0.007 A 
ATOM     12  C   UNL d   1      19.960 -19.700  -1.506  0.00  0.00     0.002 A 
ATOM     13  C   UNL d   1      19.073 -20.079  -0.497  0.00  0.00     0.024 A 
ATOM     14  C   UNL d   1      19.435 -19.885   0.822  0.00  0.00     0.034 A 
ATOM     15 CL   UNL d   1      18.371 -20.314   2.105  0.00  0.00    -0.084 Cl
ATOM     16  C   UNL d   1      20.674 -19.332   1.132  0.00  0.00     0.031 A 
ENDBRANCH   9  10
ENDBRANCH   6   9
ENDBRANCH   3   5
BRANCH   1  17
ATOM     17  C   UNL d   1      26.985 -15.036  -3.029  0.00  0.00     0.066 A 
ATOM     18  C   UNL d   1      28.323 -14.700  -3.301  0.00  0.00     0.020 A 
ATOM     19  C   UNL d   1      28.643 -13.674  -4.211  0.00  0.00     0.008 A 
ATOM     20  C   UNL d   1      27.637 -12.969  -4.878  0.00  0.00    -0.059 A 
ATOM     21  C   UNL d   1      27.940 -11.885  -5.871  0.00  0.00     0.048 C 
ATOM     22  C   UNL d   1      26.304 -13.291  -4.605  0.00  0.00     0.044 A 
ATOM     23  C   UNL d   1      25.984 -14.302  -3.693  0.00  0.00     0.082 A 
BRANCH  23  24
ATOM     24  O   UNL d   1      24.641 -14.504  -3.505  0.00  0.00    -0.360 OA
ATOM     25  H   UNL d   1      24.454 -14.455  -2.543  0.00  0.00     0.217 HD
ENDBRANCH  23  24
ENDBRANCH   1  17
TORSDOF 5
ENDMDL
MODEL 6
REMARK VINA RESULT:    -6.819      5.760      9.637
REMARK INTER + INTRA:         -10.340
REMARK INTER:                  -8.310
REMARK INTRA:                  -2.029
REMARK CONF_INDEPENDENT:        1.492
REMARK UNBOUND:                -2.029
REMARK  5 active torsions:
REMARK  status: ('A' for Active; 'I' for Inactive)
REMARK    1  A    between atoms: C_5  and  C_6 
REMARK       I    between atoms: C_6  and  N_8 
REMARK    2  A    between atoms: N_8  and  N_9 
REMARK       I    between atoms: N_9  and  C_10 
REMARK    3  A    between atoms: C_10  and  C_12 
REMARK    4  A    between atoms: C_12  and  C_13 
REMARK    5  A    between atoms: C_20  and  O_21 
ROOT
ATOM      1  C   UNL d   1      26.343 -10.636  -3.924  0.00  0.00     0.272 C 
ATOM      2  O   UNL d   1      27.357 -10.489  -3.235  0.00  0.00    -0.266 OA
ATOM      3  N   UNL d   1      25.880 -11.886  -4.271  0.00  0.00    -0.263 N 
ATOM      4  H   UNL d   1      25.054 -12.068  -4.843  0.00  0.00     0.190 HD
ENDROOT
BRANCH   3   5
ATOM      5  N   UNL d   1      26.545 -13.068  -3.836  0.00  0.00    -0.267 N 
ATOM      6  C   UNL d   1      25.854 -14.239  -4.078  0.00  0.00     0.240 C 
ATOM      7  O   UNL d   1      24.764 -14.120  -4.645  0.00  0.00    -0.272 OA
ATOM      8  H   UNL d   1      27.475 -12.975  -3.438  0.00  0.00     0.190 HD
BRANCH   6   9
ATOM      9  C   UNL d   1      26.492 -15.575  -3.630  0.00  0.00     0.143 C 
BRANCH   9  10
ATOM     10  C   UNL d   1      26.019 -16.166  -2.293  0.00  0.00    -0.048 A 
ATOM     11  C   UNL d   1      26.816 -16.073  -1.134  0.00  0.00     0.007 A 
ATOM     12  C   UNL d   1      26.381 -16.617   0.091  0.00  0.00     0.002 A 
ATOM     13  C   UNL d   1      25.154 -17.277   0.182  0.00  0.00     0.024 A 
ATOM     14  C   UNL d   1      24.361 -17.376  -0.945  0.00  0.00     0.034 A 
ATOM     15 CL   UNL d   1      22.849 -18.197  -0.895  0.00  0.00    -0.084 Cl
ATOM     16  C   UNL d   1      24.780 -16.811  -2.146  0.00  0.00     0.031 A 
ENDBRANCH   9  10
ENDBRANCH   6   9
ENDBRANCH   3   5
BRANCH   1  17
ATOM     17  C   UNL d   1      25.582  -9.426  -4.401  0.00  0.00     0.066 A 
ATOM     18  C   UNL d   1      25.487  -8.237  -3.656  0.00  0.00     0.020 A 
ATOM     19  C   UNL d   1      24.780  -7.125  -4.150  0.00  0.00     0.008 A 
ATOM     20  C   UNL d   1      24.162  -7.170  -5.403  0.00  0.00    -0.059 A 
ATOM     21  C   UNL d   1      23.420  -5.996  -5.974  0.00  0.00     0.048 C 
ATOM     22  C   UNL d   1      24.244  -8.351  -6.145  0.00  0.00     0.044 A 
ATOM     23  C   UNL d   1      24.935  -9.462  -5.650  0.00  0.00     0.082 A 
BRANCH  23  24
ATOM     24  O   UNL d   1      24.923 -10.561  -6.470  0.00  0.00    -0.360 OA
ATOM     25  H   UNL d   1      24.407 -11.269  -6.027  0.00  0.00     0.217 HD
ENDBRANCH  23  24
ENDBRANCH   1  17
TORSDOF 5
ENDMDL
MODEL 7
REMARK VINA RESULT:    -6.710      3.724      5.641
REMARK INTER + INTRA:         -10.277
REMARK INTER:                  -8.202
REMARK INTRA:                  -2.075
REMARK CONF_INDEPENDENT:        1.492
REMARK UNBOUND:                -2.075
REMARK  5 active torsions:
REMARK  status: ('A' for Active; 'I' for Inactive)
REMARK    1  A    between atoms: C_5  and  C_6 
REMARK       I    between atoms: C_6  and  N_8 
REMARK    2  A    between atoms: N_8  and  N_9 
REMARK       I    between atoms: N_9  and  C_10 
REMARK    3  A    between atoms: C_10  and  C_12 
REMARK    4  A    between atoms: C_12  and  C_13 
REMARK    5  A    between atoms: C_20  and  O_21 
ROOT
ATOM      1  C   UNL d   1      26.200 -16.284  -1.531  0.00  0.00     0.272 C 
ATOM      2  O   UNL d   1      27.120 -16.113  -0.724  0.00  0.00    -0.266 OA
ATOM      3  N   UNL d   1      26.317 -15.909  -2.851  0.00  0.00    -0.263 N 
ATOM      4  H   UNL d   1      25.590 -16.018  -3.559  0.00  0.00     0.190 HD
ENDROOT
BRANCH   3   5
ATOM      5  N   UNL d   1      27.514 -15.318  -3.348  0.00  0.00    -0.267 N 
ATOM      6  C   UNL d   1      27.562 -15.183  -4.721  0.00  0.00     0.240 C 
ATOM      7  O   UNL d   1      26.568 -15.575  -5.341  0.00  0.00    -0.272 OA
ATOM      8  H   UNL d   1      28.207 -15.000  -2.676  0.00  0.00     0.190 HD
BRANCH   6   9
ATOM      9  C   UNL d   1      28.828 -14.562  -5.356  0.00  0.00     0.143 C 
BRANCH   9  10
ATOM     10  C   UNL d   1      29.822 -15.523  -6.027  0.00  0.00    -0.048 A 
ATOM     11  C   UNL d   1      30.706 -15.073  -7.027  0.00  0.00     0.007 A 
ATOM     12  C   UNL d   1      31.616 -15.956  -7.642  0.00  0.00     0.002 A 
ATOM     13  C   UNL d   1      31.651 -17.305  -7.285  0.00  0.00     0.024 A 
ATOM     14  C   UNL d   1      30.791 -17.762  -6.306  0.00  0.00     0.034 A 
ATOM     15 CL   UNL d   1      30.776 -19.419  -5.842  0.00  0.00    -0.084 Cl
ATOM     16  C   UNL d   1      29.915 -16.881  -5.679  0.00  0.00     0.031 A 
ENDBRANCH   9  10
ENDBRANCH   6   9
ENDBRANCH   3   5
BRANCH   1  17
ATOM     17  C   UNL d   1      24.914 -16.922  -1.073  0.00  0.00     0.066 A 
ATOM     18  C   UNL d   1      23.653 -16.332  -1.271  0.00  0.00     0.020 A 
ATOM     19  C   UNL d   1      22.476 -16.975  -0.843  0.00  0.00     0.008 A 
ATOM     20  C   UNL d   1      22.530 -18.225  -0.219  0.00  0.00    -0.059 A 
ATOM     21  C   UNL d   1      21.295 -18.951   0.230  0.00  0.00     0.048 C 
ATOM     22  C   UNL d   1      23.781 -18.812  -0.010  0.00  0.00     0.044 A 
ATOM     23  C   UNL d   1      24.952 -18.169  -0.423  0.00  0.00     0.082 A 
BRANCH  23  24
ATOM     24  O   UNL d   1      26.111 -18.846  -0.142  0.00  0.00    -0.360 OA
ATOM     25  H   UNL d   1      26.838 -18.192  -0.066  0.00  0.00     0.217 HD
ENDBRANCH  23  24
ENDBRANCH   1  17
TORSDOF 5
ENDMDL
MODEL 8
REMARK VINA RESULT:    -6.683      5.577      8.771
REMARK INTER + INTRA:         -10.221
REMARK INTER:                  -8.175
REMARK INTRA:                  -2.046
REMARK CONF_INDEPENDENT:        1.492
REMARK UNBOUND:                -2.046
REMARK  5 active torsions:
REMARK  status: ('A' for Active; 'I' for Inactive)
REMARK    1  A    between atoms: C_5  and  C_6 
REMARK       I    between atoms: C_6  and  N_8 
REMARK    2  A    between atoms: N_8  and  N_9 
REMARK       I    between atoms: N_9  and  C_10 
REMARK    3  A    between atoms: C_10  and  C_12 
REMARK    4  A    between atoms: C_12  and  C_13 
REMARK    5  A    between atoms: C_20  and  O_21 
ROOT
ATOM      1  C   UNL d   1      27.692 -13.945   3.600  0.00  0.00     0.272 C 
ATOM      2  O   UNL d   1      26.668 -13.342   3.266  0.00  0.00    -0.266 OA
ATOM      3  N   UNL d   1      28.325 -14.823   2.748  0.00  0.00    -0.263 N 
ATOM      4  H   UNL d   1      29.168 -15.354   2.972  0.00  0.00     0.190 HD
ENDROOT
BRANCH   3   5
ATOM      5  N   UNL d   1      27.831 -15.063   1.434  0.00  0.00    -0.267 N 
ATOM      6  C   UNL d   1      28.789 -15.464   0.524  0.00  0.00     0.240 C 
ATOM      7  O   UNL d   1      29.940 -15.575   0.958  0.00  0.00    -0.272 OA
ATOM      8  H   UNL d   1      26.831 -14.976   1.275  0.00  0.00     0.190 HD
BRANCH   6   9
ATOM      9  C   UNL d   1      28.350 -15.739  -0.934  0.00  0.00     0.143 C 
BRANCH   9  10
ATOM     10  C   UNL d   1      26.849 -15.949  -1.188  0.00  0.00    -0.048 A 
ATOM     11  C   UNL d   1      26.110 -15.040  -1.972  0.00  0.00     0.007 A 
ATOM     12  C   UNL d   1      24.733 -15.234  -2.203  0.00  0.00     0.002 A 
ATOM     13  C   UNL d   1      24.064 -16.325  -1.645  0.00  0.00     0.024 A 
ATOM     14  C   UNL d   1      24.774 -17.225  -0.874  0.00  0.00     0.034 A 
ATOM     15 CL   UNL d   1      23.996 -18.575  -0.145  0.00  0.00    -0.084 Cl
ATOM     16  C   UNL d   1      26.140 -17.047  -0.674  0.00  0.00     0.031 A 
ENDBRANCH   9  10
ENDBRANCH   6   9
ENDBRANCH   3   5
BRANCH   1  17
ATOM     17  C   UNL d   1      28.277 -13.721   4.971  0.00  0.00     0.066 A 
ATOM     18  C   UNL d   1      27.681 -12.884   5.931  0.00  0.00     0.020 A 
ATOM     19  C   UNL d   1      28.255 -12.720   7.207  0.00  0.00     0.008 A 
ATOM     20  C   UNL d   1      29.427 -13.396   7.556  0.00  0.00    -0.059 A 
ATOM     21  C   UNL d   1      30.055 -13.263   8.913  0.00  0.00     0.048 C 
ATOM     22  C   UNL d   1      30.030 -14.221   6.603  0.00  0.00     0.044 A 
ATOM     23  C   UNL d   1      29.469 -14.376   5.331  0.00  0.00     0.082 A 
BRANCH  23  24
ATOM     24  O   UNL d   1      30.170 -15.200   4.488  0.00  0.00    -0.360 OA
ATOM     25  H   UNL d   1      29.649 -16.022   4.361  0.00  0.00     0.217 HD
ENDBRANCH  23  24
ENDBRANCH   1  17
TORSDOF 5
ENDMDL
MODEL 9
REMARK VINA RESULT:    -6.514      5.156      9.895
REMARK INTER + INTRA:         -10.070
REMARK INTER:                  -8.005
REMARK INTRA:                  -2.065
REMARK CONF_INDEPENDENT:        1.492
REMARK UNBOUND:                -2.065
REMARK  5 active torsions:
REMARK  status: ('A' for Active; 'I' for Inactive)
REMARK    1  A    between atoms: C_5  and  C_6 
REMARK       I    between atoms: C_6  and  N_8 
REMARK    2  A    between atoms: N_8  and  N_9 
REMARK       I    between atoms: N_9  and  C_10 
REMARK    3  A    between atoms: C_10  and  C_12 
REMARK    4  A    between atoms: C_12  and  C_13 
REMARK    5  A    between atoms: C_20  and  O_21 
ROOT
ATOM      1  C   UNL d   1      30.030 -17.378  -5.112  0.00  0.00     0.272 C 
ATOM      2  O   UNL d   1      30.222 -18.037  -4.085  0.00  0.00    -0.266 OA
ATOM      3  N   UNL d   1      29.144 -16.324  -5.139  0.00  0.00    -0.263 N 
ATOM      4  H   UNL d   1      28.939 -15.751  -5.958  0.00  0.00     0.190 HD
ENDROOT
BRANCH   3   5
ATOM      5  N   UNL d   1      28.419 -15.937  -3.975  0.00  0.00    -0.267 N 
ATOM      6  C   UNL d   1      27.207 -15.327  -4.228  0.00  0.00     0.240 C 
ATOM      7  O   UNL d   1      26.897 -15.205  -5.417  0.00  0.00    -0.272 OA
ATOM      8  H   UNL d   1      28.809 -16.175  -3.067  0.00  0.00     0.190 HD
BRANCH   6   9
ATOM      9  C   UNL d   1      26.353 -14.860  -3.026  0.00  0.00     0.143 C 
BRANCH   9  10
ATOM     10  C   UNL d   1      26.021 -15.907  -1.951  0.00  0.00    -0.048 A 
ATOM     11  C   UNL d   1      26.984 -16.304  -1.001  0.00  0.00     0.007 A 
ATOM     12  C   UNL d   1      26.679 -17.265  -0.017  0.00  0.00     0.002 A 
ATOM     13  C   UNL d   1      25.417 -17.859   0.031  0.00  0.00     0.024 A 
ATOM     14  C   UNL d   1      24.462 -17.481  -0.893  0.00  0.00     0.034 A 
ATOM     15 CL   UNL d   1      22.897 -18.198  -0.894  0.00  0.00    -0.084 Cl
ATOM     16  C   UNL d   1      24.757 -16.510  -1.845  0.00  0.00     0.031 A 
ENDBRANCH   9  10
ENDBRANCH   6   9
ENDBRANCH   3   5
BRANCH   1  17
ATOM     17  C   UNL d   1      30.779 -17.724  -6.372  0.00  0.00     0.066 A 
ATOM     18  C   UNL d   1      31.496 -16.775  -7.123  0.00  0.00     0.020 A 
ATOM     19  C   UNL d   1      32.197 -17.149  -8.285  0.00  0.00     0.008 A 
ATOM     20  C   UNL d   1      32.210 -18.479  -8.716  0.00  0.00    -0.059 A 
ATOM     21  C   UNL d   1      32.966 -18.918  -9.937  0.00  0.00     0.048 C 
ATOM     22  C   UNL d   1      31.492 -19.425  -7.981  0.00  0.00     0.044 A 
ATOM     23  C   UNL d   1      30.784 -19.054  -6.833  0.00  0.00     0.082 A 
BRANCH  23  24
ATOM     24  O   UNL d   1      30.110 -20.076  -6.216  0.00  0.00    -0.360 OA
ATOM     25  H   UNL d   1      29.998 -19.842  -5.269  0.00  0.00     0.217 HD
ENDBRANCH  23  24
ENDBRANCH   1  17
TORSDOF 5
ENDMDL
