MODEL 1
REMARK VINA RESULT:    -7.541      0.000      0.000
REMARK INTER + INTRA:         -16.327
REMARK INTER:                 -11.120
REMARK INTRA:                  -5.207
REMARK CONF_INDEPENDENT:        3.580
REMARK UNBOUND:                -5.207
REMARK  12 active torsions:
REMARK  status: ('A' for Active; 'I' for Inactive)
REMARK    1  A    between atoms: C_2  and  O_3 
REMARK    2  A    between atoms: C_4  and  C_2 
REMARK    3  A    between atoms: C_4  and  C_17 
REMARK    4  A    between atoms: C_4  and  N_5 
REMARK    5  A    between atoms: N_5  and  S_6 
REMARK    6  A    between atoms: S_6  and  C_9 
REMARK    7  A    between atoms: C_17  and  O_19 
REMARK    8  A    between atoms: O_19  and  C_20 
REMARK    9  A    between atoms: C_20  and  C_21 
REMARK       I    between atoms: C_21  and  N_23 
REMARK   10  A    between atoms: N_23  and  C_24 
REMARK   11  A    between atoms: C_24  and  C_25 
REMARK   12  A    between atoms: C_25  and  C_26 
ROOT
ATOM      1  C   UNL d   1      29.059 -12.678  -6.448  0.00  0.00     0.199 C 
ENDROOT
BRANCH   1   2
ATOM      2  C   UNL d   1      27.873 -12.515  -5.454  0.00  0.00     0.280 C 
ATOM      3  O   UNL d   1      27.933 -12.089  -4.309  0.00  0.00    -0.263 OA
BRANCH   2   4
ATOM      4  O   UNL d   1      26.657 -12.831  -5.954  0.00  0.00    -0.311 OA
BRANCH   4   5
ATOM      5  C   UNL d   1      25.657 -12.528  -4.960  0.00  0.00     0.281 C 
BRANCH   5   6
ATOM      6  C   UNL d   1      25.364 -13.752  -4.135  0.00  0.00     0.241 C 
ATOM      7  O   UNL d   1      24.222 -14.056  -3.797  0.00  0.00    -0.271 OA
ATOM      8  N   UNL d   1      26.473 -14.503  -3.792  0.00  0.00    -0.359 N 
ATOM      9  H   UNL d   1      27.412 -14.211  -4.039  0.00  0.00     0.162 HD
BRANCH   8  10
ATOM     10  C   UNL d   1      26.257 -15.679  -2.988  0.00  0.00     0.127 C 
BRANCH  10  11
ATOM     11  C   UNL d   1      25.981 -15.402  -1.508  0.00  0.00     0.053 C 
BRANCH  11  12
ATOM     12  C   UNL d   1      24.958 -16.387  -0.987  0.00  0.00    -0.082 C 
ATOM     13  C   UNL d   1      23.649 -16.182  -1.229  0.00  0.00    -0.024 C 
ATOM     14  C   UNL d   1      22.573 -17.161  -0.895  0.00  0.00     0.027 C 
ATOM     15  C   UNL d   1      23.026 -18.210   0.112  0.00  0.00     0.004 C 
ATOM     16  C   UNL d   1      24.409 -18.752  -0.238  0.00  0.00     0.005 C 
ATOM     17  C   UNL d   1      25.455 -17.632  -0.288  0.00  0.00     0.034 C 
ENDBRANCH  11  12
ENDBRANCH  10  11
ENDBRANCH   8  10
ENDBRANCH   5   6
ENDBRANCH   4   5
ENDBRANCH   2   4
ENDBRANCH   1   2
BRANCH   1  18
ATOM     18  N   UNL d   1      29.691 -14.085  -6.540  0.00  0.00    -0.199 NA
ATOM     19  H   UNL d   1      29.602 -14.489  -7.467  0.00  0.00     0.141 HD
BRANCH  18  20
ATOM     20  S   UNL d   1      29.130 -15.203  -5.384  0.00  0.00     0.242 S 
ATOM     21  O   UNL d   1      29.519 -14.708  -4.084  0.00  0.00    -0.206 OA
ATOM     22  O   UNL d   1      27.784 -15.574  -5.774  0.00  0.00    -0.206 OA
BRANCH  20  23
ATOM     23  C   UNL d   1      30.054 -16.668  -5.650  0.00  0.00     0.076 A 
ATOM     24  C   UNL d   1      30.030 -17.669  -4.680  0.00  0.00     0.026 A 
ATOM     25  C   UNL d   1      30.619 -18.895  -4.965  0.00  0.00     0.027 A 
ATOM     26  C   UNL d   1      31.210 -19.113  -6.216  0.00  0.00     0.055 A 
ATOM     27 CL   UNL d   1      31.936 -20.652  -6.493  0.00  0.00    -0.083 Cl
ATOM     28  C   UNL d   1      31.196 -18.109  -7.193  0.00  0.00     0.057 A 
ATOM     29 CL   UNL d   1      31.903 -18.306  -8.753  0.00  0.00    -0.083 Cl
ATOM     30  C   UNL d   1      30.596 -16.886  -6.917  0.00  0.00     0.050 A 
ENDBRANCH  20  23
ENDBRANCH  18  20
ENDBRANCH   1  18
BRANCH   1  31
ATOM     31  C   UNL d   1      28.637 -12.194  -7.870  0.00  0.00     0.142 C 
ATOM     32  C   UNL d   1      28.832 -10.696  -8.142  0.00  0.00     0.041 C 
BRANCH  31  33
ATOM     33  O   UNL d   1      29.334 -12.932  -8.881  0.00  0.00    -0.394 OA
ATOM     34  H   UNL d   1      29.302 -13.882  -8.686  0.00  0.00     0.210 HD
ENDBRANCH  31  33
ENDBRANCH   1  31
TORSDOF 12
ENDMDL
MODEL 2
REMARK VINA RESULT:    -6.933      3.852      5.498
REMARK INTER + INTRA:         -16.712
REMARK INTER:                 -10.513
REMARK INTRA:                  -6.199
REMARK CONF_INDEPENDENT:        3.580
REMARK UNBOUND:                -6.199
REMARK  12 active torsions:
REMARK  status: ('A' for Active; 'I' for Inactive)
REMARK    1  A    between atoms: C_2  and  O_3 
REMARK    2  A    between atoms: C_4  and  C_2 
REMARK    3  A    between atoms: C_4  and  C_17 
REMARK    4  A    between atoms: C_4  and  N_5 
REMARK    5  A    between atoms: N_5  and  S_6 
REMARK    6  A    between atoms: S_6  and  C_9 
REMARK    7  A    between atoms: C_17  and  O_19 
REMARK    8  A    between atoms: O_19  and  C_20 
REMARK    9  A    between atoms: C_20  and  C_21 
REMARK       I    between atoms: C_21  and  N_23 
REMARK   10  A    between atoms: N_23  and  C_24 
REMARK   11  A    between atoms: C_24  and  C_25 
REMARK   12  A    between atoms: C_25  and  C_26 
ROOT
ATOM      1  C   UNL d   1      27.414 -12.765  -5.211  0.00  0.00     0.199 C 
ENDROOT
BRANCH   1   2
ATOM      2  C   UNL d   1      26.146 -11.869  -5.309  0.00  0.00     0.280 C 
ATOM      3  O   UNL d   1      25.637 -11.431  -6.331  0.00  0.00    -0.263 OA
BRANCH   2   4
ATOM      4  O   UNL d   1      25.532 -11.611  -4.131  0.00  0.00    -0.311 OA
BRANCH   4   5
ATOM      5  C   UNL d   1      26.264 -10.574  -3.447  0.00  0.00     0.281 C 
BRANCH   5   6
ATOM      6  C   UNL d   1      27.009 -11.156  -2.277  0.00  0.00     0.241 C 
ATOM      7  O   UNL d   1      27.784 -10.488  -1.596  0.00  0.00    -0.271 OA
ATOM      8  N   UNL d   1      26.754 -12.493  -2.030  0.00  0.00    -0.359 N 
ATOM      9  H   UNL d   1      26.149 -13.040  -2.632  0.00  0.00     0.162 HD
BRANCH   8  10
ATOM     10  C   UNL d   1      27.452 -13.111  -0.932  0.00  0.00     0.127 C 
BRANCH  10  11
ATOM     11  C   UNL d   1      26.561 -13.891   0.038  0.00  0.00     0.053 C 
BRANCH  11  12
ATOM     12  C   UNL d   1      27.015 -13.646   1.458  0.00  0.00    -0.082 C 
ATOM     13  C   UNL d   1      27.783 -14.559   2.083  0.00  0.00    -0.024 C 
ATOM     14  C   UNL d   1      28.409 -14.353   3.422  0.00  0.00     0.027 C 
ATOM     15  C   UNL d   1      27.768 -13.210   4.198  0.00  0.00     0.004 C 
ATOM     16  C   UNL d   1      27.553 -11.989   3.309  0.00  0.00     0.005 C 
ATOM     17  C   UNL d   1      26.667 -12.323   2.103  0.00  0.00     0.034 C 
ENDBRANCH  11  12
ENDBRANCH  10  11
ENDBRANCH   8  10
ENDBRANCH   5   6
ENDBRANCH   4   5
ENDBRANCH   2   4
ENDBRANCH   1   2
BRANCH   1  18
ATOM     18  N   UNL d   1      27.364 -13.916  -4.181  0.00  0.00    -0.199 NA
ATOM     19  H   UNL d   1      28.192 -14.503  -4.217  0.00  0.00     0.141 HD
BRANCH  18  20
ATOM     20  S   UNL d   1      25.975 -14.898  -4.265  0.00  0.00     0.242 S 
ATOM     21  O   UNL d   1      24.832 -14.044  -4.046  0.00  0.00    -0.206 OA
ATOM     22  O   UNL d   1      26.156 -15.788  -5.395  0.00  0.00    -0.206 OA
BRANCH  20  23
ATOM     23  C   UNL d   1      26.064 -15.968  -2.880  0.00  0.00     0.076 A 
ATOM     24  C   UNL d   1      27.296 -16.172  -2.261  0.00  0.00     0.026 A 
ATOM     25  C   UNL d   1      27.338 -16.879  -1.066  0.00  0.00     0.027 A 
ATOM     26  C   UNL d   1      26.153 -17.360  -0.495  0.00  0.00     0.055 A 
ATOM     27 CL   UNL d   1      26.283 -18.243   0.980  0.00  0.00    -0.083 Cl
ATOM     28  C   UNL d   1      24.919 -17.117  -1.112  0.00  0.00     0.057 A 
ATOM     29 CL   UNL d   1      23.420 -17.678  -0.468  0.00  0.00    -0.083 Cl
ATOM     30  C   UNL d   1      24.870 -16.399  -2.300  0.00  0.00     0.050 A 
ENDBRANCH  20  23
ENDBRANCH  18  20
ENDBRANCH   1  18
BRANCH   1  31
ATOM     31  C   UNL d   1      27.781 -13.329  -6.618  0.00  0.00     0.142 C 
ATOM     32  C   UNL d   1      28.896 -12.579  -7.359  0.00  0.00     0.041 C 
BRANCH  31  33
ATOM     33  O   UNL d   1      28.150 -14.711  -6.526  0.00  0.00    -0.394 OA
ATOM     34  H   UNL d   1      27.956 -15.053  -5.639  0.00  0.00     0.210 HD
ENDBRANCH  31  33
ENDBRANCH   1  31
TORSDOF 12
ENDMDL
MODEL 3
REMARK VINA RESULT:    -6.924      2.929      4.112
REMARK INTER + INTRA:         -16.479
REMARK INTER:                 -10.503
REMARK INTRA:                  -5.976
REMARK CONF_INDEPENDENT:        3.580
REMARK UNBOUND:                -5.976
REMARK  12 active torsions:
REMARK  status: ('A' for Active; 'I' for Inactive)
REMARK    1  A    between atoms: C_2  and  O_3 
REMARK    2  A    between atoms: C_4  and  C_2 
REMARK    3  A    between atoms: C_4  and  C_17 
REMARK    4  A    between atoms: C_4  and  N_5 
REMARK    5  A    between atoms: N_5  and  S_6 
REMARK    6  A    between atoms: S_6  and  C_9 
REMARK    7  A    between atoms: C_17  and  O_19 
REMARK    8  A    between atoms: O_19  and  C_20 
REMARK    9  A    between atoms: C_20  and  C_21 
REMARK       I    between atoms: C_21  and  N_23 
REMARK   10  A    between atoms: N_23  and  C_24 
REMARK   11  A    between atoms: C_24  and  C_25 
REMARK   12  A    between atoms: C_25  and  C_26 
ROOT
ATOM      1  C   UNL d   1      26.902 -11.526  -3.855  0.00  0.00     0.199 C 
ENDROOT
BRANCH   1   2
ATOM      2  C   UNL d   1      27.470 -11.941  -2.467  0.00  0.00     0.280 C 
ATOM      3  O   UNL d   1      26.971 -11.709  -1.375  0.00  0.00    -0.263 OA
BRANCH   2   4
ATOM      4  O   UNL d   1      28.602 -12.680  -2.507  0.00  0.00    -0.311 OA
BRANCH   4   5
ATOM      5  C   UNL d   1      29.247 -12.605  -1.219  0.00  0.00     0.281 C 
BRANCH   5   6
ATOM      6  C   UNL d   1      28.842 -13.780  -0.372  0.00  0.00     0.241 C 
ATOM      7  O   UNL d   1      29.590 -14.269   0.472  0.00  0.00    -0.271 OA
ATOM      8  N   UNL d   1      27.568 -14.262  -0.615  0.00  0.00    -0.359 N 
ATOM      9  H   UNL d   1      26.983 -13.877  -1.348  0.00  0.00     0.162 HD
BRANCH   8  10
ATOM     10  C   UNL d   1      27.129 -15.398   0.155  0.00  0.00     0.127 C 
BRANCH  10  11
ATOM     11  C   UNL d   1      26.826 -16.653  -0.668  0.00  0.00     0.053 C 
BRANCH  11  12
ATOM     12  C   UNL d   1      25.361 -17.004  -0.542  0.00  0.00    -0.082 C 
ATOM     13  C   UNL d   1      24.425 -16.077  -0.819  0.00  0.00    -0.024 C 
ATOM     14  C   UNL d   1      22.960 -16.355  -0.873  0.00  0.00     0.027 C 
ATOM     15  C   UNL d   1      22.585 -17.659  -0.181  0.00  0.00     0.004 C 
ATOM     16  C   UNL d   1      23.546 -18.783  -0.560  0.00  0.00     0.005 C 
ATOM     17  C   UNL d   1      24.993 -18.429  -0.196  0.00  0.00     0.034 C 
ENDBRANCH  11  12
ENDBRANCH  10  11
ENDBRANCH   8  10
ENDBRANCH   5   6
ENDBRANCH   4   5
ENDBRANCH   2   4
ENDBRANCH   1   2
BRANCH   1  18
ATOM     18  N   UNL d   1      25.597 -12.225  -4.300  0.00  0.00    -0.199 NA
ATOM     19  H   UNL d   1      24.768 -11.722  -4.001  0.00  0.00     0.141 HD
BRANCH  18  20
ATOM     20  S   UNL d   1      25.460 -13.859  -3.837  0.00  0.00     0.242 S 
ATOM     21  O   UNL d   1      25.531 -13.903  -2.395  0.00  0.00    -0.206 OA
ATOM     22  O   UNL d   1      24.406 -14.439  -4.645  0.00  0.00    -0.206 OA
BRANCH  20  23
ATOM     23  C   UNL d   1      26.911 -14.645  -4.427  0.00  0.00     0.076 A 
ATOM     24  C   UNL d   1      27.321 -14.411  -5.738  0.00  0.00     0.026 A 
ATOM     25  C   UNL d   1      28.557 -14.893  -6.152  0.00  0.00     0.027 A 
ATOM     26  C   UNL d   1      29.374 -15.587  -5.251  0.00  0.00     0.055 A 
ATOM     27 CL   UNL d   1      30.887 -16.170  -5.837  0.00  0.00    -0.083 Cl
ATOM     28  C   UNL d   1      28.963 -15.783  -3.926  0.00  0.00     0.057 A 
ATOM     29 CL   UNL d   1      29.916 -16.627  -2.761  0.00  0.00    -0.083 Cl
ATOM     30  C   UNL d   1      27.734 -15.291  -3.504  0.00  0.00     0.050 A 
ENDBRANCH  20  23
ENDBRANCH  18  20
ENDBRANCH   1  18
BRANCH   1  31
ATOM     31  C   UNL d   1      26.721  -9.978  -3.920  0.00  0.00     0.142 C 
ATOM     32  C   UNL d   1      27.297  -9.298  -5.169  0.00  0.00     0.041 C 
BRANCH  31  33
ATOM     33  O   UNL d   1      25.335  -9.628  -3.813  0.00  0.00    -0.394 OA
ATOM     34  H   UNL d   1      24.788 -10.273  -4.286  0.00  0.00     0.210 HD
ENDBRANCH  31  33
ENDBRANCH   1  31
TORSDOF 12
ENDMDL
MODEL 4
REMARK VINA RESULT:    -6.849      1.399      2.087
REMARK INTER + INTRA:         -16.080
REMARK INTER:                 -10.428
REMARK INTRA:                  -5.652
REMARK CONF_INDEPENDENT:        3.580
REMARK UNBOUND:                -5.652
REMARK  12 active torsions:
REMARK  status: ('A' for Active; 'I' for Inactive)
REMARK    1  A    between atoms: C_2  and  O_3 
REMARK    2  A    between atoms: C_4  and  C_2 
REMARK    3  A    between atoms: C_4  and  C_17 
REMARK    4  A    between atoms: C_4  and  N_5 
REMARK    5  A    between atoms: N_5  and  S_6 
REMARK    6  A    between atoms: S_6  and  C_9 
REMARK    7  A    between atoms: C_17  and  O_19 
REMARK    8  A    between atoms: O_19  and  C_20 
REMARK    9  A    between atoms: C_20  and  C_21 
REMARK       I    between atoms: C_21  and  N_23 
REMARK   10  A    between atoms: N_23  and  C_24 
REMARK   11  A    between atoms: C_24  and  C_25 
REMARK   12  A    between atoms: C_25  and  C_26 
ROOT
ATOM      1  C   UNL d   1      29.014 -12.401  -7.517  0.00  0.00     0.199 C 
ENDROOT
BRANCH   1   2
ATOM      2  C   UNL d   1      27.843 -11.815  -6.676  0.00  0.00     0.280 C 
ATOM      3  O   UNL d   1      26.655 -11.825  -6.970  0.00  0.00    -0.263 OA
BRANCH   2   4
ATOM      4  O   UNL d   1      28.198 -11.299  -5.477  0.00  0.00    -0.311 OA
BRANCH   4   5
ATOM      5  C   UNL d   1      27.081 -10.559  -4.944  0.00  0.00     0.281 C 
BRANCH   5   6
ATOM      6  C   UNL d   1      26.242 -11.451  -4.071  0.00  0.00     0.241 C 
ATOM      7  O   UNL d   1      25.531 -11.008  -3.171  0.00  0.00    -0.271 OA
ATOM      8  N   UNL d   1      26.333 -12.802  -4.358  0.00  0.00    -0.359 N 
ATOM      9  H   UNL d   1      26.961 -13.154  -5.072  0.00  0.00     0.162 HD
BRANCH   8  10
ATOM     10  C   UNL d   1      25.564 -13.708  -3.544  0.00  0.00     0.127 C 
BRANCH  10  11
ATOM     11  C   UNL d   1      25.797 -15.192  -3.840  0.00  0.00     0.053 C 
BRANCH  11  12
ATOM     12  C   UNL d   1      25.961 -15.951  -2.542  0.00  0.00    -0.082 C 
ATOM     13  C   UNL d   1      27.108 -15.845  -1.845  0.00  0.00    -0.024 C 
ATOM     14  C   UNL d   1      27.320 -16.426  -0.487  0.00  0.00     0.027 C 
ATOM     15  C   UNL d   1      26.292 -17.496  -0.141  0.00  0.00     0.004 C 
ATOM     16  C   UNL d   1      24.882 -17.053  -0.522  0.00  0.00     0.005 C 
ATOM     17  C   UNL d   1      24.780 -16.737  -2.020  0.00  0.00     0.034 C 
ENDBRANCH  11  12
ENDBRANCH  10  11
ENDBRANCH   8  10
ENDBRANCH   5   6
ENDBRANCH   4   5
ENDBRANCH   2   4
ENDBRANCH   1   2
BRANCH   1  18
ATOM     18  N   UNL d   1      29.329 -13.899  -7.305  0.00  0.00    -0.199 NA
ATOM     19  H   UNL d   1      29.028 -14.472  -8.088  0.00  0.00     0.141 HD
BRANCH  18  20
ATOM     20  S   UNL d   1      28.726 -14.566  -5.858  0.00  0.00     0.242 S 
ATOM     21  O   UNL d   1      29.071 -13.656  -4.791  0.00  0.00    -0.206 OA
ATOM     22  O   UNL d   1      27.393 -15.058  -6.145  0.00  0.00    -0.206 OA
BRANCH  20  23
ATOM     23  C   UNL d   1      29.654 -16.026  -5.583  0.00  0.00     0.076 A 
ATOM     24  C   UNL d   1      29.655 -16.597  -4.312  0.00  0.00     0.026 A 
ATOM     25  C   UNL d   1      30.246 -17.842  -4.135  0.00  0.00     0.027 A 
ATOM     26  C   UNL d   1      30.813 -18.509  -5.228  0.00  0.00     0.055 A 
ATOM     27 CL   UNL d   1      31.544 -20.042  -4.931  0.00  0.00    -0.083 Cl
ATOM     28  C   UNL d   1      30.773 -17.937  -6.506  0.00  0.00     0.057 A 
ATOM     29 CL   UNL d   1      31.451 -18.699  -7.898  0.00  0.00    -0.083 Cl
ATOM     30  C   UNL d   1      30.172 -16.698  -6.691  0.00  0.00     0.050 A 
ENDBRANCH  20  23
ENDBRANCH  18  20
ENDBRANCH   1  18
BRANCH   1  31
ATOM     31  C   UNL d   1      28.779 -12.119  -9.033  0.00  0.00     0.142 C 
ATOM     32  C   UNL d   1      30.032 -11.748  -9.837  0.00  0.00     0.041 C 
BRANCH  31  33
ATOM     33  O   UNL d   1      28.153 -13.243  -9.663  0.00  0.00    -0.394 OA
ATOM     34  H   UNL d   1      28.530 -14.071  -9.327  0.00  0.00     0.210 HD
ENDBRANCH  31  33
ENDBRANCH   1  31
TORSDOF 12
ENDMDL
MODEL 5
REMARK VINA RESULT:    -6.760      3.147      6.492
REMARK INTER + INTRA:         -16.007
REMARK INTER:                 -10.340
REMARK INTRA:                  -5.667
REMARK CONF_INDEPENDENT:        3.580
REMARK UNBOUND:                -5.667
REMARK  12 active torsions:
REMARK  status: ('A' for Active; 'I' for Inactive)
REMARK    1  A    between atoms: C_2  and  O_3 
REMARK    2  A    between atoms: C_4  and  C_2 
REMARK    3  A    between atoms: C_4  and  C_17 
REMARK    4  A    between atoms: C_4  and  N_5 
REMARK    5  A    between atoms: N_5  and  S_6 
REMARK    6  A    between atoms: S_6  and  C_9 
REMARK    7  A    between atoms: C_17  and  O_19 
REMARK    8  A    between atoms: O_19  and  C_20 
REMARK    9  A    between atoms: C_20  and  C_21 
REMARK       I    between atoms: C_21  and  N_23 
REMARK   10  A    between atoms: N_23  and  C_24 
REMARK   11  A    between atoms: C_24  and  C_25 
REMARK   12  A    between atoms: C_25  and  C_26 
ROOT
ATOM      1  C   UNL d   1      27.147 -12.195  -5.036  0.00  0.00     0.199 C 
ENDROOT
BRANCH   1   2
ATOM      2  C   UNL d   1      28.618 -11.722  -5.214  0.00  0.00     0.280 C 
ATOM      3  O   UNL d   1      29.017 -10.839  -5.961  0.00  0.00    -0.263 OA
BRANCH   2   4
ATOM      4  O   UNL d   1      29.519 -12.327  -4.406  0.00  0.00    -0.311 OA
BRANCH   4   5
ATOM      5  C   UNL d   1      30.658 -12.720  -5.199  0.00  0.00     0.281 C 
BRANCH   5   6
ATOM      6  C   UNL d   1      30.605 -14.198  -5.477  0.00  0.00     0.241 C 
ATOM      7  O   UNL d   1      31.568 -14.815  -5.928  0.00  0.00    -0.271 OA
ATOM      8  N   UNL d   1      29.395 -14.803  -5.188  0.00  0.00    -0.359 N 
ATOM      9  H   UNL d   1      28.597 -14.270  -4.862  0.00  0.00     0.162 HD
BRANCH   8  10
ATOM     10  C   UNL d   1      29.279 -16.215  -5.450  0.00  0.00     0.127 C 
BRANCH  10  11
ATOM     11  C   UNL d   1      30.114 -17.110  -4.531  0.00  0.00     0.053 C 
BRANCH  11  12
ATOM     12  C   UNL d   1      30.562 -18.340  -5.287  0.00  0.00    -0.082 C 
ATOM     13  C   UNL d   1      30.658 -19.520  -4.646  0.00  0.00    -0.024 C 
ATOM     14  C   UNL d   1      30.942 -20.820  -5.323  0.00  0.00     0.027 C 
ATOM     15  C   UNL d   1      31.529 -20.639  -6.717  0.00  0.00     0.004 C 
ATOM     16  C   UNL d   1      30.772 -19.570  -7.501  0.00  0.00     0.005 C 
ATOM     17  C   UNL d   1      30.798 -18.219  -6.775  0.00  0.00     0.034 C 
ENDBRANCH  11  12
ENDBRANCH  10  11
ENDBRANCH   8  10
ENDBRANCH   5   6
ENDBRANCH   4   5
ENDBRANCH   2   4
ENDBRANCH   1   2
BRANCH   1  18
ATOM     18  N   UNL d   1      26.883 -13.201  -3.893  0.00  0.00    -0.199 NA
ATOM     19  H   UNL d   1      27.738 -13.500  -3.435  0.00  0.00     0.141 HD
BRANCH  18  20
ATOM     20  S   UNL d   1      25.975 -14.573  -4.335  0.00  0.00     0.242 S 
ATOM     21  O   UNL d   1      24.583 -14.184  -4.337  0.00  0.00    -0.206 OA
ATOM     22  O   UNL d   1      26.673 -15.203  -5.438  0.00  0.00    -0.206 OA
BRANCH  20  23
ATOM     23  C   UNL d   1      26.166 -15.715  -3.020  0.00  0.00     0.076 A 
ATOM     24  C   UNL d   1      27.436 -15.920  -2.483  0.00  0.00     0.026 A 
ATOM     25  C   UNL d   1      27.562 -16.691  -1.334  0.00  0.00     0.027 A 
ATOM     26  C   UNL d   1      26.422 -17.234  -0.727  0.00  0.00     0.055 A 
ATOM     27 CL   UNL d   1      26.656 -18.194   0.687  0.00  0.00    -0.083 Cl
ATOM     28  C   UNL d   1      25.150 -16.989  -1.260  0.00  0.00     0.057 A 
ATOM     29 CL   UNL d   1      23.703 -17.624  -0.567  0.00  0.00    -0.083 Cl
ATOM     30  C   UNL d   1      25.017 -16.208  -2.401  0.00  0.00     0.050 A 
ENDBRANCH  20  23
ENDBRANCH  18  20
ENDBRANCH   1  18
BRANCH   1  31
ATOM     31  C   UNL d   1      26.202 -10.963  -4.885  0.00  0.00     0.142 C 
ATOM     32  C   UNL d   1      25.529 -10.485  -6.179  0.00  0.00     0.041 C 
BRANCH  31  33
ATOM     33  O   UNL d   1      25.181 -11.228  -3.915  0.00  0.00    -0.394 OA
ATOM     34  H   UNL d   1      24.901 -12.154  -3.965  0.00  0.00     0.210 HD
ENDBRANCH  31  33
ENDBRANCH   1  31
TORSDOF 12
ENDMDL
MODEL 6
REMARK VINA RESULT:    -6.582      4.288      6.263
REMARK INTER + INTRA:         -16.002
REMARK INTER:                 -10.161
REMARK INTRA:                  -5.840
REMARK CONF_INDEPENDENT:        3.580
REMARK UNBOUND:                -5.840
REMARK  12 active torsions:
REMARK  status: ('A' for Active; 'I' for Inactive)
REMARK    1  A    between atoms: C_2  and  O_3 
REMARK    2  A    between atoms: C_4  and  C_2 
REMARK    3  A    between atoms: C_4  and  C_17 
REMARK    4  A    between atoms: C_4  and  N_5 
REMARK    5  A    between atoms: N_5  and  S_6 
REMARK    6  A    between atoms: S_6  and  C_9 
REMARK    7  A    between atoms: C_17  and  O_19 
REMARK    8  A    between atoms: O_19  and  C_20 
REMARK    9  A    between atoms: C_20  and  C_21 
REMARK       I    between atoms: C_21  and  N_23 
REMARK   10  A    between atoms: N_23  and  C_24 
REMARK   11  A    between atoms: C_24  and  C_25 
REMARK   12  A    between atoms: C_25  and  C_26 
ROOT
ATOM      1  C   UNL d   1      26.700 -14.141  -5.032  0.00  0.00     0.199 C 
ENDROOT
BRANCH   1   2
ATOM      2  C   UNL d   1      27.839 -14.551  -4.054  0.00  0.00     0.280 C 
ATOM      3  O   UNL d   1      28.265 -15.682  -3.861  0.00  0.00    -0.263 OA
BRANCH   2   4
ATOM      4  O   UNL d   1      28.437 -13.526  -3.406  0.00  0.00    -0.311 OA
BRANCH   4   5
ATOM      5  C   UNL d   1      29.291 -14.066  -2.377  0.00  0.00     0.281 C 
BRANCH   5   6
ATOM      6  C   UNL d   1      29.018 -13.378  -1.067  0.00  0.00     0.241 C 
ATOM      7  O   UNL d   1      29.690 -13.593  -0.061  0.00  0.00    -0.271 OA
ATOM      8  N   UNL d   1      27.957 -12.490  -1.086  0.00  0.00    -0.359 N 
ATOM      9  H   UNL d   1      27.384 -12.361  -1.912  0.00  0.00     0.162 HD
BRANCH   8  10
ATOM     10  C   UNL d   1      27.636 -11.812   0.144  0.00  0.00     0.127 C 
BRANCH  10  11
ATOM     11  C   UNL d   1      26.657 -12.560   1.052  0.00  0.00     0.053 C 
BRANCH  11  12
ATOM     12  C   UNL d   1      27.328 -12.887   2.367  0.00  0.00    -0.082 C 
ATOM     13  C   UNL d   1      27.917 -14.086   2.538  0.00  0.00    -0.024 C 
ATOM     14  C   UNL d   1      28.734 -14.456   3.731  0.00  0.00     0.027 C 
ATOM     15  C   UNL d   1      28.495 -13.528   4.915  0.00  0.00     0.004 C 
ATOM     16  C   UNL d   1      28.481 -12.066   4.478  0.00  0.00     0.005 C 
ATOM     17  C   UNL d   1      27.398 -11.806   3.423  0.00  0.00     0.034 C 
ENDBRANCH  11  12
ENDBRANCH  10  11
ENDBRANCH   8  10
ENDBRANCH   5   6
ENDBRANCH   4   5
ENDBRANCH   2   4
ENDBRANCH   1   2
BRANCH   1  18
ATOM     18  N   UNL d   1      25.276 -14.614  -4.664  0.00  0.00    -0.199 NA
ATOM     19  H   UNL d   1      24.579 -14.298  -5.332  0.00  0.00     0.141 HD
BRANCH  18  20
ATOM     20  S   UNL d   1      24.766 -14.213  -3.089  0.00  0.00     0.242 S 
ATOM     21  O   UNL d   1      25.509 -13.042  -2.683  0.00  0.00    -0.206 OA
ATOM     22  O   UNL d   1      23.323 -14.343  -3.067  0.00  0.00    -0.206 OA
BRANCH  20  23
ATOM     23  C   UNL d   1      25.313 -15.524  -2.063  0.00  0.00     0.076 A 
ATOM     24  C   UNL d   1      26.543 -15.410  -1.418  0.00  0.00     0.026 A 
ATOM     25  C   UNL d   1      26.898 -16.366  -0.474  0.00  0.00     0.027 A 
ATOM     26  C   UNL d   1      26.018 -17.413  -0.174  0.00  0.00     0.055 A 
ATOM     27 CL   UNL d   1      26.531 -18.572   0.995  0.00  0.00    -0.083 Cl
ATOM     28  C   UNL d   1      24.770 -17.495  -0.806  0.00  0.00     0.057 A 
ATOM     29 CL   UNL d   1      23.636 -18.755  -0.488  0.00  0.00    -0.083 Cl
ATOM     30  C   UNL d   1      24.405 -16.534  -1.741  0.00  0.00     0.050 A 
ENDBRANCH  20  23
ENDBRANCH  18  20
ENDBRANCH   1  18
BRANCH   1  31
ATOM     31  C   UNL d   1      26.707 -12.596  -5.243  0.00  0.00     0.142 C 
ATOM     32  C   UNL d   1      27.520 -12.097  -6.444  0.00  0.00     0.041 C 
BRANCH  31  33
ATOM     33  O   UNL d   1      25.368 -12.099  -5.366  0.00  0.00    -0.394 OA
ATOM     34  H   UNL d   1      24.801 -12.485  -4.681  0.00  0.00     0.210 HD
ENDBRANCH  31  33
ENDBRANCH   1  31
TORSDOF 12
ENDMDL
MODEL 7
REMARK VINA RESULT:    -6.388      1.775      2.419
REMARK INTER + INTRA:         -15.862
REMARK INTER:                  -9.968
REMARK INTRA:                  -5.895
REMARK CONF_INDEPENDENT:        3.580
REMARK UNBOUND:                -5.895
REMARK  12 active torsions:
REMARK  status: ('A' for Active; 'I' for Inactive)
REMARK    1  A    between atoms: C_2  and  O_3 
REMARK    2  A    between atoms: C_4  and  C_2 
REMARK    3  A    between atoms: C_4  and  C_17 
REMARK    4  A    between atoms: C_4  and  N_5 
REMARK    5  A    between atoms: N_5  and  S_6 
REMARK    6  A    between atoms: S_6  and  C_9 
REMARK    7  A    between atoms: C_17  and  O_19 
REMARK    8  A    between atoms: O_19  and  C_20 
REMARK    9  A    between atoms: C_20  and  C_21 
REMARK       I    between atoms: C_21  and  N_23 
REMARK   10  A    between atoms: N_23  and  C_24 
REMARK   11  A    between atoms: C_24  and  C_25 
REMARK   12  A    between atoms: C_25  and  C_26 
ROOT
ATOM      1  C   UNL d   1      26.976 -12.602  -4.425  0.00  0.00     0.199 C 
ENDROOT
BRANCH   1   2
ATOM      2  C   UNL d   1      25.704 -13.140  -3.709  0.00  0.00     0.280 C 
ATOM      3  O   UNL d   1      24.988 -14.058  -4.082  0.00  0.00    -0.263 OA
BRANCH   2   4
ATOM      4  O   UNL d   1      25.418 -12.550  -2.525  0.00  0.00    -0.311 OA
BRANCH   4   5
ATOM      5  C   UNL d   1      26.655 -12.158  -1.894  0.00  0.00     0.281 C 
BRANCH   5   6
ATOM      6  C   UNL d   1      27.202 -13.299  -1.082  0.00  0.00     0.241 C 
ATOM      7  O   UNL d   1      28.049 -13.135  -0.207  0.00  0.00    -0.271 OA
ATOM      8  N   UNL d   1      26.678 -14.541  -1.394  0.00  0.00    -0.359 N 
ATOM      9  H   UNL d   1      26.015 -14.666  -2.151  0.00  0.00     0.162 HD
BRANCH   8  10
ATOM     10  C   UNL d   1      27.176 -15.677  -0.659  0.00  0.00     0.127 C 
BRANCH  10  11
ATOM     11  C   UNL d   1      26.704 -17.036  -1.182  0.00  0.00     0.053 C 
BRANCH  11  12
ATOM     12  C   UNL d   1      25.260 -17.260  -0.790  0.00  0.00    -0.082 C 
ATOM     13  C   UNL d   1      24.333 -16.333  -1.097  0.00  0.00    -0.024 C 
ATOM     14  C   UNL d   1      22.866 -16.517  -0.894  0.00  0.00     0.027 C 
ATOM     15  C   UNL d   1      22.545 -17.653   0.068  0.00  0.00     0.004 C 
ATOM     16  C   UNL d   1      23.390 -18.888  -0.232  0.00  0.00     0.005 C 
ATOM     17  C   UNL d   1      24.890 -18.575  -0.145  0.00  0.00     0.034 C 
ENDBRANCH  11  12
ENDBRANCH  10  11
ENDBRANCH   8  10
ENDBRANCH   5   6
ENDBRANCH   4   5
ENDBRANCH   2   4
ENDBRANCH   1   2
BRANCH   1  18
ATOM     18  N   UNL d   1      28.167 -13.580  -4.536  0.00  0.00    -0.199 NA
ATOM     19  H   UNL d   1      28.876 -13.254  -5.187  0.00  0.00     0.141 HD
BRANCH  18  20
ATOM     20  S   UNL d   1      27.748 -15.186  -4.921  0.00  0.00     0.242 S 
ATOM     21  O   UNL d   1      26.944 -15.691  -3.833  0.00  0.00    -0.206 OA
ATOM     22  O   UNL d   1      27.373 -15.200  -6.321  0.00  0.00    -0.206 OA
BRANCH  20  23
ATOM     23  C   UNL d   1      29.248 -16.090  -4.888  0.00  0.00     0.076 A 
ATOM     24  C   UNL d   1      29.621 -16.739  -3.712  0.00  0.00     0.026 A 
ATOM     25  C   UNL d   1      30.716 -17.594  -3.735  0.00  0.00     0.027 A 
ATOM     26  C   UNL d   1      31.415 -17.804  -4.930  0.00  0.00     0.055 A 
ATOM     27 CL   UNL d   1      32.774 -18.865  -4.880  0.00  0.00    -0.083 Cl
ATOM     28  C   UNL d   1      31.007 -17.172  -6.112  0.00  0.00     0.057 A 
ATOM     29 CL   UNL d   1      31.818 -17.382  -7.619  0.00  0.00    -0.083 Cl
ATOM     30  C   UNL d   1      29.905 -16.326  -6.097  0.00  0.00     0.050 A 
ENDBRANCH  20  23
ENDBRANCH  18  20
ENDBRANCH   1  18
BRANCH   1  31
ATOM     31  C   UNL d   1      26.604 -12.058  -5.839  0.00  0.00     0.142 C 
ATOM     32  C   UNL d   1      26.251 -10.566  -5.901  0.00  0.00     0.041 C 
BRANCH  31  33
ATOM     33  O   UNL d   1      27.665 -12.311  -6.770  0.00  0.00    -0.394 OA
ATOM     34  H   UNL d   1      27.990 -13.219  -6.672  0.00  0.00     0.210 HD
ENDBRANCH  31  33
ENDBRANCH   1  31
TORSDOF 12
ENDMDL
MODEL 8
REMARK VINA RESULT:    -5.997      3.540      5.637
REMARK INTER + INTRA:         -15.851
REMARK INTER:                  -9.577
REMARK INTRA:                  -6.275
REMARK CONF_INDEPENDENT:        3.580
REMARK UNBOUND:                -6.275
REMARK  12 active torsions:
REMARK  status: ('A' for Active; 'I' for Inactive)
REMARK    1  A    between atoms: C_2  and  O_3 
REMARK    2  A    between atoms: C_4  and  C_2 
REMARK    3  A    between atoms: C_4  and  C_17 
REMARK    4  A    between atoms: C_4  and  N_5 
REMARK    5  A    between atoms: N_5  and  S_6 
REMARK    6  A    between atoms: S_6  and  C_9 
REMARK    7  A    between atoms: C_17  and  O_19 
REMARK    8  A    between atoms: O_19  and  C_20 
REMARK    9  A    between atoms: C_20  and  C_21 
REMARK       I    between atoms: C_21  and  N_23 
REMARK   10  A    between atoms: N_23  and  C_24 
REMARK   11  A    between atoms: C_24  and  C_25 
REMARK   12  A    between atoms: C_25  and  C_26 
ROOT
ATOM      1  C   UNL d   1      29.210 -15.245  -5.906  0.00  0.00     0.199 C 
ENDROOT
BRANCH   1   2
ATOM      2  C   UNL d   1      29.681 -16.422  -5.003  0.00  0.00     0.280 C 
ATOM      3  O   UNL d   1      29.668 -17.612  -5.287  0.00  0.00    -0.263 OA
BRANCH   2   4
ATOM      4  O   UNL d   1      30.205 -16.058  -3.810  0.00  0.00    -0.311 OA
BRANCH   4   5
ATOM      5  C   UNL d   1      30.238 -17.213  -2.949  0.00  0.00     0.281 C 
BRANCH   5   6
ATOM      6  C   UNL d   1      29.626 -16.880  -1.616  0.00  0.00     0.241 C 
ATOM      7  O   UNL d   1      29.551 -17.701  -0.705  0.00  0.00    -0.271 OA
ATOM      8  N   UNL d   1      29.158 -15.583  -1.498  0.00  0.00    -0.359 N 
ATOM      9  H   UNL d   1      29.184 -14.933  -2.276  0.00  0.00     0.162 HD
BRANCH   8  10
ATOM     10  C   UNL d   1      28.545 -15.209  -0.249  0.00  0.00     0.127 C 
BRANCH  10  11
ATOM     11  C   UNL d   1      27.088 -14.754  -0.359  0.00  0.00     0.053 C 
BRANCH  11  12
ATOM     12  C   UNL d   1      26.181 -15.962  -0.438  0.00  0.00    -0.082 C 
ATOM     13  C   UNL d   1      25.125 -15.952  -1.273  0.00  0.00    -0.024 C 
ATOM     14  C   UNL d   1      24.258 -17.137  -1.540  0.00  0.00     0.027 C 
ATOM     15  C   UNL d   1      24.406 -18.222  -0.482  0.00  0.00     0.004 C 
ATOM     16  C   UNL d   1      25.874 -18.467  -0.142  0.00  0.00     0.005 C 
ATOM     17  C   UNL d   1      26.552 -17.188   0.365  0.00  0.00     0.034 C 
ENDBRANCH  11  12
ENDBRANCH  10  11
ENDBRANCH   8  10
ENDBRANCH   5   6
ENDBRANCH   4   5
ENDBRANCH   2   4
ENDBRANCH   1   2
BRANCH   1  18
ATOM     18  N   UNL d   1      27.687 -15.123  -6.137  0.00  0.00    -0.199 NA
ATOM     19  H   UNL d   1      27.441 -14.287  -6.658  0.00  0.00     0.141 HD
BRANCH  18  20
ATOM     20  S   UNL d   1      26.735 -15.206  -4.727  0.00  0.00     0.242 S 
ATOM     21  O   UNL d   1      25.513 -15.893  -5.074  0.00  0.00    -0.206 OA
ATOM     22  O   UNL d   1      27.623 -15.568  -3.640  0.00  0.00    -0.206 OA
BRANCH  20  23
ATOM     23  C   UNL d   1      26.285 -13.553  -4.358  0.00  0.00     0.076 A 
ATOM     24  C   UNL d   1      26.211 -13.154  -3.025  0.00  0.00     0.026 A 
ATOM     25  C   UNL d   1      26.023 -11.808  -2.736  0.00  0.00     0.027 A 
ATOM     26  C   UNL d   1      25.929 -10.876  -3.777  0.00  0.00     0.055 A 
ATOM     27 CL   UNL d   1      25.680  -9.225  -3.345  0.00  0.00    -0.083 Cl
ATOM     28  C   UNL d   1      26.040 -11.288  -5.111  0.00  0.00     0.057 A 
ATOM     29 CL   UNL d   1      25.934 -10.198  -6.443  0.00  0.00    -0.083 Cl
ATOM     30  C   UNL d   1      26.241 -12.631  -5.404  0.00  0.00     0.050 A 
ENDBRANCH  20  23
ENDBRANCH  18  20
ENDBRANCH   1  18
BRANCH   1  31
ATOM     31  C   UNL d   1      29.773 -13.896  -5.363  0.00  0.00     0.142 C 
ATOM     32  C   UNL d   1      29.420 -12.652  -6.191  0.00  0.00     0.041 C 
BRANCH  31  33
ATOM     33  O   UNL d   1      29.344 -13.678  -4.013  0.00  0.00    -0.394 OA
ATOM     34  H   UNL d   1      28.791 -14.415  -3.713  0.00  0.00     0.210 HD
ENDBRANCH  31  33
ENDBRANCH   1  31
TORSDOF 12
ENDMDL
MODEL 9
REMARK VINA RESULT:    -5.485      3.664      4.674
REMARK INTER + INTRA:         -15.972
REMARK INTER:                  -9.065
REMARK INTRA:                  -6.907
REMARK CONF_INDEPENDENT:        3.580
REMARK UNBOUND:                -6.907
REMARK  12 active torsions:
REMARK  status: ('A' for Active; 'I' for Inactive)
REMARK    1  A    between atoms: C_2  and  O_3 
REMARK    2  A    between atoms: C_4  and  C_2 
REMARK    3  A    between atoms: C_4  and  C_17 
REMARK    4  A    between atoms: C_4  and  N_5 
REMARK    5  A    between atoms: N_5  and  S_6 
REMARK    6  A    between atoms: S_6  and  C_9 
REMARK    7  A    between atoms: C_17  and  O_19 
REMARK    8  A    between atoms: O_19  and  C_20 
REMARK    9  A    between atoms: C_20  and  C_21 
REMARK       I    between atoms: C_21  and  N_23 
REMARK   10  A    between atoms: N_23  and  C_24 
REMARK   11  A    between atoms: C_24  and  C_25 
REMARK   12  A    between atoms: C_25  and  C_26 
ROOT
ATOM      1  C   UNL d   1      29.970 -15.564  -5.004  0.00  0.00     0.199 C 
ENDROOT
BRANCH   1   2
ATOM      2  C   UNL d   1      28.535 -14.975  -5.125  0.00  0.00     0.280 C 
ATOM      3  O   UNL d   1      28.237 -13.797  -5.263  0.00  0.00    -0.263 OA
BRANCH   2   4
ATOM      4  O   UNL d   1      27.537 -15.889  -5.132  0.00  0.00    -0.311 OA
BRANCH   4   5
ATOM      5  C   UNL d   1      26.292 -15.211  -5.396  0.00  0.00     0.281 C 
BRANCH   5   6
ATOM      6  C   UNL d   1      25.713 -14.681  -4.113  0.00  0.00     0.241 C 
ATOM      7  O   UNL d   1      24.516 -14.435  -3.987  0.00  0.00    -0.271 OA
ATOM      8  N   UNL d   1      26.629 -14.494  -3.093  0.00  0.00    -0.359 N 
ATOM      9  H   UNL d   1      27.620 -14.656  -3.230  0.00  0.00     0.162 HD
BRANCH   8  10
ATOM     10  C   UNL d   1      26.136 -13.972  -1.844  0.00  0.00     0.127 C 
BRANCH  10  11
ATOM     11  C   UNL d   1      26.630 -14.712  -0.599  0.00  0.00     0.053 C 
BRANCH  11  12
ATOM     12  C   UNL d   1      25.921 -16.042  -0.482  0.00  0.00    -0.082 C 
ATOM     13  C   UNL d   1      24.749 -16.234  -1.117  0.00  0.00    -0.024 C 
ATOM     14  C   UNL d   1      24.042 -17.546  -1.193  0.00  0.00     0.027 C 
ATOM     15  C   UNL d   1      24.535 -18.539  -0.148  0.00  0.00     0.004 C 
ATOM     16  C   UNL d   1      26.059 -18.546  -0.067  0.00  0.00     0.005 C 
ATOM     17  C   UNL d   1      26.608 -17.156   0.276  0.00  0.00     0.034 C 
ENDBRANCH  11  12
ENDBRANCH  10  11
ENDBRANCH   8  10
ENDBRANCH   5   6
ENDBRANCH   4   5
ENDBRANCH   2   4
ENDBRANCH   1   2
BRANCH   1  18
ATOM     18  N   UNL d   1      30.608 -15.535  -3.597  0.00  0.00    -0.199 NA
ATOM     19  H   UNL d   1      31.308 -16.261  -3.474  0.00  0.00     0.141 HD
BRANCH  18  20
ATOM     20  S   UNL d   1      29.503 -15.596  -2.303  0.00  0.00     0.242 S 
ATOM     21  O   UNL d   1      29.247 -14.234  -1.892  0.00  0.00    -0.206 OA
ATOM     22  O   UNL d   1      28.491 -16.571  -2.658  0.00  0.00    -0.206 OA
BRANCH  20  23
ATOM     23  C   UNL d   1      30.361 -16.357  -0.979  0.00  0.00     0.076 A 
ATOM     24  C   UNL d   1      30.825 -17.663  -1.135  0.00  0.00     0.026 A 
ATOM     25  C   UNL d   1      31.650 -18.204  -0.158  0.00  0.00     0.027 A 
ATOM     26  C   UNL d   1      32.017 -17.435   0.954  0.00  0.00     0.055 A 
ATOM     27 CL   UNL d   1      33.030 -18.177   2.135  0.00  0.00    -0.083 Cl
ATOM     28  C   UNL d   1      31.571 -16.112   1.079  0.00  0.00     0.057 A 
ATOM     29 CL   UNL d   1      31.980 -15.106   2.419  0.00  0.00    -0.083 Cl
ATOM     30  C   UNL d   1      30.756 -15.562   0.098  0.00  0.00     0.050 A 
ENDBRANCH  20  23
ENDBRANCH  18  20
ENDBRANCH   1  18
BRANCH   1  31
ATOM     31  C   UNL d   1      30.002 -17.017  -5.570  0.00  0.00     0.142 C 
ATOM     32  C   UNL d   1      30.901 -17.230  -6.795  0.00  0.00     0.041 C 
BRANCH  31  33
ATOM     33  O   UNL d   1      30.399 -17.945  -4.551  0.00  0.00    -0.394 OA
ATOM     34  H   UNL d   1      30.084 -17.648  -3.684  0.00  0.00     0.210 HD
ENDBRANCH  31  33
ENDBRANCH   1  31
TORSDOF 12
ENDMDL
