MODEL 1
REMARK VINA RESULT:    -9.025      0.000      0.000
REMARK INTER + INTRA:         -12.787
REMARK INTER:                 -11.411
REMARK INTRA:                  -1.375
REMARK CONF_INDEPENDENT:        2.386
REMARK UNBOUND:                -1.375
REMARK  8 active torsions:
REMARK  status: ('A' for Active; 'I' for Inactive)
REMARK    1  A    between atoms: C_2  and  O_3 
REMARK    2  A    between atoms: O_3  and  C_4 
REMARK    3  A    between atoms: C_6  and  C_7 
REMARK       I    between atoms: C_7  and  N_9 
REMARK    4  A    between atoms: C_12  and  C_13 
REMARK    5  A    between atoms: C_25  and  O_26 
REMARK    6  A    between atoms: O_26  and  C_27 
REMARK    7  A    between atoms: C_29  and  O_30 
REMARK    8  A    between atoms: O_30  and  C_31 
ROOT
ATOM      1  C   UNL d   1      28.137 -13.529  -0.297  0.00  0.00     0.254 C 
ATOM      2  O   UNL d   1      28.704 -12.798  -1.105  0.00  0.00    -0.267 OA
ATOM      3  N   UNL d   1      28.461 -13.459   1.077  0.00  0.00    -0.348 N 
ATOM      4  C   UNL d   1      28.642 -12.154   1.661  0.00  0.00     0.126 C 
ATOM      5  C   UNL d   1      30.087 -11.920   2.139  0.00  0.00     0.028 C 
ATOM      6  C   UNL d   1      30.573 -12.985   3.192  0.00  0.00     0.036 C 
ATOM      7  C   UNL d   1      30.341 -14.370   2.451  0.00  0.00     0.028 C 
ATOM      8  C   UNL d   1      28.915 -14.596   1.872  0.00  0.00     0.126 C 
ENDROOT
BRANCH   1   9
ATOM      9  C   UNL d   1      26.997 -14.421  -0.739  0.00  0.00     0.037 C 
ATOM     10  C   UNL d   1      26.366 -14.265  -2.000  0.00  0.00     0.057 C 
ATOM     11  C   UNL d   1      25.407 -15.197  -2.492  0.00  0.00     0.105 C 
ATOM     12  C   UNL d   1      25.087 -16.304  -1.653  0.00  0.00     0.135 C 
ATOM     13  C   UNL d   1      25.630 -16.385  -0.339  0.00  0.00     0.105 C 
ATOM     14  C   UNL d   1      26.538 -15.426   0.111  0.00  0.00     0.057 C 
BRANCH  11  15
ATOM     15  O   UNL d   1      25.120 -15.021  -3.847  0.00  0.00    -0.349 OA
BRANCH  15  16
ATOM     16  C   UNL d   1      25.928 -14.170  -4.669  0.00  0.00     0.171 C 
ATOM     17  C   UNL d   1      27.179 -14.766  -5.288  0.00  0.00     0.034 C 
ENDBRANCH  15  16
ENDBRANCH  11  15
BRANCH  12  18
ATOM     18  O   UNL d   1      24.386 -17.445  -1.945  0.00  0.00    -0.346 OA
BRANCH  18  19
ATOM     19  C   UNL d   1      23.234 -17.710  -1.248  0.00  0.00     0.171 C 
ATOM     20  C   UNL d   1      22.985 -18.987  -0.505  0.00  0.00     0.034 C 
ENDBRANCH  18  19
ENDBRANCH  12  18
BRANCH  13  21
ATOM     21  O   UNL d   1      25.417 -17.401   0.589  0.00  0.00    -0.349 OA
BRANCH  21  22
ATOM     22  C   UNL d   1      26.552 -18.215   0.914  0.00  0.00     0.171 C 
ATOM     23  C   UNL d   1      27.617 -18.203  -0.144  0.00  0.00     0.034 C 
ENDBRANCH  21  22
ENDBRANCH  13  21
ENDBRANCH   1   9
BRANCH   6  24
ATOM     24  C   UNL d   1      29.835 -12.884   4.557  0.00  0.00     0.303 C 
ATOM     25  N   UNL d   1      30.787 -12.615   5.676  0.00  0.00     0.124 N 
ATOM     26  C   UNL d   1      30.045 -12.708   6.665  0.00  0.00     0.258 C 
ATOM     27  H   UNL d   1      31.533 -13.355   5.585  0.00  0.00     0.320 HD
ATOM     28  C   UNL d   1      28.857 -11.844   7.087  0.00  0.00     0.024 C 
ATOM     29  C   UNL d   1      29.443 -14.072   6.610  0.00  0.00     0.033 C 
ATOM     30  C   UNL d   1      28.253 -12.249   8.212  0.00  0.00    -0.001 C 
ATOM     31  C   UNL d   1      28.753 -13.444   8.850  0.00  0.00     0.001 C 
ATOM     32  C   UNL d   1      29.238 -14.448   8.067  0.00  0.00     0.022 C 
ATOM     33  N   UNL d   1      29.052 -14.093   5.350  0.00  0.00    -0.264 NA
ATOM     34  H   UNL d   1      28.051 -14.188   5.098  0.00  0.00     0.129 HD
ENDBRANCH   6  24
TORSDOF 8
ENDMDL
MODEL 2
REMARK VINA RESULT:    -8.407      2.065      4.122
REMARK INTER + INTRA:         -12.524
REMARK INTER:                 -10.794
REMARK INTRA:                  -1.730
REMARK CONF_INDEPENDENT:        2.386
REMARK UNBOUND:                -1.730
REMARK  8 active torsions:
REMARK  status: ('A' for Active; 'I' for Inactive)
REMARK    1  A    between atoms: C_2  and  O_3 
REMARK    2  A    between atoms: O_3  and  C_4 
REMARK    3  A    between atoms: C_6  and  C_7 
REMARK       I    between atoms: C_7  and  N_9 
REMARK    4  A    between atoms: C_12  and  C_13 
REMARK    5  A    between atoms: C_25  and  O_26 
REMARK    6  A    between atoms: O_26  and  C_27 
REMARK    7  A    between atoms: C_29  and  O_30 
REMARK    8  A    between atoms: O_30  and  C_31 
ROOT
ATOM      1  C   UNL d   1      30.358 -14.638  -1.855  0.00  0.00     0.254 C 
ATOM      2  O   UNL d   1      31.330 -14.344  -2.547  0.00  0.00    -0.267 OA
ATOM      3  N   UNL d   1      30.428 -14.530  -0.447  0.00  0.00    -0.348 N 
ATOM      4  C   UNL d   1      31.074 -13.368   0.108  0.00  0.00     0.126 C 
ATOM      5  C   UNL d   1      32.356 -13.724   0.883  0.00  0.00     0.028 C 
ATOM      6  C   UNL d   1      32.109 -14.740   2.061  0.00  0.00     0.036 C 
ATOM      7  C   UNL d   1      31.410 -15.972   1.344  0.00  0.00     0.028 C 
ATOM      8  C   UNL d   1      30.166 -15.632   0.474  0.00  0.00     0.126 C 
ENDROOT
BRANCH   1   9
ATOM      9  C   UNL d   1      29.037 -14.997  -2.500  0.00  0.00     0.037 C 
ATOM     10  C   UNL d   1      27.873 -15.259  -1.733  0.00  0.00     0.057 C 
ATOM     11  C   UNL d   1      26.592 -15.437  -2.330  0.00  0.00     0.105 C 
ATOM     12  C   UNL d   1      26.520 -15.354  -3.751  0.00  0.00     0.135 C 
ATOM     13  C   UNL d   1      27.711 -15.215  -4.520  0.00  0.00     0.105 C 
ATOM     14  C   UNL d   1      28.948 -15.083  -3.889  0.00  0.00     0.057 C 
BRANCH  11  15
ATOM     15  O   UNL d   1      25.548 -15.404  -1.403  0.00  0.00    -0.349 OA
BRANCH  15  16
ATOM     16  C   UNL d   1      24.655 -16.514  -1.256  0.00  0.00     0.171 C 
ATOM     17  C   UNL d   1      25.115 -17.684  -0.405  0.00  0.00     0.034 C 
ENDBRANCH  15  16
ENDBRANCH  11  15
BRANCH  12  18
ATOM     18  O   UNL d   1      25.420 -15.266  -4.565  0.00  0.00    -0.346 OA
BRANCH  18  19
ATOM     19  C   UNL d   1      24.749 -14.072  -4.642  0.00  0.00     0.171 C 
ATOM     20  C   UNL d   1      25.207 -12.813  -3.972  0.00  0.00     0.034 C 
ENDBRANCH  18  19
ENDBRANCH  12  18
BRANCH  13  21
ATOM     21  O   UNL d   1      27.801 -15.115  -5.906  0.00  0.00    -0.349 OA
BRANCH  21  22
ATOM     22  C   UNL d   1      28.569 -14.017  -6.416  0.00  0.00     0.171 C 
ATOM     23  C   UNL d   1      27.900 -12.685  -6.236  0.00  0.00     0.034 C 
ENDBRANCH  21  22
ENDBRANCH  13  21
ENDBRANCH   1   9
BRANCH   6  24
ATOM     24  C   UNL d   1      31.267 -14.144   3.224  0.00  0.00     0.303 C 
ATOM     25  N   UNL d   1      30.856 -15.197   4.199  0.00  0.00     0.124 N 
ATOM     26  C   UNL d   1      30.099 -14.563   4.950  0.00  0.00     0.258 C 
ATOM     27  H   UNL d   1      30.405 -15.950   3.615  0.00  0.00     0.320 HD
ATOM     28  C   UNL d   1      30.401 -13.400   5.895  0.00  0.00     0.024 C 
ATOM     29  C   UNL d   1      29.026 -13.998   4.081  0.00  0.00     0.033 C 
ATOM     30  C   UNL d   1      29.329 -12.926   6.545  0.00  0.00    -0.001 C 
ATOM     31  C   UNL d   1      28.048 -13.523   6.251  0.00  0.00     0.001 C 
ATOM     32  C   UNL d   1      27.803 -13.954   4.981  0.00  0.00     0.022 C 
ATOM     33  N   UNL d   1      29.766 -13.480   3.120  0.00  0.00    -0.264 NA
ATOM     34  H   UNL d   1      29.764 -12.462   2.926  0.00  0.00     0.129 HD
ENDBRANCH   6  24
TORSDOF 8
ENDMDL
MODEL 3
REMARK VINA RESULT:    -8.019      3.096      9.101
REMARK INTER + INTRA:         -11.788
REMARK INTER:                 -10.405
REMARK INTRA:                  -1.383
REMARK CONF_INDEPENDENT:        2.386
REMARK UNBOUND:                -1.383
REMARK  8 active torsions:
REMARK  status: ('A' for Active; 'I' for Inactive)
REMARK    1  A    between atoms: C_2  and  O_3 
REMARK    2  A    between atoms: O_3  and  C_4 
REMARK    3  A    between atoms: C_6  and  C_7 
REMARK       I    between atoms: C_7  and  N_9 
REMARK    4  A    between atoms: C_12  and  C_13 
REMARK    5  A    between atoms: C_25  and  O_26 
REMARK    6  A    between atoms: O_26  and  C_27 
REMARK    7  A    between atoms: C_29  and  O_30 
REMARK    8  A    between atoms: O_30  and  C_31 
ROOT
ATOM      1  C   UNL d   1      28.713 -14.157   1.998  0.00  0.00     0.254 C 
ATOM      2  O   UNL d   1      29.885 -14.355   1.690  0.00  0.00    -0.267 OA
ATOM      3  N   UNL d   1      27.670 -14.591   1.148  0.00  0.00    -0.348 N 
ATOM      4  C   UNL d   1      27.790 -15.894   0.546  0.00  0.00     0.126 C 
ATOM      5  C   UNL d   1      27.916 -15.822  -0.988  0.00  0.00     0.028 C 
ATOM      6  C   UNL d   1      26.704 -15.089  -1.676  0.00  0.00     0.036 C 
ATOM      7  C   UNL d   1      26.667 -13.676  -0.952  0.00  0.00     0.028 C 
ATOM      8  C   UNL d   1      26.638 -13.714   0.603  0.00  0.00     0.126 C 
ENDROOT
BRANCH   1   9
ATOM      9  C   UNL d   1      28.363 -13.562   3.346  0.00  0.00     0.037 C 
ATOM     10  C   UNL d   1      28.487 -14.305   4.548  0.00  0.00     0.057 C 
ATOM     11  C   UNL d   1      28.318 -13.708   5.832  0.00  0.00     0.105 C 
ATOM     12  C   UNL d   1      28.001 -12.319   5.866  0.00  0.00     0.135 C 
ATOM     13  C   UNL d   1      27.756 -11.612   4.654  0.00  0.00     0.105 C 
ATOM     14  C   UNL d   1      27.898 -12.251   3.422  0.00  0.00     0.057 C 
BRANCH  11  15
ATOM     15  O   UNL d   1      28.751 -14.528   6.876  0.00  0.00    -0.349 OA
BRANCH  15  16
ATOM     16  C   UNL d   1      29.741 -14.075   7.808  0.00  0.00     0.171 C 
ATOM     17  C   UNL d   1      29.272 -13.664   9.192  0.00  0.00     0.034 C 
ENDBRANCH  15  16
ENDBRANCH  11  15
BRANCH  12  18
ATOM     18  O   UNL d   1      27.998 -11.451   6.927  0.00  0.00    -0.346 OA
BRANCH  18  19
ATOM     19  C   UNL d   1      28.976 -10.492   7.000  0.00  0.00     0.171 C 
ATOM     20  C   UNL d   1      30.238 -10.647   7.793  0.00  0.00     0.034 C 
ENDBRANCH  18  19
ENDBRANCH  12  18
BRANCH  13  21
ATOM     21  O   UNL d   1      27.445 -10.261   4.526  0.00  0.00    -0.349 OA
BRANCH  21  22
ATOM     22  C   UNL d   1      27.339  -9.756   3.188  0.00  0.00     0.171 C 
ATOM     23  C   UNL d   1      25.929  -9.719   2.674  0.00  0.00     0.034 C 
ENDBRANCH  21  22
ENDBRANCH  13  21
ENDBRANCH   1   9
BRANCH   6  24
ATOM     24  C   UNL d   1      25.366 -15.873  -1.568  0.00  0.00     0.303 C 
ATOM     25  N   UNL d   1      24.977 -16.100  -0.144  0.00  0.00     0.124 N 
ATOM     26  C   UNL d   1      23.990 -16.841  -0.268  0.00  0.00     0.258 C 
ATOM     27  H   UNL d   1      25.827 -16.532   0.306  0.00  0.00     0.320 HD
ATOM     28  C   UNL d   1      22.625 -16.561  -0.896  0.00  0.00     0.024 C 
ATOM     29  C   UNL d   1      24.455 -18.033  -1.035  0.00  0.00     0.033 C 
ATOM     30  C   UNL d   1      21.790 -17.609  -0.887  0.00  0.00    -0.001 C 
ATOM     31  C   UNL d   1      22.279 -18.853  -0.342  0.00  0.00     0.001 C 
ATOM     32  C   UNL d   1      23.593 -19.170  -0.515  0.00  0.00     0.022 C 
ATOM     33  N   UNL d   1      25.093 -17.430  -2.020  0.00  0.00    -0.264 NA
ATOM     34  H   UNL d   1      24.791 -17.540  -3.005  0.00  0.00     0.129 HD
ENDBRANCH   6  24
TORSDOF 8
ENDMDL
MODEL 4
REMARK VINA RESULT:    -7.722      5.979      8.961
REMARK INTER + INTRA:         -11.575
REMARK INTER:                 -10.109
REMARK INTRA:                  -1.466
REMARK CONF_INDEPENDENT:        2.386
REMARK UNBOUND:                -1.466
REMARK  8 active torsions:
REMARK  status: ('A' for Active; 'I' for Inactive)
REMARK    1  A    between atoms: C_2  and  O_3 
REMARK    2  A    between atoms: O_3  and  C_4 
REMARK    3  A    between atoms: C_6  and  C_7 
REMARK       I    between atoms: C_7  and  N_9 
REMARK    4  A    between atoms: C_12  and  C_13 
REMARK    5  A    between atoms: C_25  and  O_26 
REMARK    6  A    between atoms: O_26  and  C_27 
REMARK    7  A    between atoms: C_29  and  O_30 
REMARK    8  A    between atoms: O_30  and  C_31 
ROOT
ATOM      1  C   UNL d   1      28.853 -15.394  -5.373  0.00  0.00     0.254 C 
ATOM      2  O   UNL d   1      28.932 -14.347  -6.010  0.00  0.00    -0.267 OA
ATOM      3  N   UNL d   1      27.810 -15.582  -4.437  0.00  0.00    -0.348 N 
ATOM      4  C   UNL d   1      26.487 -15.149  -4.807  0.00  0.00     0.126 C 
ATOM      5  C   UNL d   1      25.979 -13.995  -3.922  0.00  0.00     0.028 C 
ATOM      6  C   UNL d   1      25.952 -14.353  -2.389  0.00  0.00     0.036 C 
ATOM      7  C   UNL d   1      27.445 -14.803  -2.089  0.00  0.00     0.028 C 
ATOM      8  C   UNL d   1      28.021 -15.901  -3.028  0.00  0.00     0.126 C 
ENDROOT
BRANCH   1   9
ATOM      9  C   UNL d   1      29.790 -16.545  -5.671  0.00  0.00     0.037 C 
ATOM     10  C   UNL d   1      30.023 -17.584  -4.733  0.00  0.00     0.057 C 
ATOM     11  C   UNL d   1      30.772 -18.752  -5.062  0.00  0.00     0.105 C 
ATOM     12  C   UNL d   1      31.299 -18.835  -6.384  0.00  0.00     0.135 C 
ATOM     13  C   UNL d   1      31.167 -17.733  -7.276  0.00  0.00     0.105 C 
ATOM     14  C   UNL d   1      30.456 -16.595  -6.894  0.00  0.00     0.057 C 
BRANCH  11  15
ATOM     15  O   UNL d   1      30.650 -19.765  -4.109  0.00  0.00    -0.349 OA
BRANCH  15  16
ATOM     16  C   UNL d   1      31.221 -21.061  -4.331  0.00  0.00     0.171 C 
ATOM     17  C   UNL d   1      30.418 -22.271  -3.890  0.00  0.00     0.034 C 
ENDBRANCH  15  16
ENDBRANCH  11  15
BRANCH  12  18
ATOM     18  O   UNL d   1      31.855 -19.905  -7.035  0.00  0.00    -0.346 OA
BRANCH  18  19
ATOM     19  C   UNL d   1      31.205 -20.427  -8.124  0.00  0.00     0.171 C 
ATOM     20  C   UNL d   1      31.894 -20.830  -9.392  0.00  0.00     0.034 C 
ENDBRANCH  18  19
ENDBRANCH  12  18
BRANCH  13  21
ATOM     21  O   UNL d   1      31.621 -17.667  -8.591  0.00  0.00    -0.349 OA
BRANCH  21  22
ATOM     22  C   UNL d   1      32.983 -17.257  -8.774  0.00  0.00     0.171 C 
ATOM     23  C   UNL d   1      33.134 -15.787  -9.040  0.00  0.00     0.034 C 
ENDBRANCH  21  22
ENDBRANCH  13  21
ENDBRANCH   1   9
BRANCH   6  24
ATOM     24  C   UNL d   1      24.896 -15.434  -2.026  0.00  0.00     0.303 C 
ATOM     25  N   UNL d   1      24.781 -15.613  -0.548  0.00  0.00     0.124 N 
ATOM     26  C   UNL d   1      24.016 -16.587  -0.472  0.00  0.00     0.258 C 
ATOM     27  H   UNL d   1      25.768 -15.773  -0.214  0.00  0.00     0.320 HD
ATOM     28  C   UNL d   1      22.552 -16.721  -0.891  0.00  0.00     0.024 C 
ATOM     29  C   UNL d   1      24.668 -17.692  -1.233  0.00  0.00     0.033 C 
ATOM     30  C   UNL d   1      22.031 -17.939  -0.691  0.00  0.00    -0.001 C 
ATOM     31  C   UNL d   1      22.901 -18.962  -0.159  0.00  0.00     0.001 C 
ATOM     32  C   UNL d   1      24.215 -18.954  -0.519  0.00  0.00     0.022 C 
ATOM     33  N   UNL d   1      24.983 -17.046  -2.339  0.00  0.00    -0.264 NA
ATOM     34  H   UNL d   1      24.588 -17.323  -3.256  0.00  0.00     0.129 HD
ENDBRANCH   6  24
TORSDOF 8
ENDMDL
MODEL 5
REMARK VINA RESULT:    -7.704      5.066      6.673
REMARK INTER + INTRA:         -11.496
REMARK INTER:                 -10.091
REMARK INTRA:                  -1.405
REMARK CONF_INDEPENDENT:        2.386
REMARK UNBOUND:                -1.405
REMARK  8 active torsions:
REMARK  status: ('A' for Active; 'I' for Inactive)
REMARK    1  A    between atoms: C_2  and  O_3 
REMARK    2  A    between atoms: O_3  and  C_4 
REMARK    3  A    between atoms: C_6  and  C_7 
REMARK       I    between atoms: C_7  and  N_9 
REMARK    4  A    between atoms: C_12  and  C_13 
REMARK    5  A    between atoms: C_25  and  O_26 
REMARK    6  A    between atoms: O_26  and  C_27 
REMARK    7  A    between atoms: C_29  and  O_30 
REMARK    8  A    between atoms: O_30  and  C_31 
ROOT
ATOM      1  C   UNL d   1      30.768 -17.040  -1.326  0.00  0.00     0.254 C 
ATOM      2  O   UNL d   1      31.647 -16.270  -1.704  0.00  0.00    -0.267 OA
ATOM      3  N   UNL d   1      31.074 -18.079  -0.417  0.00  0.00    -0.348 N 
ATOM      4  C   UNL d   1      31.946 -17.771   0.689  0.00  0.00     0.126 C 
ATOM      5  C   UNL d   1      33.278 -18.541   0.618  0.00  0.00     0.028 C 
ATOM      6  C   UNL d   1      33.090 -20.104   0.578  0.00  0.00     0.036 C 
ATOM      7  C   UNL d   1      32.133 -20.330  -0.667  0.00  0.00     0.028 C 
ATOM      8  C   UNL d   1      30.821 -19.493  -0.672  0.00  0.00     0.126 C 
ENDROOT
BRANCH   1   9
ATOM      9  C   UNL d   1      29.326 -16.814  -1.725  0.00  0.00     0.037 C 
ATOM     10  C   UNL d   1      28.252 -17.063  -0.832  0.00  0.00     0.057 C 
ATOM     11  C   UNL d   1      26.908 -16.701  -1.139  0.00  0.00     0.105 C 
ATOM     12  C   UNL d   1      26.674 -16.081  -2.401  0.00  0.00     0.135 C 
ATOM     13  C   UNL d   1      27.736 -15.950  -3.341  0.00  0.00     0.105 C 
ATOM     14  C   UNL d   1      29.029 -16.355  -3.008  0.00  0.00     0.057 C 
BRANCH  11  15
ATOM     15  O   UNL d   1      26.058 -16.771  -0.034  0.00  0.00    -0.349 OA
BRANCH  15  16
ATOM     16  C   UNL d   1      25.472 -18.015   0.370  0.00  0.00     0.171 C 
ATOM     17  C   UNL d   1      24.145 -18.406  -0.254  0.00  0.00     0.034 C 
ENDBRANCH  15  16
ENDBRANCH  11  15
BRANCH  12  18
ATOM     18  O   UNL d   1      25.552 -15.443  -2.864  0.00  0.00    -0.346 OA
BRANCH  18  19
ATOM     19  C   UNL d   1      25.526 -14.072  -2.867  0.00  0.00     0.171 C 
ATOM     20  C   UNL d   1      25.245 -13.246  -4.084  0.00  0.00     0.034 C 
ENDBRANCH  18  19
ENDBRANCH  12  18
BRANCH  13  21
ATOM     21  O   UNL d   1      27.664 -15.366  -4.603  0.00  0.00    -0.349 OA
BRANCH  21  22
ATOM     22  C   UNL d   1      28.815 -14.624  -5.027  0.00  0.00     0.171 C 
ATOM     23  C   UNL d   1      28.917 -14.481  -6.518  0.00  0.00     0.034 C 
ENDBRANCH  21  22
ENDBRANCH  13  21
ENDBRANCH   1   9
BRANCH   6  24
ATOM     24  C   UNL d   1      32.529 -20.691   1.904  0.00  0.00     0.303 C 
ATOM     25  N   UNL d   1      32.282 -19.622   2.916  0.00  0.00     0.124 N 
ATOM     26  C   UNL d   1      31.981 -20.288   3.918  0.00  0.00     0.258 C 
ATOM     27  H   UNL d   1      33.187 -19.084   2.972  0.00  0.00     0.320 HD
ATOM     28  C   UNL d   1      30.780 -21.200   4.167  0.00  0.00     0.024 C 
ATOM     29  C   UNL d   1      33.133 -21.201   4.175  0.00  0.00     0.033 C 
ATOM     30  C   UNL d   1      30.781 -21.797   5.366  0.00  0.00    -0.001 C 
ATOM     31  C   UNL d   1      31.905 -21.550   6.238  0.00  0.00     0.001 C 
ATOM     32  C   UNL d   1      33.138 -21.380   5.683  0.00  0.00     0.022 C 
ATOM     33  N   UNL d   1      33.314 -21.679   2.958  0.00  0.00    -0.264 NA
ATOM     34  H   UNL d   1      33.207 -22.690   2.755  0.00  0.00     0.129 HD
ENDBRANCH   6  24
TORSDOF 8
ENDMDL
MODEL 6
REMARK VINA RESULT:    -7.696      0.915      3.030
REMARK INTER + INTRA:         -11.570
REMARK INTER:                 -10.083
REMARK INTRA:                  -1.487
REMARK CONF_INDEPENDENT:        2.386
REMARK UNBOUND:                -1.487
REMARK  8 active torsions:
REMARK  status: ('A' for Active; 'I' for Inactive)
REMARK    1  A    between atoms: C_2  and  O_3 
REMARK    2  A    between atoms: O_3  and  C_4 
REMARK    3  A    between atoms: C_6  and  C_7 
REMARK       I    between atoms: C_7  and  N_9 
REMARK    4  A    between atoms: C_12  and  C_13 
REMARK    5  A    between atoms: C_25  and  O_26 
REMARK    6  A    between atoms: O_26  and  C_27 
REMARK    7  A    between atoms: C_29  and  O_30 
REMARK    8  A    between atoms: O_30  and  C_31 
ROOT
ATOM      1  C   UNL d   1      27.369 -12.725  -0.073  0.00  0.00     0.254 C 
ATOM      2  O   UNL d   1      27.285 -11.638  -0.638  0.00  0.00    -0.267 OA
ATOM      3  N   UNL d   1      28.041 -12.832   1.167  0.00  0.00    -0.348 N 
ATOM      4  C   UNL d   1      27.813 -11.802   2.148  0.00  0.00     0.126 C 
ATOM      5  C   UNL d   1      29.086 -10.990   2.451  0.00  0.00     0.028 C 
ATOM      6  C   UNL d   1      30.284 -11.877   2.960  0.00  0.00     0.036 C 
ATOM      7  C   UNL d   1      30.453 -12.962   1.813  0.00  0.00     0.028 C 
ATOM      8  C   UNL d   1      29.162 -13.733   1.416  0.00  0.00     0.126 C 
ENDROOT
BRANCH   1   9
ATOM      9  C   UNL d   1      26.650 -13.935  -0.627  0.00  0.00     0.037 C 
ATOM     10  C   UNL d   1      26.605 -15.168   0.075  0.00  0.00     0.057 C 
ATOM     11  C   UNL d   1      25.797 -16.260  -0.358  0.00  0.00     0.105 C 
ATOM     12  C   UNL d   1      25.035 -16.073  -1.548  0.00  0.00     0.135 C 
ATOM     13  C   UNL d   1      25.183 -14.881  -2.312  0.00  0.00     0.105 C 
ATOM     14  C   UNL d   1      26.016 -13.854  -1.866  0.00  0.00     0.057 C 
BRANCH  11  15
ATOM     15  O   UNL d   1      25.675 -17.263   0.606  0.00  0.00    -0.349 OA
BRANCH  15  16
ATOM     16  C   UNL d   1      26.698 -18.252   0.778  0.00  0.00     0.171 C 
ATOM     17  C   UNL d   1      27.901 -18.191  -0.145  0.00  0.00     0.034 C 
ENDBRANCH  15  16
ENDBRANCH  11  15
BRANCH  12  18
ATOM     18  O   UNL d   1      24.029 -16.845  -2.068  0.00  0.00    -0.346 OA
BRANCH  18  19
ATOM     19  C   UNL d   1      23.640 -17.971  -1.387  0.00  0.00     0.171 C 
ATOM     20  C   UNL d   1      22.642 -17.967  -0.270  0.00  0.00     0.034 C 
ENDBRANCH  18  19
ENDBRANCH  12  18
BRANCH  13  21
ATOM     21  O   UNL d   1      24.508 -14.554  -3.485  0.00  0.00    -0.349 OA
BRANCH  21  22
ATOM     22  C   UNL d   1      25.319 -14.126  -4.587  0.00  0.00     0.171 C 
ATOM     23  C   UNL d   1      26.366 -15.127  -4.983  0.00  0.00     0.034 C 
ENDBRANCH  21  22
ENDBRANCH  13  21
ENDBRANCH   1   9
BRANCH   6  24
ATOM     24  C   UNL d   1      30.039 -12.496   4.364  0.00  0.00     0.303 C 
ATOM     25  N   UNL d   1      28.772 -11.993   4.972  0.00  0.00     0.124 N 
ATOM     26  C   UNL d   1      28.828 -12.480   6.112  0.00  0.00     0.258 C 
ATOM     27  H   UNL d   1      28.839 -10.942   4.914  0.00  0.00     0.320 HD
ATOM     28  C   UNL d   1      28.798 -13.941   6.558  0.00  0.00     0.024 C 
ATOM     29  C   UNL d   1      30.102 -11.989   6.713  0.00  0.00     0.033 C 
ATOM     30  C   UNL d   1      28.910 -14.115   7.882  0.00  0.00    -0.001 C 
ATOM     31  C   UNL d   1      29.084 -12.940   8.701  0.00  0.00     0.001 C 
ATOM     32  C   UNL d   1      29.799 -11.894   8.199  0.00  0.00     0.022 C 
ATOM     33  N   UNL d   1      30.933 -12.251   5.723  0.00  0.00    -0.264 NA
ATOM     34  H   UNL d   1      31.719 -12.916   5.840  0.00  0.00     0.129 HD
ENDBRANCH   6  24
TORSDOF 8
ENDMDL
MODEL 7
REMARK VINA RESULT:    -7.608      4.633      8.804
REMARK INTER + INTRA:         -11.543
REMARK INTER:                  -9.994
REMARK INTRA:                  -1.549
REMARK CONF_INDEPENDENT:        2.386
REMARK UNBOUND:                -1.549
REMARK  8 active torsions:
REMARK  status: ('A' for Active; 'I' for Inactive)
REMARK    1  A    between atoms: C_2  and  O_3 
REMARK    2  A    between atoms: O_3  and  C_4 
REMARK    3  A    between atoms: C_6  and  C_7 
REMARK       I    between atoms: C_7  and  N_9 
REMARK    4  A    between atoms: C_12  and  C_13 
REMARK    5  A    between atoms: C_25  and  O_26 
REMARK    6  A    between atoms: O_26  and  C_27 
REMARK    7  A    between atoms: C_29  and  O_30 
REMARK    8  A    between atoms: O_30  and  C_31 
ROOT
ATOM      1  C   UNL d   1      26.558 -14.015  -3.985  0.00  0.00     0.254 C 
ATOM      2  O   UNL d   1      27.178 -14.571  -4.887  0.00  0.00    -0.267 OA
ATOM      3  N   UNL d   1      26.164 -12.664  -4.119  0.00  0.00    -0.348 N 
ATOM      4  C   UNL d   1      25.636 -12.240  -5.392  0.00  0.00     0.126 C 
ATOM      5  C   UNL d   1      26.538 -11.200  -6.083  0.00  0.00     0.028 C 
ATOM      6  C   UNL d   1      26.780  -9.910  -5.213  0.00  0.00     0.036 C 
ATOM      7  C   UNL d   1      27.363 -10.486  -3.853  0.00  0.00     0.028 C 
ATOM      8  C   UNL d   1      26.523 -11.607  -3.178  0.00  0.00     0.126 C 
ENDROOT
BRANCH   1   9
ATOM      9  C   UNL d   1      26.097 -14.798  -2.774  0.00  0.00     0.037 C 
ATOM     10  C   UNL d   1      25.154 -15.853  -2.878  0.00  0.00     0.057 C 
ATOM     11  C   UNL d   1      24.837 -16.700  -1.776  0.00  0.00     0.105 C 
ATOM     12  C   UNL d   1      25.500 -16.438  -0.542  0.00  0.00     0.135 C 
ATOM     13  C   UNL d   1      26.348 -15.301  -0.415  0.00  0.00     0.105 C 
ATOM     14  C   UNL d   1      26.599 -14.479  -1.514  0.00  0.00     0.057 C 
BRANCH  11  15
ATOM     15  O   UNL d   1      24.112 -17.833  -2.150  0.00  0.00    -0.349 OA
BRANCH  15  16
ATOM     16  C   UNL d   1      23.189 -18.453  -1.246  0.00  0.00     0.171 C 
ATOM     17  C   UNL d   1      22.207 -17.556  -0.514  0.00  0.00     0.034 C 
ENDBRANCH  15  16
ENDBRANCH  11  15
BRANCH  12  18
ATOM     18  O   UNL d   1      25.559 -17.201   0.595  0.00  0.00    -0.346 OA
BRANCH  18  19
ATOM     19  C   UNL d   1      26.514 -18.182   0.684  0.00  0.00     0.171 C 
ATOM     20  C   UNL d   1      27.765 -18.204  -0.140  0.00  0.00     0.034 C 
ENDBRANCH  18  19
ENDBRANCH  12  18
BRANCH  13  21
ATOM     21  O   UNL d   1      27.065 -14.919   0.717  0.00  0.00    -0.349 OA
BRANCH  21  22
ATOM     22  C   UNL d   1      27.119 -13.513   0.990  0.00  0.00     0.171 C 
ATOM     23  C   UNL d   1      26.896 -13.177   2.437  0.00  0.00     0.034 C 
ENDBRANCH  21  22
ENDBRANCH  13  21
ENDBRANCH   1   9
BRANCH   6  24
ATOM     24  C   UNL d   1      25.501  -9.047  -5.020  0.00  0.00     0.303 C 
ATOM     25  N   UNL d   1      25.406  -7.971  -6.051  0.00  0.00     0.124 N 
ATOM     26  C   UNL d   1      24.424  -7.326  -5.651  0.00  0.00     0.258 C 
ATOM     27  H   UNL d   1      26.334  -7.472  -6.012  0.00  0.00     0.320 HD
ATOM     28  C   UNL d   1      22.958  -7.742  -5.536  0.00  0.00     0.024 C 
ATOM     29  C   UNL d   1      24.745  -6.896  -4.259  0.00  0.00     0.033 C 
ATOM     30  C   UNL d   1      22.156  -6.795  -5.030  0.00  0.00    -0.001 C 
ATOM     31  C   UNL d   1      22.761  -5.548  -4.626  0.00  0.00     0.001 C 
ATOM     32  C   UNL d   1      24.018  -5.571  -4.103  0.00  0.00     0.022 C 
ATOM     33  N   UNL d   1      25.166  -8.043  -3.762  0.00  0.00    -0.264 NA
ATOM     34  H   UNL d   1      24.676  -8.501  -2.972  0.00  0.00     0.129 HD
ENDBRANCH   6  24
TORSDOF 8
ENDMDL
MODEL 8
REMARK VINA RESULT:    -7.546      2.379      3.515
REMARK INTER + INTRA:         -11.401
REMARK INTER:                  -9.932
REMARK INTRA:                  -1.469
REMARK CONF_INDEPENDENT:        2.386
REMARK UNBOUND:                -1.469
REMARK  8 active torsions:
REMARK  status: ('A' for Active; 'I' for Inactive)
REMARK    1  A    between atoms: C_2  and  O_3 
REMARK    2  A    between atoms: O_3  and  C_4 
REMARK    3  A    between atoms: C_6  and  C_7 
REMARK       I    between atoms: C_7  and  N_9 
REMARK    4  A    between atoms: C_12  and  C_13 
REMARK    5  A    between atoms: C_25  and  O_26 
REMARK    6  A    between atoms: O_26  and  C_27 
REMARK    7  A    between atoms: C_29  and  O_30 
REMARK    8  A    between atoms: O_30  and  C_31 
ROOT
ATOM      1  C   UNL d   1      31.093 -13.939  -1.666  0.00  0.00     0.254 C 
ATOM      2  O   UNL d   1      32.194 -13.521  -2.013  0.00  0.00    -0.267 OA
ATOM      3  N   UNL d   1      30.789 -14.093  -0.294  0.00  0.00    -0.348 N 
ATOM      4  C   UNL d   1      31.209 -13.052   0.610  0.00  0.00     0.126 C 
ATOM      5  C   UNL d   1      32.263 -13.542   1.620  0.00  0.00     0.028 C 
ATOM      6  C   UNL d   1      31.770 -14.759   2.490  0.00  0.00     0.036 C 
ATOM      7  C   UNL d   1      31.345 -15.839   1.407  0.00  0.00     0.028 C 
ATOM      8  C   UNL d   1      30.354 -15.347   0.314  0.00  0.00     0.126 C 
ENDROOT
BRANCH   1   9
ATOM      9  C   UNL d   1      30.004 -14.175  -2.691  0.00  0.00     0.037 C 
ATOM     10  C   UNL d   1      30.138 -13.754  -4.039  0.00  0.00     0.057 C 
ATOM     11  C   UNL d   1      29.195 -14.113  -5.046  0.00  0.00     0.105 C 
ATOM     12  C   UNL d   1      28.085 -14.911  -4.641  0.00  0.00     0.135 C 
ATOM     13  C   UNL d   1      27.893 -15.223  -3.265  0.00  0.00     0.105 C 
ATOM     14  C   UNL d   1      28.826 -14.816  -2.311  0.00  0.00     0.057 C 
BRANCH  11  15
ATOM     15  O   UNL d   1      29.647 -13.844  -6.339  0.00  0.00    -0.349 OA
BRANCH  15  16
ATOM     16  C   UNL d   1      30.610 -14.692  -6.976  0.00  0.00     0.171 C 
ATOM     17  C   UNL d   1      30.437 -16.193  -6.831  0.00  0.00     0.034 C 
ENDBRANCH  15  16
ENDBRANCH  11  15
BRANCH  12  18
ATOM     18  O   UNL d   1      27.163 -15.574  -5.409  0.00  0.00    -0.346 OA
BRANCH  18  19
ATOM     19  C   UNL d   1      25.834 -15.275  -5.250  0.00  0.00     0.171 C 
ATOM     20  C   UNL d   1      25.333 -14.001  -4.641  0.00  0.00     0.034 C 
ENDBRANCH  18  19
ENDBRANCH  12  18
BRANCH  13  21
ATOM     21  O   UNL d   1      26.867 -15.991  -2.721  0.00  0.00    -0.349 OA
BRANCH  21  22
ATOM     22  C   UNL d   1      26.246 -15.475  -1.536  0.00  0.00     0.171 C 
ATOM     23  C   UNL d   1      26.527 -16.294  -0.309  0.00  0.00     0.034 C 
ENDBRANCH  21  22
ENDBRANCH  13  21
ENDBRANCH   1   9
BRANCH   6  24
ATOM     24  C   UNL d   1      30.627 -14.390   3.476  0.00  0.00     0.303 C 
ATOM     25  N   UNL d   1      30.959 -13.168   4.268  0.00  0.00     0.124 N 
ATOM     26  C   UNL d   1      30.014 -13.123   5.070  0.00  0.00     0.258 C 
ATOM     27  H   UNL d   1      31.910 -13.361   4.682  0.00  0.00     0.320 HD
ATOM     28  C   UNL d   1      28.523 -12.903   4.819  0.00  0.00     0.024 C 
ATOM     29  C   UNL d   1      30.027 -14.421   5.804  0.00  0.00     0.033 C 
ATOM     30  C   UNL d   1      27.767 -12.943   5.925  0.00  0.00    -0.001 C 
ATOM     31  C   UNL d   1      28.425 -13.224   7.178  0.00  0.00     0.001 C 
ATOM     32  C   UNL d   1      29.489 -14.076   7.182  0.00  0.00     0.022 C 
ATOM     33  N   UNL d   1      30.132 -15.253   4.785  0.00  0.00    -0.264 NA
ATOM     34  H   UNL d   1      29.394 -15.951   4.580  0.00  0.00     0.129 HD
ENDBRANCH   6  24
TORSDOF 8
ENDMDL
MODEL 9
REMARK VINA RESULT:    -7.421      1.751      2.976
REMARK INTER + INTRA:         -11.246
REMARK INTER:                  -9.808
REMARK INTRA:                  -1.439
REMARK CONF_INDEPENDENT:        2.386
REMARK UNBOUND:                -1.439
REMARK  8 active torsions:
REMARK  status: ('A' for Active; 'I' for Inactive)
REMARK    1  A    between atoms: C_2  and  O_3 
REMARK    2  A    between atoms: O_3  and  C_4 
REMARK    3  A    between atoms: C_6  and  C_7 
REMARK       I    between atoms: C_7  and  N_9 
REMARK    4  A    between atoms: C_12  and  C_13 
REMARK    5  A    between atoms: C_25  and  O_26 
REMARK    6  A    between atoms: O_26  and  C_27 
REMARK    7  A    between atoms: C_29  and  O_30 
REMARK    8  A    between atoms: O_30  and  C_31 
ROOT
ATOM      1  C   UNL d   1      28.703 -15.108   0.783  0.00  0.00     0.254 C 
ATOM      2  O   UNL d   1      29.629 -15.824   0.412  0.00  0.00    -0.267 OA
ATOM      3  N   UNL d   1      28.774 -14.441   2.028  0.00  0.00    -0.348 N 
ATOM      4  C   UNL d   1      30.026 -13.830   2.395  0.00  0.00     0.126 C 
ATOM      5  C   UNL d   1      30.661 -14.493   3.632  0.00  0.00     0.028 C 
ATOM      6  C   UNL d   1      29.728 -14.467   4.900  0.00  0.00     0.036 C 
ATOM      7  C   UNL d   1      28.395 -15.165   4.392  0.00  0.00     0.028 C 
ATOM      8  C   UNL d   1      27.780 -14.579   3.088  0.00  0.00     0.126 C 
ENDROOT
BRANCH   1   9
ATOM      9  C   UNL d   1      27.535 -14.826  -0.137  0.00  0.00     0.037 C 
ATOM     10  C   UNL d   1      27.302 -13.536  -0.680  0.00  0.00     0.057 C 
ATOM     11  C   UNL d   1      26.306 -13.297  -1.672  0.00  0.00     0.105 C 
ATOM     12  C   UNL d   1      25.530 -14.414  -2.096  0.00  0.00     0.135 C 
ATOM     13  C   UNL d   1      25.686 -15.677  -1.456  0.00  0.00     0.105 C 
ATOM     14  C   UNL d   1      26.650 -15.852  -0.463  0.00  0.00     0.057 C 
BRANCH  11  15
ATOM     15  O   UNL d   1      26.423 -12.041  -2.271  0.00  0.00    -0.349 OA
BRANCH  15  16
ATOM     16  C   UNL d   1      26.881 -11.907  -3.622  0.00  0.00     0.171 C 
ATOM     17  C   UNL d   1      26.101 -10.988  -4.544  0.00  0.00     0.034 C 
ENDBRANCH  15  16
ENDBRANCH  11  15
BRANCH  12  18
ATOM     18  O   UNL d   1      24.676 -14.528  -3.162  0.00  0.00    -0.346 OA
BRANCH  18  19
ATOM     19  C   UNL d   1      25.181 -14.400  -4.431  0.00  0.00     0.171 C 
ATOM     20  C   UNL d   1      26.338 -15.197  -4.951  0.00  0.00     0.034 C 
ENDBRANCH  18  19
ENDBRANCH  12  18
BRANCH  13  21
ATOM     21  O   UNL d   1      25.008 -16.855  -1.761  0.00  0.00    -0.349 OA
BRANCH  21  22
ATOM     22  C   UNL d   1      23.812 -17.113  -1.012  0.00  0.00     0.171 C 
ATOM     23  C   UNL d   1      23.565 -18.573  -0.767  0.00  0.00     0.034 C 
ENDBRANCH  21  22
ENDBRANCH  13  21
ENDBRANCH   1   9
BRANCH   6  24
ATOM     24  C   UNL d   1      29.499 -13.039   5.468  0.00  0.00     0.303 C 
ATOM     25  N   UNL d   1      30.789 -12.310   5.654  0.00  0.00     0.124 N 
ATOM     26  C   UNL d   1      30.413 -11.277   6.231  0.00  0.00     0.258 C 
ATOM     27  H   UNL d   1      31.393 -12.963   6.221  0.00  0.00     0.320 HD
ATOM     28  C   UNL d   1      29.515 -10.146   5.732  0.00  0.00     0.024 C 
ATOM     29  C   UNL d   1      29.710 -11.722   7.469  0.00  0.00     0.033 C 
ATOM     30  C   UNL d   1      29.287  -9.185   6.638  0.00  0.00    -0.001 C 
ATOM     31  C   UNL d   1      29.864  -9.349   7.951  0.00  0.00     0.001 C 
ATOM     32  C   UNL d   1      29.969 -10.606   8.466  0.00  0.00     0.022 C 
ATOM     33  N   UNL d   1      28.921 -12.648   6.957  0.00  0.00    -0.264 NA
ATOM     34  H   UNL d   1      27.889 -12.562   7.004  0.00  0.00     0.129 HD
ENDBRANCH   6  24
TORSDOF 8
ENDMDL
