MODEL 1
REMARK VINA RESULT:   -29.542      0.000      0.000
REMARK INTER + INTRA:         -33.023
REMARK INTER:                 -31.630
REMARK INTRA:                  -1.393
REMARK CONF_INDEPENDENT:        2.088
REMARK UNBOUND:                -1.393
REMARK  7 active torsions:
REMARK  status: ('A' for Active; 'I' for Inactive)
REMARK    1  A    between atoms: C_7  and  N_8 
REMARK       I    between atoms: N_8  and  C_9 
REMARK    2  A    between atoms: C_9  and  C_11 
REMARK    3  A    between atoms: C_11  and  N_12 
REMARK    4  A    between atoms: N_15  and  C_16 
REMARK    5  A    between atoms: C_16  and  C_17 
REMARK    6  A    between atoms: C_25  and  C_26 
REMARK       I    between atoms: C_26  and  N_28 
REMARK    7  A    between atoms: N_28  and  N_29 
ROOT
ATOM      1  N   UNL d   1      25.702 -14.785  -2.641  0.00  0.00    -0.283 N 
ATOM      2  C   UNL d   1      27.086 -14.811  -2.544  0.00  0.00     0.333 C 
ATOM      3  O   UNL d   1      27.720 -14.229  -3.430  0.00  0.00    -0.246 OA
ATOM      4  N   UNL d   1      27.677 -15.453  -1.454  0.00  0.00    -0.265 N 
ATOM      5  C   UNL d   1      27.054 -16.361  -0.615  0.00  0.00     0.265 C 
ATOM      6  O   UNL d   1      27.661 -17.006   0.235  0.00  0.00    -0.267 OA
ATOM      7  C   UNL d   1      25.652 -16.507  -0.813  0.00  0.00     0.074 A 
ATOM      8  C   UNL d   1      24.755 -17.408  -0.090  0.00  0.00    -0.021 A 
ATOM      9  C   UNL d   1      25.181 -18.302   0.980  0.00  0.00     0.051 C 
ATOM     10  C   UNL d   1      23.441 -17.348  -0.497  0.00  0.00     0.083 A 
ATOM     11  S   UNL d   1      23.439 -16.180  -1.649  0.00  0.00    -0.065 SA
ATOM     12  C   UNL d   1      25.042 -15.732  -1.763  0.00  0.00     0.098 A 
ENDROOT
BRANCH   1  13
ATOM     13  C   UNL d   1      25.263 -13.769  -3.778  0.00  0.00     0.237 C 
BRANCH  13  14
ATOM     14  C   UNL d   1      25.568 -12.354  -3.498  0.00  0.00     0.240 C 
ATOM     15  N   UNL d   1      25.532 -11.183  -4.143  0.00  0.00    -0.325 N 
ATOM     16  H   UNL d   1      25.138 -11.134  -5.072  0.00  0.00     0.169 HD
ATOM     17  O   UNL d   1      25.861 -12.278  -2.328  0.00  0.00    -0.271 OA
BRANCH  15  18
ATOM     18  C   UNL d   1      25.956  -9.917  -3.495  0.00  0.00     0.040 A 
ATOM     19  C   UNL d   1      26.965 -10.021  -2.552  0.00  0.00     0.030 A 
ATOM     20  C   UNL d   1      27.439  -8.883  -1.865  0.00  0.00     0.002 A 
ATOM     21  C   UNL d   1      26.925  -7.607  -2.082  0.00  0.00     0.001 A 
ATOM     22  C   UNL d   1      25.937  -7.454  -3.002  0.00  0.00     0.009 A 
ATOM     23  C   UNL d   1      25.469  -8.573  -3.690  0.00  0.00    -0.035 A 
ATOM     24  C   UNL d   1      24.425  -8.101  -4.617  0.00  0.00     0.050 C 
ENDBRANCH  15  18
ENDBRANCH  13  14
ENDBRANCH   1  13
BRANCH   4  25
ATOM     25  C   UNL d   1      29.095 -15.352  -1.154  0.00  0.00     0.141 C 
BRANCH  25  26
ATOM     26  C   UNL d   1      29.904 -16.608  -1.392  0.00  0.00    -0.004 C 
ATOM     27  C   UNL d   1      30.093 -16.842  -2.900  0.00  0.00     0.011 C 
ATOM     28  C   UNL d   1      31.258 -16.527  -0.722  0.00  0.00     0.011 C 
ENDBRANCH  25  26
ENDBRANCH   4  25
BRANCH  10  29
ATOM     29  C   UNL d   1      22.183 -18.030  -0.111  0.00  0.00     0.273 C 
ATOM     30  O   UNL d   1      21.978 -18.595   0.969  0.00  0.00    -0.266 OA
ATOM     31  N   UNL d   1      21.177 -18.026  -1.084  0.00  0.00    -0.289 N 
ATOM     32  H   UNL d   1      21.307 -17.529  -1.944  0.00  0.00     0.183 HD
BRANCH  31  33
ATOM     33  N   UNL d   1      19.899 -18.577  -0.895  0.00  0.00    -0.247 NA
ATOM     34  H   UNL d   1      19.208 -17.910  -1.253  0.00  0.00     0.143 HD
ATOM     35  H   UNL d   1      19.735 -18.643   0.111  0.00  0.00     0.143 HD
ENDBRANCH  31  33
ENDBRANCH  10  29
TORSDOF 7
ENDMDL
MODEL 2
REMARK VINA RESULT:   -29.267      2.608      3.752
REMARK INTER + INTRA:         -33.440
REMARK INTER:                 -31.355
REMARK INTRA:                  -2.085
REMARK CONF_INDEPENDENT:        2.088
REMARK UNBOUND:                -2.085
REMARK  7 active torsions:
REMARK  status: ('A' for Active; 'I' for Inactive)
REMARK    1  A    between atoms: C_7  and  N_8 
REMARK       I    between atoms: N_8  and  C_9 
REMARK    2  A    between atoms: C_9  and  C_11 
REMARK    3  A    between atoms: C_11  and  N_12 
REMARK    4  A    between atoms: N_15  and  C_16 
REMARK    5  A    between atoms: C_16  and  C_17 
REMARK    6  A    between atoms: C_25  and  C_26 
REMARK       I    between atoms: C_26  and  N_28 
REMARK    7  A    between atoms: N_28  and  N_29 
ROOT
ATOM      1  N   UNL d   1      25.613 -14.319  -1.903  0.00  0.00    -0.283 N 
ATOM      2  C   UNL d   1      26.947 -14.169  -1.554  0.00  0.00     0.333 C 
ATOM      3  O   UNL d   1      27.599 -13.328  -2.179  0.00  0.00    -0.246 OA
ATOM      4  N   UNL d   1      27.466 -14.941  -0.511  0.00  0.00    -0.265 N 
ATOM      5  C   UNL d   1      26.889 -16.086   0.011  0.00  0.00     0.265 C 
ATOM      6  O   UNL d   1      27.461 -16.806   0.824  0.00  0.00    -0.267 OA
ATOM      7  C   UNL d   1      25.584 -16.383  -0.471  0.00  0.00     0.074 A 
ATOM      8  C   UNL d   1      24.758 -17.535  -0.111  0.00  0.00    -0.021 A 
ATOM      9  C   UNL d   1      25.163 -18.569   0.833  0.00  0.00     0.051 C 
ATOM     10  C   UNL d   1      23.534 -17.575  -0.740  0.00  0.00     0.083 A 
ATOM     11  S   UNL d   1      23.505 -16.199  -1.634  0.00  0.00    -0.065 SA
ATOM     12  C   UNL d   1      25.002 -15.515  -1.357  0.00  0.00     0.098 A 
ENDROOT
BRANCH   1  13
ATOM     13  C   UNL d   1      25.185 -13.155  -2.892  0.00  0.00     0.237 C 
BRANCH  13  14
ATOM     14  C   UNL d   1      26.005 -13.043  -4.112  0.00  0.00     0.240 C 
ATOM     15  N   UNL d   1      27.116 -12.412  -4.509  0.00  0.00    -0.325 N 
ATOM     16  H   UNL d   1      27.660 -11.887  -3.839  0.00  0.00     0.169 HD
ATOM     17  O   UNL d   1      25.540 -13.806  -4.925  0.00  0.00    -0.271 OA
BRANCH  15  18
ATOM     18  C   UNL d   1      27.642 -12.543  -5.890  0.00  0.00     0.040 A 
ATOM     19  C   UNL d   1      27.441 -11.457  -6.726  0.00  0.00     0.030 A 
ATOM     20  C   UNL d   1      27.890 -11.476  -8.064  0.00  0.00     0.002 A 
ATOM     21  C   UNL d   1      28.544 -12.572  -8.621  0.00  0.00     0.001 A 
ATOM     22  C   UNL d   1      28.768 -13.660  -7.838  0.00  0.00     0.009 A 
ATOM     23  C   UNL d   1      28.334 -13.645  -6.513  0.00  0.00    -0.035 A 
ATOM     24  C   UNL d   1      28.725 -14.936  -5.919  0.00  0.00     0.050 C 
ENDBRANCH  15  18
ENDBRANCH  13  14
ENDBRANCH   1  13
BRANCH   4  25
ATOM     25  C   UNL d   1      28.779 -14.707   0.064  0.00  0.00     0.141 C 
BRANCH  25  26
ATOM     26  C   UNL d   1      28.835 -13.672   1.166  0.00  0.00    -0.004 C 
ATOM     27  C   UNL d   1      28.005 -12.437   0.780  0.00  0.00     0.011 C 
ATOM     28  C   UNL d   1      28.325 -14.232   2.475  0.00  0.00     0.011 C 
ENDBRANCH  25  26
ENDBRANCH   4  25
BRANCH  10  29
ATOM     29  C   UNL d   1      22.371 -18.495  -0.732  0.00  0.00     0.273 C 
ATOM     30  O   UNL d   1      22.431 -19.722  -0.595  0.00  0.00    -0.266 OA
ATOM     31  N   UNL d   1      21.125 -17.885  -0.917  0.00  0.00    -0.289 N 
ATOM     32  H   UNL d   1      21.054 -16.888  -0.979  0.00  0.00     0.183 HD
BRANCH  31  33
ATOM     33  N   UNL d   1      19.902 -18.575  -0.895  0.00  0.00    -0.247 NA
ATOM     34  H   UNL d   1      20.066 -19.526  -1.240  0.00  0.00     0.143 HD
ATOM     35  H   UNL d   1      19.282 -18.129  -1.574  0.00  0.00     0.143 HD
ENDBRANCH  31  33
ENDBRANCH  10  29
TORSDOF 7
ENDMDL
MODEL 3
REMARK VINA RESULT:   -29.162      2.643      3.486
REMARK INTER + INTRA:         -33.310
REMARK INTER:                 -31.250
REMARK INTRA:                  -2.060
REMARK CONF_INDEPENDENT:        2.088
REMARK UNBOUND:                -2.060
REMARK  7 active torsions:
REMARK  status: ('A' for Active; 'I' for Inactive)
REMARK    1  A    between atoms: C_7  and  N_8 
REMARK       I    between atoms: N_8  and  C_9 
REMARK    2  A    between atoms: C_9  and  C_11 
REMARK    3  A    between atoms: C_11  and  N_12 
REMARK    4  A    between atoms: N_15  and  C_16 
REMARK    5  A    between atoms: C_16  and  C_17 
REMARK    6  A    between atoms: C_25  and  C_26 
REMARK       I    between atoms: C_26  and  N_28 
REMARK    7  A    between atoms: N_28  and  N_29 
ROOT
ATOM      1  N   UNL d   1      25.589 -14.267  -1.845  0.00  0.00    -0.283 N 
ATOM      2  C   UNL d   1      26.912 -14.097  -1.467  0.00  0.00     0.333 C 
ATOM      3  O   UNL d   1      27.568 -13.253  -2.086  0.00  0.00    -0.246 OA
ATOM      4  N   UNL d   1      27.415 -14.851  -0.404  0.00  0.00    -0.265 N 
ATOM      5  C   UNL d   1      26.841 -15.998   0.116  0.00  0.00     0.265 C 
ATOM      6  O   UNL d   1      27.402 -16.703   0.950  0.00  0.00    -0.267 OA
ATOM      7  C   UNL d   1      25.551 -16.316  -0.393  0.00  0.00     0.074 A 
ATOM      8  C   UNL d   1      24.731 -17.475  -0.041  0.00  0.00    -0.021 A 
ATOM      9  C   UNL d   1      25.127 -18.494   0.924  0.00  0.00     0.051 C 
ATOM     10  C   UNL d   1      23.523 -17.537  -0.697  0.00  0.00     0.083 A 
ATOM     11  S   UNL d   1      23.498 -16.170  -1.606  0.00  0.00    -0.065 SA
ATOM     12  C   UNL d   1      24.979 -15.465  -1.301  0.00  0.00     0.098 A 
ENDROOT
BRANCH   1  13
ATOM     13  C   UNL d   1      25.169 -13.119  -2.856  0.00  0.00     0.237 C 
BRANCH  13  14
ATOM     14  C   UNL d   1      26.015 -13.010  -4.060  0.00  0.00     0.240 C 
ATOM     15  N   UNL d   1      27.121 -12.364  -4.443  0.00  0.00    -0.325 N 
ATOM     16  H   UNL d   1      27.640 -11.817  -3.769  0.00  0.00     0.169 HD
ATOM     17  O   UNL d   1      25.583 -13.796  -4.869  0.00  0.00    -0.271 OA
BRANCH  15  18
ATOM     18  C   UNL d   1      27.681 -12.508  -5.809  0.00  0.00     0.040 A 
ATOM     19  C   UNL d   1      28.545 -13.572  -6.006  0.00  0.00     0.030 A 
ATOM     20  C   UNL d   1      29.146 -13.799  -7.263  0.00  0.00     0.002 A 
ATOM     21  C   UNL d   1      28.919 -12.975  -8.362  0.00  0.00     0.001 A 
ATOM     22  C   UNL d   1      28.076 -11.919  -8.219  0.00  0.00     0.009 A 
ATOM     23  C   UNL d   1      27.472 -11.694  -6.982  0.00  0.00    -0.035 A 
ATOM     24  C   UNL d   1      26.613 -10.507  -7.134  0.00  0.00     0.050 C 
ENDBRANCH  15  18
ENDBRANCH  13  14
ENDBRANCH   1  13
BRANCH   4  25
ATOM     25  C   UNL d   1      28.712 -14.596   0.199  0.00  0.00     0.141 C 
BRANCH  25  26
ATOM     26  C   UNL d   1      28.705 -13.670   1.395  0.00  0.00    -0.004 C 
ATOM     27  C   UNL d   1      27.456 -12.773   1.368  0.00  0.00     0.011 C 
ATOM     28  C   UNL d   1      28.739 -14.446   2.693  0.00  0.00     0.011 C 
ENDBRANCH  25  26
ENDBRANCH   4  25
BRANCH  10  29
ATOM     29  C   UNL d   1      22.371 -18.470  -0.707  0.00  0.00     0.273 C 
ATOM     30  O   UNL d   1      22.444 -19.697  -0.576  0.00  0.00    -0.266 OA
ATOM     31  N   UNL d   1      21.120 -17.875  -0.901  0.00  0.00    -0.289 N 
ATOM     32  H   UNL d   1      21.037 -16.878  -0.958  0.00  0.00     0.183 HD
BRANCH  31  33
ATOM     33  N   UNL d   1      19.905 -18.580  -0.896  0.00  0.00    -0.247 NA
ATOM     34  H   UNL d   1      20.087 -19.532  -1.230  0.00  0.00     0.143 HD
ATOM     35  H   UNL d   1      19.292 -18.147  -1.589  0.00  0.00     0.143 HD
ENDBRANCH  31  33
ENDBRANCH  10  29
TORSDOF 7
ENDMDL
MODEL 4
REMARK VINA RESULT:   -29.093      0.707      1.624
REMARK INTER + INTRA:         -33.374
REMARK INTER:                 -31.181
REMARK INTRA:                  -2.193
REMARK CONF_INDEPENDENT:        2.088
REMARK UNBOUND:                -2.193
REMARK  7 active torsions:
REMARK  status: ('A' for Active; 'I' for Inactive)
REMARK    1  A    between atoms: C_7  and  N_8 
REMARK       I    between atoms: N_8  and  C_9 
REMARK    2  A    between atoms: C_9  and  C_11 
REMARK    3  A    between atoms: C_11  and  N_12 
REMARK    4  A    between atoms: N_15  and  C_16 
REMARK    5  A    between atoms: C_16  and  C_17 
REMARK    6  A    between atoms: C_25  and  C_26 
REMARK       I    between atoms: C_26  and  N_28 
REMARK    7  A    between atoms: N_28  and  N_29 
ROOT
ATOM      1  N   UNL d   1      25.744 -14.866  -2.660  0.00  0.00    -0.283 N 
ATOM      2  C   UNL d   1      27.127 -14.961  -2.622  0.00  0.00     0.333 C 
ATOM      3  O   UNL d   1      27.754 -14.371  -3.508  0.00  0.00    -0.246 OA
ATOM      4  N   UNL d   1      27.729 -15.678  -1.585  0.00  0.00    -0.265 N 
ATOM      5  C   UNL d   1      27.095 -16.592  -0.760  0.00  0.00     0.265 C 
ATOM      6  O   UNL d   1      27.704 -17.302   0.035  0.00  0.00    -0.267 OA
ATOM      7  C   UNL d   1      25.681 -16.663  -0.906  0.00  0.00     0.074 A 
ATOM      8  C   UNL d   1      24.770 -17.551  -0.184  0.00  0.00    -0.021 A 
ATOM      9  C   UNL d   1      25.194 -18.511   0.828  0.00  0.00     0.051 C 
ATOM     10  C   UNL d   1      23.446 -17.411  -0.534  0.00  0.00     0.083 A 
ATOM     11  S   UNL d   1      23.456 -16.194  -1.635  0.00  0.00    -0.065 SA
ATOM     12  C   UNL d   1      25.074 -15.818  -1.796  0.00  0.00     0.098 A 
ENDROOT
BRANCH   1  13
ATOM     13  C   UNL d   1      25.311 -13.781  -3.733  0.00  0.00     0.237 C 
BRANCH  13  14
ATOM     14  C   UNL d   1      25.669 -12.391  -3.392  0.00  0.00     0.240 C 
ATOM     15  N   UNL d   1      25.630 -11.185  -3.968  0.00  0.00    -0.325 N 
ATOM     16  H   UNL d   1      25.188 -11.074  -4.870  0.00  0.00     0.169 HD
ATOM     17  O   UNL d   1      26.026 -12.389  -2.238  0.00  0.00    -0.271 OA
BRANCH  15  18
ATOM     18  C   UNL d   1      26.122  -9.968  -3.275  0.00  0.00     0.040 A 
ATOM     19  C   UNL d   1      25.272  -8.875  -3.282  0.00  0.00     0.030 A 
ATOM     20  C   UNL d   1      25.643  -7.661  -2.664  0.00  0.00     0.002 A 
ATOM     21  C   UNL d   1      26.868  -7.488  -2.027  0.00  0.00     0.001 A 
ATOM     22  C   UNL d   1      27.735  -8.533  -1.990  0.00  0.00     0.009 A 
ATOM     23  C   UNL d   1      27.372  -9.738  -2.592  0.00  0.00    -0.035 A 
ATOM     24  C   UNL d   1      28.489 -10.676  -2.381  0.00  0.00     0.050 C 
ENDBRANCH  15  18
ENDBRANCH  13  14
ENDBRANCH   1  13
BRANCH   4  25
ATOM     25  C   UNL d   1      29.160 -15.658  -1.341  0.00  0.00     0.141 C 
BRANCH  25  26
ATOM     26  C   UNL d   1      29.657 -14.534  -0.458  0.00  0.00    -0.004 C 
ATOM     27  C   UNL d   1      28.472 -13.827   0.221  0.00  0.00     0.011 C 
ATOM     28  C   UNL d   1      30.612 -15.044   0.599  0.00  0.00     0.011 C 
ENDBRANCH  25  26
ENDBRANCH   4  25
BRANCH  10  29
ATOM     29  C   UNL d   1      22.172 -18.049  -0.124  0.00  0.00     0.273 C 
ATOM     30  O   UNL d   1      21.951 -18.563   0.977  0.00  0.00    -0.266 OA
ATOM     31  N   UNL d   1      21.170 -18.064  -1.101  0.00  0.00    -0.289 N 
ATOM     32  H   UNL d   1      21.314 -17.606  -1.981  0.00  0.00     0.183 HD
BRANCH  31  33
ATOM     33  N   UNL d   1      19.880 -18.579  -0.895  0.00  0.00    -0.247 NA
ATOM     34  H   UNL d   1      19.202 -17.850  -1.142  0.00  0.00     0.143 HD
ATOM     35  H   UNL d   1      19.767 -18.743   0.107  0.00  0.00     0.143 HD
ENDBRANCH  31  33
ENDBRANCH  10  29
TORSDOF 7
ENDMDL
MODEL 5
REMARK VINA RESULT:   -28.557      2.606      3.532
REMARK INTER + INTRA:         -32.865
REMARK INTER:                 -30.645
REMARK INTRA:                  -2.220
REMARK CONF_INDEPENDENT:        2.088
REMARK UNBOUND:                -2.220
REMARK  7 active torsions:
REMARK  status: ('A' for Active; 'I' for Inactive)
REMARK    1  A    between atoms: C_7  and  N_8 
REMARK       I    between atoms: N_8  and  C_9 
REMARK    2  A    between atoms: C_9  and  C_11 
REMARK    3  A    between atoms: C_11  and  N_12 
REMARK    4  A    between atoms: N_15  and  C_16 
REMARK    5  A    between atoms: C_16  and  C_17 
REMARK    6  A    between atoms: C_25  and  C_26 
REMARK       I    between atoms: C_26  and  N_28 
REMARK    7  A    between atoms: N_28  and  N_29 
ROOT
ATOM      1  N   UNL d   1      26.298 -14.988  -1.352  0.00  0.00    -0.283 N 
ATOM      2  C   UNL d   1      27.557 -15.555  -1.227  0.00  0.00     0.333 C 
ATOM      3  O   UNL d   1      28.513 -14.895  -1.648  0.00  0.00    -0.246 OA
ATOM      4  N   UNL d   1      27.680 -16.804  -0.614  0.00  0.00    -0.265 N 
ATOM      5  C   UNL d   1      26.651 -17.706  -0.404  0.00  0.00     0.265 C 
ATOM      6  O   UNL d   1      26.842 -18.848   0.004  0.00  0.00    -0.267 OA
ATOM      7  C   UNL d   1      25.348 -17.221  -0.706  0.00  0.00     0.074 A 
ATOM      8  C   UNL d   1      24.092 -17.963  -0.601  0.00  0.00    -0.021 A 
ATOM      9  C   UNL d   1      23.993 -19.344  -0.145  0.00  0.00     0.051 C 
ATOM     10  C   UNL d   1      22.976 -17.246  -0.969  0.00  0.00     0.083 A 
ATOM     11  S   UNL d   1      23.567 -15.759  -1.335  0.00  0.00    -0.065 SA
ATOM     12  C   UNL d   1      25.215 -15.926  -1.130  0.00  0.00     0.098 A 
ENDROOT
BRANCH   1  13
ATOM     13  C   UNL d   1      26.434 -13.473  -1.802  0.00  0.00     0.237 C 
BRANCH  13  14
ATOM     14  C   UNL d   1      26.912 -13.275  -3.184  0.00  0.00     0.240 C 
ATOM     15  N   UNL d   1      28.072 -13.305  -3.849  0.00  0.00    -0.325 N 
ATOM     16  H   UNL d   1      28.914 -13.601  -3.374  0.00  0.00     0.169 HD
ATOM     17  O   UNL d   1      25.936 -13.113  -3.877  0.00  0.00    -0.271 OA
BRANCH  15  18
ATOM     18  C   UNL d   1      28.151 -13.021  -5.303  0.00  0.00     0.040 A 
ATOM     19  C   UNL d   1      27.676 -11.785  -5.709  0.00  0.00     0.030 A 
ATOM     20  C   UNL d   1      27.692 -11.412  -7.071  0.00  0.00     0.002 A 
ATOM     21  C   UNL d   1      28.169 -12.252  -8.074  0.00  0.00     0.001 A 
ATOM     22  C   UNL d   1      28.649 -13.474  -7.723  0.00  0.00     0.009 A 
ATOM     23  C   UNL d   1      28.644 -13.846  -6.379  0.00  0.00    -0.035 A 
ATOM     24  C   UNL d   1      29.230 -15.196  -6.305  0.00  0.00     0.050 C 
ENDBRANCH  15  18
ENDBRANCH  13  14
ENDBRANCH   1  13
BRANCH   4  25
ATOM     25  C   UNL d   1      28.963 -17.379  -0.249  0.00  0.00     0.141 C 
BRANCH  25  26
ATOM     26  C   UNL d   1      30.062 -17.231  -1.278  0.00  0.00    -0.004 C 
ATOM     27  C   UNL d   1      31.071 -16.160  -0.830  0.00  0.00     0.011 C 
ATOM     28  C   UNL d   1      30.786 -18.540  -1.504  0.00  0.00     0.011 C 
ENDBRANCH  25  26
ENDBRANCH   4  25
BRANCH  10  29
ATOM     29  C   UNL d   1      21.522 -17.521  -1.050  0.00  0.00     0.273 C 
ATOM     30  O   UNL d   1      20.645 -16.677  -1.270  0.00  0.00    -0.266 OA
ATOM     31  N   UNL d   1      21.152 -18.854  -0.836  0.00  0.00    -0.289 N 
ATOM     32  H   UNL d   1      21.852 -19.559  -0.708  0.00  0.00     0.183 HD
BRANCH  31  33
ATOM     33  N   UNL d   1      19.832 -19.325  -0.916  0.00  0.00    -0.247 NA
ATOM     34  H   UNL d   1      19.239 -18.560  -1.256  0.00  0.00     0.143 HD
ATOM     35  H   UNL d   1      19.516 -19.528   0.034  0.00  0.00     0.143 HD
ENDBRANCH  31  33
ENDBRANCH  10  29
TORSDOF 7
ENDMDL
MODEL 6
REMARK VINA RESULT:   -27.715      2.434      2.942
REMARK INTER + INTRA:         -31.441
REMARK INTER:                 -29.803
REMARK INTRA:                  -1.638
REMARK CONF_INDEPENDENT:        2.088
REMARK UNBOUND:                -1.638
REMARK  7 active torsions:
REMARK  status: ('A' for Active; 'I' for Inactive)
REMARK    1  A    between atoms: C_7  and  N_8 
REMARK       I    between atoms: N_8  and  C_9 
REMARK    2  A    between atoms: C_9  and  C_11 
REMARK    3  A    between atoms: C_11  and  N_12 
REMARK    4  A    between atoms: N_15  and  C_16 
REMARK    5  A    between atoms: C_16  and  C_17 
REMARK    6  A    between atoms: C_25  and  C_26 
REMARK       I    between atoms: C_26  and  N_28 
REMARK    7  A    between atoms: N_28  and  N_29 
ROOT
ATOM      1  N   UNL d   1      26.395 -15.092  -1.512  0.00  0.00    -0.283 N 
ATOM      2  C   UNL d   1      27.648 -15.674  -1.389  0.00  0.00     0.333 C 
ATOM      3  O   UNL d   1      28.607 -15.039  -1.840  0.00  0.00    -0.246 OA
ATOM      4  N   UNL d   1      27.761 -16.908  -0.746  0.00  0.00    -0.265 N 
ATOM      5  C   UNL d   1      26.722 -17.790  -0.499  0.00  0.00     0.265 C 
ATOM      6  O   UNL d   1      26.902 -18.924  -0.066  0.00  0.00    -0.267 OA
ATOM      7  C   UNL d   1      25.422 -17.294  -0.796  0.00  0.00     0.074 A 
ATOM      8  C   UNL d   1      24.157 -18.014  -0.656  0.00  0.00    -0.021 A 
ATOM      9  C   UNL d   1      24.044 -19.382  -0.163  0.00  0.00     0.051 C 
ATOM     10  C   UNL d   1      23.047 -17.290  -1.027  0.00  0.00     0.083 A 
ATOM     11  S   UNL d   1      23.654 -15.822  -1.438  0.00  0.00    -0.065 SA
ATOM     12  C   UNL d   1      25.302 -16.008  -1.251  0.00  0.00     0.098 A 
ENDROOT
BRANCH   1  13
ATOM     13  C   UNL d   1      26.547 -13.590  -2.002  0.00  0.00     0.237 C 
BRANCH  13  14
ATOM     14  C   UNL d   1      26.855 -12.617  -0.937  0.00  0.00     0.240 C 
ATOM     15  N   UNL d   1      27.494 -11.448  -0.813  0.00  0.00    -0.325 N 
ATOM     16  H   UNL d   1      27.847 -10.980  -1.636  0.00  0.00     0.169 HD
ATOM     17  O   UNL d   1      26.292 -12.994   0.063  0.00  0.00    -0.271 OA
BRANCH  15  18
ATOM     18  C   UNL d   1      27.610 -10.753   0.493  0.00  0.00     0.040 A 
ATOM     19  C   UNL d   1      28.342 -11.406   1.470  0.00  0.00     0.030 A 
ATOM     20  C   UNL d   1      28.508 -10.842   2.753  0.00  0.00     0.002 A 
ATOM     21  C   UNL d   1      27.949  -9.619   3.114  0.00  0.00     0.001 A 
ATOM     22  C   UNL d   1      27.225  -8.939   2.187  0.00  0.00     0.009 A 
ATOM     23  C   UNL d   1      27.063  -9.486   0.915  0.00  0.00    -0.035 A 
ATOM     24  C   UNL d   1      26.258  -8.529   0.135  0.00  0.00     0.050 C 
ENDBRANCH  15  18
ENDBRANCH  13  14
ENDBRANCH   1  13
BRANCH   4  25
ATOM     25  C   UNL d   1      29.040 -17.493  -0.384  0.00  0.00     0.141 C 
BRANCH  25  26
ATOM     26  C   UNL d   1      30.205 -17.122  -1.276  0.00  0.00    -0.004 C 
ATOM     27  C   UNL d   1      31.207 -16.245  -0.506  0.00  0.00     0.011 C 
ATOM     28  C   UNL d   1      30.912 -18.352  -1.800  0.00  0.00     0.011 C 
ENDBRANCH  25  26
ENDBRANCH   4  25
BRANCH  10  29
ATOM     29  C   UNL d   1      21.587 -17.545  -1.081  0.00  0.00     0.273 C 
ATOM     30  O   UNL d   1      20.720 -16.693  -1.300  0.00  0.00    -0.266 OA
ATOM     31  N   UNL d   1      21.203 -18.869  -0.842  0.00  0.00    -0.289 N 
ATOM     32  H   UNL d   1      21.895 -19.582  -0.714  0.00  0.00     0.183 HD
BRANCH  31  33
ATOM     33  N   UNL d   1      19.874 -19.323  -0.895  0.00  0.00    -0.247 NA
ATOM     34  H   UNL d   1      19.787 -19.963  -1.691  0.00  0.00     0.143 HD
ATOM     35  H   UNL d   1      19.280 -18.520  -1.109  0.00  0.00     0.143 HD
ENDBRANCH  31  33
ENDBRANCH  10  29
TORSDOF 7
ENDMDL
MODEL 7
REMARK VINA RESULT:   -27.575      2.690      6.538
REMARK INTER + INTRA:         -31.754
REMARK INTER:                 -29.663
REMARK INTRA:                  -2.091
REMARK CONF_INDEPENDENT:        2.088
REMARK UNBOUND:                -2.091
REMARK  7 active torsions:
REMARK  status: ('A' for Active; 'I' for Inactive)
REMARK    1  A    between atoms: C_7  and  N_8 
REMARK       I    between atoms: N_8  and  C_9 
REMARK    2  A    between atoms: C_9  and  C_11 
REMARK    3  A    between atoms: C_11  and  N_12 
REMARK    4  A    between atoms: N_15  and  C_16 
REMARK    5  A    between atoms: C_16  and  C_17 
REMARK    6  A    between atoms: C_25  and  C_26 
REMARK       I    between atoms: C_26  and  N_28 
REMARK    7  A    between atoms: N_28  and  N_29 
ROOT
ATOM      1  N   UNL d   1      27.342 -16.758  -0.818  0.00  0.00    -0.283 N 
ATOM      2  C   UNL d   1      27.847 -15.542  -1.254  0.00  0.00     0.333 C 
ATOM      3  O   UNL d   1      29.042 -15.322  -1.036  0.00  0.00    -0.246 OA
ATOM      4  N   UNL d   1      27.001 -14.661  -1.931  0.00  0.00    -0.265 N 
ATOM      5  C   UNL d   1      25.618 -14.712  -1.937  0.00  0.00     0.265 C 
ATOM      6  O   UNL d   1      24.922 -13.826  -2.425  0.00  0.00    -0.267 OA
ATOM      7  C   UNL d   1      25.050 -15.863  -1.322  0.00  0.00     0.074 A 
ATOM      8  C   UNL d   1      23.626 -16.160  -1.166  0.00  0.00    -0.021 A 
ATOM      9  C   UNL d   1      22.553 -15.298  -1.645  0.00  0.00     0.051 C 
ATOM     10  C   UNL d   1      23.362 -17.347  -0.520  0.00  0.00     0.083 A 
ATOM     11  S   UNL d   1      24.848 -17.982  -0.238  0.00  0.00    -0.065 SA
ATOM     12  C   UNL d   1      25.893 -16.820  -0.824  0.00  0.00     0.098 A 
ENDROOT
BRANCH   1  13
ATOM     13  C   UNL d   1      28.533 -17.695  -0.347  0.00  0.00     0.237 C 
BRANCH  13  14
ATOM     14  C   UNL d   1      29.639 -17.827  -1.314  0.00  0.00     0.240 C 
ATOM     15  N   UNL d   1      30.033 -17.256  -2.457  0.00  0.00    -0.325 N 
ATOM     16  H   UNL d   1      29.536 -16.451  -2.813  0.00  0.00     0.169 HD
ATOM     17  O   UNL d   1      30.409 -18.641  -0.864  0.00  0.00    -0.271 OA
BRANCH  15  18
ATOM     18  C   UNL d   1      31.254 -17.699  -3.176  0.00  0.00     0.040 A 
ATOM     19  C   UNL d   1      32.460 -17.446  -2.544  0.00  0.00     0.030 A 
ATOM     20  C   UNL d   1      33.685 -17.814  -3.141  0.00  0.00     0.002 A 
ATOM     21  C   UNL d   1      33.757 -18.435  -4.385  0.00  0.00     0.001 A 
ATOM     22  C   UNL d   1      32.599 -18.708  -5.042  0.00  0.00     0.009 A 
ATOM     23  C   UNL d   1      31.384 -18.354  -4.454  0.00  0.00    -0.035 A 
ATOM     24  C   UNL d   1      30.320 -18.783  -5.379  0.00  0.00     0.050 C 
ENDBRANCH  15  18
ENDBRANCH  13  14
ENDBRANCH   1  13
BRANCH   4  25
ATOM     25  C   UNL d   1      27.483 -13.469  -2.606  0.00  0.00     0.141 C 
BRANCH  25  26
ATOM     26  C   UNL d   1      27.386 -13.489  -4.116  0.00  0.00    -0.004 C 
ATOM     27  C   UNL d   1      27.325 -14.937  -4.627  0.00  0.00     0.011 C 
ATOM     28  C   UNL d   1      26.167 -12.734  -4.600  0.00  0.00     0.011 C 
ENDBRANCH  25  26
ENDBRANCH   4  25
BRANCH  10  29
ATOM     29  C   UNL d   1      22.138 -18.081  -0.118  0.00  0.00     0.273 C 
ATOM     30  O   UNL d   1      21.955 -18.619   0.980  0.00  0.00    -0.266 OA
ATOM     31  N   UNL d   1      21.141 -18.165  -1.096  0.00  0.00    -0.289 N 
ATOM     32  H   UNL d   1      21.251 -17.691  -1.973  0.00  0.00     0.183 HD
BRANCH  31  33
ATOM     33  N   UNL d   1      19.893 -18.776  -0.896  0.00  0.00    -0.247 NA
ATOM     34  H   UNL d   1      19.173 -18.176  -1.311  0.00  0.00     0.143 HD
ATOM     35  H   UNL d   1      19.710 -18.787   0.109  0.00  0.00     0.143 HD
ENDBRANCH  31  33
ENDBRANCH  10  29
TORSDOF 7
ENDMDL
