MODEL 1
REMARK VINA RESULT:   -11.031      0.000      0.000
REMARK INTER + INTRA:         -17.190
REMARK INTER:                 -14.909
REMARK INTRA:                  -2.281
REMARK CONF_INDEPENDENT:        3.878
REMARK UNBOUND:                -2.281
REMARK  13 active torsions:
REMARK  status: ('A' for Active; 'I' for Inactive)
REMARK    1  A    between atoms: C_2  and  O_3 
REMARK    2  A    between atoms: O_3  and  C_4 
REMARK    3  A    between atoms: C_6  and  C_7 
REMARK    4  A    between atoms: N_8  and  N_9 
REMARK       I    between atoms: N_9  and  C_10 
REMARK    5  A    between atoms: C_10  and  C_12 
REMARK    6  A    between atoms: C_12  and  O_13 
REMARK    7  A    between atoms: O_13  and  C_14 
REMARK    8  A    between atoms: C_17  and  O_18 
REMARK    9  A    between atoms: O_18  and  C_19 
REMARK   10  A    between atoms: C_19  and  C_20 
REMARK   11  A    between atoms: C_30  and  O_31 
REMARK   12  A    between atoms: O_31  and  C_32 
REMARK   13  A    between atoms: C_32  and  C_34 
ROOT
ATOM      1  C   UNL d   1      28.133 -14.783   3.450  0.00  0.00     0.150 C 
ATOM      2  N   UNL d   1      28.199 -14.400   2.209  0.00  0.00    -0.184 NA
ENDROOT
BRANCH   2   3
ATOM      3  N   UNL d   1      28.135 -15.334   1.188  0.00  0.00    -0.246 N 
ATOM      4  C   UNL d   1      27.784 -14.886  -0.099  0.00  0.00     0.261 C 
ATOM      5  O   UNL d   1      27.523 -13.705  -0.345  0.00  0.00    -0.269 OA
ATOM      6  H   UNL d   1      28.367 -16.300   1.381  0.00  0.00     0.192 HD
BRANCH   4   7
ATOM      7  C   UNL d   1      27.720 -15.975  -1.206  0.00  0.00     0.280 C 
BRANCH   7   8
ATOM      8  O   UNL d   1      27.204 -17.194  -0.656  0.00  0.00    -0.342 OA
BRANCH   8   9
ATOM      9  C   UNL d   1      25.858 -17.434  -0.650  0.00  0.00     0.069 A 
ATOM     10  C   UNL d   1      25.077 -16.498  -1.340  0.00  0.00     0.039 A 
ATOM     11  C   UNL d   1      23.678 -16.537  -1.270  0.00  0.00     0.039 A 
ATOM     12  C   UNL d   1      23.037 -17.555  -0.565  0.00  0.00     0.069 A 
ATOM     13  C   UNL d   1      23.813 -18.497   0.110  0.00  0.00     0.039 A 
ATOM     14  C   UNL d   1      25.216 -18.437   0.070  0.00  0.00     0.039 A 
BRANCH  12  15
ATOM     15  O   UNL d   1      21.670 -17.532  -0.597  0.00  0.00    -0.347 OA
BRANCH  15  16
ATOM     16  C   UNL d   1      21.005 -18.670  -1.160  0.00  0.00     0.214 C 
BRANCH  16  17
ATOM     17  C   UNL d   1      20.119 -19.349  -0.136  0.00  0.00    -0.034 A 
ATOM     18  C   UNL d   1      20.479 -19.329   1.222  0.00  0.00     0.009 A 
ATOM     19  C   UNL d   1      19.777 -20.103   2.149  0.00  0.00     0.001 A 
ATOM     20  C   UNL d   1      18.655 -20.827   1.749  0.00  0.00     0.000 A 
ATOM     21  C   UNL d   1      18.254 -20.805   0.417  0.00  0.00     0.001 A 
ATOM     22  C   UNL d   1      18.983 -20.075  -0.519  0.00  0.00     0.009 A 
ENDBRANCH  16  17
ENDBRANCH  15  16
ENDBRANCH  12  15
ENDBRANCH   8   9
ENDBRANCH   7   8
ENDBRANCH   4   7
ENDBRANCH   2   3
BRANCH   1  23
ATOM     23  C   UNL d   1      28.262 -13.792   4.579  0.00  0.00    -0.014 A 
ATOM     24  C   UNL d   1      28.033 -12.416   4.390  0.00  0.00     0.052 A 
ATOM     25  C   UNL d   1      28.007 -11.504   5.481  0.00  0.00     0.103 A 
ATOM     26  C   UNL d   1      28.179 -12.001   6.785  0.00  0.00     0.112 A 
ATOM     27  C   UNL d   1      28.472 -13.366   6.967  0.00  0.00     0.041 A 
ATOM     28  C   UNL d   1      28.539 -14.246   5.870  0.00  0.00     0.016 A 
BRANCH  25  29
ATOM     29  O   UNL d   1      27.692 -10.219   5.109  0.00  0.00    -0.349 OA
BRANCH  29  30
ATOM     30  C   UNL d   1      28.648  -9.410   4.420  0.00  0.00     0.171 C 
ATOM     31  C   UNL d   1      29.615  -8.803   5.435  0.00  0.00     0.034 C 
ENDBRANCH  29  30
ENDBRANCH  25  29
BRANCH  26  32
ATOM     32  O   UNL d   1      28.158 -11.208   7.969  0.00  0.00    -0.272 OA
BRANCH  32  33
ATOM     33  C   UNL d   1      29.250 -11.307   8.814  0.00  0.00     0.298 C 
ATOM     34  O   UNL d   1      30.260 -10.598   8.759  0.00  0.00    -0.259 OA
BRANCH  33  35
ATOM     35  C   UNL d   1      29.207 -12.481   9.746  0.00  0.00     0.039 C 
ATOM     36  C   UNL d   1      28.037 -12.576  10.521  0.00  0.00     0.017 C 
ATOM     37  C   UNL d   1      27.780 -13.681  11.321  0.00  0.00     0.001 C 
ATOM     38  C   UNL d   1      28.688 -14.729  11.337  0.00  0.00     0.000 C 
ATOM     39  C   UNL d   1      29.919 -14.594  10.685  0.00  0.00     0.001 C 
ATOM     40  C   UNL d   1      30.204 -13.449   9.917  0.00  0.00     0.017 C 
ENDBRANCH  33  35
ENDBRANCH  32  33
ENDBRANCH  26  32
ENDBRANCH   1  23
TORSDOF 13
ENDMDL
MODEL 2
REMARK VINA RESULT:   -10.845      0.903      1.722
REMARK INTER + INTRA:         -16.567
REMARK INTER:                 -14.723
REMARK INTRA:                  -1.844
REMARK CONF_INDEPENDENT:        3.878
REMARK UNBOUND:                -1.844
REMARK  13 active torsions:
REMARK  status: ('A' for Active; 'I' for Inactive)
REMARK    1  A    between atoms: C_2  and  O_3 
REMARK    2  A    between atoms: O_3  and  C_4 
REMARK    3  A    between atoms: C_6  and  C_7 
REMARK    4  A    between atoms: N_8  and  N_9 
REMARK       I    between atoms: N_9  and  C_10 
REMARK    5  A    between atoms: C_10  and  C_12 
REMARK    6  A    between atoms: C_12  and  O_13 
REMARK    7  A    between atoms: O_13  and  C_14 
REMARK    8  A    between atoms: C_17  and  O_18 
REMARK    9  A    between atoms: O_18  and  C_19 
REMARK   10  A    between atoms: C_19  and  C_20 
REMARK   11  A    between atoms: C_30  and  O_31 
REMARK   12  A    between atoms: O_31  and  C_32 
REMARK   13  A    between atoms: C_32  and  C_34 
ROOT
ATOM      1  C   UNL d   1      28.249 -14.825   3.495  0.00  0.00     0.150 C 
ATOM      2  N   UNL d   1      28.816 -14.607   2.345  0.00  0.00    -0.184 NA
ENDROOT
BRANCH   2   3
ATOM      3  N   UNL d   1      28.546 -15.434   1.268  0.00  0.00    -0.246 N 
ATOM      4  C   UNL d   1      27.439 -15.125   0.456  0.00  0.00     0.261 C 
ATOM      5  O   UNL d   1      26.702 -14.160   0.675  0.00  0.00    -0.269 OA
ATOM      6  H   UNL d   1      29.160 -16.216   1.073  0.00  0.00     0.192 HD
BRANCH   4   7
ATOM      7  C   UNL d   1      27.176 -16.089  -0.734  0.00  0.00     0.280 C 
BRANCH   7   8
ATOM      8  O   UNL d   1      26.421 -17.221  -0.283  0.00  0.00    -0.342 OA
BRANCH   8   9
ATOM      9  C   UNL d   1      25.057 -17.218  -0.363  0.00  0.00     0.069 A 
ATOM     10  C   UNL d   1      24.442 -18.466  -0.195  0.00  0.00     0.039 A 
ATOM     11  C   UNL d   1      23.068 -18.627  -0.418  0.00  0.00     0.039 A 
ATOM     12  C   UNL d   1      22.274 -17.528  -0.746  0.00  0.00     0.069 A 
ATOM     13  C   UNL d   1      22.882 -16.282  -0.897  0.00  0.00     0.039 A 
ATOM     14  C   UNL d   1      24.266 -16.127  -0.710  0.00  0.00     0.039 A 
BRANCH  12  15
ATOM     15  O   UNL d   1      20.940 -17.781  -0.895  0.00  0.00    -0.347 OA
BRANCH  15  16
ATOM     16  C   UNL d   1      20.554 -19.129  -1.193  0.00  0.00     0.214 C 
BRANCH  16  17
ATOM     17  C   UNL d   1      19.926 -19.799   0.012  0.00  0.00    -0.034 A 
ATOM     18  C   UNL d   1      18.765 -20.573  -0.145  0.00  0.00     0.009 A 
ATOM     19  C   UNL d   1      18.073 -21.041   0.974  0.00  0.00     0.001 A 
ATOM     20  C   UNL d   1      18.582 -20.822   2.253  0.00  0.00     0.000 A 
ATOM     21  C   UNL d   1      19.765 -20.109   2.417  0.00  0.00     0.001 A 
ATOM     22  C   UNL d   1      20.430 -19.596   1.304  0.00  0.00     0.009 A 
ENDBRANCH  16  17
ENDBRANCH  15  16
ENDBRANCH  12  15
ENDBRANCH   8   9
ENDBRANCH   7   8
ENDBRANCH   4   7
ENDBRANCH   2   3
BRANCH   1  23
ATOM     23  C   UNL d   1      28.574 -13.976   4.698  0.00  0.00    -0.014 A 
ATOM     24  C   UNL d   1      28.183 -12.627   4.783  0.00  0.00     0.052 A 
ATOM     25  C   UNL d   1      28.356 -11.869   5.974  0.00  0.00     0.103 A 
ATOM     26  C   UNL d   1      28.900 -12.501   7.107  0.00  0.00     0.112 A 
ATOM     27  C   UNL d   1      29.350 -13.831   7.001  0.00  0.00     0.041 A 
ATOM     28  C   UNL d   1      29.213 -14.550   5.799  0.00  0.00     0.016 A 
BRANCH  25  29
ATOM     29  O   UNL d   1      27.844 -10.597   5.890  0.00  0.00    -0.349 OA
BRANCH  29  30
ATOM     30  C   UNL d   1      28.713  -9.475   5.726  0.00  0.00     0.171 C 
ATOM     31  C   UNL d   1      28.668  -9.014   4.270  0.00  0.00     0.034 C 
ENDBRANCH  29  30
ENDBRANCH  25  29
BRANCH  26  32
ATOM     32  O   UNL d   1      29.113 -11.873   8.368  0.00  0.00    -0.272 OA
BRANCH  32  33
ATOM     33  C   UNL d   1      28.470 -12.423   9.463  0.00  0.00     0.298 C 
ATOM     34  O   UNL d   1      27.406 -12.016   9.944  0.00  0.00    -0.259 OA
BRANCH  33  35
ATOM     35  C   UNL d   1      29.250 -13.493  10.165  0.00  0.00     0.039 C 
ATOM     36  C   UNL d   1      30.602 -13.581   9.788  0.00  0.00     0.017 C 
ATOM     37  C   UNL d   1      31.490 -14.420  10.449  0.00  0.00     0.001 C 
ATOM     38  C   UNL d   1      31.038 -15.169  11.524  0.00  0.00     0.000 C 
ATOM     39  C   UNL d   1      29.672 -15.202  11.825  0.00  0.00     0.001 C 
ATOM     40  C   UNL d   1      28.761 -14.394  11.120  0.00  0.00     0.017 C 
ENDBRANCH  33  35
ENDBRANCH  32  33
ENDBRANCH  26  32
ENDBRANCH   1  23
TORSDOF 13
ENDMDL
MODEL 3
REMARK VINA RESULT:   -10.805      1.190      1.656
REMARK INTER + INTRA:         -17.138
REMARK INTER:                 -14.683
REMARK INTRA:                  -2.456
REMARK CONF_INDEPENDENT:        3.878
REMARK UNBOUND:                -2.456
REMARK  13 active torsions:
REMARK  status: ('A' for Active; 'I' for Inactive)
REMARK    1  A    between atoms: C_2  and  O_3 
REMARK    2  A    between atoms: O_3  and  C_4 
REMARK    3  A    between atoms: C_6  and  C_7 
REMARK    4  A    between atoms: N_8  and  N_9 
REMARK       I    between atoms: N_9  and  C_10 
REMARK    5  A    between atoms: C_10  and  C_12 
REMARK    6  A    between atoms: C_12  and  O_13 
REMARK    7  A    between atoms: O_13  and  C_14 
REMARK    8  A    between atoms: C_17  and  O_18 
REMARK    9  A    between atoms: O_18  and  C_19 
REMARK   10  A    between atoms: C_19  and  C_20 
REMARK   11  A    between atoms: C_30  and  O_31 
REMARK   12  A    between atoms: O_31  and  C_32 
REMARK   13  A    between atoms: C_32  and  C_34 
ROOT
ATOM      1  C   UNL d   1      28.981 -14.592   3.762  0.00  0.00     0.150 C 
ATOM      2  N   UNL d   1      28.302 -14.330   2.684  0.00  0.00    -0.184 NA
ENDROOT
BRANCH   2   3
ATOM      3  N   UNL d   1      28.338 -15.203   1.608  0.00  0.00    -0.246 N 
ATOM      4  C   UNL d   1      27.444 -14.982   0.545  0.00  0.00     0.261 C 
ATOM      5  O   UNL d   1      26.631 -14.054   0.541  0.00  0.00    -0.269 OA
ATOM      6  H   UNL d   1      29.017 -15.954   1.599  0.00  0.00     0.192 HD
BRANCH   4   7
ATOM      7  C   UNL d   1      27.522 -15.993  -0.633  0.00  0.00     0.280 C 
BRANCH   7   8
ATOM      8  O   UNL d   1      26.736 -17.153  -0.327  0.00  0.00    -0.342 OA
BRANCH   8   9
ATOM      9  C   UNL d   1      25.375 -17.115  -0.438  0.00  0.00     0.069 A 
ATOM     10  C   UNL d   1      24.700 -18.240   0.053  0.00  0.00     0.039 A 
ATOM     11  C   UNL d   1      23.322 -18.398  -0.151  0.00  0.00     0.039 A 
ATOM     12  C   UNL d   1      22.586 -17.399  -0.788  0.00  0.00     0.069 A 
ATOM     13  C   UNL d   1      23.254 -16.271  -1.263  0.00  0.00     0.039 A 
ATOM     14  C   UNL d   1      24.641 -16.130  -1.092  0.00  0.00     0.039 A 
BRANCH  12  15
ATOM     15  O   UNL d   1      21.242 -17.627  -0.895  0.00  0.00    -0.347 OA
BRANCH  15  16
ATOM     16  C   UNL d   1      20.825 -18.951  -1.254  0.00  0.00     0.214 C 
BRANCH  16  17
ATOM     17  C   UNL d   1      19.948 -19.559  -0.179  0.00  0.00    -0.034 A 
ATOM     18  C   UNL d   1      20.366 -19.533   1.161  0.00  0.00     0.009 A 
ATOM     19  C   UNL d   1      19.663 -20.248   2.133  0.00  0.00     0.001 A 
ATOM     20  C   UNL d   1      18.487 -20.916   1.796  0.00  0.00     0.000 A 
ATOM     21  C   UNL d   1      18.030 -20.897   0.482  0.00  0.00     0.001 A 
ATOM     22  C   UNL d   1      18.758 -20.228  -0.500  0.00  0.00     0.009 A 
ENDBRANCH  16  17
ENDBRANCH  15  16
ENDBRANCH  12  15
ENDBRANCH   8   9
ENDBRANCH   7   8
ENDBRANCH   4   7
ENDBRANCH   2   3
BRANCH   1  23
ATOM     23  C   UNL d   1      29.006 -13.628   4.921  0.00  0.00    -0.014 A 
ATOM     24  C   UNL d   1      30.144 -12.856   5.220  0.00  0.00     0.052 A 
ATOM     25  C   UNL d   1      30.120 -11.840   6.216  0.00  0.00     0.103 A 
ATOM     26  C   UNL d   1      28.914 -11.581   6.892  0.00  0.00     0.112 A 
ATOM     27  C   UNL d   1      27.795 -12.398   6.637  0.00  0.00     0.041 A 
ATOM     28  C   UNL d   1      27.852 -13.428   5.680  0.00  0.00     0.016 A 
BRANCH  25  29
ATOM     29  O   UNL d   1      31.300 -11.143   6.311  0.00  0.00    -0.349 OA
BRANCH  29  30
ATOM     30  C   UNL d   1      32.197 -11.382   7.398  0.00  0.00     0.171 C 
ATOM     31  C   UNL d   1      32.611 -10.043   8.009  0.00  0.00     0.034 C 
ENDBRANCH  29  30
ENDBRANCH  25  29
BRANCH  26  32
ATOM     32  O   UNL d   1      28.740 -10.586   7.896  0.00  0.00    -0.272 OA
BRANCH  32  33
ATOM     33  C   UNL d   1      29.363 -10.801   9.113  0.00  0.00     0.298 C 
ATOM     34  O   UNL d   1      30.071  -9.980   9.706  0.00  0.00    -0.259 OA
BRANCH  33  35
ATOM     35  C   UNL d   1      29.255 -12.206   9.623  0.00  0.00     0.039 C 
ATOM     36  C   UNL d   1      28.044 -12.507  10.272  0.00  0.00     0.017 C 
ATOM     37  C   UNL d   1      27.732 -13.800  10.669  0.00  0.00     0.001 C 
ATOM     38  C   UNL d   1      28.625 -14.826  10.396  0.00  0.00     0.000 C 
ATOM     39  C   UNL d   1      29.891 -14.527   9.879  0.00  0.00     0.001 C 
ATOM     40  C   UNL d   1      30.230 -13.207   9.527  0.00  0.00     0.017 C 
ENDBRANCH  33  35
ENDBRANCH  32  33
ENDBRANCH  26  32
ENDBRANCH   1  23
TORSDOF 13
ENDMDL
MODEL 4
REMARK VINA RESULT:   -10.769      1.919      3.264
REMARK INTER + INTRA:         -16.490
REMARK INTER:                 -14.647
REMARK INTRA:                  -1.843
REMARK CONF_INDEPENDENT:        3.878
REMARK UNBOUND:                -1.843
REMARK  13 active torsions:
REMARK  status: ('A' for Active; 'I' for Inactive)
REMARK    1  A    between atoms: C_2  and  O_3 
REMARK    2  A    between atoms: O_3  and  C_4 
REMARK    3  A    between atoms: C_6  and  C_7 
REMARK    4  A    between atoms: N_8  and  N_9 
REMARK       I    between atoms: N_9  and  C_10 
REMARK    5  A    between atoms: C_10  and  C_12 
REMARK    6  A    between atoms: C_12  and  O_13 
REMARK    7  A    between atoms: O_13  and  C_14 
REMARK    8  A    between atoms: C_17  and  O_18 
REMARK    9  A    between atoms: O_18  and  C_19 
REMARK   10  A    between atoms: C_19  and  C_20 
REMARK   11  A    between atoms: C_30  and  O_31 
REMARK   12  A    between atoms: O_31  and  C_32 
REMARK   13  A    between atoms: C_32  and  C_34 
ROOT
ATOM      1  C   UNL d   1      27.948 -14.377   4.293  0.00  0.00     0.150 C 
ATOM      2  N   UNL d   1      28.480 -14.043   3.154  0.00  0.00    -0.184 NA
ENDROOT
BRANCH   2   3
ATOM      3  N   UNL d   1      28.311 -14.853   2.043  0.00  0.00    -0.246 N 
ATOM      4  C   UNL d   1      27.403 -14.437   1.052  0.00  0.00     0.261 C 
ATOM      5  O   UNL d   1      26.752 -13.393   1.141  0.00  0.00    -0.269 OA
ATOM      6  H   UNL d   1      28.858 -15.700   1.956  0.00  0.00     0.192 HD
BRANCH   4   7
ATOM      7  C   UNL d   1      27.246 -15.385  -0.170  0.00  0.00     0.280 C 
BRANCH   7   8
ATOM      8  O   UNL d   1      26.746 -16.656   0.266  0.00  0.00    -0.342 OA
BRANCH   8   9
ATOM      9  C   UNL d   1      25.475 -17.044  -0.049  0.00  0.00     0.069 A 
ATOM     10  C   UNL d   1      24.705 -16.089  -0.725  0.00  0.00     0.039 A 
ATOM     11  C   UNL d   1      23.338 -16.298  -0.958  0.00  0.00     0.039 A 
ATOM     12  C   UNL d   1      22.736 -17.498  -0.579  0.00  0.00     0.069 A 
ATOM     13  C   UNL d   1      23.505 -18.457   0.080  0.00  0.00     0.039 A 
ATOM     14  C   UNL d   1      24.866 -18.231   0.346  0.00  0.00     0.039 A 
BRANCH  12  15
ATOM     15  O   UNL d   1      21.412 -17.624  -0.892  0.00  0.00    -0.347 OA
BRANCH  15  16
ATOM     16  C   UNL d   1      20.936 -18.934  -1.229  0.00  0.00     0.214 C 
BRANCH  16  17
ATOM     17  C   UNL d   1      20.079 -19.507  -0.120  0.00  0.00    -0.034 A 
ATOM     18  C   UNL d   1      20.509 -19.415   1.214  0.00  0.00     0.009 A 
ATOM     19  C   UNL d   1      19.826 -20.096   2.224  0.00  0.00     0.001 A 
ATOM     20  C   UNL d   1      18.658 -20.798   1.928  0.00  0.00     0.000 A 
ATOM     21  C   UNL d   1      18.190 -20.845   0.619  0.00  0.00     0.001 A 
ATOM     22  C   UNL d   1      18.898 -20.209  -0.398  0.00  0.00     0.009 A 
ENDBRANCH  16  17
ENDBRANCH  15  16
ENDBRANCH  12  15
ENDBRANCH   8   9
ENDBRANCH   7   8
ENDBRANCH   4   7
ENDBRANCH   2   3
BRANCH   1  23
ATOM     23  C   UNL d   1      28.169 -13.544   5.530  0.00  0.00    -0.014 A 
ATOM     24  C   UNL d   1      28.823 -14.058   6.665  0.00  0.00     0.052 A 
ATOM     25  C   UNL d   1      29.165 -13.233   7.773  0.00  0.00     0.103 A 
ATOM     26  C   UNL d   1      28.871 -11.859   7.710  0.00  0.00     0.112 A 
ATOM     27  C   UNL d   1      28.159 -11.359   6.603  0.00  0.00     0.041 A 
ATOM     28  C   UNL d   1      27.789 -12.201   5.538  0.00  0.00     0.016 A 
BRANCH  25  29
ATOM     29  O   UNL d   1      29.867 -13.896   8.749  0.00  0.00    -0.349 OA
BRANCH  29  30
ATOM     30  C   UNL d   1      29.198 -14.396   9.909  0.00  0.00     0.171 C 
ATOM     31  C   UNL d   1      28.057 -13.448  10.277  0.00  0.00     0.034 C 
ENDBRANCH  29  30
ENDBRANCH  25  29
BRANCH  26  32
ATOM     32  O   UNL d   1      29.171 -10.914   8.733  0.00  0.00    -0.272 OA
BRANCH  32  33
ATOM     33  C   UNL d   1      29.776  -9.732   8.343  0.00  0.00     0.298 C 
ATOM     34  O   UNL d   1      30.202  -9.490   7.208  0.00  0.00    -0.259 OA
BRANCH  33  35
ATOM     35  C   UNL d   1      30.043  -8.774   9.464  0.00  0.00     0.039 C 
ATOM     36  C   UNL d   1      29.658  -7.445   9.208  0.00  0.00     0.017 C 
ATOM     37  C   UNL d   1      29.702  -6.470  10.196  0.00  0.00     0.001 C 
ATOM     38  C   UNL d   1      30.112  -6.821  11.474  0.00  0.00     0.000 C 
ATOM     39  C   UNL d   1      30.630  -8.099  11.712  0.00  0.00     0.001 C 
ATOM     40  C   UNL d   1      30.637  -9.073  10.696  0.00  0.00     0.017 C 
ENDBRANCH  33  35
ENDBRANCH  32  33
ENDBRANCH  26  32
ENDBRANCH   1  23
TORSDOF 13
ENDMDL
MODEL 5
REMARK VINA RESULT:   -10.663      1.263      2.311
REMARK INTER + INTRA:         -17.186
REMARK INTER:                 -14.541
REMARK INTRA:                  -2.645
REMARK CONF_INDEPENDENT:        3.878
REMARK UNBOUND:                -2.645
REMARK  13 active torsions:
REMARK  status: ('A' for Active; 'I' for Inactive)
REMARK    1  A    between atoms: C_2  and  O_3 
REMARK    2  A    between atoms: O_3  and  C_4 
REMARK    3  A    between atoms: C_6  and  C_7 
REMARK    4  A    between atoms: N_8  and  N_9 
REMARK       I    between atoms: N_9  and  C_10 
REMARK    5  A    between atoms: C_10  and  C_12 
REMARK    6  A    between atoms: C_12  and  O_13 
REMARK    7  A    between atoms: O_13  and  C_14 
REMARK    8  A    between atoms: C_17  and  O_18 
REMARK    9  A    between atoms: O_18  and  C_19 
REMARK   10  A    between atoms: C_19  and  C_20 
REMARK   11  A    between atoms: C_30  and  O_31 
REMARK   12  A    between atoms: O_31  and  C_32 
REMARK   13  A    between atoms: C_32  and  C_34 
ROOT
ATOM      1  C   UNL d   1      27.850 -14.643   3.743  0.00  0.00     0.150 C 
ATOM      2  N   UNL d   1      28.439 -14.600   2.584  0.00  0.00    -0.184 NA
ENDROOT
BRANCH   2   3
ATOM      3  N   UNL d   1      27.935 -15.330   1.520  0.00  0.00    -0.246 N 
ATOM      4  C   UNL d   1      27.616 -14.641   0.335  0.00  0.00     0.261 C 
ATOM      5  O   UNL d   1      27.759 -13.421   0.216  0.00  0.00    -0.269 OA
ATOM      6  H   UNL d   1      27.835 -16.333   1.607  0.00  0.00     0.192 HD
BRANCH   4   7
ATOM      7  C   UNL d   1      27.048 -15.505  -0.825  0.00  0.00     0.280 C 
BRANCH   7   8
ATOM      8  O   UNL d   1      26.593 -16.764  -0.311  0.00  0.00    -0.342 OA
BRANCH   8   9
ATOM      9  C   UNL d   1      25.297 -17.158  -0.494  0.00  0.00     0.069 A 
ATOM     10  C   UNL d   1      24.402 -16.137  -0.841  0.00  0.00     0.039 A 
ATOM     11  C   UNL d   1      23.022 -16.377  -0.895  0.00  0.00     0.039 A 
ATOM     12  C   UNL d   1      22.522 -17.660  -0.670  0.00  0.00     0.069 A 
ATOM     13  C   UNL d   1      23.413 -18.681  -0.341  0.00  0.00     0.039 A 
ATOM     14  C   UNL d   1      24.793 -18.432  -0.251  0.00  0.00     0.039 A 
BRANCH  12  15
ATOM     15  O   UNL d   1      21.168 -17.800  -0.793  0.00  0.00    -0.347 OA
BRANCH  15  16
ATOM     16  C   UNL d   1      20.669 -19.096  -1.148  0.00  0.00     0.214 C 
BRANCH  16  17
ATOM     17  C   UNL d   1      19.841 -19.690  -0.028  0.00  0.00    -0.034 A 
ATOM     18  C   UNL d   1      20.277 -19.573   1.302  0.00  0.00     0.009 A 
ATOM     19  C   UNL d   1      19.627 -20.270   2.322  0.00  0.00     0.001 A 
ATOM     20  C   UNL d   1      18.482 -21.014   2.041  0.00  0.00     0.000 A 
ATOM     21  C   UNL d   1      18.005 -21.088   0.736  0.00  0.00     0.001 A 
ATOM     22  C   UNL d   1      18.683 -20.435  -0.292  0.00  0.00     0.009 A 
ENDBRANCH  16  17
ENDBRANCH  15  16
ENDBRANCH  12  15
ENDBRANCH   8   9
ENDBRANCH   7   8
ENDBRANCH   4   7
ENDBRANCH   2   3
BRANCH   1  23
ATOM     23  C   UNL d   1      28.415 -13.906   4.932  0.00  0.00    -0.014 A 
ATOM     24  C   UNL d   1      29.274 -14.532   5.854  0.00  0.00     0.052 A 
ATOM     25  C   UNL d   1      29.925 -13.802   6.887  0.00  0.00     0.103 A 
ATOM     26  C   UNL d   1      29.729 -12.412   6.962  0.00  0.00     0.112 A 
ATOM     27  C   UNL d   1      28.819 -11.798   6.079  0.00  0.00     0.041 A 
ATOM     28  C   UNL d   1      28.149 -12.546   5.093  0.00  0.00     0.016 A 
BRANCH  25  29
ATOM     29  O   UNL d   1      30.783 -14.568   7.638  0.00  0.00    -0.349 OA
BRANCH  29  30
ATOM     30  C   UNL d   1      30.675 -14.592   9.063  0.00  0.00     0.171 C 
ATOM     31  C   UNL d   1      31.950 -15.195   9.652  0.00  0.00     0.034 C 
ENDBRANCH  29  30
ENDBRANCH  25  29
BRANCH  26  32
ATOM     32  O   UNL d   1      30.329 -11.554   7.929  0.00  0.00    -0.272 OA
BRANCH  32  33
ATOM     33  C   UNL d   1      29.490 -10.974   8.865  0.00  0.00     0.298 C 
ATOM     34  O   UNL d   1      29.180  -9.779   8.901  0.00  0.00    -0.259 OA
BRANCH  33  35
ATOM     35  C   UNL d   1      29.081 -11.890   9.980  0.00  0.00     0.039 C 
ATOM     36  C   UNL d   1      28.154 -12.884   9.617  0.00  0.00     0.017 C 
ATOM     37  C   UNL d   1      27.790 -13.896  10.495  0.00  0.00     0.001 C 
ATOM     38  C   UNL d   1      28.373 -13.942  11.752  0.00  0.00     0.000 C 
ATOM     39  C   UNL d   1      29.188 -12.888  12.181  0.00  0.00     0.001 C 
ATOM     40  C   UNL d   1      29.514 -11.832  11.310  0.00  0.00     0.017 C 
ENDBRANCH  33  35
ENDBRANCH  32  33
ENDBRANCH  26  32
ENDBRANCH   1  23
TORSDOF 13
ENDMDL
MODEL 6
REMARK VINA RESULT:   -10.201      1.390      2.830
REMARK INTER + INTRA:         -16.598
REMARK INTER:                 -14.079
REMARK INTRA:                  -2.519
REMARK CONF_INDEPENDENT:        3.878
REMARK UNBOUND:                -2.519
REMARK  13 active torsions:
REMARK  status: ('A' for Active; 'I' for Inactive)
REMARK    1  A    between atoms: C_2  and  O_3 
REMARK    2  A    between atoms: O_3  and  C_4 
REMARK    3  A    between atoms: C_6  and  C_7 
REMARK    4  A    between atoms: N_8  and  N_9 
REMARK       I    between atoms: N_9  and  C_10 
REMARK    5  A    between atoms: C_10  and  C_12 
REMARK    6  A    between atoms: C_12  and  O_13 
REMARK    7  A    between atoms: O_13  and  C_14 
REMARK    8  A    between atoms: C_17  and  O_18 
REMARK    9  A    between atoms: O_18  and  C_19 
REMARK   10  A    between atoms: C_19  and  C_20 
REMARK   11  A    between atoms: C_30  and  O_31 
REMARK   12  A    between atoms: O_31  and  C_32 
REMARK   13  A    between atoms: C_32  and  C_34 
ROOT
ATOM      1  C   UNL d   1      28.515 -14.741   3.974  0.00  0.00     0.150 C 
ATOM      2  N   UNL d   1      27.712 -14.509   2.977  0.00  0.00    -0.184 NA
ENDROOT
BRANCH   2   3
ATOM      3  N   UNL d   1      27.851 -15.215   1.793  0.00  0.00    -0.246 N 
ATOM      4  C   UNL d   1      27.401 -14.611   0.605  0.00  0.00     0.261 C 
ATOM      5  O   UNL d   1      26.883 -13.492   0.583  0.00  0.00    -0.269 OA
ATOM      6  H   UNL d   1      28.294 -16.125   1.805  0.00  0.00     0.192 HD
BRANCH   4   7
ATOM      7  C   UNL d   1      27.574 -15.448  -0.693  0.00  0.00     0.280 C 
BRANCH   7   8
ATOM      8  O   UNL d   1      27.134 -16.793  -0.464  0.00  0.00    -0.342 OA
BRANCH   8   9
ATOM      9  C   UNL d   1      25.806 -17.108  -0.535  0.00  0.00     0.069 A 
ATOM     10  C   UNL d   1      25.012 -16.205  -1.254  0.00  0.00     0.039 A 
ATOM     11  C   UNL d   1      23.615 -16.323  -1.262  0.00  0.00     0.039 A 
ATOM     12  C   UNL d   1      22.995 -17.388  -0.608  0.00  0.00     0.069 A 
ATOM     13  C   UNL d   1      23.786 -18.297   0.094  0.00  0.00     0.039 A 
ATOM     14  C   UNL d   1      25.183 -18.158   0.133  0.00  0.00     0.039 A 
BRANCH  12  15
ATOM     15  O   UNL d   1      21.634 -17.441  -0.716  0.00  0.00    -0.347 OA
BRANCH  15  16
ATOM     16  C   UNL d   1      21.060 -18.645  -1.241  0.00  0.00     0.214 C 
BRANCH  16  17
ATOM     17  C   UNL d   1      20.286 -19.393  -0.175  0.00  0.00    -0.034 A 
ATOM     18  C   UNL d   1      19.124 -20.100  -0.522  0.00  0.00     0.009 A 
ATOM     19  C   UNL d   1      18.302 -20.638   0.471  0.00  0.00     0.001 A 
ATOM     20  C   UNL d   1      18.679 -20.556   1.811  0.00  0.00     0.000 A 
ATOM     21  C   UNL d   1      19.860 -19.910   2.161  0.00  0.00     0.001 A 
ATOM     22  C   UNL d   1      20.655 -19.328   1.176  0.00  0.00     0.009 A 
ENDBRANCH  16  17
ENDBRANCH  15  16
ENDBRANCH  12  15
ENDBRANCH   8   9
ENDBRANCH   7   8
ENDBRANCH   4   7
ENDBRANCH   2   3
BRANCH   1  23
ATOM     23  C   UNL d   1      28.423 -13.943   5.250  0.00  0.00    -0.014 A 
ATOM     24  C   UNL d   1      28.888 -14.450   6.478  0.00  0.00     0.052 A 
ATOM     25  C   UNL d   1      28.940 -13.645   7.650  0.00  0.00     0.103 A 
ATOM     26  C   UNL d   1      28.548 -12.298   7.565  0.00  0.00     0.112 A 
ATOM     27  C   UNL d   1      28.022 -11.810   6.353  0.00  0.00     0.041 A 
ATOM     28  C   UNL d   1      27.936 -12.635   5.216  0.00  0.00     0.016 A 
BRANCH  25  29
ATOM     29  O   UNL d   1      29.495 -14.290   8.729  0.00  0.00    -0.349 OA
BRANCH  29  30
ATOM     30  C   UNL d   1      28.661 -14.864   9.738  0.00  0.00     0.171 C 
ATOM     31  C   UNL d   1      28.031 -13.743  10.565  0.00  0.00     0.034 C 
ENDBRANCH  29  30
ENDBRANCH  25  29
BRANCH  26  32
ATOM     32  O   UNL d   1      28.565 -11.373   8.650  0.00  0.00    -0.272 OA
BRANCH  32  33
ATOM     33  C   UNL d   1      29.542 -10.394   8.629  0.00  0.00     0.298 C 
ATOM     34  O   UNL d   1      29.392  -9.246   8.196  0.00  0.00    -0.259 OA
BRANCH  33  35
ATOM     35  C   UNL d   1      30.904 -10.870   9.035  0.00  0.00     0.039 C 
ATOM     36  C   UNL d   1      30.906 -11.953   9.933  0.00  0.00     0.017 C 
ATOM     37  C   UNL d   1      32.081 -12.602  10.289  0.00  0.00     0.001 C 
ATOM     38  C   UNL d   1      33.279 -12.189   9.725  0.00  0.00     0.000 C 
ATOM     39  C   UNL d   1      33.317 -11.030   8.942  0.00  0.00     0.001 C 
ATOM     40  C   UNL d   1      32.133 -10.338   8.625  0.00  0.00     0.017 C 
ENDBRANCH  33  35
ENDBRANCH  32  33
ENDBRANCH  26  32
ENDBRANCH   1  23
TORSDOF 13
ENDMDL
MODEL 7
REMARK VINA RESULT:   -10.139      6.691     11.351
REMARK INTER + INTRA:         -16.330
REMARK INTER:                 -14.017
REMARK INTRA:                  -2.313
REMARK CONF_INDEPENDENT:        3.878
REMARK UNBOUND:                -2.313
REMARK  13 active torsions:
REMARK  status: ('A' for Active; 'I' for Inactive)
REMARK    1  A    between atoms: C_2  and  O_3 
REMARK    2  A    between atoms: O_3  and  C_4 
REMARK    3  A    between atoms: C_6  and  C_7 
REMARK    4  A    between atoms: N_8  and  N_9 
REMARK       I    between atoms: N_9  and  C_10 
REMARK    5  A    between atoms: C_10  and  C_12 
REMARK    6  A    between atoms: C_12  and  O_13 
REMARK    7  A    between atoms: O_13  and  C_14 
REMARK    8  A    between atoms: C_17  and  O_18 
REMARK    9  A    between atoms: O_18  and  C_19 
REMARK   10  A    between atoms: C_19  and  C_20 
REMARK   11  A    between atoms: C_30  and  O_31 
REMARK   12  A    between atoms: O_31  and  C_32 
REMARK   13  A    between atoms: C_32  and  C_34 
ROOT
ATOM      1  C   UNL d   1      27.882 -17.096   0.102  0.00  0.00     0.150 C 
ATOM      2  N   UNL d   1      28.614 -17.872  -0.644  0.00  0.00    -0.184 NA
ENDROOT
BRANCH   2   3
ATOM      3  N   UNL d   1      29.994 -17.853  -0.524  0.00  0.00    -0.246 N 
ATOM      4  C   UNL d   1      30.675 -16.678  -0.894  0.00  0.00     0.261 C 
ATOM      5  O   UNL d   1      30.093 -15.680  -1.326  0.00  0.00    -0.269 OA
ATOM      6  H   UNL d   1      30.473 -18.663  -0.152  0.00  0.00     0.192 HD
BRANCH   4   7
ATOM      7  C   UNL d   1      32.221 -16.712  -0.748  0.00  0.00     0.280 C 
BRANCH   7   8
ATOM      8  O   UNL d   1      32.679 -18.071  -0.756  0.00  0.00    -0.342 OA
BRANCH   8   9
ATOM      9  C   UNL d   1      32.390 -18.891  -1.810  0.00  0.00     0.069 A 
ATOM     10  C   UNL d   1      32.249 -18.252  -3.048  0.00  0.00     0.039 A 
ATOM     11  C   UNL d   1      31.793 -18.953  -4.173  0.00  0.00     0.039 A 
ATOM     12  C   UNL d   1      31.537 -20.322  -4.092  0.00  0.00     0.069 A 
ATOM     13  C   UNL d   1      31.693 -20.963  -2.864  0.00  0.00     0.039 A 
ATOM     14  C   UNL d   1      32.115 -20.252  -1.728  0.00  0.00     0.039 A 
BRANCH  12  15
ATOM     15  O   UNL d   1      31.142 -20.923  -5.255  0.00  0.00    -0.347 OA
BRANCH  15  16
ATOM     16  C   UNL d   1      30.533 -20.093  -6.252  0.00  0.00     0.214 C 
BRANCH  16  17
ATOM     17  C   UNL d   1      31.191 -20.285  -7.602  0.00  0.00    -0.034 A 
ATOM     18  C   UNL d   1      30.759 -19.529  -8.704  0.00  0.00     0.009 A 
ATOM     19  C   UNL d   1      31.225 -19.823  -9.988  0.00  0.00     0.001 A 
ATOM     20  C   UNL d   1      32.194 -20.808 -10.171  0.00  0.00     0.000 A 
ATOM     21  C   UNL d   1      32.675 -21.521  -9.077  0.00  0.00     0.001 A 
ATOM     22  C   UNL d   1      32.173 -21.265  -7.803  0.00  0.00     0.009 A 
ENDBRANCH  16  17
ENDBRANCH  15  16
ENDBRANCH  12  15
ENDBRANCH   8   9
ENDBRANCH   7   8
ENDBRANCH   4   7
ENDBRANCH   2   3
BRANCH   1  23
ATOM     23  C   UNL d   1      26.383 -17.055  -0.053  0.00  0.00    -0.014 A 
ATOM     24  C   UNL d   1      25.753 -16.173  -0.951  0.00  0.00     0.052 A 
ATOM     25  C   UNL d   1      24.355 -16.237  -1.207  0.00  0.00     0.103 A 
ATOM     26  C   UNL d   1      23.593 -17.232  -0.570  0.00  0.00     0.112 A 
ATOM     27  C   UNL d   1      24.213 -18.071   0.377  0.00  0.00     0.041 A 
ATOM     28  C   UNL d   1      25.589 -17.962   0.651  0.00  0.00     0.016 A 
BRANCH  25  29
ATOM     29  O   UNL d   1      23.937 -15.349  -2.169  0.00  0.00    -0.349 OA
BRANCH  29  30
ATOM     30  C   UNL d   1      24.863 -14.437  -2.764  0.00  0.00     0.171 C 
ATOM     31  C   UNL d   1      25.533 -15.112  -3.960  0.00  0.00     0.034 C 
ENDBRANCH  29  30
ENDBRANCH  25  29
BRANCH  26  32
ATOM     32  O   UNL d   1      22.192 -17.424  -0.745  0.00  0.00    -0.272 OA
BRANCH  32  33
ATOM     33  C   UNL d   1      21.768 -18.698  -1.083  0.00  0.00     0.298 C 
ATOM     34  O   UNL d   1      22.124 -19.325  -2.087  0.00  0.00    -0.259 OA
BRANCH  33  35
ATOM     35  C   UNL d   1      20.679 -19.240  -0.206  0.00  0.00     0.039 C 
ATOM     36  C   UNL d   1      19.538 -19.690  -0.893  0.00  0.00     0.017 C 
ATOM     37  C   UNL d   1      18.507 -20.352  -0.239  0.00  0.00     0.001 C 
ATOM     38  C   UNL d   1      18.618 -20.598   1.121  0.00  0.00     0.000 C 
ATOM     39  C   UNL d   1      19.676 -20.037   1.846  0.00  0.00     0.001 C 
ATOM     40  C   UNL d   1      20.693 -19.318   1.192  0.00  0.00     0.017 C 
ENDBRANCH  33  35
ENDBRANCH  32  33
ENDBRANCH  26  32
ENDBRANCH   1  23
TORSDOF 13
ENDMDL
MODEL 8
REMARK VINA RESULT:   -10.019      6.458     11.794
REMARK INTER + INTRA:         -16.300
REMARK INTER:                 -13.897
REMARK INTRA:                  -2.404
REMARK CONF_INDEPENDENT:        3.878
REMARK UNBOUND:                -2.404
REMARK  13 active torsions:
REMARK  status: ('A' for Active; 'I' for Inactive)
REMARK    1  A    between atoms: C_2  and  O_3 
REMARK    2  A    between atoms: O_3  and  C_4 
REMARK    3  A    between atoms: C_6  and  C_7 
REMARK    4  A    between atoms: N_8  and  N_9 
REMARK       I    between atoms: N_9  and  C_10 
REMARK    5  A    between atoms: C_10  and  C_12 
REMARK    6  A    between atoms: C_12  and  O_13 
REMARK    7  A    between atoms: O_13  and  C_14 
REMARK    8  A    between atoms: C_17  and  O_18 
REMARK    9  A    between atoms: O_18  and  C_19 
REMARK   10  A    between atoms: C_19  and  C_20 
REMARK   11  A    between atoms: C_30  and  O_31 
REMARK   12  A    between atoms: O_31  and  C_32 
REMARK   13  A    between atoms: C_32  and  C_34 
ROOT
ATOM      1  C   UNL d   1      28.380 -17.167  -0.127  0.00  0.00     0.150 C 
ATOM      2  N   UNL d   1      29.079 -17.828  -1.002  0.00  0.00    -0.184 NA
ENDROOT
BRANCH   2   3
ATOM      3  N   UNL d   1      30.463 -17.825  -0.934  0.00  0.00    -0.246 N 
ATOM      4  C   UNL d   1      31.123 -16.582  -0.926  0.00  0.00     0.261 C 
ATOM      5  O   UNL d   1      30.520 -15.508  -0.988  0.00  0.00    -0.269 OA
ATOM      6  H   UNL d   1      30.960 -18.703  -0.863  0.00  0.00     0.192 HD
BRANCH   4   7
ATOM      7  C   UNL d   1      32.675 -16.635  -0.855  0.00  0.00     0.280 C 
BRANCH   7   8
ATOM      8  O   UNL d   1      33.108 -17.998  -0.759  0.00  0.00    -0.342 OA
BRANCH   8   9
ATOM      9  C   UNL d   1      33.204 -18.609   0.459  0.00  0.00     0.069 A 
ATOM     10  C   UNL d   1      33.206 -20.010   0.431  0.00  0.00     0.039 A 
ATOM     11  C   UNL d   1      33.133 -20.754   1.617  0.00  0.00     0.039 A 
ATOM     12  C   UNL d   1      33.126 -20.109   2.853  0.00  0.00     0.069 A 
ATOM     13  C   UNL d   1      33.141 -18.715   2.884  0.00  0.00     0.039 A 
ATOM     14  C   UNL d   1      33.177 -17.968   1.694  0.00  0.00     0.039 A 
BRANCH  12  15
ATOM     15  O   UNL d   1      33.101 -20.924   3.950  0.00  0.00    -0.347 OA
BRANCH  15  16
ATOM     16  C   UNL d   1      33.971 -20.591   5.039  0.00  0.00     0.214 C 
BRANCH  16  17
ATOM     17  C   UNL d   1      34.423 -21.833   5.779  0.00  0.00    -0.034 A 
ATOM     18  C   UNL d   1      34.964 -22.914   5.064  0.00  0.00     0.009 A 
ATOM     19  C   UNL d   1      35.211 -24.130   5.705  0.00  0.00     0.001 A 
ATOM     20  C   UNL d   1      35.012 -24.250   7.079  0.00  0.00     0.000 A 
ATOM     21  C   UNL d   1      34.534 -23.165   7.808  0.00  0.00     0.001 A 
ATOM     22  C   UNL d   1      34.237 -21.967   7.162  0.00  0.00     0.009 A 
ENDBRANCH  16  17
ENDBRANCH  15  16
ENDBRANCH  12  15
ENDBRANCH   8   9
ENDBRANCH   7   8
ENDBRANCH   4   7
ENDBRANCH   2   3
BRANCH   1  23
ATOM     23  C   UNL d   1      26.876 -17.105  -0.217  0.00  0.00    -0.014 A 
ATOM     24  C   UNL d   1      26.220 -16.227  -1.101  0.00  0.00     0.052 A 
ATOM     25  C   UNL d   1      24.812 -16.273  -1.295  0.00  0.00     0.103 A 
ATOM     26  C   UNL d   1      24.064 -17.247  -0.611  0.00  0.00     0.112 A 
ATOM     27  C   UNL d   1      24.712 -18.081   0.321  0.00  0.00     0.041 A 
ATOM     28  C   UNL d   1      26.100 -17.990   0.533  0.00  0.00     0.016 A 
BRANCH  25  29
ATOM     29  O   UNL d   1      24.366 -15.394  -2.252  0.00  0.00    -0.349 OA
BRANCH  29  30
ATOM     30  C   UNL d   1      25.273 -14.489  -2.884  0.00  0.00     0.171 C 
ATOM     31  C   UNL d   1      25.754 -15.098  -4.200  0.00  0.00     0.034 C 
ENDBRANCH  29  30
ENDBRANCH  25  29
BRANCH  26  32
ATOM     32  O   UNL d   1      22.654 -17.421  -0.723  0.00  0.00    -0.272 OA
BRANCH  32  33
ATOM     33  C   UNL d   1      22.201 -18.675  -1.094  0.00  0.00     0.298 C 
ATOM     34  O   UNL d   1      22.605 -19.320  -2.067  0.00  0.00    -0.259 OA
BRANCH  33  35
ATOM     35  C   UNL d   1      21.024 -19.165  -0.305  0.00  0.00     0.039 C 
ATOM     36  C   UNL d   1      19.883 -19.465  -1.072  0.00  0.00     0.017 C 
ATOM     37  C   UNL d   1      18.765 -20.066  -0.510  0.00  0.00     0.001 C 
ATOM     38  C   UNL d   1      18.783 -20.403   0.835  0.00  0.00     0.000 C 
ATOM     39  C   UNL d   1      19.848 -19.989   1.642  0.00  0.00     0.001 C 
ATOM     40  C   UNL d   1      20.959 -19.330   1.084  0.00  0.00     0.017 C 
ENDBRANCH  33  35
ENDBRANCH  32  33
ENDBRANCH  26  32
ENDBRANCH   1  23
TORSDOF 13
ENDMDL
MODEL 9
REMARK VINA RESULT:    -9.568      3.565     10.270
REMARK INTER + INTRA:         -16.472
REMARK INTER:                 -13.446
REMARK INTRA:                  -3.026
REMARK CONF_INDEPENDENT:        3.878
REMARK UNBOUND:                -3.026
REMARK  13 active torsions:
REMARK  status: ('A' for Active; 'I' for Inactive)
REMARK    1  A    between atoms: C_2  and  O_3 
REMARK    2  A    between atoms: O_3  and  C_4 
REMARK    3  A    between atoms: C_6  and  C_7 
REMARK    4  A    between atoms: N_8  and  N_9 
REMARK       I    between atoms: N_9  and  C_10 
REMARK    5  A    between atoms: C_10  and  C_12 
REMARK    6  A    between atoms: C_12  and  O_13 
REMARK    7  A    between atoms: O_13  and  C_14 
REMARK    8  A    between atoms: C_17  and  O_18 
REMARK    9  A    between atoms: O_18  and  C_19 
REMARK   10  A    between atoms: C_19  and  C_20 
REMARK   11  A    between atoms: C_30  and  O_31 
REMARK   12  A    between atoms: O_31  and  C_32 
REMARK   13  A    between atoms: C_32  and  C_34 
ROOT
ATOM      1  C   UNL d   1      28.223 -16.950  -0.104  0.00  0.00     0.150 C 
ATOM      2  N   UNL d   1      28.923 -17.937  -0.582  0.00  0.00    -0.184 NA
ENDROOT
BRANCH   2   3
ATOM      3  N   UNL d   1      30.305 -17.919  -0.489  0.00  0.00    -0.246 N 
ATOM      4  C   UNL d   1      31.006 -16.931  -1.206  0.00  0.00     0.261 C 
ATOM      5  O   UNL d   1      30.438 -16.096  -1.915  0.00  0.00    -0.269 OA
ATOM      6  H   UNL d   1      30.773 -18.590   0.108  0.00  0.00     0.192 HD
BRANCH   4   7
ATOM      7  C   UNL d   1      32.554 -16.960  -1.072  0.00  0.00     0.280 C 
BRANCH   7   8
ATOM      8  O   UNL d   1      32.994 -15.826  -0.313  0.00  0.00    -0.342 OA
BRANCH   8   9
ATOM      9  C   UNL d   1      32.304 -15.426   0.796  0.00  0.00     0.069 A 
ATOM     10  C   UNL d   1      31.599 -14.223   0.664  0.00  0.00     0.039 A 
ATOM     11  C   UNL d   1      30.989 -13.620   1.773  0.00  0.00     0.039 A 
ATOM     12  C   UNL d   1      31.016 -14.248   3.018  0.00  0.00     0.069 A 
ATOM     13  C   UNL d   1      31.703 -15.454   3.148  0.00  0.00     0.039 A 
ATOM     14  C   UNL d   1      32.346 -16.040   2.044  0.00  0.00     0.039 A 
BRANCH  12  15
ATOM     15  O   UNL d   1      30.352 -13.604   4.024  0.00  0.00    -0.347 OA
BRANCH  15  16
ATOM     16  C   UNL d   1      29.011 -14.024   4.304  0.00  0.00     0.214 C 
BRANCH  16  17
ATOM     17  C   UNL d   1      28.061 -13.595   3.205  0.00  0.00    -0.034 A 
ATOM     18  C   UNL d   1      27.810 -14.453   2.123  0.00  0.00     0.009 A 
ATOM     19  C   UNL d   1      27.087 -14.001   1.016  0.00  0.00     0.001 A 
ATOM     20  C   UNL d   1      26.529 -12.724   1.020  0.00  0.00     0.000 A 
ATOM     21  C   UNL d   1      26.719 -11.887   2.115  0.00  0.00     0.001 A 
ATOM     22  C   UNL d   1      27.484 -12.317   3.197  0.00  0.00     0.009 A 
ENDBRANCH  16  17
ENDBRANCH  15  16
ENDBRANCH  12  15
ENDBRANCH   8   9
ENDBRANCH   7   8
ENDBRANCH   4   7
ENDBRANCH   2   3
BRANCH   1  23
ATOM     23  C   UNL d   1      26.723 -16.918  -0.248  0.00  0.00    -0.014 A 
ATOM     24  C   UNL d   1      26.084 -16.069  -1.172  0.00  0.00     0.052 A 
ATOM     25  C   UNL d   1      24.684 -16.145  -1.415  0.00  0.00     0.103 A 
ATOM     26  C   UNL d   1      23.930 -17.119  -0.738  0.00  0.00     0.112 A 
ATOM     27  C   UNL d   1      24.559 -17.923   0.233  0.00  0.00     0.041 A 
ATOM     28  C   UNL d   1      25.936 -17.802   0.492  0.00  0.00     0.016 A 
BRANCH  25  29
ATOM     29  O   UNL d   1      24.257 -15.293  -2.405  0.00  0.00    -0.349 OA
BRANCH  29  30
ATOM     30  C   UNL d   1      25.197 -14.678  -3.287  0.00  0.00     0.171 C 
ATOM     31  C   UNL d   1      25.531 -13.280  -2.769  0.00  0.00     0.034 C 
ENDBRANCH  29  30
ENDBRANCH  25  29
BRANCH  26  32
ATOM     32  O   UNL d   1      22.528 -17.321  -0.896  0.00  0.00    -0.272 OA
BRANCH  32  33
ATOM     33  C   UNL d   1      22.100 -18.615  -1.135  0.00  0.00     0.298 C 
ATOM     34  O   UNL d   1      22.466 -19.325  -2.077  0.00  0.00    -0.259 OA
BRANCH  33  35
ATOM     35  C   UNL d   1      20.995 -19.077  -0.232  0.00  0.00     0.039 C 
ATOM     36  C   UNL d   1      19.834 -19.512  -0.897  0.00  0.00     0.017 C 
ATOM     37  C   UNL d   1      18.782 -20.106  -0.212  0.00  0.00     0.001 C 
ATOM     38  C   UNL d   1      18.889 -20.297   1.157  0.00  0.00     0.000 C 
ATOM     39  C   UNL d   1      19.970 -19.747   1.855  0.00  0.00     0.001 C 
ATOM     40  C   UNL d   1      21.012 -19.097   1.168  0.00  0.00     0.017 C 
ENDBRANCH  33  35
ENDBRANCH  32  33
ENDBRANCH  26  32
ENDBRANCH   1  23
TORSDOF 13
ENDMDL
