MODEL 1
REMARK VINA RESULT:   -10.978      0.000      0.000
REMARK INTER + INTRA:         -14.738
REMARK INTER:                 -13.364
REMARK INTRA:                  -1.374
REMARK CONF_INDEPENDENT:        2.386
REMARK UNBOUND:                -1.374
REMARK  8 active torsions:
REMARK  status: ('A' for Active; 'I' for Inactive)
REMARK    1  A    between atoms: O_2  and  C_3 
REMARK    2  A    between atoms: C_7  and  C_8 
REMARK    3  A    between atoms: C_8  and  C_9 
REMARK    4  A    between atoms: C_9  and  N_10 
REMARK       I    between atoms: N_10  and  C_11 
REMARK    5  A    between atoms: C_11  and  C_13 
REMARK    6  A    between atoms: C_13  and  S_14 
REMARK    7  A    between atoms: S_14  and  C_15 
REMARK    8  A    between atoms: N_19  and  C_20 
ROOT
ATOM      1  N   UNL d   1      27.980 -14.632   1.702  0.00  0.00    -0.360 N 
ATOM      2  C   UNL d   1      27.163 -13.567   2.040  0.00  0.00     0.227 C 
ATOM      3  O   UNL d   1      26.500 -12.980   1.177  0.00  0.00    -0.273 OA
ATOM      4  H   UNL d   1      28.564 -15.110   2.371  0.00  0.00     0.162 HD
ENDROOT
BRANCH   2   5
ATOM      5  C   UNL d   1      27.136 -13.182   3.528  0.00  0.00     0.180 C 
BRANCH   5   6
ATOM      6  S   UNL d   1      28.456 -11.943   3.822  0.00  0.00    -0.116 SA
BRANCH   6   7
ATOM      7  C   UNL d   1      29.925 -12.879   4.240  0.00  0.00     0.267 C 
ATOM      8  N   UNL d   1      30.158 -13.941   3.235  0.00  0.00    -0.105 NA
ATOM      9  N   UNL d   1      30.815 -14.998   3.983  0.00  0.00     0.072 N 
ATOM     10  H   UNL d   1      30.650 -13.580   2.420  0.00  0.00     0.158 HD
ATOM     11  N   UNL d   1      30.361 -14.899   5.350  0.00  0.00    -0.042 NA
ATOM     12  H   UNL d   1      31.847 -14.905   3.943  0.00  0.00     0.325 HD
ATOM     13  H   UNL d   1      30.580 -15.934   3.594  0.00  0.00     0.325 HD
ATOM     14  N   UNL d   1      29.946 -13.563   5.547  0.00  0.00    -0.259 N 
ATOM     15  H   UNL d   1      31.053 -15.193   6.052  0.00  0.00     0.181 HD
BRANCH  14  16
ATOM     16  C   UNL d   1      29.341 -13.183   6.747  0.00  0.00     0.050 A 
ATOM     17  C   UNL d   1      28.766 -11.919   6.968  0.00  0.00     0.031 A 
ATOM     18  C   UNL d   1      28.262 -11.526   8.215  0.00  0.00     0.003 A 
ATOM     19  C   UNL d   1      28.283 -12.406   9.283  0.00  0.00     0.007 A 
ATOM     20  C   UNL d   1      28.796 -13.691   9.104  0.00  0.00    -0.060 A 
ATOM     21  C   UNL d   1      28.835 -14.637  10.271  0.00  0.00     0.048 C 
ATOM     22  C   UNL d   1      29.303 -14.072   7.840  0.00  0.00     0.037 A 
ENDBRANCH  14  16
ENDBRANCH   6   7
ENDBRANCH   5   6
ENDBRANCH   2   5
BRANCH   1  23
ATOM     23  C   UNL d   1      28.024 -15.024   0.307  0.00  0.00     0.127 C 
BRANCH  23  24
ATOM     24  C   UNL d   1      26.697 -15.114  -0.438  0.00  0.00     0.060 C 
BRANCH  24  25
ATOM     25  C   UNL d   1      26.055 -16.480  -0.372  0.00  0.00    -0.029 A 
ATOM     26  C   UNL d   1      24.664 -16.824  -0.520  0.00  0.00    -0.002 A 
ATOM     27  C   UNL d   1      23.478 -16.096  -0.759  0.00  0.00     0.017 A 
ATOM     28  C   UNL d   1      24.547 -18.208  -0.386  0.00  0.00     0.045 A 
ATOM     29  C   UNL d   1      22.249 -16.734  -0.893  0.00  0.00     0.038 A 
ATOM     30  C   UNL d   1      22.162 -18.109  -0.764  0.00  0.00     0.070 A 
ATOM     31  C   UNL d   1      23.309 -18.869  -0.485  0.00  0.00     0.067 A 
ATOM     32  N   UNL d   1      25.813 -18.697  -0.156  0.00  0.00    -0.365 N 
ATOM     33  C   UNL d   1      26.728 -17.675  -0.178  0.00  0.00     0.096 A 
ATOM     34  H   UNL d   1      26.034 -19.674  -0.015  0.00  0.00     0.165 HD
BRANCH  30  35
ATOM     35  O   UNL d   1      20.977 -18.791  -0.816  0.00  0.00    -0.356 OA
ATOM     36  C   UNL d   1      20.753 -19.696   0.264  0.00  0.00     0.210 C 
ENDBRANCH  30  35
ENDBRANCH  24  25
ENDBRANCH  23  24
ENDBRANCH   1  23
TORSDOF 8
ENDMDL
MODEL 2
REMARK VINA RESULT:    -9.797      2.581      3.894
REMARK INTER + INTRA:         -13.746
REMARK INTER:                 -12.183
REMARK INTRA:                  -1.563
REMARK CONF_INDEPENDENT:        2.386
REMARK UNBOUND:                -1.563
REMARK  8 active torsions:
REMARK  status: ('A' for Active; 'I' for Inactive)
REMARK    1  A    between atoms: O_2  and  C_3 
REMARK    2  A    between atoms: C_7  and  C_8 
REMARK    3  A    between atoms: C_8  and  C_9 
REMARK    4  A    between atoms: C_9  and  N_10 
REMARK       I    between atoms: N_10  and  C_11 
REMARK    5  A    between atoms: C_11  and  C_13 
REMARK    6  A    between atoms: C_13  and  S_14 
REMARK    7  A    between atoms: S_14  and  C_15 
REMARK    8  A    between atoms: N_19  and  C_20 
ROOT
ATOM      1  N   UNL d   1      28.014 -14.986   2.064  0.00  0.00    -0.360 N 
ATOM      2  C   UNL d   1      27.215 -13.862   2.194  0.00  0.00     0.227 C 
ATOM      3  O   UNL d   1      26.645 -13.375   1.211  0.00  0.00    -0.273 OA
ATOM      4  H   UNL d   1      28.525 -15.388   2.834  0.00  0.00     0.162 HD
ENDROOT
BRANCH   2   5
ATOM      5  C   UNL d   1      27.087 -13.284   3.612  0.00  0.00     0.180 C 
BRANCH   5   6
ATOM      6  S   UNL d   1      28.380 -11.999   3.825  0.00  0.00    -0.116 SA
BRANCH   6   7
ATOM      7  C   UNL d   1      29.884 -12.879   4.240  0.00  0.00     0.267 C 
ATOM      8  N   UNL d   1      30.112 -13.983   3.280  0.00  0.00    -0.105 NA
ATOM      9  N   UNL d   1      30.818 -14.986   4.057  0.00  0.00     0.072 N 
ATOM     10  H   UNL d   1      30.568 -13.651   2.433  0.00  0.00     0.158 HD
ATOM     11  N   UNL d   1      30.405 -14.830   5.431  0.00  0.00    -0.042 NA
ATOM     12  H   UNL d   1      31.847 -14.871   3.979  0.00  0.00     0.325 HD
ATOM     13  H   UNL d   1      30.595 -15.946   3.722  0.00  0.00     0.325 HD
ATOM     14  N   UNL d   1      29.964 -13.497   5.577  0.00  0.00    -0.259 N 
ATOM     15  H   UNL d   1      31.127 -15.073   6.124  0.00  0.00     0.181 HD
BRANCH  14  16
ATOM     16  C   UNL d   1      29.387 -13.072   6.776  0.00  0.00     0.050 A 
ATOM     17  C   UNL d   1      29.021 -11.741   7.040  0.00  0.00     0.031 A 
ATOM     18  C   UNL d   1      28.544 -11.322   8.290  0.00  0.00     0.003 A 
ATOM     19  C   UNL d   1      28.383 -12.238   9.315  0.00  0.00     0.007 A 
ATOM     20  C   UNL d   1      28.684 -13.581   9.091  0.00  0.00    -0.060 A 
ATOM     21  C   UNL d   1      28.526 -14.568  10.212  0.00  0.00     0.048 C 
ATOM     22  C   UNL d   1      29.165 -13.987   7.825  0.00  0.00     0.037 A 
ENDBRANCH  14  16
ENDBRANCH   6   7
ENDBRANCH   5   6
ENDBRANCH   2   5
BRANCH   1  23
ATOM     23  C   UNL d   1      28.151 -15.558   0.740  0.00  0.00     0.127 C 
BRANCH  23  24
ATOM     24  C   UNL d   1      27.068 -16.527   0.278  0.00  0.00     0.060 C 
BRANCH  24  25
ATOM     25  C   UNL d   1      26.380 -16.105  -0.999  0.00  0.00    -0.029 A 
ATOM     26  C   UNL d   1      26.968 -15.834  -2.286  0.00  0.00    -0.002 A 
ATOM     27  C   UNL d   1      28.282 -15.853  -2.804  0.00  0.00     0.017 A 
ATOM     28  C   UNL d   1      25.941 -15.483  -3.162  0.00  0.00     0.045 A 
ATOM     29  C   UNL d   1      28.538 -15.570  -4.142  0.00  0.00     0.038 A 
ATOM     30  C   UNL d   1      27.500 -15.233  -4.992  0.00  0.00     0.070 A 
ATOM     31  C   UNL d   1      26.183 -15.161  -4.510  0.00  0.00     0.067 A 
ATOM     32  N   UNL d   1      24.768 -15.527  -2.444  0.00  0.00    -0.365 N 
ATOM     33  C   UNL d   1      25.015 -15.930  -1.155  0.00  0.00     0.096 A 
ATOM     34  H   UNL d   1      23.854 -15.314  -2.822  0.00  0.00     0.165 HD
BRANCH  30  35
ATOM     35  O   UNL d   1      27.690 -14.877  -6.300  0.00  0.00    -0.356 OA
ATOM     36  C   UNL d   1      28.132 -13.536  -6.503  0.00  0.00     0.210 C 
ENDBRANCH  30  35
ENDBRANCH  24  25
ENDBRANCH  23  24
ENDBRANCH   1  23
TORSDOF 8
ENDMDL
MODEL 3
REMARK VINA RESULT:    -9.376      2.540      3.577
REMARK INTER + INTRA:         -14.018
REMARK INTER:                 -11.762
REMARK INTRA:                  -2.257
REMARK CONF_INDEPENDENT:        2.386
REMARK UNBOUND:                -2.257
REMARK  8 active torsions:
REMARK  status: ('A' for Active; 'I' for Inactive)
REMARK    1  A    between atoms: O_2  and  C_3 
REMARK    2  A    between atoms: C_7  and  C_8 
REMARK    3  A    between atoms: C_8  and  C_9 
REMARK    4  A    between atoms: C_9  and  N_10 
REMARK       I    between atoms: N_10  and  C_11 
REMARK    5  A    between atoms: C_11  and  C_13 
REMARK    6  A    between atoms: C_13  and  S_14 
REMARK    7  A    between atoms: S_14  and  C_15 
REMARK    8  A    between atoms: N_19  and  C_20 
ROOT
ATOM      1  N   UNL d   1      28.852 -14.796   1.570  0.00  0.00    -0.360 N 
ATOM      2  C   UNL d   1      29.543 -14.267   0.494  0.00  0.00     0.227 C 
ATOM      3  O   UNL d   1      28.938 -13.846  -0.500  0.00  0.00    -0.273 OA
ATOM      4  H   UNL d   1      29.311 -15.184   2.380  0.00  0.00     0.162 HD
ENDROOT
BRANCH   2   5
ATOM      5  C   UNL d   1      31.074 -14.234   0.623  0.00  0.00     0.180 C 
BRANCH   5   6
ATOM      6  S   UNL d   1      31.526 -12.830   1.716  0.00  0.00    -0.116 SA
BRANCH   6   7
ATOM      7  C   UNL d   1      31.105 -13.347   3.379  0.00  0.00     0.267 C 
ATOM      8  N   UNL d   1      31.309 -14.805   3.528  0.00  0.00    -0.105 NA
ATOM      9  N   UNL d   1      30.325 -15.200   4.520  0.00  0.00     0.072 N 
ATOM     10  H   UNL d   1      32.282 -15.025   3.733  0.00  0.00     0.158 HD
ATOM     11  N   UNL d   1      29.218 -14.280   4.412  0.00  0.00    -0.042 NA
ATOM     12  H   UNL d   1      30.720 -15.171   5.479  0.00  0.00     0.325 HD
ATOM     13  H   UNL d   1      29.998 -16.175   4.356  0.00  0.00     0.325 HD
ATOM     14  N   UNL d   1      29.727 -13.093   3.841  0.00  0.00    -0.259 N 
ATOM     15  H   UNL d   1      28.725 -14.099   5.297  0.00  0.00     0.181 HD
BRANCH  14  16
ATOM     16  C   UNL d   1      28.864 -12.048   3.499  0.00  0.00     0.050 A 
ATOM     17  C   UNL d   1      28.163 -11.273   4.439  0.00  0.00     0.031 A 
ATOM     18  C   UNL d   1      27.222 -10.303   4.066  0.00  0.00     0.003 A 
ATOM     19  C   UNL d   1      26.978 -10.049   2.727  0.00  0.00     0.007 A 
ATOM     20  C   UNL d   1      27.685 -10.755   1.753  0.00  0.00    -0.060 A 
ATOM     21  C   UNL d   1      27.403 -10.490   0.302  0.00  0.00     0.048 C 
ATOM     22  C   UNL d   1      28.629 -11.732   2.146  0.00  0.00     0.037 A 
ENDBRANCH  14  16
ENDBRANCH   6   7
ENDBRANCH   5   6
ENDBRANCH   2   5
BRANCH   1  23
ATOM     23  C   UNL d   1      27.406 -14.837   1.482  0.00  0.00     0.127 C 
BRANCH  23  24
ATOM     24  C   UNL d   1      26.796 -15.181   0.127  0.00  0.00     0.060 C 
BRANCH  24  25
ATOM     25  C   UNL d   1      26.239 -16.583   0.050  0.00  0.00    -0.029 A 
ATOM     26  C   UNL d   1      24.896 -16.997  -0.267  0.00  0.00    -0.002 A 
ATOM     27  C   UNL d   1      23.697 -16.325  -0.594  0.00  0.00     0.017 A 
ATOM     28  C   UNL d   1      24.854 -18.391  -0.220  0.00  0.00     0.045 A 
ATOM     29  C   UNL d   1      22.533 -17.024  -0.895  0.00  0.00     0.038 A 
ATOM     30  C   UNL d   1      22.521 -18.407  -0.851  0.00  0.00     0.070 A 
ATOM     31  C   UNL d   1      23.678 -19.115  -0.489  0.00  0.00     0.067 A 
ATOM     32  N   UNL d   1      26.117 -18.819   0.119  0.00  0.00    -0.365 N 
ATOM     33  C   UNL d   1      26.963 -17.746   0.252  0.00  0.00     0.096 A 
ATOM     34  H   UNL d   1      26.385 -19.788   0.231  0.00  0.00     0.165 HD
BRANCH  30  35
ATOM     35  O   UNL d   1      21.394 -19.153  -1.067  0.00  0.00    -0.356 OA
ATOM     36  C   UNL d   1      20.651 -19.480   0.106  0.00  0.00     0.210 C 
ENDBRANCH  30  35
ENDBRANCH  24  25
ENDBRANCH  23  24
ENDBRANCH   1  23
TORSDOF 8
ENDMDL
MODEL 4
REMARK VINA RESULT:    -8.692      5.870      8.220
REMARK INTER + INTRA:         -13.990
REMARK INTER:                 -11.078
REMARK INTRA:                  -2.911
REMARK CONF_INDEPENDENT:        2.386
REMARK UNBOUND:                -2.911
REMARK  8 active torsions:
REMARK  status: ('A' for Active; 'I' for Inactive)
REMARK    1  A    between atoms: O_2  and  C_3 
REMARK    2  A    between atoms: C_7  and  C_8 
REMARK    3  A    between atoms: C_8  and  C_9 
REMARK    4  A    between atoms: C_9  and  N_10 
REMARK       I    between atoms: N_10  and  C_11 
REMARK    5  A    between atoms: C_11  and  C_13 
REMARK    6  A    between atoms: C_13  and  S_14 
REMARK    7  A    between atoms: S_14  and  C_15 
REMARK    8  A    between atoms: N_19  and  C_20 
ROOT
ATOM      1  N   UNL d   1      26.510 -13.078  -1.920  0.00  0.00    -0.360 N 
ATOM      2  C   UNL d   1      27.044 -11.818  -1.713  0.00  0.00     0.227 C 
ATOM      3  O   UNL d   1      27.592 -11.531  -0.642  0.00  0.00    -0.273 OA
ATOM      4  H   UNL d   1      26.022 -13.336  -2.764  0.00  0.00     0.162 HD
ENDROOT
BRANCH   2   5
ATOM      5  C   UNL d   1      26.916 -10.829  -2.883  0.00  0.00     0.180 C 
BRANCH   5   6
ATOM      6  S   UNL d   1      27.597 -11.631  -4.386  0.00  0.00    -0.116 SA
BRANCH   6   7
ATOM      7  C   UNL d   1      26.307 -12.716  -4.993  0.00  0.00     0.267 C 
ATOM      8  N   UNL d   1      25.075 -12.543  -4.190  0.00  0.00    -0.105 NA
ATOM      9  N   UNL d   1      24.436 -13.846  -4.239  0.00  0.00     0.072 N 
ATOM     10  H   UNL d   1      24.527 -11.750  -4.516  0.00  0.00     0.158 HD
ATOM     11  N   UNL d   1      25.482 -14.829  -4.397  0.00  0.00    -0.042 NA
ATOM     12  H   UNL d   1      23.765 -13.911  -5.028  0.00  0.00     0.325 HD
ATOM     13  H   UNL d   1      23.897 -14.032  -3.368  0.00  0.00     0.325 HD
ATOM     14  N   UNL d   1      26.580 -14.166  -4.988  0.00  0.00    -0.259 N 
ATOM     15  H   UNL d   1      25.205 -15.664  -4.930  0.00  0.00     0.181 HD
BRANCH  14  16
ATOM     16  C   UNL d   1      27.796 -14.830  -5.160  0.00  0.00     0.050 A 
ATOM     17  C   UNL d   1      28.529 -14.825  -6.360  0.00  0.00     0.031 A 
ATOM     18  C   UNL d   1      29.691 -15.588  -6.539  0.00  0.00     0.003 A 
ATOM     19  C   UNL d   1      30.183 -16.360  -5.500  0.00  0.00     0.007 A 
ATOM     20  C   UNL d   1      29.522 -16.361  -4.271  0.00  0.00    -0.060 A 
ATOM     21  C   UNL d   1      30.048 -17.215  -3.153  0.00  0.00     0.048 C 
ATOM     22  C   UNL d   1      28.350 -15.587  -4.107  0.00  0.00     0.037 A 
ENDBRANCH  14  16
ENDBRANCH   6   7
ENDBRANCH   5   6
ENDBRANCH   2   5
BRANCH   1  23
ATOM     23  C   UNL d   1      26.619 -14.036  -0.837  0.00  0.00     0.127 C 
BRANCH  23  24
ATOM     24  C   UNL d   1      27.344 -15.345  -1.129  0.00  0.00     0.060 C 
BRANCH  24  25
ATOM     25  C   UNL d   1      26.570 -16.574  -0.714  0.00  0.00    -0.029 A 
ATOM     26  C   UNL d   1      25.142 -16.765  -0.684  0.00  0.00    -0.002 A 
ATOM     27  C   UNL d   1      24.022 -15.963  -0.999  0.00  0.00     0.017 A 
ATOM     28  C   UNL d   1      24.892 -18.062  -0.234  0.00  0.00     0.045 A 
ATOM     29  C   UNL d   1      22.725 -16.457  -0.901  0.00  0.00     0.038 A 
ATOM     30  C   UNL d   1      22.506 -17.750  -0.461  0.00  0.00     0.070 A 
ATOM     31  C   UNL d   1      23.586 -18.569  -0.097  0.00  0.00     0.067 A 
ATOM     32  N   UNL d   1      26.114 -18.644   0.012  0.00  0.00    -0.365 N 
ATOM     33  C   UNL d   1      27.127 -17.772  -0.303  0.00  0.00     0.096 A 
ATOM     34  H   UNL d   1      26.243 -19.587   0.354  0.00  0.00     0.165 HD
BRANCH  30  35
ATOM     35  O   UNL d   1      21.255 -18.274  -0.276  0.00  0.00    -0.356 OA
ATOM     36  C   UNL d   1      20.892 -19.308  -1.188  0.00  0.00     0.210 C 
ENDBRANCH  30  35
ENDBRANCH  24  25
ENDBRANCH  23  24
ENDBRANCH   1  23
TORSDOF 8
ENDMDL
MODEL 5
REMARK VINA RESULT:    -8.661      4.901      8.451
REMARK INTER + INTRA:         -14.103
REMARK INTER:                 -11.048
REMARK INTRA:                  -3.056
REMARK CONF_INDEPENDENT:        2.386
REMARK UNBOUND:                -3.056
REMARK  8 active torsions:
REMARK  status: ('A' for Active; 'I' for Inactive)
REMARK    1  A    between atoms: O_2  and  C_3 
REMARK    2  A    between atoms: C_7  and  C_8 
REMARK    3  A    between atoms: C_8  and  C_9 
REMARK    4  A    between atoms: C_9  and  N_10 
REMARK       I    between atoms: N_10  and  C_11 
REMARK    5  A    between atoms: C_11  and  C_13 
REMARK    6  A    between atoms: C_13  and  S_14 
REMARK    7  A    between atoms: S_14  and  C_15 
REMARK    8  A    between atoms: N_19  and  C_20 
ROOT
ATOM      1  N   UNL d   1      28.533 -14.839  -1.879  0.00  0.00    -0.360 N 
ATOM      2  C   UNL d   1      28.531 -13.489  -1.570  0.00  0.00     0.227 C 
ATOM      3  O   UNL d   1      28.426 -12.637  -2.460  0.00  0.00    -0.273 OA
ATOM      4  H   UNL d   1      28.655 -15.561  -1.186  0.00  0.00     0.162 HD
ENDROOT
BRANCH   2   5
ATOM      5  C   UNL d   1      28.659 -13.137  -0.080  0.00  0.00     0.180 C 
BRANCH   5   6
ATOM      6  S   UNL d   1      27.378 -14.076   0.841  0.00  0.00    -0.116 SA
BRANCH   6   7
ATOM      7  C   UNL d   1      28.021 -15.738   1.020  0.00  0.00     0.267 C 
ATOM      8  N   UNL d   1      29.480 -15.752   0.771  0.00  0.00    -0.105 NA
ATOM      9  N   UNL d   1      29.734 -17.076   0.230  0.00  0.00     0.072 N 
ATOM     10  H   UNL d   1      30.001 -15.488   1.604  0.00  0.00     0.158 HD
ATOM     11  N   UNL d   1      28.529 -17.500  -0.442  0.00  0.00    -0.042 NA
ATOM     12  H   UNL d   1      29.979 -17.751   0.979  0.00  0.00     0.325 HD
ATOM     13  H   UNL d   1      30.531 -17.061  -0.438  0.00  0.00     0.325 HD
ATOM     14  N   UNL d   1      27.461 -16.782   0.139  0.00  0.00    -0.259 N 
ATOM     15  H   UNL d   1      28.364 -18.516  -0.422  0.00  0.00     0.181 HD
BRANCH  14  16
ATOM     16  C   UNL d   1      26.171 -16.889  -0.385  0.00  0.00     0.050 A 
ATOM     17  C   UNL d   1      25.559 -15.896  -1.170  0.00  0.00     0.031 A 
ATOM     18  C   UNL d   1      24.225 -15.981  -1.592  0.00  0.00     0.003 A 
ATOM     19  C   UNL d   1      23.464 -17.092  -1.270  0.00  0.00     0.007 A 
ATOM     20  C   UNL d   1      24.038 -18.130  -0.536  0.00  0.00    -0.060 A 
ATOM     21  C   UNL d   1      23.202 -19.324  -0.173  0.00  0.00     0.048 C 
ATOM     22  C   UNL d   1      25.384 -18.028  -0.116  0.00  0.00     0.037 A 
ENDBRANCH  14  16
ENDBRANCH   6   7
ENDBRANCH   5   6
ENDBRANCH   2   5
BRANCH   1  23
ATOM     23  C   UNL d   1      28.409 -15.205  -3.276  0.00  0.00     0.127 C 
BRANCH  23  24
ATOM     24  C   UNL d   1      27.010 -15.197  -3.882  0.00  0.00     0.060 C 
BRANCH  24  25
ATOM     25  C   UNL d   1      26.609 -13.863  -4.467  0.00  0.00    -0.029 A 
ATOM     26  C   UNL d   1      27.166 -13.181  -5.607  0.00  0.00    -0.002 A 
ATOM     27  C   UNL d   1      28.198 -13.461  -6.529  0.00  0.00     0.017 A 
ATOM     28  C   UNL d   1      26.471 -11.982  -5.771  0.00  0.00     0.045 A 
ATOM     29  C   UNL d   1      28.486 -12.597  -7.581  0.00  0.00     0.038 A 
ATOM     30  C   UNL d   1      27.776 -11.418  -7.726  0.00  0.00     0.070 A 
ATOM     31  C   UNL d   1      26.769 -11.078  -6.808  0.00  0.00     0.067 A 
ATOM     32  N   UNL d   1      25.530 -11.922  -4.769  0.00  0.00    -0.365 N 
ATOM     33  C   UNL d   1      25.582 -13.059  -4.001  0.00  0.00     0.096 A 
ATOM     34  H   UNL d   1      24.880 -11.159  -4.635  0.00  0.00     0.165 HD
BRANCH  30  35
ATOM     35  O   UNL d   1      28.054 -10.493  -8.695  0.00  0.00    -0.356 OA
ATOM     36  C   UNL d   1      27.027 -10.308  -9.667  0.00  0.00     0.210 C 
ENDBRANCH  30  35
ENDBRANCH  24  25
ENDBRANCH  23  24
ENDBRANCH   1  23
TORSDOF 8
ENDMDL
MODEL 6
REMARK VINA RESULT:    -8.647      4.835      8.331
REMARK INTER + INTRA:         -13.633
REMARK INTER:                 -11.034
REMARK INTRA:                  -2.600
REMARK CONF_INDEPENDENT:        2.386
REMARK UNBOUND:                -2.600
REMARK  8 active torsions:
REMARK  status: ('A' for Active; 'I' for Inactive)
REMARK    1  A    between atoms: O_2  and  C_3 
REMARK    2  A    between atoms: C_7  and  C_8 
REMARK    3  A    between atoms: C_8  and  C_9 
REMARK    4  A    between atoms: C_9  and  N_10 
REMARK       I    between atoms: N_10  and  C_11 
REMARK    5  A    between atoms: C_11  and  C_13 
REMARK    6  A    between atoms: C_13  and  S_14 
REMARK    7  A    between atoms: S_14  and  C_15 
REMARK    8  A    between atoms: N_19  and  C_20 
ROOT
ATOM      1  N   UNL d   1      28.004 -14.907  -1.928  0.00  0.00    -0.360 N 
ATOM      2  C   UNL d   1      27.545 -13.682  -1.473  0.00  0.00     0.227 C 
ATOM      3  O   UNL d   1      26.829 -12.971  -2.187  0.00  0.00    -0.273 OA
ATOM      4  H   UNL d   1      28.621 -15.496  -1.390  0.00  0.00     0.162 HD
ENDROOT
BRANCH   2   5
ATOM      5  C   UNL d   1      27.975 -13.285  -0.052  0.00  0.00     0.180 C 
BRANCH   5   6
ATOM      6  S   UNL d   1      27.031 -14.312   1.139  0.00  0.00    -0.116 SA
BRANCH   6   7
ATOM      7  C   UNL d   1      27.732 -15.958   1.032  0.00  0.00     0.267 C 
ATOM      8  N   UNL d   1      29.177 -15.879   0.720  0.00  0.00    -0.105 NA
ATOM      9  N   UNL d   1      29.444 -17.095  -0.027  0.00  0.00     0.072 N 
ATOM     10  H   UNL d   1      29.730 -15.725   1.561  0.00  0.00     0.158 HD
ATOM     11  N   UNL d   1      28.221 -17.457  -0.704  0.00  0.00    -0.042 NA
ATOM     12  H   UNL d   1      29.746 -17.866   0.598  0.00  0.00     0.325 HD
ATOM     13  H   UNL d   1      30.207 -16.949  -0.719  0.00  0.00     0.325 HD
ATOM     14  N   UNL d   1      27.162 -16.875   0.027  0.00  0.00    -0.259 N 
ATOM     15  H   UNL d   1      28.088 -18.469  -0.832  0.00  0.00     0.181 HD
BRANCH  14  16
ATOM     16  C   UNL d   1      25.851 -16.950  -0.450  0.00  0.00     0.050 A 
ATOM     17  C   UNL d   1      25.234 -15.938  -1.206  0.00  0.00     0.031 A 
ATOM     18  C   UNL d   1      23.884 -15.990  -1.580  0.00  0.00     0.003 A 
ATOM     19  C   UNL d   1      23.110 -17.086  -1.237  0.00  0.00     0.007 A 
ATOM     20  C   UNL d   1      23.686 -18.142  -0.531  0.00  0.00    -0.060 A 
ATOM     21  C   UNL d   1      22.838 -19.319  -0.145  0.00  0.00     0.048 C 
ATOM     22  C   UNL d   1      25.049 -18.072  -0.160  0.00  0.00     0.037 A 
ENDBRANCH  14  16
ENDBRANCH   6   7
ENDBRANCH   5   6
ENDBRANCH   2   5
BRANCH   1  23
ATOM     23  C   UNL d   1      27.613 -15.314  -3.263  0.00  0.00     0.127 C 
BRANCH  23  24
ATOM     24  C   UNL d   1      28.726 -15.584  -4.269  0.00  0.00     0.060 C 
BRANCH  24  25
ATOM     25  C   UNL d   1      28.680 -14.684  -5.481  0.00  0.00    -0.029 A 
ATOM     26  C   UNL d   1      27.849 -13.529  -5.708  0.00  0.00    -0.002 A 
ATOM     27  C   UNL d   1      26.854 -12.856  -4.965  0.00  0.00     0.017 A 
ATOM     28  C   UNL d   1      28.161 -13.017  -6.968  0.00  0.00     0.045 A 
ATOM     29  C   UNL d   1      26.237 -11.708  -5.452  0.00  0.00     0.038 A 
ATOM     30  C   UNL d   1      26.572 -11.216  -6.702  0.00  0.00     0.070 A 
ATOM     31  C   UNL d   1      27.525 -11.877  -7.493  0.00  0.00     0.067 A 
ATOM     32  N   UNL d   1      29.138 -13.827  -7.500  0.00  0.00    -0.365 N 
ATOM     33  C   UNL d   1      29.480 -14.810  -6.604  0.00  0.00     0.096 A 
ATOM     34  H   UNL d   1      29.557 -13.700  -8.412  0.00  0.00     0.165 HD
BRANCH  30  35
ATOM     35  O   UNL d   1      25.955 -10.134  -7.268  0.00  0.00    -0.356 OA
ATOM     36  C   UNL d   1      25.795  -9.009  -6.406  0.00  0.00     0.210 C 
ENDBRANCH  30  35
ENDBRANCH  24  25
ENDBRANCH  23  24
ENDBRANCH   1  23
TORSDOF 8
ENDMDL
MODEL 7
REMARK VINA RESULT:    -8.417      6.211      9.299
REMARK INTER + INTRA:         -13.827
REMARK INTER:                 -10.804
REMARK INTRA:                  -3.024
REMARK CONF_INDEPENDENT:        2.386
REMARK UNBOUND:                -3.024
REMARK  8 active torsions:
REMARK  status: ('A' for Active; 'I' for Inactive)
REMARK    1  A    between atoms: O_2  and  C_3 
REMARK    2  A    between atoms: C_7  and  C_8 
REMARK    3  A    between atoms: C_8  and  C_9 
REMARK    4  A    between atoms: C_9  and  N_10 
REMARK       I    between atoms: N_10  and  C_11 
REMARK    5  A    between atoms: C_11  and  C_13 
REMARK    6  A    between atoms: C_13  and  S_14 
REMARK    7  A    between atoms: S_14  and  C_15 
REMARK    8  A    between atoms: N_19  and  C_20 
ROOT
ATOM      1  N   UNL d   1      29.316 -13.951  -6.376  0.00  0.00    -0.360 N 
ATOM      2  C   UNL d   1      28.484 -14.969  -5.943  0.00  0.00     0.227 C 
ATOM      3  O   UNL d   1      27.414 -15.199  -6.520  0.00  0.00    -0.273 OA
ATOM      4  H   UNL d   1      30.176 -13.709  -5.908  0.00  0.00     0.162 HD
ENDROOT
BRANCH   2   5
ATOM      5  C   UNL d   1      28.976 -15.775  -4.731  0.00  0.00     0.180 C 
BRANCH   5   6
ATOM      6  S   UNL d   1      27.924 -15.342  -3.291  0.00  0.00    -0.116 SA
BRANCH   6   7
ATOM      7  C   UNL d   1      26.249 -15.245  -3.917  0.00  0.00     0.267 C 
ATOM      8  N   UNL d   1      25.992 -13.902  -4.483  0.00  0.00    -0.105 NA
ATOM      9  N   UNL d   1      24.571 -13.694  -4.270  0.00  0.00     0.072 N 
ATOM     10  H   UNL d   1      26.328 -13.833  -5.442  0.00  0.00     0.158 HD
ATOM     11  N   UNL d   1      24.201 -14.450  -3.096  0.00  0.00    -0.042 NA
ATOM     12  H   UNL d   1      24.014 -14.011  -5.086  0.00  0.00     0.325 HD
ATOM     13  H   UNL d   1      24.356 -12.686  -4.129  0.00  0.00     0.325 HD
ATOM     14  N   UNL d   1      25.151 -15.486  -2.961  0.00  0.00    -0.259 N 
ATOM     15  H   UNL d   1      23.237 -14.812  -3.108  0.00  0.00     0.181 HD
BRANCH  14  16
ATOM     16  C   UNL d   1      25.129 -16.322  -1.842  0.00  0.00     0.050 A 
ATOM     17  C   UNL d   1      26.203 -16.459  -0.946  0.00  0.00     0.031 A 
ATOM     18  C   UNL d   1      26.195 -17.385   0.107  0.00  0.00     0.003 A 
ATOM     19  C   UNL d   1      25.086 -18.185   0.321  0.00  0.00     0.007 A 
ATOM     20  C   UNL d   1      23.972 -18.053  -0.509  0.00  0.00    -0.060 A 
ATOM     21  C   UNL d   1      22.778 -18.937  -0.285  0.00  0.00     0.048 C 
ATOM     22  C   UNL d   1      23.996 -17.116  -1.568  0.00  0.00     0.037 A 
ENDBRANCH  14  16
ENDBRANCH   6   7
ENDBRANCH   5   6
ENDBRANCH   2   5
BRANCH   1  23
ATOM     23  C   UNL d   1      28.883 -13.175  -7.520  0.00  0.00     0.127 C 
BRANCH  23  24
ATOM     24  C   UNL d   1      28.640 -11.685  -7.306  0.00  0.00     0.060 C 
BRANCH  24  25
ATOM     25  C   UNL d   1      27.616 -11.385  -6.237  0.00  0.00    -0.029 A 
ATOM     26  C   UNL d   1      27.731 -11.561  -4.811  0.00  0.00    -0.002 A 
ATOM     27  C   UNL d   1      28.740 -12.035  -3.945  0.00  0.00     0.017 A 
ATOM     28  C   UNL d   1      26.534 -11.143  -4.229  0.00  0.00     0.045 A 
ATOM     29  C   UNL d   1      28.564 -12.050  -2.565  0.00  0.00     0.038 A 
ATOM     30  C   UNL d   1      27.369 -11.621  -2.013  0.00  0.00     0.070 A 
ATOM     31  C   UNL d   1      26.323 -11.182  -2.839  0.00  0.00     0.067 A 
ATOM     32  N   UNL d   1      25.710 -10.735  -5.253  0.00  0.00    -0.365 N 
ATOM     33  C   UNL d   1      26.360 -10.844  -6.457  0.00  0.00     0.096 A 
ATOM     34  H   UNL d   1      24.770 -10.383  -5.129  0.00  0.00     0.165 HD
BRANCH  30  35
ATOM     35  O   UNL d   1      27.105 -11.675  -0.671  0.00  0.00    -0.356 OA
ATOM     36  C   UNL d   1      27.030 -12.989  -0.122  0.00  0.00     0.210 C 
ENDBRANCH  30  35
ENDBRANCH  24  25
ENDBRANCH  23  24
ENDBRANCH   1  23
TORSDOF 8
ENDMDL
MODEL 8
REMARK VINA RESULT:    -8.416      4.653      5.509
REMARK INTER + INTRA:         -13.634
REMARK INTER:                 -10.803
REMARK INTRA:                  -2.832
REMARK CONF_INDEPENDENT:        2.386
REMARK UNBOUND:                -2.832
REMARK  8 active torsions:
REMARK  status: ('A' for Active; 'I' for Inactive)
REMARK    1  A    between atoms: O_2  and  C_3 
REMARK    2  A    between atoms: C_7  and  C_8 
REMARK    3  A    between atoms: C_8  and  C_9 
REMARK    4  A    between atoms: C_9  and  N_10 
REMARK       I    between atoms: N_10  and  C_11 
REMARK    5  A    between atoms: C_11  and  C_13 
REMARK    6  A    between atoms: C_13  and  S_14 
REMARK    7  A    between atoms: S_14  and  C_15 
REMARK    8  A    between atoms: N_19  and  C_20 
ROOT
ATOM      1  N   UNL d   1      27.981 -15.571  -2.471  0.00  0.00    -0.360 N 
ATOM      2  C   UNL d   1      28.377 -15.729  -3.788  0.00  0.00     0.227 C 
ATOM      3  O   UNL d   1      27.623 -15.417  -4.717  0.00  0.00    -0.273 OA
ATOM      4  H   UNL d   1      28.553 -15.850  -1.688  0.00  0.00     0.162 HD
ENDROOT
BRANCH   2   5
ATOM      5  C   UNL d   1      29.788 -16.298  -4.006  0.00  0.00     0.180 C 
BRANCH   5   6
ATOM      6  S   UNL d   1      30.960 -15.329  -2.978  0.00  0.00    -0.116 SA
BRANCH   6   7
ATOM      7  C   UNL d   1      30.910 -16.067  -1.347  0.00  0.00     0.267 C 
ATOM      8  N   UNL d   1      30.375 -17.445  -1.425  0.00  0.00    -0.105 NA
ATOM      9  N   UNL d   1      29.719 -17.643  -0.145  0.00  0.00     0.072 N 
ATOM     10  H   UNL d   1      31.102 -18.111  -1.678  0.00  0.00     0.158 HD
ATOM     11  N   UNL d   1      29.276 -16.347   0.312  0.00  0.00    -0.042 NA
ATOM     12  H   UNL d   1      30.364 -18.064   0.550  0.00  0.00     0.325 HD
ATOM     13  H   UNL d   1      28.908 -18.287  -0.236  0.00  0.00     0.325 HD
ATOM     14  N   UNL d   1      30.099 -15.388  -0.318  0.00  0.00    -0.259 N 
ATOM     15  H   UNL d   1      29.270 -16.234   1.335  0.00  0.00     0.181 HD
BRANCH  14  16
ATOM     16  C   UNL d   1      29.838 -14.024  -0.166  0.00  0.00     0.050 A 
ATOM     17  C   UNL d   1      30.762 -13.010  -0.471  0.00  0.00     0.031 A 
ATOM     18  C   UNL d   1      30.513 -11.656  -0.207  0.00  0.00     0.003 A 
ATOM     19  C   UNL d   1      29.304 -11.266   0.342  0.00  0.00     0.007 A 
ATOM     20  C   UNL d   1      28.331 -12.227   0.617  0.00  0.00    -0.060 A 
ATOM     21  C   UNL d   1      27.028 -11.801   1.231  0.00  0.00     0.048 C 
ATOM     22  C   UNL d   1      28.598 -13.589   0.347  0.00  0.00     0.037 A 
ENDBRANCH  14  16
ENDBRANCH   6   7
ENDBRANCH   5   6
ENDBRANCH   2   5
BRANCH   1  23
ATOM     23  C   UNL d   1      26.657 -15.032  -2.231  0.00  0.00     0.127 C 
BRANCH  23  24
ATOM     24  C   UNL d   1      26.065 -15.219  -0.839  0.00  0.00     0.060 C 
BRANCH  24  25
ATOM     25  C   UNL d   1      25.597 -16.628  -0.562  0.00  0.00    -0.029 A 
ATOM     26  C   UNL d   1      24.255 -17.152  -0.607  0.00  0.00    -0.002 A 
ATOM     27  C   UNL d   1      22.984 -16.609  -0.897  0.00  0.00     0.017 A 
ATOM     28  C   UNL d   1      24.312 -18.507  -0.281  0.00  0.00     0.045 A 
ATOM     29  C   UNL d   1      21.840 -17.401  -0.895  0.00  0.00     0.038 A 
ATOM     30  C   UNL d   1      21.925 -18.745  -0.577  0.00  0.00     0.070 A 
ATOM     31  C   UNL d   1      23.163 -19.317  -0.240  0.00  0.00     0.067 A 
ATOM     32  N   UNL d   1      25.633 -18.806  -0.036  0.00  0.00    -0.365 N 
ATOM     33  C   UNL d   1      26.415 -17.695  -0.233  0.00  0.00     0.096 A 
ATOM     34  H   UNL d   1      25.976 -19.720   0.229  0.00  0.00     0.165 HD
BRANCH  30  35
ATOM     35  O   UNL d   1      20.832 -19.563  -0.488  0.00  0.00    -0.356 OA
ATOM     36  C   UNL d   1      20.286 -19.703   0.822  0.00  0.00     0.210 C 
ENDBRANCH  30  35
ENDBRANCH  24  25
ENDBRANCH  23  24
ENDBRANCH   1  23
TORSDOF 8
ENDMDL
MODEL 9
REMARK VINA RESULT:    -8.290      3.521      4.509
REMARK INTER + INTRA:         -13.643
REMARK INTER:                 -10.676
REMARK INTRA:                  -2.966
REMARK CONF_INDEPENDENT:        2.386
REMARK UNBOUND:                -2.966
REMARK  8 active torsions:
REMARK  status: ('A' for Active; 'I' for Inactive)
REMARK    1  A    between atoms: O_2  and  C_3 
REMARK    2  A    between atoms: C_7  and  C_8 
REMARK    3  A    between atoms: C_8  and  C_9 
REMARK    4  A    between atoms: C_9  and  N_10 
REMARK       I    between atoms: N_10  and  C_11 
REMARK    5  A    between atoms: C_11  and  C_13 
REMARK    6  A    between atoms: C_13  and  S_14 
REMARK    7  A    between atoms: S_14  and  C_15 
REMARK    8  A    between atoms: N_19  and  C_20 
ROOT
ATOM      1  N   UNL d   1      30.347 -15.709   0.757  0.00  0.00    -0.360 N 
ATOM      2  C   UNL d   1      31.393 -15.496  -0.124  0.00  0.00     0.227 C 
ATOM      3  O   UNL d   1      31.290 -15.810  -1.315  0.00  0.00    -0.273 OA
ATOM      4  H   UNL d   1      30.408 -15.502   1.742  0.00  0.00     0.162 HD
ENDROOT
BRANCH   2   5
ATOM      5  C   UNL d   1      32.656 -14.850   0.469  0.00  0.00     0.180 C 
BRANCH   5   6
ATOM      6  S   UNL d   1      32.203 -13.190   1.106  0.00  0.00    -0.116 SA
BRANCH   6   7
ATOM      7  C   UNL d   1      31.464 -13.464   2.714  0.00  0.00     0.267 C 
ATOM      8  N   UNL d   1      31.841 -14.800   3.229  0.00  0.00    -0.105 NA
ATOM      9  N   UNL d   1      30.711 -15.194   4.052  0.00  0.00     0.072 N 
ATOM     10  H   UNL d   1      32.754 -14.780   3.680  0.00  0.00     0.158 HD
ATOM     11  N   UNL d   1      29.541 -14.549   3.506  0.00  0.00    -0.042 NA
ATOM     12  H   UNL d   1      30.846 -14.910   5.041  0.00  0.00     0.325 HD
ATOM     13  H   UNL d   1      30.587 -16.227   4.047  0.00  0.00     0.325 HD
ATOM     14  N   UNL d   1      29.992 -13.410   2.804  0.00  0.00    -0.259 N 
ATOM     15  H   UNL d   1      28.822 -14.310   4.203  0.00  0.00     0.181 HD
BRANCH  14  16
ATOM     16  C   UNL d   1      29.095 -12.639   2.060  0.00  0.00     0.050 A 
ATOM     17  C   UNL d   1      29.048 -12.630   0.655  0.00  0.00     0.031 A 
ATOM     18  C   UNL d   1      28.213 -11.767  -0.068  0.00  0.00     0.003 A 
ATOM     19  C   UNL d   1      27.362 -10.903   0.600  0.00  0.00     0.007 A 
ATOM     20  C   UNL d   1      27.332 -10.907   1.994  0.00  0.00    -0.060 A 
ATOM     21  C   UNL d   1      26.421  -9.954   2.714  0.00  0.00     0.048 C 
ATOM     22  C   UNL d   1      28.182 -11.783   2.709  0.00  0.00     0.037 A 
ENDBRANCH  14  16
ENDBRANCH   6   7
ENDBRANCH   5   6
ENDBRANCH   2   5
BRANCH   1  23
ATOM     23  C   UNL d   1      29.140 -16.312   0.228  0.00  0.00     0.127 C 
BRANCH  23  24
ATOM     24  C   UNL d   1      27.824 -15.969   0.917  0.00  0.00     0.060 C 
BRANCH  24  25
ATOM     25  C   UNL d   1      26.643 -15.912  -0.023  0.00  0.00    -0.029 A 
ATOM     26  C   UNL d   1      25.629 -16.911  -0.249  0.00  0.00    -0.002 A 
ATOM     27  C   UNL d   1      25.370 -18.201   0.264  0.00  0.00     0.017 A 
ATOM     28  C   UNL d   1      24.741 -16.413  -1.202  0.00  0.00     0.045 A 
ATOM     29  C   UNL d   1      24.255 -18.930  -0.136  0.00  0.00     0.038 A 
ATOM     30  C   UNL d   1      23.384 -18.409  -1.076  0.00  0.00     0.070 A 
ATOM     31  C   UNL d   1      23.626 -17.148  -1.644  0.00  0.00     0.067 A 
ATOM     32  N   UNL d   1      25.192 -15.162  -1.556  0.00  0.00    -0.365 N 
ATOM     33  C   UNL d   1      26.312 -14.838  -0.831  0.00  0.00     0.096 A 
ATOM     34  H   UNL d   1      24.745 -14.561  -2.236  0.00  0.00     0.165 HD
BRANCH  30  35
ATOM     35  O   UNL d   1      22.308 -19.100  -1.563  0.00  0.00    -0.356 OA
ATOM     36  C   UNL d   1      21.095 -18.921  -0.836  0.00  0.00     0.210 C 
ENDBRANCH  30  35
ENDBRANCH  24  25
ENDBRANCH  23  24
ENDBRANCH   1  23
TORSDOF 8
ENDMDL
