MODEL 1
REMARK VINA RESULT:    -7.981      0.000      0.000
REMARK INTER + INTRA:         -12.847
REMARK INTER:                 -10.368
REMARK INTRA:                  -2.479
REMARK CONF_INDEPENDENT:        2.386
REMARK UNBOUND:                -2.479
REMARK  8 active torsions:
REMARK  status: ('A' for Active; 'I' for Inactive)
REMARK    1  A    between atoms: CA_4  and  CB_2 
REMARK    2  A    between atoms: CA_4  and  C_31 
REMARK    3  A    between atoms: CA_4  and  N_5 
REMARK       I    between atoms: N_5  and  C_6 
REMARK    4  A    between atoms: C_6  and  C_8 
REMARK    5  A    between atoms: C_8  and  C_9 
REMARK    6  A    between atoms: C_8  and  N_19 
REMARK    7  A    between atoms: C_9  and  C_10 
REMARK    8  A    between atoms: C_29  and  O_30 
ROOT
ATOM      1  C   UNK d   0      28.384 -12.769   2.023  0.00  0.00     0.188 C 
ENDROOT
BRANCH   1   2
ATOM      2  C   UNK d   0      28.479 -11.289   1.482  0.00  0.00     0.241 C 
ATOM      3  N   VAL d   1      27.300 -10.605   1.276  0.00  0.00    -0.344 N 
ATOM      4  H   VAL d   1      26.648 -11.160   0.758  0.00  0.00     0.163 HD
ATOM      5  O   UNK d   0      29.600 -10.823   1.294  0.00  0.00    -0.271 OA
BRANCH   3   6
ATOM      6  CA  VAL d   1      26.988  -9.167   0.981  0.00  0.00     0.189 C 
BRANCH   6   7
ATOM      7  C   VAL d   1      26.079  -8.334   1.946  0.00  0.00     0.197 C 
ATOM      8  O   VAL d   1      26.282  -8.419   3.180  0.00  0.00    -0.646 OA
ATOM      9  OXT VAL d   1      25.155  -7.691   1.357  0.00  0.00    -0.646 OA
ENDBRANCH   6   7
BRANCH   6  10
ATOM     10  CB  VAL d   1      26.706  -8.929  -0.561  0.00  0.00     0.010 C 
ATOM     11  CG1 VAL d   1      27.398  -9.952  -1.459  0.00  0.00     0.012 C 
ATOM     12  CG2 VAL d   1      27.130  -7.557  -1.085  0.00  0.00     0.012 C 
ENDBRANCH   6  10
ENDBRANCH   3   6
ENDBRANCH   1   2
BRANCH   1  13
ATOM     13  C   UNK d   0      27.309 -12.929   3.129  0.00  0.00     0.076 C 
BRANCH  13  14
ATOM     14  C   UNK d   0      27.759 -13.530   4.431  0.00  0.00    -0.028 C 
ATOM     15  C   UNK d   0      27.633 -14.835   4.842  0.00  0.00     0.096 C 
ATOM     16  N   UNK d   0      28.575 -15.050   5.806  0.00  0.00    -0.365 N 
ATOM     17  C   UNK d   0      28.714 -13.859   6.465  0.00  0.00     0.042 A 
ATOM     18  H   UNK d   0      28.934 -15.950   6.104  0.00  0.00     0.165 HD
ATOM     19  C   UNK d   0      29.177 -13.590   7.748  0.00  0.00     0.030 A 
ATOM     20  C   UNK d   0      28.223 -12.879   5.597  0.00  0.00    -0.002 A 
ATOM     21  C   UNK d   0      29.018 -12.274   8.184  0.00  0.00     0.002 A 
ATOM     22  C   UNK d   0      28.530 -11.272   7.337  0.00  0.00     0.001 A 
ATOM     23  C   UNK d   0      28.183 -11.548   6.016  0.00  0.00     0.014 A 
ENDBRANCH  13  14
ENDBRANCH   1  13
BRANCH   1  24
ATOM     24  N   UNK d   0      28.204 -13.741   0.872  0.00  0.00    -0.290 N 
ATOM     25  C   UNK d   0      27.020 -13.893   0.185  0.00  0.00     0.260 C 
ATOM     26  O   UNK d   0      26.282 -12.969  -0.172  0.00  0.00    -0.267 OA
ATOM     27  C   UNK d   0      26.617 -15.296  -0.086  0.00  0.00     0.058 A 
ATOM     28  C   UNK d   0      25.342 -15.588  -0.571  0.00  0.00     0.019 A 
ATOM     29  C   UNK d   0      27.524 -16.315   0.244  0.00  0.00     0.047 A 
ATOM     30  C   UNK d   0      24.961 -16.917  -0.735  0.00  0.00     0.001 A 
ATOM     31  C   UNK d   0      25.858 -17.941  -0.428  0.00  0.00     0.002 A 
ATOM     32  C   UNK d   0      27.135 -17.642   0.059  0.00  0.00     0.030 A 
ATOM     33  N   UNK d   0      28.770 -15.992   0.739  0.00  0.00    -0.346 N 
ATOM     34  C   UNK d   0      29.266 -14.661   0.531  0.00  0.00     0.332 C 
ATOM     35  H   UNK d   0      29.446 -16.685   1.019  0.00  0.00     0.164 HD
BRANCH  34  36
ATOM     36  O   UNK d   0      29.597 -14.523  -0.837  0.00  0.00    -0.359 OA
ATOM     37  H   UNK d   0      30.208 -13.780  -0.898  0.00  0.00     0.214 HD
ENDBRANCH  34  36
ENDBRANCH   1  24
TORSDOF 8
ENDMDL
MODEL 2
REMARK VINA RESULT:    -7.910      3.529      7.116
REMARK INTER + INTRA:         -12.293
REMARK INTER:                 -10.296
REMARK INTRA:                  -1.997
REMARK CONF_INDEPENDENT:        2.386
REMARK UNBOUND:                -1.997
REMARK  8 active torsions:
REMARK  status: ('A' for Active; 'I' for Inactive)
REMARK    1  A    between atoms: CA_4  and  CB_2 
REMARK    2  A    between atoms: CA_4  and  C_31 
REMARK    3  A    between atoms: CA_4  and  N_5 
REMARK       I    between atoms: N_5  and  C_6 
REMARK    4  A    between atoms: C_6  and  C_8 
REMARK    5  A    between atoms: C_8  and  C_9 
REMARK    6  A    between atoms: C_8  and  N_19 
REMARK    7  A    between atoms: C_9  and  C_10 
REMARK    8  A    between atoms: C_29  and  O_30 
ROOT
ATOM      1  C   UNK d   0      27.511 -14.430  -2.630  0.00  0.00     0.188 C 
ENDROOT
BRANCH   1   2
ATOM      2  C   UNK d   0      26.720 -13.946  -1.352  0.00  0.00     0.241 C 
ATOM      3  N   VAL d   1      27.394 -13.166  -0.439  0.00  0.00    -0.344 N 
ATOM      4  H   VAL d   1      28.282 -13.567  -0.209  0.00  0.00     0.163 HD
ATOM      5  O   UNK d   0      25.540 -14.277  -1.255  0.00  0.00    -0.271 OA
BRANCH   3   6
ATOM      6  CA  VAL d   1      26.950 -12.367   0.752  0.00  0.00     0.189 C 
BRANCH   6   7
ATOM      7  C   VAL d   1      27.410 -10.882   0.932  0.00  0.00     0.197 C 
ATOM      8  O   VAL d   1      26.609 -10.066   1.446  0.00  0.00    -0.646 OA
ATOM      9  OXT VAL d   1      28.563 -10.637   0.457  0.00  0.00    -0.646 OA
ENDBRANCH   6   7
BRANCH   6  10
ATOM     10  CB  VAL d   1      26.970 -13.230   2.082  0.00  0.00     0.010 C 
ATOM     11  CG1 VAL d   1      27.528 -12.466   3.281  0.00  0.00     0.012 C 
ATOM     12  CG2 VAL d   1      27.780 -14.523   1.994  0.00  0.00     0.012 C 
ENDBRANCH   6  10
ENDBRANCH   3   6
ENDBRANCH   1   2
BRANCH   1  13
ATOM     13  C   UNK d   0      27.836 -15.946  -2.588  0.00  0.00     0.076 C 
BRANCH  13  14
ATOM     14  C   UNK d   0      27.256 -16.733  -1.447  0.00  0.00    -0.028 C 
ATOM     15  C   UNK d   0      27.934 -17.429  -0.476  0.00  0.00     0.096 C 
ATOM     16  N   UNK d   0      27.095 -17.559   0.593  0.00  0.00    -0.365 N 
ATOM     17  C   UNK d   0      25.834 -17.648   0.070  0.00  0.00     0.042 A 
ATOM     18  H   UNK d   0      27.367 -17.759   1.549  0.00  0.00     0.165 HD
ATOM     19  C   UNK d   0      24.675 -18.200   0.605  0.00  0.00     0.030 A 
ATOM     20  C   UNK d   0      25.911 -17.107  -1.217  0.00  0.00    -0.002 A 
ATOM     21  C   UNK d   0      23.592 -18.294  -0.268  0.00  0.00     0.002 A 
ATOM     22  C   UNK d   0      23.640 -17.760  -1.561  0.00  0.00     0.001 A 
ATOM     23  C   UNK d   0      24.778 -17.107  -2.032  0.00  0.00     0.014 A 
ENDBRANCH  13  14
ENDBRANCH   1  13
BRANCH   1  24
ATOM     24  N   UNK d   0      26.781 -14.013  -3.893  0.00  0.00    -0.290 N 
ATOM     25  C   UNK d   0      27.366 -14.006  -5.141  0.00  0.00     0.260 C 
ATOM     26  O   UNK d   0      28.112 -14.887  -5.581  0.00  0.00    -0.267 OA
ATOM     27  C   UNK d   0      27.087 -12.805  -5.968  0.00  0.00     0.058 A 
ATOM     28  C   UNK d   0      27.794 -12.575  -7.147  0.00  0.00     0.019 A 
ATOM     29  C   UNK d   0      26.159 -11.872  -5.479  0.00  0.00     0.047 A 
ATOM     30  C   UNK d   0      27.573 -11.399  -7.859  0.00  0.00     0.001 A 
ATOM     31  C   UNK d   0      26.641 -10.469  -7.394  0.00  0.00     0.002 A 
ATOM     32  C   UNK d   0      25.936 -10.705  -6.209  0.00  0.00     0.030 A 
ATOM     33  N   UNK d   0      25.491 -12.122  -4.297  0.00  0.00    -0.346 N 
ATOM     34  C   UNK d   0      25.443 -13.471  -3.810  0.00  0.00     0.332 C 
ATOM     35  H   UNK d   0      24.838 -11.473  -3.889  0.00  0.00     0.164 HD
BRANCH  34  36
ATOM     36  O   UNK d   0      24.574 -14.211  -4.645  0.00  0.00    -0.359 OA
ATOM     37  H   UNK d   0      23.760 -13.700  -4.714  0.00  0.00     0.214 HD
ENDBRANCH  34  36
ENDBRANCH   1  24
TORSDOF 8
ENDMDL
MODEL 3
REMARK VINA RESULT:    -7.580      4.290      6.944
REMARK INTER + INTRA:         -12.252
REMARK INTER:                  -9.966
REMARK INTRA:                  -2.286
REMARK CONF_INDEPENDENT:        2.386
REMARK UNBOUND:                -2.286
REMARK  8 active torsions:
REMARK  status: ('A' for Active; 'I' for Inactive)
REMARK    1  A    between atoms: CA_4  and  CB_2 
REMARK    2  A    between atoms: CA_4  and  C_31 
REMARK    3  A    between atoms: CA_4  and  N_5 
REMARK       I    between atoms: N_5  and  C_6 
REMARK    4  A    between atoms: C_6  and  C_8 
REMARK    5  A    between atoms: C_8  and  C_9 
REMARK    6  A    between atoms: C_8  and  N_19 
REMARK    7  A    between atoms: C_9  and  C_10 
REMARK    8  A    between atoms: C_29  and  O_30 
ROOT
ATOM      1  C   UNK d   0      26.980 -14.604  -2.105  0.00  0.00     0.188 C 
ENDROOT
BRANCH   1   2
ATOM      2  C   UNK d   0      27.950 -13.469  -1.593  0.00  0.00     0.241 C 
ATOM      3  N   VAL d   1      27.633 -12.165  -1.907  0.00  0.00    -0.344 N 
ATOM      4  H   VAL d   1      27.415 -12.072  -2.879  0.00  0.00     0.163 HD
ATOM      5  O   UNK d   0      28.924 -13.810  -0.926  0.00  0.00    -0.271 OA
BRANCH   3   6
ATOM      6  CA  VAL d   1      28.168 -10.840  -1.445  0.00  0.00     0.189 C 
BRANCH   6   7
ATOM      7  C   VAL d   1      27.904 -10.339   0.014  0.00  0.00     0.197 C 
ATOM      8  O   VAL d   1      27.350 -11.119   0.823  0.00  0.00    -0.646 OA
ATOM      9  OXT VAL d   1      28.230  -9.126   0.208  0.00  0.00    -0.646 OA
ENDBRANCH   6   7
BRANCH   6  10
ATOM     10  CB  VAL d   1      28.024  -9.725  -2.563  0.00  0.00     0.010 C 
ATOM     11  CG1 VAL d   1      26.570  -9.394  -2.893  0.00  0.00     0.012 C 
ATOM     12  CG2 VAL d   1      28.689 -10.066  -3.897  0.00  0.00     0.012 C 
ENDBRANCH   6  10
ENDBRANCH   3   6
ENDBRANCH   1   2
BRANCH   1  13
ATOM     13  C   UNK d   0      25.834 -14.902  -1.104  0.00  0.00     0.076 C 
BRANCH  13  14
ATOM     14  C   UNK d   0      25.493 -16.347  -0.872  0.00  0.00    -0.028 C 
ATOM     15  C   UNK d   0      26.330 -17.433  -0.963  0.00  0.00     0.096 C 
ATOM     16  N   UNK d   0      25.779 -18.435  -0.218  0.00  0.00    -0.365 N 
ATOM     17  C   UNK d   0      24.424 -18.273  -0.317  0.00  0.00     0.042 A 
ATOM     18  H   UNK d   0      26.264 -19.245   0.151  0.00  0.00     0.165 HD
ATOM     19  C   UNK d   0      23.393 -19.190  -0.145  0.00  0.00     0.030 A 
ATOM     20  C   UNK d   0      24.222 -16.946  -0.709  0.00  0.00    -0.002 A 
ATOM     21  C   UNK d   0      22.121 -18.743  -0.501  0.00  0.00     0.002 A 
ATOM     22  C   UNK d   0      21.889 -17.420  -0.896  0.00  0.00     0.001 A 
ATOM     23  C   UNK d   0      22.925 -16.489  -0.947  0.00  0.00     0.014 A 
ENDBRANCH  13  14
ENDBRANCH   1  13
BRANCH   1  24
ATOM     24  N   UNK d   0      26.482 -14.284  -3.502  0.00  0.00    -0.290 N 
ATOM     25  C   UNK d   0      27.243 -14.458  -4.637  0.00  0.00     0.260 C 
ATOM     26  O   UNK d   0      27.968 -15.432  -4.864  0.00  0.00    -0.267 OA
ATOM     27  C   UNK d   0      27.190 -13.342  -5.615  0.00  0.00     0.058 A 
ATOM     28  C   UNK d   0      28.080 -13.295  -6.688  0.00  0.00     0.019 A 
ATOM     29  C   UNK d   0      26.283 -12.299  -5.373  0.00  0.00     0.047 A 
ATOM     30  C   UNK d   0      28.066 -12.195  -7.541  0.00  0.00     0.001 A 
ATOM     31  C   UNK d   0      27.157 -11.158  -7.323  0.00  0.00     0.002 A 
ATOM     32  C   UNK d   0      26.268 -11.209  -6.244  0.00  0.00     0.030 A 
ATOM     33  N   UNK d   0      25.430 -12.368  -4.291  0.00  0.00    -0.346 N 
ATOM     34  C   UNK d   0      25.197 -13.647  -3.682  0.00  0.00     0.332 C 
ATOM     35  H   UNK d   0      24.781 -11.633  -4.056  0.00  0.00     0.164 HD
BRANCH  34  36
ATOM     36  O   UNK d   0      24.401 -14.415  -4.562  0.00  0.00    -0.359 OA
ATOM     37  H   UNK d   0      23.716 -13.826  -4.899  0.00  0.00     0.214 HD
ENDBRANCH  34  36
ENDBRANCH   1  24
TORSDOF 8
ENDMDL
MODEL 4
REMARK VINA RESULT:    -7.256      2.199      6.404
REMARK INTER + INTRA:         -12.490
REMARK INTER:                  -9.643
REMARK INTRA:                  -2.847
REMARK CONF_INDEPENDENT:        2.386
REMARK UNBOUND:                -2.847
REMARK  8 active torsions:
REMARK  status: ('A' for Active; 'I' for Inactive)
REMARK    1  A    between atoms: CA_4  and  CB_2 
REMARK    2  A    between atoms: CA_4  and  C_31 
REMARK    3  A    between atoms: CA_4  and  N_5 
REMARK       I    between atoms: N_5  and  C_6 
REMARK    4  A    between atoms: C_6  and  C_8 
REMARK    5  A    between atoms: C_8  and  C_9 
REMARK    6  A    between atoms: C_8  and  N_19 
REMARK    7  A    between atoms: C_9  and  C_10 
REMARK    8  A    between atoms: C_29  and  O_30 
ROOT
ATOM      1  C   UNK d   0      28.172 -13.649   2.557  0.00  0.00     0.188 C 
ENDROOT
BRANCH   1   2
ATOM      2  C   UNK d   0      27.778 -12.131   2.376  0.00  0.00     0.241 C 
ATOM      3  N   VAL d   1      27.346 -11.444   3.489  0.00  0.00    -0.344 N 
ATOM      4  H   VAL d   1      26.649 -11.963   3.985  0.00  0.00     0.163 HD
ATOM      5  O   UNK d   0      27.897 -11.643   1.255  0.00  0.00    -0.271 OA
BRANCH   3   6
ATOM      6  CA  VAL d   1      27.089  -9.990   3.760  0.00  0.00     0.189 C 
BRANCH   6   7
ATOM      7  C   VAL d   1      26.014  -9.203   2.937  0.00  0.00     0.197 C 
ATOM      8  O   VAL d   1      25.039  -9.836   2.469  0.00  0.00    -0.646 OA
ATOM      9  OXT VAL d   1      26.292  -7.975   2.767  0.00  0.00    -0.646 OA
ENDBRANCH   6   7
BRANCH   6  10
ATOM     10  CB  VAL d   1      28.434  -9.192   4.022  0.00  0.00     0.010 C 
ATOM     11  CG1 VAL d   1      29.680 -10.067   3.902  0.00  0.00     0.012 C 
ATOM     12  CG2 VAL d   1      28.523  -8.521   5.392  0.00  0.00     0.012 C 
ENDBRANCH   6  10
ENDBRANCH   3   6
ENDBRANCH   1   2
BRANCH   1  13
ATOM     13  C   UNK d   0      29.148 -14.144   1.458  0.00  0.00     0.076 C 
BRANCH  13  14
ATOM     14  C   UNK d   0      28.751 -15.382   0.705  0.00  0.00    -0.028 C 
ATOM     15  C   UNK d   0      29.577 -16.300   0.101  0.00  0.00     0.096 C 
ATOM     16  N   UNK d   0      28.876 -17.465  -0.014  0.00  0.00    -0.365 N 
ATOM     17  C   UNK d   0      27.571 -17.100  -0.200  0.00  0.00     0.042 A 
ATOM     18  H   UNK d   0      29.268 -18.390  -0.146  0.00  0.00     0.165 HD
ATOM     19  C   UNK d   0      26.517 -17.794  -0.783  0.00  0.00     0.030 A 
ATOM     20  C   UNK d   0      27.467 -15.787   0.273  0.00  0.00    -0.002 A 
ATOM     21  C   UNK d   0      25.348 -17.060  -0.982  0.00  0.00     0.002 A 
ATOM     22  C   UNK d   0      25.215 -15.746  -0.520  0.00  0.00     0.001 A 
ATOM     23  C   UNK d   0      26.250 -15.113   0.167  0.00  0.00     0.014 A 
ENDBRANCH  13  14
ENDBRANCH   1  13
BRANCH   1  24
ATOM     24  N   UNK d   0      28.684 -13.898   3.963  0.00  0.00    -0.290 N 
ATOM     25  C   UNK d   0      27.980 -13.560   5.098  0.00  0.00     0.260 C 
ATOM     26  O   UNK d   0      26.766 -13.725   5.258  0.00  0.00    -0.267 OA
ATOM     27  C   UNK d   0      28.775 -12.906   6.169  0.00  0.00     0.058 A 
ATOM     28  C   UNK d   0      28.143 -12.317   7.264  0.00  0.00     0.019 A 
ATOM     29  C   UNK d   0      30.165 -12.823   5.996  0.00  0.00     0.047 A 
ATOM     30  C   UNK d   0      28.906 -11.637   8.209  0.00  0.00     0.001 A 
ATOM     31  C   UNK d   0      30.292 -11.561   8.060  0.00  0.00     0.002 A 
ATOM     32  C   UNK d   0      30.920 -12.152   6.959  0.00  0.00     0.030 A 
ATOM     33  N   UNK d   0      30.756 -13.400   4.891  0.00  0.00    -0.346 N 
ATOM     34  C   UNK d   0      30.024 -14.400   4.167  0.00  0.00     0.332 C 
ATOM     35  H   UNK d   0      31.745 -13.343   4.705  0.00  0.00     0.164 HD
BRANCH  34  36
ATOM     36  O   UNK d   0      29.982 -15.573   4.956  0.00  0.00    -0.359 OA
ATOM     37  H   UNK d   0      29.780 -16.300   4.355  0.00  0.00     0.214 HD
ENDBRANCH  34  36
ENDBRANCH   1  24
TORSDOF 8
ENDMDL
MODEL 5
REMARK VINA RESULT:    -7.187      4.526      7.188
REMARK INTER + INTRA:         -12.163
REMARK INTER:                  -9.573
REMARK INTRA:                  -2.590
REMARK CONF_INDEPENDENT:        2.386
REMARK UNBOUND:                -2.590
REMARK  8 active torsions:
REMARK  status: ('A' for Active; 'I' for Inactive)
REMARK    1  A    between atoms: CA_4  and  CB_2 
REMARK    2  A    between atoms: CA_4  and  C_31 
REMARK    3  A    between atoms: CA_4  and  N_5 
REMARK       I    between atoms: N_5  and  C_6 
REMARK    4  A    between atoms: C_6  and  C_8 
REMARK    5  A    between atoms: C_8  and  C_9 
REMARK    6  A    between atoms: C_8  and  N_19 
REMARK    7  A    between atoms: C_9  and  C_10 
REMARK    8  A    between atoms: C_29  and  O_30 
ROOT
ATOM      1  C   UNK d   0      26.830 -14.577  -1.961  0.00  0.00     0.188 C 
ENDROOT
BRANCH   1   2
ATOM      2  C   UNK d   0      27.677 -13.368  -1.400  0.00  0.00     0.241 C 
ATOM      3  N   VAL d   1      27.825 -12.261  -2.206  0.00  0.00    -0.344 N 
ATOM      4  H   VAL d   1      28.101 -12.523  -3.132  0.00  0.00     0.163 HD
ATOM      5  O   UNK d   0      28.140 -13.476  -0.267  0.00  0.00    -0.271 OA
BRANCH   3   6
ATOM      6  CA  VAL d   1      28.360 -10.879  -1.961  0.00  0.00     0.189 C 
BRANCH   6   7
ATOM      7  C   VAL d   1      29.421 -10.252  -2.927  0.00  0.00     0.197 C 
ATOM      8  O   VAL d   1      29.749  -9.054  -2.757  0.00  0.00    -0.646 OA
ATOM      9  OXT VAL d   1      29.798 -11.033  -3.856  0.00  0.00    -0.646 OA
ENDBRANCH   6   7
BRANCH   6  10
ATOM     10  CB  VAL d   1      28.631 -10.616  -0.422  0.00  0.00     0.010 C 
ATOM     11  CG1 VAL d   1      28.215  -9.217   0.027  0.00  0.00     0.012 C 
ATOM     12  CG2 VAL d   1      30.089 -10.778   0.008  0.00  0.00     0.012 C 
ENDBRANCH   6  10
ENDBRANCH   3   6
ENDBRANCH   1   2
BRANCH   1  13
ATOM     13  C   UNK d   0      25.628 -14.933  -1.049  0.00  0.00     0.076 C 
BRANCH  13  14
ATOM     14  C   UNK d   0      25.342 -16.394  -0.843  0.00  0.00    -0.028 C 
ATOM     15  C   UNK d   0      26.216 -17.447  -0.963  0.00  0.00     0.096 C 
ATOM     16  N   UNK d   0      25.709 -18.482  -0.232  0.00  0.00    -0.365 N 
ATOM     17  C   UNK d   0      24.348 -18.368  -0.316  0.00  0.00     0.042 A 
ATOM     18  H   UNK d   0      26.227 -19.281   0.117  0.00  0.00     0.165 HD
ATOM     19  C   UNK d   0      23.353 -19.325  -0.153  0.00  0.00     0.030 A 
ATOM     20  C   UNK d   0      24.095 -17.042  -0.680  0.00  0.00    -0.002 A 
ATOM     21  C   UNK d   0      22.063 -18.918  -0.489  0.00  0.00     0.002 A 
ATOM     22  C   UNK d   0      21.779 -17.598  -0.856  0.00  0.00     0.001 A 
ATOM     23  C   UNK d   0      22.780 -16.629  -0.898  0.00  0.00     0.014 A 
ENDBRANCH  13  14
ENDBRANCH   1  13
BRANCH   1  24
ATOM     24  N   UNK d   0      26.429 -14.318  -3.401  0.00  0.00    -0.290 N 
ATOM     25  C   UNK d   0      27.253 -14.572  -4.476  0.00  0.00     0.260 C 
ATOM     26  O   UNK d   0      27.961 -15.575  -4.607  0.00  0.00    -0.267 OA
ATOM     27  C   UNK d   0      27.294 -13.507  -5.511  0.00  0.00     0.058 A 
ATOM     28  C   UNK d   0      28.249 -13.542  -6.527  0.00  0.00     0.019 A 
ATOM     29  C   UNK d   0      26.405 -12.430  -5.380  0.00  0.00     0.047 A 
ATOM     30  C   UNK d   0      28.320 -12.488  -7.433  0.00  0.00     0.001 A 
ATOM     31  C   UNK d   0      27.431 -11.416  -7.327  0.00  0.00     0.002 A 
ATOM     32  C   UNK d   0      26.476 -11.387  -6.305  0.00  0.00     0.030 A 
ATOM     33  N   UNK d   0      25.485 -12.419  -4.352  0.00  0.00    -0.346 N 
ATOM     34  C   UNK d   0      25.177 -13.657  -3.695  0.00  0.00     0.332 C 
ATOM     35  H   UNK d   0      24.845 -11.656  -4.197  0.00  0.00     0.164 HD
BRANCH  34  36
ATOM     36  O   UNK d   0      24.414 -14.450  -4.583  0.00  0.00    -0.359 OA
ATOM     37  H   UNK d   0      23.774 -13.859  -4.997  0.00  0.00     0.214 HD
ENDBRANCH  34  36
ENDBRANCH   1  24
TORSDOF 8
ENDMDL
MODEL 6
REMARK VINA RESULT:    -7.076      5.893      7.962
REMARK INTER + INTRA:         -12.067
REMARK INTER:                  -9.462
REMARK INTRA:                  -2.605
REMARK CONF_INDEPENDENT:        2.386
REMARK UNBOUND:                -2.605
REMARK  8 active torsions:
REMARK  status: ('A' for Active; 'I' for Inactive)
REMARK    1  A    between atoms: CA_4  and  CB_2 
REMARK    2  A    between atoms: CA_4  and  C_31 
REMARK    3  A    between atoms: CA_4  and  N_5 
REMARK       I    between atoms: N_5  and  C_6 
REMARK    4  A    between atoms: C_6  and  C_8 
REMARK    5  A    between atoms: C_8  and  C_9 
REMARK    6  A    between atoms: C_8  and  N_19 
REMARK    7  A    between atoms: C_9  and  C_10 
REMARK    8  A    between atoms: C_29  and  O_30 
ROOT
ATOM      1  C   UNK d   0      27.202 -15.597  -3.136  0.00  0.00     0.188 C 
ENDROOT
BRANCH   1   2
ATOM      2  C   UNK d   0      28.739 -15.574  -3.498  0.00  0.00     0.241 C 
ATOM      3  N   VAL d   1      29.280 -14.380  -3.921  0.00  0.00    -0.344 N 
ATOM      4  H   VAL d   1      28.714 -13.960  -4.632  0.00  0.00     0.163 HD
ATOM      5  O   UNK d   0      29.370 -16.619  -3.363  0.00  0.00    -0.271 OA
BRANCH   3   6
ATOM      6  CA  VAL d   1      30.690 -13.918  -4.150  0.00  0.00     0.189 C 
BRANCH   6   7
ATOM      7  C   VAL d   1      31.049 -12.395  -4.091  0.00  0.00     0.197 C 
ATOM      8  O   VAL d   1      32.233 -12.070  -3.837  0.00  0.00    -0.646 OA
ATOM      9  OXT VAL d   1      30.051 -11.623  -4.244  0.00  0.00    -0.646 OA
ENDBRANCH   6   7
BRANCH   6  10
ATOM     10  CB  VAL d   1      31.388 -14.716  -5.329  0.00  0.00     0.010 C 
ATOM     11  CG1 VAL d   1      30.419 -15.105  -6.443  0.00  0.00     0.012 C 
ATOM     12  CG2 VAL d   1      32.079 -16.011  -4.902  0.00  0.00     0.012 C 
ENDBRANCH   6  10
ENDBRANCH   3   6
ENDBRANCH   1   2
BRANCH   1  13
ATOM     13  C   UNK d   0      26.949 -15.437  -1.614  0.00  0.00     0.076 C 
BRANCH  13  14
ATOM     14  C   UNK d   0      26.326 -16.605  -0.903  0.00  0.00    -0.028 C 
ATOM     15  C   UNK d   0      26.938 -17.768  -0.502  0.00  0.00     0.096 C 
ATOM     16  N   UNK d   0      26.181 -18.302   0.499  0.00  0.00    -0.365 N 
ATOM     17  C   UNK d   0      24.887 -17.964   0.211  0.00  0.00     0.042 A 
ATOM     18  H   UNK d   0      26.488 -18.980   1.188  0.00  0.00     0.165 HD
ATOM     19  C   UNK d   0      23.693 -18.558   0.604  0.00  0.00     0.030 A 
ATOM     20  C   UNK d   0      24.959 -16.873  -0.660  0.00  0.00    -0.002 A 
ATOM     21  C   UNK d   0      22.543 -18.073  -0.019  0.00  0.00     0.002 A 
ATOM     22  C   UNK d   0      22.585 -16.982  -0.895  0.00  0.00     0.001 A 
ATOM     23  C   UNK d   0      23.783 -16.330  -1.180  0.00  0.00     0.014 A 
ENDBRANCH  13  14
ENDBRANCH   1  13
BRANCH   1  24
ATOM     24  N   UNK d   0      26.446 -14.584  -3.975  0.00  0.00    -0.290 N 
ATOM     25  C   UNK d   0      26.859 -14.174  -5.224  0.00  0.00     0.260 C 
ATOM     26  O   UNK d   0      27.310 -14.916  -6.102  0.00  0.00    -0.267 OA
ATOM     27  C   UNK d   0      26.779 -12.712  -5.472  0.00  0.00     0.058 A 
ATOM     28  C   UNK d   0      27.372 -12.150  -6.603  0.00  0.00     0.019 A 
ATOM     29  C   UNK d   0      26.171 -11.912  -4.492  0.00  0.00     0.047 A 
ATOM     30  C   UNK d   0      27.356 -10.768  -6.767  0.00  0.00     0.001 A 
ATOM     31  C   UNK d   0      26.739  -9.960  -5.810  0.00  0.00     0.002 A 
ATOM     32  C   UNK d   0      26.149 -10.529  -4.677  0.00  0.00     0.030 A 
ATOM     33  N   UNK d   0      25.612 -12.499  -3.376  0.00  0.00    -0.346 N 
ATOM     34  C   UNK d   0      25.300 -13.899  -3.422  0.00  0.00     0.332 C 
ATOM     35  H   UNK d   0      25.190 -11.968  -2.630  0.00  0.00     0.164 HD
BRANCH  34  36
ATOM     36  O   UNK d   0      24.182 -14.074  -4.271  0.00  0.00    -0.359 OA
ATOM     37  H   UNK d   0      24.375 -13.589  -5.082  0.00  0.00     0.214 HD
ENDBRANCH  34  36
ENDBRANCH   1  24
TORSDOF 8
ENDMDL
MODEL 7
REMARK VINA RESULT:    -6.994      5.271      8.010
REMARK INTER + INTRA:         -12.656
REMARK INTER:                  -9.381
REMARK INTRA:                  -3.276
REMARK CONF_INDEPENDENT:        2.386
REMARK UNBOUND:                -3.276
REMARK  8 active torsions:
REMARK  status: ('A' for Active; 'I' for Inactive)
REMARK    1  A    between atoms: CA_4  and  CB_2 
REMARK    2  A    between atoms: CA_4  and  C_31 
REMARK    3  A    between atoms: CA_4  and  N_5 
REMARK       I    between atoms: N_5  and  C_6 
REMARK    4  A    between atoms: C_6  and  C_8 
REMARK    5  A    between atoms: C_8  and  C_9 
REMARK    6  A    between atoms: C_8  and  N_19 
REMARK    7  A    between atoms: C_9  and  C_10 
REMARK    8  A    between atoms: C_29  and  O_30 
ROOT
ATOM      1  C   UNK d   0      27.803 -14.494  -1.272  0.00  0.00     0.188 C 
ENDROOT
BRANCH   1   2
ATOM      2  C   UNK d   0      28.870 -14.391  -2.431  0.00  0.00     0.241 C 
ATOM      3  N   VAL d   1      28.595 -15.041  -3.614  0.00  0.00    -0.344 N 
ATOM      4  H   VAL d   1      28.301 -15.983  -3.448  0.00  0.00     0.163 HD
ATOM      5  O   UNK d   0      29.877 -13.720  -2.219  0.00  0.00    -0.271 OA
BRANCH   3   6
ATOM      6  CA  VAL d   1      29.234 -15.011  -4.972  0.00  0.00     0.189 C 
BRANCH   6   7
ATOM      7  C   VAL d   1      28.362 -14.841  -6.261  0.00  0.00     0.197 C 
ATOM      8  O   VAL d   1      28.887 -14.319  -7.273  0.00  0.00    -0.646 OA
ATOM      9  OXT VAL d   1      27.152 -15.198  -6.116  0.00  0.00    -0.646 OA
ENDBRANCH   6   7
BRANCH   6  10
ATOM     10  CB  VAL d   1      30.398 -16.081  -5.099  0.00  0.00     0.010 C 
ATOM     11  CG1 VAL d   1      30.392 -16.814  -6.439  0.00  0.00     0.012 C 
ATOM     12  CG2 VAL d   1      30.386 -17.169  -4.026  0.00  0.00     0.012 C 
ENDBRANCH   6  10
ENDBRANCH   3   6
ENDBRANCH   1   2
BRANCH   1  13
ATOM     13  C   UNK d   0      26.658 -13.459  -1.426  0.00  0.00     0.076 C 
BRANCH  13  14
ATOM     14  C   UNK d   0      26.200 -13.156  -2.824  0.00  0.00    -0.028 C 
ATOM     15  C   UNK d   0      25.244 -13.816  -3.558  0.00  0.00     0.096 C 
ATOM     16  N   UNK d   0      24.800 -12.954  -4.518  0.00  0.00    -0.365 N 
ATOM     17  C   UNK d   0      25.875 -12.176  -4.848  0.00  0.00     0.042 A 
ATOM     18  H   UNK d   0      23.925 -13.020  -5.025  0.00  0.00     0.165 HD
ATOM     19  C   UNK d   0      26.143 -11.455  -6.006  0.00  0.00     0.030 A 
ATOM     20  C   UNK d   0      26.765 -12.273  -3.773  0.00  0.00    -0.002 A 
ATOM     21  C   UNK d   0      27.424 -10.911  -6.097  0.00  0.00     0.002 A 
ATOM     22  C   UNK d   0      28.335 -10.992  -5.038  0.00  0.00     0.001 A 
ATOM     23  C   UNK d   0      27.997 -11.620  -3.841  0.00  0.00     0.014 A 
ENDBRANCH  13  14
ENDBRANCH   1  13
BRANCH   1  24
ATOM     24  N   UNK d   0      27.302 -15.919  -1.138  0.00  0.00    -0.290 N 
ATOM     25  C   UNK d   0      26.310 -16.453  -1.931  0.00  0.00     0.260 C 
ATOM     26  O   UNK d   0      26.203 -16.280  -3.149  0.00  0.00    -0.267 OA
ATOM     27  C   UNK d   0      25.284 -17.253  -1.214  0.00  0.00     0.058 A 
ATOM     28  C   UNK d   0      24.116 -17.654  -1.862  0.00  0.00     0.019 A 
ATOM     29  C   UNK d   0      25.489 -17.511   0.150  0.00  0.00     0.047 A 
ATOM     30  C   UNK d   0      23.134 -18.329  -1.143  0.00  0.00     0.001 A 
ATOM     31  C   UNK d   0      23.330 -18.609   0.211  0.00  0.00     0.002 A 
ATOM     32  C   UNK d   0      24.503 -18.202   0.855  0.00  0.00     0.030 A 
ATOM     33  N   UNK d   0      26.648 -17.083   0.764  0.00  0.00    -0.346 N 
ATOM     34  C   UNK d   0      27.777 -16.754  -0.058  0.00  0.00     0.332 C 
ATOM     35  H   UNK d   0      26.829 -17.217   1.746  0.00  0.00     0.164 HD
BRANCH  34  36
ATOM     36  O   UNK d   0      28.308 -17.957  -0.579  0.00  0.00    -0.359 OA
ATOM     37  H   UNK d   0      28.885 -18.320   0.103  0.00  0.00     0.214 HD
ENDBRANCH  34  36
ENDBRANCH   1  24
TORSDOF 8
ENDMDL
MODEL 8
REMARK VINA RESULT:    -6.825      3.313      5.295
REMARK INTER + INTRA:         -12.282
REMARK INTER:                  -9.211
REMARK INTRA:                  -3.071
REMARK CONF_INDEPENDENT:        2.386
REMARK UNBOUND:                -3.071
REMARK  8 active torsions:
REMARK  status: ('A' for Active; 'I' for Inactive)
REMARK    1  A    between atoms: CA_4  and  CB_2 
REMARK    2  A    between atoms: CA_4  and  C_31 
REMARK    3  A    between atoms: CA_4  and  N_5 
REMARK       I    between atoms: N_5  and  C_6 
REMARK    4  A    between atoms: C_6  and  C_8 
REMARK    5  A    between atoms: C_8  and  C_9 
REMARK    6  A    between atoms: C_8  and  N_19 
REMARK    7  A    between atoms: C_9  and  C_10 
REMARK    8  A    between atoms: C_29  and  O_30 
ROOT
ATOM      1  C   UNK d   0      28.984 -14.919  -0.634  0.00  0.00     0.188 C 
ENDROOT
BRANCH   1   2
ATOM      2  C   UNK d   0      29.015 -14.635  -2.187  0.00  0.00     0.241 C 
ATOM      3  N   VAL d   1      28.004 -15.169  -2.956  0.00  0.00    -0.344 N 
ATOM      4  H   VAL d   1      27.866 -16.139  -2.747  0.00  0.00     0.163 HD
ATOM      5  O   UNK d   0      29.929 -13.937  -2.620  0.00  0.00    -0.271 OA
BRANCH   3   6
ATOM      6  CA  VAL d   1      27.581 -14.961  -4.381  0.00  0.00     0.189 C 
BRANCH   6   7
ATOM      7  C   VAL d   1      26.083 -15.133  -4.802  0.00  0.00     0.197 C 
ATOM      8  O   VAL d   1      25.203 -14.540  -4.135  0.00  0.00    -0.646 OA
ATOM      9  OXT VAL d   1      25.908 -15.942  -5.767  0.00  0.00    -0.646 OA
ENDBRANCH   6   7
BRANCH   6  10
ATOM     10  CB  VAL d   1      28.628 -15.573  -5.402  0.00  0.00     0.010 C 
ATOM     11  CG1 VAL d   1      29.710 -16.408  -4.720  0.00  0.00     0.012 C 
ATOM     12  CG2 VAL d   1      29.370 -14.542  -6.253  0.00  0.00     0.012 C 
ENDBRANCH   6  10
ENDBRANCH   3   6
ENDBRANCH   1   2
BRANCH   1  13
ATOM     13  C   UNK d   0      29.743 -13.839   0.181  0.00  0.00     0.076 C 
BRANCH  13  14
ATOM     14  C   UNK d   0      30.066 -14.170   1.611  0.00  0.00    -0.028 C 
ATOM     15  C   UNK d   0      31.174 -14.825   2.093  0.00  0.00     0.096 C 
ATOM     16  N   UNK d   0      31.311 -14.480   3.405  0.00  0.00    -0.365 N 
ATOM     17  C   UNK d   0      30.041 -14.294   3.879  0.00  0.00     0.042 A 
ATOM     18  H   UNK d   0      32.157 -14.554   3.960  0.00  0.00     0.165 HD
ATOM     19  C   UNK d   0      29.547 -14.356   5.177  0.00  0.00     0.030 A 
ATOM     20  C   UNK d   0      29.240 -14.072   2.755  0.00  0.00    -0.002 A 
ATOM     21  C   UNK d   0      28.159 -14.297   5.298  0.00  0.00     0.002 A 
ATOM     22  C   UNK d   0      27.332 -14.075   4.191  0.00  0.00     0.001 A 
ATOM     23  C   UNK d   0      27.864 -13.900   2.915  0.00  0.00     0.014 A 
ENDBRANCH  13  14
ENDBRANCH   1  13
BRANCH   1  24
ATOM     24  N   UNK d   0      27.558 -15.127  -0.162  0.00  0.00    -0.290 N 
ATOM     25  C   UNK d   0      27.125 -16.277   0.462  0.00  0.00     0.260 C 
ATOM     26  O   UNK d   0      27.752 -16.892   1.331  0.00  0.00    -0.267 OA
ATOM     27  C   UNK d   0      25.820 -16.805  -0.010  0.00  0.00     0.058 A 
ATOM     28  C   UNK d   0      25.384 -18.071   0.379  0.00  0.00     0.019 A 
ATOM     29  C   UNK d   0      25.091 -16.030  -0.925  0.00  0.00     0.047 A 
ATOM     30  C   UNK d   0      24.198 -18.576  -0.146  0.00  0.00     0.001 A 
ATOM     31  C   UNK d   0      23.452 -17.810  -1.044  0.00  0.00     0.002 A 
ATOM     32  C   UNK d   0      23.896 -16.542  -1.431  0.00  0.00     0.030 A 
ATOM     33  N   UNK d   0      25.561 -14.789  -1.303  0.00  0.00    -0.346 N 
ATOM     34  C   UNK d   0      26.542 -14.147  -0.475  0.00  0.00     0.332 C 
ATOM     35  H   UNK d   0      25.091 -14.207  -1.978  0.00  0.00     0.164 HD
BRANCH  34  36
ATOM     36  O   UNK d   0      25.906 -13.721   0.713  0.00  0.00    -0.359 OA
ATOM     37  H   UNK d   0      26.502 -13.090   1.133  0.00  0.00     0.214 HD
ENDBRANCH  34  36
ENDBRANCH   1  24
TORSDOF 8
ENDMDL
MODEL 9
REMARK VINA RESULT:    -6.071      5.195      8.745
REMARK INTER + INTRA:         -12.162
REMARK INTER:                  -8.457
REMARK INTRA:                  -3.705
REMARK CONF_INDEPENDENT:        2.386
REMARK UNBOUND:                -3.705
REMARK  8 active torsions:
REMARK  status: ('A' for Active; 'I' for Inactive)
REMARK    1  A    between atoms: CA_4  and  CB_2 
REMARK    2  A    between atoms: CA_4  and  C_31 
REMARK    3  A    between atoms: CA_4  and  N_5 
REMARK       I    between atoms: N_5  and  C_6 
REMARK    4  A    between atoms: C_6  and  C_8 
REMARK    5  A    between atoms: C_8  and  C_9 
REMARK    6  A    between atoms: C_8  and  N_19 
REMARK    7  A    between atoms: C_9  and  C_10 
REMARK    8  A    between atoms: C_29  and  O_30 
ROOT
ATOM      1  C   UNK d   0      25.803 -13.544  -4.693  0.00  0.00     0.188 C 
ENDROOT
BRANCH   1   2
ATOM      2  C   UNK d   0      26.966 -14.572  -4.980  0.00  0.00     0.241 C 
ATOM      3  N   VAL d   1      28.262 -14.108  -4.918  0.00  0.00    -0.344 N 
ATOM      4  H   VAL d   1      28.365 -13.259  -5.439  0.00  0.00     0.163 HD
ATOM      5  O   UNK d   0      26.650 -15.734  -5.223  0.00  0.00    -0.271 OA
BRANCH   3   6
ATOM      6  CA  VAL d   1      29.597 -14.793  -4.922  0.00  0.00     0.189 C 
BRANCH   6   7
ATOM      7  C   VAL d   1      30.794 -14.205  -5.742  0.00  0.00     0.197 C 
ATOM      8  O   VAL d   1      31.927 -14.724  -5.603  0.00  0.00    -0.646 OA
ATOM      9  OXT VAL d   1      30.492 -13.182  -6.433  0.00  0.00    -0.646 OA
ENDBRANCH   6   7
BRANCH   6  10
ATOM     10  CB  VAL d   1      29.451 -16.370  -5.007  0.00  0.00     0.010 C 
ATOM     11  CG1 VAL d   1      29.863 -17.078  -3.719  0.00  0.00     0.012 C 
ATOM     12  CG2 VAL d   1      30.260 -17.028  -6.125  0.00  0.00     0.012 C 
ENDBRANCH   6  10
ENDBRANCH   3   6
ENDBRANCH   1   2
BRANCH   1  13
ATOM     13  C   UNK d   0      25.152 -13.756  -3.302  0.00  0.00     0.076 C 
BRANCH  13  14
ATOM     14  C   UNK d   0      25.930 -14.569  -2.306  0.00  0.00    -0.028 C 
ATOM     15  C   UNK d   0      27.268 -14.475  -2.006  0.00  0.00     0.096 C 
ATOM     16  N   UNK d   0      27.443 -15.004  -0.760  0.00  0.00    -0.365 N 
ATOM     17  C   UNK d   0      26.515 -16.003  -0.643  0.00  0.00     0.042 A 
ATOM     18  H   UNK d   0      28.229 -14.836  -0.142  0.00  0.00     0.165 HD
ATOM     19  C   UNK d   0      26.498 -17.123   0.180  0.00  0.00     0.030 A 
ATOM     20  C   UNK d   0      25.534 -15.730  -1.602  0.00  0.00    -0.002 A 
ATOM     21  C   UNK d   0      25.487 -18.048  -0.081  0.00  0.00     0.002 A 
ATOM     22  C   UNK d   0      24.491 -17.801  -1.033  0.00  0.00     0.001 A 
ATOM     23  C   UNK d   0      24.466 -16.614  -1.762  0.00  0.00     0.014 A 
ENDBRANCH  13  14
ENDBRANCH   1  13
BRANCH   1  24
ATOM     24  N   UNK d   0      26.287 -12.123  -4.913  0.00  0.00    -0.290 N 
ATOM     25  C   UNK d   0      26.111 -11.111  -3.995  0.00  0.00     0.260 C 
ATOM     26  O   UNK d   0      26.262 -11.224  -2.775  0.00  0.00    -0.267 OA
ATOM     27  C   UNK d   0      25.660  -9.813  -4.558  0.00  0.00     0.058 A 
ATOM     28  C   UNK d   0      25.233  -8.784  -3.719  0.00  0.00     0.019 A 
ATOM     29  C   UNK d   0      25.594  -9.691  -5.955  0.00  0.00     0.047 A 
ATOM     30  C   UNK d   0      24.735  -7.609  -4.276  0.00  0.00     0.001 A 
ATOM     31  C   UNK d   0      24.680  -7.466  -5.663  0.00  0.00     0.002 A 
ATOM     32  C   UNK d   0      25.107  -8.502  -6.500  0.00  0.00     0.030 A 
ATOM     33  N   UNK d   0      26.006 -10.735  -6.756  0.00  0.00    -0.346 N 
ATOM     34  C   UNK d   0      26.856 -11.742  -6.186  0.00  0.00     0.332 C 
ATOM     35  H   UNK d   0      25.951 -10.710  -7.762  0.00  0.00     0.164 HD
BRANCH  34  36
ATOM     36  O   UNK d   0      28.137 -11.177  -5.988  0.00  0.00    -0.359 OA
ATOM     37  H   UNK d   0      28.776 -11.838  -6.280  0.00  0.00     0.214 HD
ENDBRANCH  34  36
ENDBRANCH   1  24
TORSDOF 8
ENDMDL
