MODEL 1
REMARK VINA RESULT:   -32.196      0.000      0.000
REMARK INTER + INTRA:         -35.359
REMARK INTER:                 -34.285
REMARK INTRA:                  -1.075
REMARK CONF_INDEPENDENT:        2.088
REMARK UNBOUND:                -1.075
REMARK  7 active torsions:
REMARK  status: ('A' for Active; 'I' for Inactive)
REMARK    1  A    between atoms: C_5  and  N_6 
REMARK       I    between atoms: N_6  and  C_7 
REMARK    2  A    between atoms: C_7  and  C_9 
REMARK    3  A    between atoms: C_13  and  N_14 
REMARK    4  A    between atoms: N_14  and  C_15 
REMARK    5  A    between atoms: C_15  and  C_16 
REMARK       I    between atoms: C_16  and  N_18 
REMARK    6  A    between atoms: N_18  and  C_19 
REMARK    7  A    between atoms: C_22  and  C_23 
ROOT
ATOM      1  C   UNL d   1      21.836 -19.244   0.167  0.00  0.00     0.162 C 
ATOM      2  C   UNL d   1      20.544 -19.317  -0.541  0.00  0.00     0.063 C 
ATOM      3  N   UNL d   1      19.544 -19.325  -1.145  0.00  0.00    -0.197 NA
ENDROOT
BRANCH   1   4
ATOM      4  C   UNL d   1      22.793 -18.205  -0.394  0.00  0.00    -0.045 A 
ATOM      5  C   UNL d   1      22.324 -16.950  -0.791  0.00  0.00     0.010 A 
ATOM      6  C   UNL d   1      23.189 -15.980  -1.265  0.00  0.00     0.030 A 
ATOM      7  C   UNL d   1      24.553 -16.225  -1.360  0.00  0.00     0.034 A 
ATOM      8  C   UNL d   1      25.048 -17.488  -1.028  0.00  0.00     0.030 A 
ATOM      9  C   UNL d   1      24.172 -18.467  -0.519  0.00  0.00     0.010 A 
BRANCH   7  10
ATOM     10  N   UNL d   1      25.393 -15.173  -1.767  0.00  0.00    -0.326 N 
ATOM     11  C   UNL d   1      25.019 -14.345  -2.839  0.00  0.00     0.239 C 
ATOM     12  O   UNL d   1      23.965 -14.426  -3.467  0.00  0.00    -0.271 OA
ATOM     13  H   UNL d   1      26.165 -14.916  -1.161  0.00  0.00     0.169 HD
BRANCH  11  14
ATOM     14  C   UNL d   1      26.031 -13.269  -3.154  0.00  0.00     0.223 C 
BRANCH  14  15
ATOM     15  N   UNL d   1      25.702 -12.473  -4.328  0.00  0.00    -0.381 N 
ATOM     16  H   UNL d   1      24.780 -12.033  -4.315  0.00  0.00     0.160 HD
BRANCH  15  17
ATOM     17  C   UNL d   1      26.532 -12.266  -5.420  0.00  0.00     0.036 A 
ATOM     18  C   UNL d   1      27.418 -13.301  -5.771  0.00  0.00     0.059 A 
ATOM     19  C   UNL d   1      28.314 -13.252  -6.857  0.00  0.00     0.036 A 
ATOM     20  C   UNL d   1      28.335 -12.083  -7.617  0.00  0.00     0.030 A 
ATOM     21  C   UNL d   1      27.469 -11.028  -7.292  0.00  0.00     0.011 A 
ATOM     22  C   UNL d   1      26.571 -11.110  -6.211  0.00  0.00    -0.035 A 
ATOM     23  C   UNL d   1      25.671  -9.937  -5.965  0.00  0.00     0.050 C 
BRANCH  19  24
ATOM     24  N   UNL d   1      29.179 -14.343  -7.191  0.00  0.00    -0.327 N 
ATOM     25  C   UNL d   1      29.320 -15.487  -6.411  0.00  0.00     0.225 C 
ATOM     26  O   UNL d   1      28.711 -15.697  -5.364  0.00  0.00    -0.273 OA
ATOM     27  H   UNL d   1      29.704 -14.267  -8.055  0.00  0.00     0.169 HD
BRANCH  25  28
ATOM     28  C   UNL d   1      30.284 -16.571  -6.895  0.00  0.00     0.070 C 
ATOM     29  C   UNL d   1      31.663 -16.008  -7.195  0.00  0.00     0.019 C 
ATOM     30  C   UNL d   1      30.413 -17.623  -5.774  0.00  0.00     0.019 C 
ENDBRANCH  25  28
ENDBRANCH  19  24
ENDBRANCH  15  17
ENDBRANCH  14  15
ENDBRANCH  11  14
ENDBRANCH   7  10
ENDBRANCH   1   4
TORSDOF 7
ENDMDL
MODEL 2
REMARK VINA RESULT:   -31.237      1.545      2.469
REMARK INTER + INTRA:         -34.433
REMARK INTER:                 -33.325
REMARK INTRA:                  -1.108
REMARK CONF_INDEPENDENT:        2.088
REMARK UNBOUND:                -1.108
REMARK  7 active torsions:
REMARK  status: ('A' for Active; 'I' for Inactive)
REMARK    1  A    between atoms: C_5  and  N_6 
REMARK       I    between atoms: N_6  and  C_7 
REMARK    2  A    between atoms: C_7  and  C_9 
REMARK    3  A    between atoms: C_13  and  N_14 
REMARK    4  A    between atoms: N_14  and  C_15 
REMARK    5  A    between atoms: C_15  and  C_16 
REMARK       I    between atoms: C_16  and  N_18 
REMARK    6  A    between atoms: N_18  and  C_19 
REMARK    7  A    between atoms: C_22  and  C_23 
ROOT
ATOM      1  C   UNL d   1      21.807 -18.941   0.453  0.00  0.00     0.162 C 
ATOM      2  C   UNL d   1      20.689 -19.175  -0.480  0.00  0.00     0.063 C 
ATOM      3  N   UNL d   1      19.839 -19.324  -1.267  0.00  0.00    -0.197 NA
ENDROOT
BRANCH   1   4
ATOM      4  C   UNL d   1      22.925 -18.087  -0.120  0.00  0.00    -0.045 A 
ATOM      5  C   UNL d   1      24.256 -18.506  -0.030  0.00  0.00     0.010 A 
ATOM      6  C   UNL d   1      25.280 -17.760  -0.584  0.00  0.00     0.030 A 
ATOM      7  C   UNL d   1      25.016 -16.569  -1.248  0.00  0.00     0.034 A 
ATOM      8  C   UNL d   1      23.706 -16.091  -1.306  0.00  0.00     0.030 A 
ATOM      9  C   UNL d   1      22.659 -16.863  -0.766  0.00  0.00     0.010 A 
BRANCH   7  10
ATOM     10  N   UNL d   1      26.088 -15.898  -1.865  0.00  0.00    -0.326 N 
ATOM     11  C   UNL d   1      25.860 -15.088  -2.991  0.00  0.00     0.239 C 
ATOM     12  O   UNL d   1      24.761 -14.865  -3.496  0.00  0.00    -0.271 OA
ATOM     13  H   UNL d   1      26.976 -15.863  -1.376  0.00  0.00     0.169 HD
BRANCH  11  14
ATOM     14  C   UNL d   1      27.112 -14.445  -3.537  0.00  0.00     0.223 C 
BRANCH  14  15
ATOM     15  N   UNL d   1      27.139 -14.342  -4.990  0.00  0.00    -0.381 N 
ATOM     16  H   UNL d   1      26.224 -14.301  -5.443  0.00  0.00     0.160 HD
BRANCH  15  17
ATOM     17  C   UNL d   1      28.283 -14.283  -5.773  0.00  0.00     0.036 A 
ATOM     18  C   UNL d   1      28.953 -15.491  -6.040  0.00  0.00     0.059 A 
ATOM     19  C   UNL d   1      30.118 -15.602  -6.824  0.00  0.00     0.036 A 
ATOM     20  C   UNL d   1      30.649 -14.425  -7.350  0.00  0.00     0.030 A 
ATOM     21  C   UNL d   1      30.010 -13.201  -7.100  0.00  0.00     0.011 A 
ATOM     22  C   UNL d   1      28.837 -13.121  -6.325  0.00  0.00    -0.035 A 
ATOM     23  C   UNL d   1      28.219 -11.769  -6.139  0.00  0.00     0.050 C 
BRANCH  19  24
ATOM     24  N   UNL d   1      30.750 -16.859  -7.090  0.00  0.00    -0.327 N 
ATOM     25  C   UNL d   1      30.621 -17.979  -6.274  0.00  0.00     0.225 C 
ATOM     26  O   UNL d   1      29.941 -18.023  -5.251  0.00  0.00    -0.273 OA
ATOM     27  H   UNL d   1      31.313 -16.923  -7.930  0.00  0.00     0.169 HD
BRANCH  25  28
ATOM     28  C   UNL d   1      31.357 -19.255  -6.685  0.00  0.00     0.070 C 
ATOM     29  C   UNL d   1      30.768 -20.487  -6.018  0.00  0.00     0.019 C 
ATOM     30  C   UNL d   1      31.220 -19.407  -8.214  0.00  0.00     0.019 C 
ENDBRANCH  25  28
ENDBRANCH  19  24
ENDBRANCH  15  17
ENDBRANCH  14  15
ENDBRANCH  11  14
ENDBRANCH   7  10
ENDBRANCH   1   4
TORSDOF 7
ENDMDL
MODEL 3
REMARK VINA RESULT:   -31.178      1.777      3.695
REMARK INTER + INTRA:         -34.281
REMARK INTER:                 -33.266
REMARK INTRA:                  -1.016
REMARK CONF_INDEPENDENT:        2.088
REMARK UNBOUND:                -1.016
REMARK  7 active torsions:
REMARK  status: ('A' for Active; 'I' for Inactive)
REMARK    1  A    between atoms: C_5  and  N_6 
REMARK       I    between atoms: N_6  and  C_7 
REMARK    2  A    between atoms: C_7  and  C_9 
REMARK    3  A    between atoms: C_13  and  N_14 
REMARK    4  A    between atoms: N_14  and  C_15 
REMARK    5  A    between atoms: C_15  and  C_16 
REMARK       I    between atoms: C_16  and  N_18 
REMARK    6  A    between atoms: N_18  and  C_19 
REMARK    7  A    between atoms: C_22  and  C_23 
ROOT
ATOM      1  C   UNL d   1      21.675 -18.868   0.511  0.00  0.00     0.162 C 
ATOM      2  C   UNL d   1      20.579 -19.141  -0.439  0.00  0.00     0.063 C 
ATOM      3  N   UNL d   1      19.749 -19.325  -1.240  0.00  0.00    -0.197 NA
ENDROOT
BRANCH   1   4
ATOM      4  C   UNL d   1      22.830 -18.081  -0.084  0.00  0.00    -0.045 A 
ATOM      5  C   UNL d   1      22.601 -16.856  -0.718  0.00  0.00     0.010 A 
ATOM      6  C   UNL d   1      23.647 -16.108  -1.228  0.00  0.00     0.030 A 
ATOM      7  C   UNL d   1      24.959 -16.554  -1.125  0.00  0.00     0.034 A 
ATOM      8  C   UNL d   1      25.218 -17.799  -0.551  0.00  0.00     0.030 A 
ATOM      9  C   UNL d   1      24.156 -18.549  -0.006  0.00  0.00     0.010 A 
BRANCH   7  10
ATOM     10  N   UNL d   1      25.987 -15.711  -1.584  0.00  0.00    -0.326 N 
ATOM     11  C   UNL d   1      25.773 -14.874  -2.692  0.00  0.00     0.239 C 
ATOM     12  O   UNL d   1      24.715 -14.770  -3.311  0.00  0.00    -0.271 OA
ATOM     13  H   UNL d   1      26.804 -15.587  -0.995  0.00  0.00     0.169 HD
BRANCH  11  14
ATOM     14  C   UNL d   1      26.975 -14.039  -3.063  0.00  0.00     0.223 C 
BRANCH  14  15
ATOM     15  N   UNL d   1      28.215 -14.797  -3.157  0.00  0.00    -0.381 N 
ATOM     16  H   UNL d   1      28.595 -15.130  -2.269  0.00  0.00     0.160 HD
BRANCH  15  17
ATOM     17  C   UNL d   1      28.886 -15.100  -4.333  0.00  0.00     0.036 A 
ATOM     18  C   UNL d   1      28.612 -14.308  -5.463  0.00  0.00     0.059 A 
ATOM     19  C   UNL d   1      29.217 -14.478  -6.724  0.00  0.00     0.036 A 
ATOM     20  C   UNL d   1      30.132 -15.521  -6.859  0.00  0.00     0.030 A 
ATOM     21  C   UNL d   1      30.425 -16.335  -5.755  0.00  0.00     0.011 A 
ATOM     22  C   UNL d   1      29.818 -16.132  -4.501  0.00  0.00    -0.035 A 
ATOM     23  C   UNL d   1      30.220 -17.042  -3.380  0.00  0.00     0.050 C 
BRANCH  19  24
ATOM     24  N   UNL d   1      28.924 -13.628  -7.839  0.00  0.00    -0.327 N 
ATOM     25  C   UNL d   1      28.865 -12.239  -7.761  0.00  0.00     0.225 C 
ATOM     26  O   UNL d   1      29.073 -11.588  -6.738  0.00  0.00    -0.273 OA
ATOM     27  H   UNL d   1      28.764 -14.078  -8.732  0.00  0.00     0.169 HD
BRANCH  25  28
ATOM     28  C   UNL d   1      28.539 -11.462  -9.036  0.00  0.00     0.070 C 
ATOM     29  C   UNL d   1      29.124 -12.130 -10.270  0.00  0.00     0.019 C 
ATOM     30  C   UNL d   1      27.005 -11.414  -9.181  0.00  0.00     0.019 C 
ENDBRANCH  25  28
ENDBRANCH  19  24
ENDBRANCH  15  17
ENDBRANCH  14  15
ENDBRANCH  11  14
ENDBRANCH   7  10
ENDBRANCH   1   4
TORSDOF 7
ENDMDL
MODEL 4
REMARK VINA RESULT:   -30.996      3.459      5.999
REMARK INTER + INTRA:         -35.418
REMARK INTER:                 -33.084
REMARK INTRA:                  -2.334
REMARK CONF_INDEPENDENT:        2.088
REMARK UNBOUND:                -2.334
REMARK  7 active torsions:
REMARK  status: ('A' for Active; 'I' for Inactive)
REMARK    1  A    between atoms: C_5  and  N_6 
REMARK       I    between atoms: N_6  and  C_7 
REMARK    2  A    between atoms: C_7  and  C_9 
REMARK    3  A    between atoms: C_13  and  N_14 
REMARK    4  A    between atoms: N_14  and  C_15 
REMARK    5  A    between atoms: C_15  and  C_16 
REMARK       I    between atoms: C_16  and  N_18 
REMARK    6  A    between atoms: N_18  and  C_19 
REMARK    7  A    between atoms: C_22  and  C_23 
ROOT
ATOM      1  C   UNL d   1      21.778 -18.944   0.367  0.00  0.00     0.162 C 
ATOM      2  C   UNL d   1      20.620 -19.178  -0.516  0.00  0.00     0.063 C 
ATOM      3  N   UNL d   1      19.735 -19.325  -1.265  0.00  0.00    -0.197 NA
ENDROOT
BRANCH   1   4
ATOM      4  C   UNL d   1      22.846 -18.046  -0.234  0.00  0.00    -0.045 A 
ATOM      5  C   UNL d   1      22.508 -16.797  -0.761  0.00  0.00     0.010 A 
ATOM      6  C   UNL d   1      23.474 -15.951  -1.275  0.00  0.00     0.030 A 
ATOM      7  C   UNL d   1      24.814 -16.320  -1.281  0.00  0.00     0.034 A 
ATOM      8  C   UNL d   1      25.180 -17.585  -0.817  0.00  0.00     0.030 A 
ATOM      9  C   UNL d   1      24.199 -18.436  -0.269  0.00  0.00     0.010 A 
BRANCH   7  10
ATOM     10  N   UNL d   1      25.761 -15.385  -1.737  0.00  0.00    -0.326 N 
ATOM     11  C   UNL d   1      25.866 -15.096  -3.108  0.00  0.00     0.239 C 
ATOM     12  O   UNL d   1      25.157 -15.574  -3.992  0.00  0.00    -0.271 OA
ATOM     13  H   UNL d   1      26.223 -14.799  -1.049  0.00  0.00     0.169 HD
BRANCH  11  14
ATOM     14  C   UNL d   1      26.933 -14.079  -3.433  0.00  0.00     0.223 C 
BRANCH  14  15
ATOM     15  N   UNL d   1      28.286 -14.618  -3.425  0.00  0.00    -0.381 N 
ATOM     16  H   UNL d   1      28.843 -14.416  -4.257  0.00  0.00     0.160 HD
BRANCH  15  17
ATOM     17  C   UNL d   1      28.856 -15.348  -2.392  0.00  0.00     0.036 A 
ATOM     18  C   UNL d   1      28.611 -14.918  -1.076  0.00  0.00     0.059 A 
ATOM     19  C   UNL d   1      29.105 -15.556   0.079  0.00  0.00     0.036 A 
ATOM     20  C   UNL d   1      29.912 -16.677  -0.106  0.00  0.00     0.030 A 
ATOM     21  C   UNL d   1      30.183 -17.132  -1.405  0.00  0.00     0.011 A 
ATOM     22  C   UNL d   1      29.662 -16.485  -2.542  0.00  0.00    -0.035 A 
ATOM     23  C   UNL d   1      29.990 -17.066  -3.884  0.00  0.00     0.050 C 
BRANCH  19  24
ATOM     24  N   UNL d   1      28.806 -15.094   1.401  0.00  0.00    -0.327 N 
ATOM     25  C   UNL d   1      27.644 -14.406   1.737  0.00  0.00     0.225 C 
ATOM     26  O   UNL d   1      26.741 -14.133   0.948  0.00  0.00    -0.273 OA
ATOM     27  H   UNL d   1      29.485 -15.298   2.125  0.00  0.00     0.169 HD
BRANCH  25  28
ATOM     28  C   UNL d   1      27.462 -13.973   3.192  0.00  0.00     0.070 C 
ATOM     29  C   UNL d   1      28.294 -14.820   4.142  0.00  0.00     0.019 C 
ATOM     30  C   UNL d   1      27.919 -12.505   3.310  0.00  0.00     0.019 C 
ENDBRANCH  25  28
ENDBRANCH  19  24
ENDBRANCH  15  17
ENDBRANCH  14  15
ENDBRANCH  11  14
ENDBRANCH   7  10
ENDBRANCH   1   4
TORSDOF 7
ENDMDL
MODEL 5
REMARK VINA RESULT:   -30.930      2.775      4.248
REMARK INTER + INTRA:         -34.310
REMARK INTER:                 -33.019
REMARK INTRA:                  -1.291
REMARK CONF_INDEPENDENT:        2.088
REMARK UNBOUND:                -1.291
REMARK  7 active torsions:
REMARK  status: ('A' for Active; 'I' for Inactive)
REMARK    1  A    between atoms: C_5  and  N_6 
REMARK       I    between atoms: N_6  and  C_7 
REMARK    2  A    between atoms: C_7  and  C_9 
REMARK    3  A    between atoms: C_13  and  N_14 
REMARK    4  A    between atoms: N_14  and  C_15 
REMARK    5  A    between atoms: C_15  and  C_16 
REMARK       I    between atoms: C_16  and  N_18 
REMARK    6  A    between atoms: N_18  and  C_19 
REMARK    7  A    between atoms: C_22  and  C_23 
ROOT
ATOM      1  C   UNL d   1      21.751 -18.941   0.456  0.00  0.00     0.162 C 
ATOM      2  C   UNL d   1      20.632 -19.166  -0.479  0.00  0.00     0.063 C 
ATOM      3  N   UNL d   1      19.783 -19.308  -1.267  0.00  0.00    -0.197 NA
ENDROOT
BRANCH   1   4
ATOM      4  C   UNL d   1      22.885 -18.111  -0.121  0.00  0.00    -0.045 A 
ATOM      5  C   UNL d   1      24.204 -18.570  -0.059  0.00  0.00     0.010 A 
ATOM      6  C   UNL d   1      25.241 -17.845  -0.617  0.00  0.00     0.030 A 
ATOM      7  C   UNL d   1      25.002 -16.635  -1.257  0.00  0.00     0.034 A 
ATOM      8  C   UNL d   1      23.706 -16.118  -1.285  0.00  0.00     0.030 A 
ATOM      9  C   UNL d   1      22.645 -16.869  -0.742  0.00  0.00     0.010 A 
BRANCH   7  10
ATOM     10  N   UNL d   1      26.083 -15.986  -1.879  0.00  0.00    -0.326 N 
ATOM     11  C   UNL d   1      25.874 -15.218  -3.038  0.00  0.00     0.239 C 
ATOM     12  O   UNL d   1      24.784 -15.016  -3.570  0.00  0.00    -0.271 OA
ATOM     13  H   UNL d   1      26.963 -15.931  -1.376  0.00  0.00     0.169 HD
BRANCH  11  14
ATOM     14  C   UNL d   1      27.135 -14.593  -3.586  0.00  0.00     0.223 C 
BRANCH  14  15
ATOM     15  N   UNL d   1      28.320 -14.847  -2.779  0.00  0.00    -0.381 N 
ATOM     16  H   UNL d   1      28.530 -14.139  -2.073  0.00  0.00     0.160 HD
BRANCH  15  17
ATOM     17  C   UNL d   1      29.148 -15.955  -2.890  0.00  0.00     0.036 A 
ATOM     18  C   UNL d   1      29.565 -16.330  -4.181  0.00  0.00     0.059 A 
ATOM     19  C   UNL d   1      30.413 -17.420  -4.460  0.00  0.00     0.036 A 
ATOM     20  C   UNL d   1      30.845 -18.189  -3.381  0.00  0.00     0.030 A 
ATOM     21  C   UNL d   1      30.443 -17.848  -2.080  0.00  0.00     0.011 A 
ATOM     22  C   UNL d   1      29.608 -16.742  -1.827  0.00  0.00    -0.035 A 
ATOM     23  C   UNL d   1      29.259 -16.449  -0.400  0.00  0.00     0.050 C 
BRANCH  19  24
ATOM     24  N   UNL d   1      30.832 -17.747  -5.790  0.00  0.00    -0.327 N 
ATOM     25  C   UNL d   1      30.607 -18.981  -6.393  0.00  0.00     0.225 C 
ATOM     26  O   UNL d   1      30.013 -19.919  -5.863  0.00  0.00    -0.273 OA
ATOM     27  H   UNL d   1      31.309 -17.022  -6.314  0.00  0.00     0.169 HD
BRANCH  25  28
ATOM     28  C   UNL d   1      31.114 -19.186  -7.821  0.00  0.00     0.070 C 
ATOM     29  C   UNL d   1      32.306 -18.295  -8.130  0.00  0.00     0.019 C 
ATOM     30  C   UNL d   1      31.549 -20.659  -7.961  0.00  0.00     0.019 C 
ENDBRANCH  25  28
ENDBRANCH  19  24
ENDBRANCH  15  17
ENDBRANCH  14  15
ENDBRANCH  11  14
ENDBRANCH   7  10
ENDBRANCH   1   4
TORSDOF 7
ENDMDL
MODEL 6
REMARK VINA RESULT:   -30.872      2.046      4.846
REMARK INTER + INTRA:         -33.981
REMARK INTER:                 -32.960
REMARK INTRA:                  -1.021
REMARK CONF_INDEPENDENT:        2.088
REMARK UNBOUND:                -1.021
REMARK  7 active torsions:
REMARK  status: ('A' for Active; 'I' for Inactive)
REMARK    1  A    between atoms: C_5  and  N_6 
REMARK       I    between atoms: N_6  and  C_7 
REMARK    2  A    between atoms: C_7  and  C_9 
REMARK    3  A    between atoms: C_13  and  N_14 
REMARK    4  A    between atoms: N_14  and  C_15 
REMARK    5  A    between atoms: C_15  and  C_16 
REMARK       I    between atoms: C_16  and  N_18 
REMARK    6  A    between atoms: N_18  and  C_19 
REMARK    7  A    between atoms: C_22  and  C_23 
ROOT
ATOM      1  C   UNL d   1      21.835 -19.382   0.132  0.00  0.00     0.162 C 
ATOM      2  C   UNL d   1      20.571 -19.379  -0.628  0.00  0.00     0.063 C 
ATOM      3  N   UNL d   1      19.596 -19.325  -1.270  0.00  0.00    -0.197 NA
ENDROOT
BRANCH   1   4
ATOM      4  C   UNL d   1      22.846 -18.350  -0.340  0.00  0.00    -0.045 A 
ATOM      5  C   UNL d   1      22.418 -17.131  -0.872  0.00  0.00     0.010 A 
ATOM      6  C   UNL d   1      23.326 -16.165  -1.268  0.00  0.00     0.030 A 
ATOM      7  C   UNL d   1      24.693 -16.380  -1.148  0.00  0.00     0.034 A 
ATOM      8  C   UNL d   1      25.156 -17.610  -0.676  0.00  0.00     0.030 A 
ATOM      9  C   UNL d   1      24.232 -18.583  -0.247  0.00  0.00     0.010 A 
BRANCH   7  10
ATOM     10  N   UNL d   1      25.566 -15.329  -1.486  0.00  0.00    -0.326 N 
ATOM     11  C   UNL d   1      25.812 -15.022  -2.835  0.00  0.00     0.239 C 
ATOM     12  O   UNL d   1      25.292 -15.581  -3.798  0.00  0.00    -0.271 OA
ATOM     13  H   UNL d   1      25.856 -14.693  -0.750  0.00  0.00     0.169 HD
BRANCH  11  14
ATOM     14  C   UNL d   1      26.775 -13.875  -3.028  0.00  0.00     0.223 C 
BRANCH  14  15
ATOM     15  N   UNL d   1      27.499 -13.917  -4.291  0.00  0.00    -0.381 N 
ATOM     16  H   UNL d   1      28.156 -14.693  -4.395  0.00  0.00     0.160 HD
BRANCH  15  17
ATOM     17  C   UNL d   1      27.352 -13.014  -5.334  0.00  0.00     0.036 A 
ATOM     18  C   UNL d   1      26.468 -11.937  -5.144  0.00  0.00     0.059 A 
ATOM     19  C   UNL d   1      26.217 -10.931  -6.098  0.00  0.00     0.036 A 
ATOM     20  C   UNL d   1      26.879 -11.030  -7.322  0.00  0.00     0.030 A 
ATOM     21  C   UNL d   1      27.764 -12.095  -7.548  0.00  0.00     0.011 A 
ATOM     22  C   UNL d   1      28.009 -13.078  -6.570  0.00  0.00    -0.035 A 
ATOM     23  C   UNL d   1      28.992 -14.159  -6.904  0.00  0.00     0.050 C 
BRANCH  19  24
ATOM     24  N   UNL d   1      25.326  -9.838  -5.848  0.00  0.00    -0.327 N 
ATOM     25  C   UNL d   1      25.609  -8.516  -6.176  0.00  0.00     0.225 C 
ATOM     26  O   UNL d   1      26.641  -8.140  -6.731  0.00  0.00    -0.273 OA
ATOM     27  H   UNL d   1      24.436 -10.059  -5.415  0.00  0.00     0.169 HD
BRANCH  25  28
ATOM     28  C   UNL d   1      24.560  -7.454  -5.847  0.00  0.00     0.070 C 
ATOM     29  C   UNL d   1      23.249  -8.076  -5.394  0.00  0.00     0.019 C 
ATOM     30  C   UNL d   1      25.114  -6.582  -4.701  0.00  0.00     0.019 C 
ENDBRANCH  25  28
ENDBRANCH  19  24
ENDBRANCH  15  17
ENDBRANCH  14  15
ENDBRANCH  11  14
ENDBRANCH   7  10
ENDBRANCH   1   4
TORSDOF 7
ENDMDL
MODEL 7
REMARK VINA RESULT:   -30.847      3.158      6.034
REMARK INTER + INTRA:         -33.921
REMARK INTER:                 -32.935
REMARK INTRA:                  -0.986
REMARK CONF_INDEPENDENT:        2.088
REMARK UNBOUND:                -0.986
REMARK  7 active torsions:
REMARK  status: ('A' for Active; 'I' for Inactive)
REMARK    1  A    between atoms: C_5  and  N_6 
REMARK       I    between atoms: N_6  and  C_7 
REMARK    2  A    between atoms: C_7  and  C_9 
REMARK    3  A    between atoms: C_13  and  N_14 
REMARK    4  A    between atoms: N_14  and  C_15 
REMARK    5  A    between atoms: C_15  and  C_16 
REMARK       I    between atoms: C_16  and  N_18 
REMARK    6  A    between atoms: N_18  and  C_19 
REMARK    7  A    between atoms: C_22  and  C_23 
ROOT
ATOM      1  C   UNL d   1      21.886 -19.327   0.008  0.00  0.00     0.162 C 
ATOM      2  C   UNL d   1      20.583 -19.357  -0.684  0.00  0.00     0.063 C 
ATOM      3  N   UNL d   1      19.573 -19.325  -1.270  0.00  0.00    -0.197 NA
ENDROOT
BRANCH   1   4
ATOM      4  C   UNL d   1      22.808 -18.212  -0.454  0.00  0.00    -0.045 A 
ATOM      5  C   UNL d   1      24.189 -18.416  -0.523  0.00  0.00     0.010 A 
ATOM      6  C   UNL d   1      25.037 -17.423  -0.980  0.00  0.00     0.030 A 
ATOM      7  C   UNL d   1      24.540 -16.191  -1.385  0.00  0.00     0.034 A 
ATOM      8  C   UNL d   1      23.173 -15.932  -1.274  0.00  0.00     0.030 A 
ATOM      9  C   UNL d   1      22.305 -16.952  -0.834  0.00  0.00     0.010 A 
BRANCH   7  10
ATOM     10  N   UNL d   1      25.440 -15.252  -1.921  0.00  0.00    -0.326 N 
ATOM     11  C   UNL d   1      25.052 -14.436  -2.998  0.00  0.00     0.239 C 
ATOM     12  O   UNL d   1      23.940 -14.433  -3.523  0.00  0.00    -0.271 OA
ATOM     13  H   UNL d   1      26.288 -15.052  -1.402  0.00  0.00     0.169 HD
BRANCH  11  14
ATOM     14  C   UNL d   1      26.133 -13.489  -3.460  0.00  0.00     0.223 C 
BRANCH  14  15
ATOM     15  N   UNL d   1      25.629 -12.302  -4.137  0.00  0.00    -0.381 N 
ATOM     16  H   UNL d   1      24.862 -12.462  -4.791  0.00  0.00     0.160 HD
BRANCH  15  17
ATOM     17  C   UNL d   1      26.095 -11.008  -3.948  0.00  0.00     0.036 A 
ATOM     18  C   UNL d   1      25.199  -9.951  -4.191  0.00  0.00     0.059 A 
ATOM     19  C   UNL d   1      25.513  -8.586  -4.034  0.00  0.00     0.036 A 
ATOM     20  C   UNL d   1      26.810  -8.270  -3.633  0.00  0.00     0.030 A 
ATOM     21  C   UNL d   1      27.732  -9.299  -3.387  0.00  0.00     0.011 A 
ATOM     22  C   UNL d   1      27.386 -10.656  -3.535  0.00  0.00    -0.035 A 
ATOM     23  C   UNL d   1      28.437 -11.678  -3.223  0.00  0.00     0.050 C 
BRANCH  19  24
ATOM     24  N   UNL d   1      24.558  -7.546  -4.269  0.00  0.00    -0.327 N 
ATOM     25  C   UNL d   1      24.220  -7.074  -5.534  0.00  0.00     0.225 C 
ATOM     26  O   UNL d   1      24.686  -7.505  -6.587  0.00  0.00    -0.273 OA
ATOM     27  H   UNL d   1      24.102  -7.147  -3.456  0.00  0.00     0.169 HD
BRANCH  25  28
ATOM     28  C   UNL d   1      23.182  -5.955  -5.629  0.00  0.00     0.070 C 
ATOM     29  C   UNL d   1      21.784  -6.501  -5.868  0.00  0.00     0.019 C 
ATOM     30  C   UNL d   1      23.191  -5.188  -4.291  0.00  0.00     0.019 C 
ENDBRANCH  25  28
ENDBRANCH  19  24
ENDBRANCH  15  17
ENDBRANCH  14  15
ENDBRANCH  11  14
ENDBRANCH   7  10
ENDBRANCH   1   4
TORSDOF 7
ENDMDL
MODEL 8
REMARK VINA RESULT:   -30.527      2.046      3.327
REMARK INTER + INTRA:         -33.976
REMARK INTER:                 -32.615
REMARK INTRA:                  -1.361
REMARK CONF_INDEPENDENT:        2.088
REMARK UNBOUND:                -1.361
REMARK  7 active torsions:
REMARK  status: ('A' for Active; 'I' for Inactive)
REMARK    1  A    between atoms: C_5  and  N_6 
REMARK       I    between atoms: N_6  and  C_7 
REMARK    2  A    between atoms: C_7  and  C_9 
REMARK    3  A    between atoms: C_13  and  N_14 
REMARK    4  A    between atoms: N_14  and  C_15 
REMARK    5  A    between atoms: C_15  and  C_16 
REMARK       I    between atoms: C_16  and  N_18 
REMARK    6  A    between atoms: N_18  and  C_19 
REMARK    7  A    between atoms: C_22  and  C_23 
ROOT
ATOM      1  C   UNL d   1      22.119 -19.306   0.020  0.00  0.00     0.162 C 
ATOM      2  C   UNL d   1      20.820 -19.345  -0.677  0.00  0.00     0.063 C 
ATOM      3  N   UNL d   1      19.813 -19.321  -1.269  0.00  0.00    -0.197 NA
ENDROOT
BRANCH   1   4
ATOM      4  C   UNL d   1      23.052 -18.211  -0.466  0.00  0.00    -0.045 A 
ATOM      5  C   UNL d   1      22.544 -16.971  -0.864  0.00  0.00     0.010 A 
ATOM      6  C   UNL d   1      23.384 -15.950  -1.270  0.00  0.00     0.030 A 
ATOM      7  C   UNL d   1      24.762 -16.127  -1.294  0.00  0.00     0.034 A 
ATOM      8  C   UNL d   1      25.300 -17.371  -0.959  0.00  0.00     0.030 A 
ATOM      9  C   UNL d   1      24.447 -18.403  -0.519  0.00  0.00     0.010 A 
BRANCH   7  10
ATOM     10  N   UNL d   1      25.570 -15.026  -1.632  0.00  0.00    -0.326 N 
ATOM     11  C   UNL d   1      25.520 -14.486  -2.928  0.00  0.00     0.239 C 
ATOM     12  O   UNL d   1      24.781 -14.872  -3.832  0.00  0.00    -0.271 OA
ATOM     13  H   UNL d   1      26.037 -14.527  -0.883  0.00  0.00     0.169 HD
BRANCH  11  14
ATOM     14  C   UNL d   1      26.452 -13.315  -3.133  0.00  0.00     0.223 C 
BRANCH  14  15
ATOM     15  N   UNL d   1      27.863 -13.655  -3.020  0.00  0.00    -0.381 N 
ATOM     16  H   UNL d   1      28.361 -13.210  -2.247  0.00  0.00     0.160 HD
BRANCH  15  17
ATOM     17  C   UNL d   1      28.551 -14.525  -3.854  0.00  0.00     0.036 A 
ATOM     18  C   UNL d   1      28.926 -14.051  -5.124  0.00  0.00     0.059 A 
ATOM     19  C   UNL d   1      29.637 -14.803  -6.080  0.00  0.00     0.036 A 
ATOM     20  C   UNL d   1      29.968 -16.115  -5.744  0.00  0.00     0.030 A 
ATOM     21  C   UNL d   1      29.604 -16.624  -4.488  0.00  0.00     0.011 A 
ATOM     22  C   UNL d   1      28.908 -15.844  -3.544  0.00  0.00    -0.035 A 
ATOM     23  C   UNL d   1      28.591 -16.474  -2.222  0.00  0.00     0.050 C 
BRANCH  19  24
ATOM     24  N   UNL d   1      30.019 -14.267  -7.351  0.00  0.00    -0.327 N 
ATOM     25  C   UNL d   1      31.310 -13.849  -7.660  0.00  0.00     0.225 C 
ATOM     26  O   UNL d   1      32.266 -13.907  -6.889  0.00  0.00    -0.273 OA
ATOM     27  H   UNL d   1      29.298 -14.205  -8.061  0.00  0.00     0.169 HD
BRANCH  25  28
ATOM     28  C   UNL d   1      31.569 -13.295  -9.062  0.00  0.00     0.070 C 
ATOM     29  C   UNL d   1      31.241 -11.814  -9.154  0.00  0.00     0.019 C 
ATOM     30  C   UNL d   1      33.066 -13.489  -9.377  0.00  0.00     0.019 C 
ENDBRANCH  25  28
ENDBRANCH  19  24
ENDBRANCH  15  17
ENDBRANCH  14  15
ENDBRANCH  11  14
ENDBRANCH   7  10
ENDBRANCH   1   4
TORSDOF 7
ENDMDL
