MODEL 1
REMARK VINA RESULT:    -7.519      0.000      0.000
REMARK INTER + INTRA:         -11.584
REMARK INTER:                 -10.204
REMARK INTRA:                  -1.380
REMARK CONF_INDEPENDENT:        2.685
REMARK UNBOUND:                -1.380
REMARK  9 active torsions:
REMARK  status: ('A' for Active; 'I' for Inactive)
REMARK    1  A    between atoms: O_2  and  C_3 
REMARK    2  A    between atoms: C_6  and  O_7 
REMARK    3  A    between atoms: O_7  and  C_8 
REMARK    4  A    between atoms: C_8  and  C_10 
REMARK       I    between atoms: C_10  and  N_12 
REMARK    5  A    between atoms: N_12  and  N_13 
REMARK       I    between atoms: N_13  and  C_14 
REMARK       I    between atoms: C_14  and  N_16 
REMARK    6  A    between atoms: N_16  and  C_17 
REMARK    7  A    between atoms: C_17  and  C_18 
REMARK    8  A    between atoms: C_18  and  C_19 
REMARK    9  A    between atoms: C_19  and  N_20 
ROOT
ATOM      1  C   UNL d   1      27.095 -15.411   0.627  0.00  0.00     0.265 C 
ATOM      2  O   UNL d   1      26.567 -14.362   0.247  0.00  0.00    -0.269 OA
ATOM      3  N   UNL d   1      27.669 -15.486   1.905  0.00  0.00    -0.264 N 
ATOM      4  H   UNL d   1      28.114 -16.318   2.287  0.00  0.00     0.190 HD
ENDROOT
BRANCH   3   5
ATOM      5  N   UNL d   1      27.706 -14.315   2.750  0.00  0.00    -0.249 N 
ATOM      6  C   UNL d   1      27.952 -14.451   4.109  0.00  0.00     0.334 C 
ATOM      7  O   UNL d   1      28.149 -15.546   4.642  0.00  0.00    -0.246 OA
ATOM      8  N   UNL d   1      27.964 -13.266   4.831  0.00  0.00    -0.342 N 
ATOM      9  H   UNL d   1      27.793 -12.399   4.340  0.00  0.00     0.164 HD
ATOM     10  H   UNL d   1      27.549 -13.430   2.276  0.00  0.00     0.192 HD
BRANCH   8  11
ATOM     11  C   UNL d   1      28.205 -13.256   6.279  0.00  0.00     0.126 C 
BRANCH  11  12
ATOM     12  C   UNL d   1      29.441 -14.054   6.724  0.00  0.00     0.040 C 
BRANCH  12  13
ATOM     13  C   UNL d   1      30.091 -13.476   7.990  0.00  0.00     0.130 C 
BRANCH  13  14
ATOM     14  N   UNL d   1      29.159 -13.485   9.139  0.00  0.00    -0.352 N 
ATOM     15  C   UNL d   1      28.618 -12.355   9.747  0.00  0.00     0.108 A 
ATOM     16  C   UNL d   1      27.780 -12.793  10.733  0.00  0.00     0.106 A 
ATOM     17  N   UNL d   1      27.828 -14.165  10.696  0.00  0.00    -0.361 N 
ATOM     18  C   UNL d   1      28.659 -14.583   9.733  0.00  0.00     0.182 A 
ATOM     19  H   UNL d   1      27.303 -14.785  11.309  0.00  0.00     0.166 HD
ENDBRANCH  13  14
ENDBRANCH  12  13
ENDBRANCH  11  12
ENDBRANCH   8  11
ENDBRANCH   3   5
BRANCH   1  20
ATOM     20  C   UNL d   1      27.160 -16.723  -0.264  0.00  0.00     0.218 C 
ATOM     21  C   UNL d   1      26.797 -16.338  -1.702  0.00  0.00     0.050 C 
BRANCH  20  22
ATOM     22  O   UNL d   1      26.251 -17.743   0.216  0.00  0.00    -0.337 OA
BRANCH  22  23
ATOM     23  C   UNL d   1      24.908 -17.672  -0.084  0.00  0.00     0.070 A 
ATOM     24  C   UNL d   1      24.213 -18.886  -0.160  0.00  0.00     0.039 A 
ATOM     25  C   UNL d   1      22.845 -18.914  -0.496  0.00  0.00     0.039 A 
ATOM     26  C   UNL d   1      22.136 -17.726  -0.673  0.00  0.00     0.068 A 
ATOM     27  C   UNL d   1      22.807 -16.519  -0.535  0.00  0.00     0.039 A 
ATOM     28  C   UNL d   1      24.186 -16.499  -0.299  0.00  0.00     0.039 A 
BRANCH  26  29
ATOM     29  O   UNL d   1      20.790 -17.825  -0.900  0.00  0.00    -0.356 OA
ATOM     30  C   UNL d   1      20.277 -19.156  -0.874  0.00  0.00     0.210 C 
ENDBRANCH  26  29
ENDBRANCH  22  23
ENDBRANCH  20  22
ENDBRANCH   1  20
TORSDOF 9
ENDMDL
MODEL 2
REMARK VINA RESULT:    -7.355      1.346      1.867
REMARK INTER + INTRA:         -11.864
REMARK INTER:                 -10.039
REMARK INTRA:                  -1.825
REMARK CONF_INDEPENDENT:        2.685
REMARK UNBOUND:                -1.825
REMARK  9 active torsions:
REMARK  status: ('A' for Active; 'I' for Inactive)
REMARK    1  A    between atoms: O_2  and  C_3 
REMARK    2  A    between atoms: C_6  and  O_7 
REMARK    3  A    between atoms: O_7  and  C_8 
REMARK    4  A    between atoms: C_8  and  C_10 
REMARK       I    between atoms: C_10  and  N_12 
REMARK    5  A    between atoms: N_12  and  N_13 
REMARK       I    between atoms: N_13  and  C_14 
REMARK       I    between atoms: C_14  and  N_16 
REMARK    6  A    between atoms: N_16  and  C_17 
REMARK    7  A    between atoms: C_17  and  C_18 
REMARK    8  A    between atoms: C_18  and  C_19 
REMARK    9  A    between atoms: C_19  and  N_20 
ROOT
ATOM      1  C   UNL d   1      27.518 -15.784  -0.358  0.00  0.00     0.265 C 
ATOM      2  O   UNL d   1      28.558 -16.440  -0.463  0.00  0.00    -0.269 OA
ATOM      3  N   UNL d   1      27.242 -15.090   0.829  0.00  0.00    -0.264 N 
ATOM      4  H   UNL d   1      26.410 -14.523   0.983  0.00  0.00     0.190 HD
ENDROOT
BRANCH   3   5
ATOM      5  N   UNL d   1      28.140 -15.199   1.955  0.00  0.00    -0.249 N 
ATOM      6  C   UNL d   1      27.897 -14.465   3.108  0.00  0.00     0.334 C 
ATOM      7  O   UNL d   1      26.929 -13.708   3.221  0.00  0.00    -0.246 OA
ATOM      8  N   UNL d   1      28.819 -14.641   4.129  0.00  0.00    -0.342 N 
ATOM      9  H   UNL d   1      29.594 -15.272   3.977  0.00  0.00     0.164 HD
ATOM     10  H   UNL d   1      28.920 -15.838   1.831  0.00  0.00     0.192 HD
BRANCH   8  11
ATOM     11  C   UNL d   1      28.694 -13.923   5.404  0.00  0.00     0.126 C 
BRANCH  11  12
ATOM     12  C   UNL d   1      30.023 -13.399   5.972  0.00  0.00     0.040 C 
BRANCH  12  13
ATOM     13  C   UNL d   1      30.317 -13.944   7.377  0.00  0.00     0.130 C 
BRANCH  13  14
ATOM     14  N   UNL d   1      29.464 -13.305   8.403  0.00  0.00    -0.352 N 
ATOM     15  C   UNL d   1      28.747 -13.979   9.388  0.00  0.00     0.108 A 
ATOM     16  C   UNL d   1      28.128 -13.032  10.154  0.00  0.00     0.106 A 
ATOM     17  N   UNL d   1      28.487 -11.816   9.622  0.00  0.00    -0.361 N 
ATOM     18  C   UNL d   1      29.294 -11.981   8.567  0.00  0.00     0.182 A 
ATOM     19  H   UNL d   1      28.188 -10.911   9.980  0.00  0.00     0.166 HD
ENDBRANCH  13  14
ENDBRANCH  12  13
ENDBRANCH  11  12
ENDBRANCH   8  11
ENDBRANCH   3   5
BRANCH   1  20
ATOM     20  C   UNL d   1      26.445 -15.666  -1.521  0.00  0.00     0.218 C 
ATOM     21  C   UNL d   1      26.822 -14.467  -2.396  0.00  0.00     0.050 C 
BRANCH  20  22
ATOM     22  O   UNL d   1      25.106 -15.492  -1.000  0.00  0.00    -0.337 OA
BRANCH  22  23
ATOM     23  C   UNL d   1      24.284 -16.583  -0.820  0.00  0.00     0.070 A 
ATOM     24  C   UNL d   1      22.904 -16.356  -0.899  0.00  0.00     0.039 A 
ATOM     25  C   UNL d   1      21.987 -17.405  -0.692  0.00  0.00     0.039 A 
ATOM     26  C   UNL d   1      22.438 -18.710  -0.492  0.00  0.00     0.068 A 
ATOM     27  C   UNL d   1      23.804 -18.950  -0.478  0.00  0.00     0.039 A 
ATOM     28  C   UNL d   1      24.711 -17.890  -0.585  0.00  0.00     0.039 A 
BRANCH  26  29
ATOM     29  O   UNL d   1      21.492 -19.694  -0.396  0.00  0.00    -0.356 OA
ATOM     30  C   UNL d   1      20.204 -19.335  -0.895  0.00  0.00     0.210 C 
ENDBRANCH  26  29
ENDBRANCH  22  23
ENDBRANCH  20  22
ENDBRANCH   1  20
TORSDOF 9
ENDMDL
MODEL 3
REMARK VINA RESULT:    -7.188      1.260      1.513
REMARK INTER + INTRA:         -11.786
REMARK INTER:                  -9.873
REMARK INTRA:                  -1.913
REMARK CONF_INDEPENDENT:        2.685
REMARK UNBOUND:                -1.913
REMARK  9 active torsions:
REMARK  status: ('A' for Active; 'I' for Inactive)
REMARK    1  A    between atoms: O_2  and  C_3 
REMARK    2  A    between atoms: C_6  and  O_7 
REMARK    3  A    between atoms: O_7  and  C_8 
REMARK    4  A    between atoms: C_8  and  C_10 
REMARK       I    between atoms: C_10  and  N_12 
REMARK    5  A    between atoms: N_12  and  N_13 
REMARK       I    between atoms: N_13  and  C_14 
REMARK       I    between atoms: C_14  and  N_16 
REMARK    6  A    between atoms: N_16  and  C_17 
REMARK    7  A    between atoms: C_17  and  C_18 
REMARK    8  A    between atoms: C_18  and  C_19 
REMARK    9  A    between atoms: C_19  and  N_20 
ROOT
ATOM      1  C   UNL d   1      27.715 -16.067   0.101  0.00  0.00     0.265 C 
ATOM      2  O   UNL d   1      28.888 -16.415  -0.060  0.00  0.00    -0.269 OA
ATOM      3  N   UNL d   1      27.366 -15.259   1.194  0.00  0.00    -0.264 N 
ATOM      4  H   UNL d   1      26.422 -14.928   1.385  0.00  0.00     0.190 HD
ENDROOT
BRANCH   3   5
ATOM      5  N   UNL d   1      28.365 -14.894   2.170  0.00  0.00    -0.249 N 
ATOM      6  C   UNL d   1      28.043 -14.011   3.192  0.00  0.00     0.334 C 
ATOM      7  O   UNL d   1      26.920 -13.514   3.311  0.00  0.00    -0.246 OA
ATOM      8  N   UNL d   1      29.074 -13.724   4.075  0.00  0.00    -0.342 N 
ATOM      9  H   UNL d   1      29.975 -14.159   3.924  0.00  0.00     0.164 HD
ATOM     10  H   UNL d   1      29.275 -15.329   2.047  0.00  0.00     0.192 HD
BRANCH   8  11
ATOM     11  C   UNL d   1      28.882 -12.801   5.200  0.00  0.00     0.126 C 
BRANCH  11  12
ATOM     12  C   UNL d   1      28.233 -13.436   6.440  0.00  0.00     0.040 C 
BRANCH  12  13
ATOM     13  C   UNL d   1      29.268 -13.889   7.479  0.00  0.00     0.130 C 
BRANCH  13  14
ATOM     14  N   UNL d   1      28.890 -13.473   8.848  0.00  0.00    -0.352 N 
ATOM     15  C   UNL d   1      28.528 -14.334   9.881  0.00  0.00     0.108 A 
ATOM     16  C   UNL d   1      28.297 -13.562  10.984  0.00  0.00     0.106 A 
ATOM     17  N   UNL d   1      28.528 -12.264  10.599  0.00  0.00    -0.361 N 
ATOM     18  C   UNL d   1      28.887 -12.210   9.311  0.00  0.00     0.182 A 
ATOM     19  H   UNL d   1      28.445 -11.451  11.205  0.00  0.00     0.166 HD
ENDBRANCH  13  14
ENDBRANCH  12  13
ENDBRANCH  11  12
ENDBRANCH   8  11
ENDBRANCH   3   5
BRANCH   1  20
ATOM     20  C   UNL d   1      26.543 -16.481  -0.886  0.00  0.00     0.218 C 
ATOM     21  C   UNL d   1      26.799 -15.806  -2.237  0.00  0.00     0.050 C 
BRANCH  20  22
ATOM     22  O   UNL d   1      25.248 -16.085  -0.376  0.00  0.00    -0.337 OA
BRANCH  22  23
ATOM     23  C   UNL d   1      24.155 -16.907  -0.544  0.00  0.00     0.070 A 
ATOM     24  C   UNL d   1      24.378 -18.286  -0.429  0.00  0.00     0.039 A 
ATOM     25  C   UNL d   1      23.327 -19.204  -0.622  0.00  0.00     0.039 A 
ATOM     26  C   UNL d   1      22.025 -18.754  -0.844  0.00  0.00     0.068 A 
ATOM     27  C   UNL d   1      21.790 -17.387  -0.894  0.00  0.00     0.039 A 
ATOM     28  C   UNL d   1      22.852 -16.482  -0.801  0.00  0.00     0.039 A 
BRANCH  26  29
ATOM     29  O   UNL d   1      21.039 -19.698  -0.923  0.00  0.00    -0.356 OA
ATOM     30  C   UNL d   1      19.732 -19.226  -0.599  0.00  0.00     0.210 C 
ENDBRANCH  26  29
ENDBRANCH  22  23
ENDBRANCH  20  22
ENDBRANCH   1  20
TORSDOF 9
ENDMDL
MODEL 4
REMARK VINA RESULT:    -7.120      2.663      3.949
REMARK INTER + INTRA:         -11.410
REMARK INTER:                  -9.804
REMARK INTRA:                  -1.605
REMARK CONF_INDEPENDENT:        2.685
REMARK UNBOUND:                -1.605
REMARK  9 active torsions:
REMARK  status: ('A' for Active; 'I' for Inactive)
REMARK    1  A    between atoms: O_2  and  C_3 
REMARK    2  A    between atoms: C_6  and  O_7 
REMARK    3  A    between atoms: O_7  and  C_8 
REMARK    4  A    between atoms: C_8  and  C_10 
REMARK       I    between atoms: C_10  and  N_12 
REMARK    5  A    between atoms: N_12  and  N_13 
REMARK       I    between atoms: N_13  and  C_14 
REMARK       I    between atoms: C_14  and  N_16 
REMARK    6  A    between atoms: N_16  and  C_17 
REMARK    7  A    between atoms: C_17  and  C_18 
REMARK    8  A    between atoms: C_18  and  C_19 
REMARK    9  A    between atoms: C_19  and  N_20 
ROOT
ATOM      1  C   UNL d   1      25.840 -17.631  -0.062  0.00  0.00     0.265 C 
ATOM      2  O   UNL d   1      26.494 -18.628   0.255  0.00  0.00    -0.269 OA
ATOM      3  N   UNL d   1      26.384 -16.349   0.112  0.00  0.00    -0.264 N 
ATOM      4  H   UNL d   1      25.907 -15.484  -0.133  0.00  0.00     0.190 HD
ENDROOT
BRANCH   3   5
ATOM      5  N   UNL d   1      27.681 -16.193   0.728  0.00  0.00    -0.249 N 
ATOM      6  C   UNL d   1      28.348 -14.979   0.638  0.00  0.00     0.334 C 
ATOM      7  O   UNL d   1      27.876 -14.005   0.046  0.00  0.00    -0.246 OA
ATOM      8  N   UNL d   1      29.586 -14.935   1.261  0.00  0.00    -0.342 N 
ATOM      9  H   UNL d   1      29.923 -15.767   1.727  0.00  0.00     0.164 HD
ATOM     10  H   UNL d   1      28.035 -17.012   1.214  0.00  0.00     0.192 HD
BRANCH   8  11
ATOM     11  C   UNL d   1      30.409 -13.719   1.241  0.00  0.00     0.126 C 
BRANCH  11  12
ATOM     12  C   UNL d   1      30.239 -12.816   2.473  0.00  0.00     0.040 C 
BRANCH  12  13
ATOM     13  C   UNL d   1      30.721 -13.489   3.767  0.00  0.00     0.130 C 
BRANCH  13  14
ATOM     14  N   UNL d   1      29.597 -14.060   4.540  0.00  0.00    -0.352 N 
ATOM     15  C   UNL d   1      28.264 -14.071   4.135  0.00  0.00     0.108 A 
ATOM     16  C   UNL d   1      27.555 -14.722   5.105  0.00  0.00     0.106 A 
ATOM     17  N   UNL d   1      28.468 -15.091   6.063  0.00  0.00    -0.361 N 
ATOM     18  C   UNL d   1      29.699 -14.694   5.722  0.00  0.00     0.182 A 
ATOM     19  H   UNL d   1      28.246 -15.603   6.915  0.00  0.00     0.166 HD
ENDBRANCH  13  14
ENDBRANCH  12  13
ENDBRANCH  11  12
ENDBRANCH   8  11
ENDBRANCH   3   5
BRANCH   1  20
ATOM     20  C   UNL d   1      24.381 -17.710  -0.681  0.00  0.00     0.218 C 
ATOM     21  C   UNL d   1      24.114 -16.405  -1.438  0.00  0.00     0.050 C 
BRANCH  20  22
ATOM     22  O   UNL d   1      23.374 -17.899   0.342  0.00  0.00    -0.337 OA
BRANCH  22  23
ATOM     23  C   UNL d   1      22.188 -18.531   0.039  0.00  0.00     0.070 A 
ATOM     24  C   UNL d   1      21.401 -18.951   1.120  0.00  0.00     0.039 A 
ATOM     25  C   UNL d   1      20.190 -19.638   0.907  0.00  0.00     0.039 A 
ATOM     26  C   UNL d   1      19.707 -19.835  -0.387  0.00  0.00     0.068 A 
ATOM     27  C   UNL d   1      20.452 -19.363  -1.458  0.00  0.00     0.039 A 
ATOM     28  C   UNL d   1      21.701 -18.769  -1.245  0.00  0.00     0.039 A 
BRANCH  26  29
ATOM     29  O   UNL d   1      18.477 -20.421  -0.516  0.00  0.00    -0.356 OA
ATOM     30  C   UNL d   1      18.065 -21.199   0.608  0.00  0.00     0.210 C 
ENDBRANCH  26  29
ENDBRANCH  22  23
ENDBRANCH  20  22
ENDBRANCH   1  20
TORSDOF 9
ENDMDL
MODEL 5
REMARK VINA RESULT:    -6.894      6.895     10.328
REMARK INTER + INTRA:         -11.091
REMARK INTER:                  -9.578
REMARK INTRA:                  -1.513
REMARK CONF_INDEPENDENT:        2.685
REMARK UNBOUND:                -1.513
REMARK  9 active torsions:
REMARK  status: ('A' for Active; 'I' for Inactive)
REMARK    1  A    between atoms: O_2  and  C_3 
REMARK    2  A    between atoms: C_6  and  O_7 
REMARK    3  A    between atoms: O_7  and  C_8 
REMARK    4  A    between atoms: C_8  and  C_10 
REMARK       I    between atoms: C_10  and  N_12 
REMARK    5  A    between atoms: N_12  and  N_13 
REMARK       I    between atoms: N_13  and  C_14 
REMARK       I    between atoms: C_14  and  N_16 
REMARK    6  A    between atoms: N_16  and  C_17 
REMARK    7  A    between atoms: C_17  and  C_18 
REMARK    8  A    between atoms: C_18  and  C_19 
REMARK    9  A    between atoms: C_19  and  N_20 
ROOT
ATOM      1  C   UNL d   1      25.417 -14.541  -2.545  0.00  0.00     0.265 C 
ATOM      2  O   UNL d   1      24.412 -14.988  -3.105  0.00  0.00    -0.269 OA
ATOM      3  N   UNL d   1      25.985 -13.334  -2.980  0.00  0.00    -0.264 N 
ATOM      4  H   UNL d   1      26.806 -12.902  -2.562  0.00  0.00     0.190 HD
ENDROOT
BRANCH   3   5
ATOM      5  N   UNL d   1      25.437 -12.651  -4.129  0.00  0.00    -0.249 N 
ATOM      6  C   UNL d   1      26.110 -11.567  -4.675  0.00  0.00     0.334 C 
ATOM      7  O   UNL d   1      27.178 -11.150  -4.219  0.00  0.00    -0.246 OA
ATOM      8  N   UNL d   1      25.499 -10.981  -5.774  0.00  0.00    -0.342 N 
ATOM      9  H   UNL d   1      24.622 -11.364  -6.100  0.00  0.00     0.164 HD
ATOM     10  H   UNL d   1      24.562 -13.026  -4.484  0.00  0.00     0.192 HD
BRANCH   8  11
ATOM     11  C   UNL d   1      26.093  -9.821  -6.450  0.00  0.00     0.126 C 
BRANCH  11  12
ATOM     12  C   UNL d   1      26.044  -8.517  -5.638  0.00  0.00     0.040 C 
BRANCH  12  13
ATOM     13  C   UNL d   1      25.558  -7.322  -6.471  0.00  0.00     0.130 C 
BRANCH  13  14
ATOM     14  N   UNL d   1      24.125  -7.037  -6.236  0.00  0.00    -0.352 N 
ATOM     15  C   UNL d   1      23.271  -6.409  -7.139  0.00  0.00     0.108 A 
ATOM     16  C   UNL d   1      22.033  -6.375  -6.563  0.00  0.00     0.106 A 
ATOM     17  N   UNL d   1      22.164  -6.983  -5.338  0.00  0.00    -0.361 N 
ATOM     18  C   UNL d   1      23.426  -7.383  -5.142  0.00  0.00     0.182 A 
ATOM     19  H   UNL d   1      21.409  -7.119  -4.669  0.00  0.00     0.166 HD
ENDBRANCH  13  14
ENDBRANCH  12  13
ENDBRANCH  11  12
ENDBRANCH   8  11
ENDBRANCH   3   5
BRANCH   1  20
ATOM     20  C   UNL d   1      26.122 -15.262  -1.320  0.00  0.00     0.218 C 
ATOM     21  C   UNL d   1      26.798 -16.534  -1.844  0.00  0.00     0.050 C 
BRANCH  20  22
ATOM     22  O   UNL d   1      25.175 -15.602  -0.280  0.00  0.00    -0.337 OA
BRANCH  22  23
ATOM     23  C   UNL d   1      24.282 -16.635  -0.464  0.00  0.00     0.070 A 
ATOM     24  C   UNL d   1      22.952 -16.281  -0.729  0.00  0.00     0.039 A 
ATOM     25  C   UNL d   1      21.962 -17.269  -0.895  0.00  0.00     0.039 A 
ATOM     26  C   UNL d   1      22.304 -18.622  -0.888  0.00  0.00     0.068 A 
ATOM     27  C   UNL d   1      23.632 -18.975  -0.690  0.00  0.00     0.039 A 
ATOM     28  C   UNL d   1      24.594 -17.993  -0.427  0.00  0.00     0.039 A 
BRANCH  26  29
ATOM     29  O   UNL d   1      21.310 -19.523  -1.153  0.00  0.00    -0.356 OA
ATOM     30  C   UNL d   1      19.990 -19.051  -0.889  0.00  0.00     0.210 C 
ENDBRANCH  26  29
ENDBRANCH  22  23
ENDBRANCH  20  22
ENDBRANCH   1  20
TORSDOF 9
ENDMDL
MODEL 6
REMARK VINA RESULT:    -6.642      6.779      9.771
REMARK INTER + INTRA:         -11.078
REMARK INTER:                  -9.327
REMARK INTRA:                  -1.751
REMARK CONF_INDEPENDENT:        2.685
REMARK UNBOUND:                -1.751
REMARK  9 active torsions:
REMARK  status: ('A' for Active; 'I' for Inactive)
REMARK    1  A    between atoms: O_2  and  C_3 
REMARK    2  A    between atoms: C_6  and  O_7 
REMARK    3  A    between atoms: O_7  and  C_8 
REMARK    4  A    between atoms: C_8  and  C_10 
REMARK       I    between atoms: C_10  and  N_12 
REMARK    5  A    between atoms: N_12  and  N_13 
REMARK       I    between atoms: N_13  and  C_14 
REMARK       I    between atoms: C_14  and  N_16 
REMARK    6  A    between atoms: N_16  and  C_17 
REMARK    7  A    between atoms: C_17  and  C_18 
REMARK    8  A    between atoms: C_18  and  C_19 
REMARK    9  A    between atoms: C_19  and  N_20 
ROOT
ATOM      1  C   UNL d   1      25.494 -14.652  -2.420  0.00  0.00     0.265 C 
ATOM      2  O   UNL d   1      24.638 -15.190  -3.129  0.00  0.00    -0.269 OA
ATOM      3  N   UNL d   1      25.923 -13.347  -2.704  0.00  0.00    -0.264 N 
ATOM      4  H   UNL d   1      26.617 -12.839  -2.160  0.00  0.00     0.190 HD
ENDROOT
BRANCH   3   5
ATOM      5  N   UNL d   1      25.416 -12.657  -3.868  0.00  0.00    -0.249 N 
ATOM      6  C   UNL d   1      26.102 -11.563  -4.377  0.00  0.00     0.334 C 
ATOM      7  O   UNL d   1      27.147 -11.142  -3.874  0.00  0.00    -0.246 OA
ATOM      8  N   UNL d   1      25.530 -10.972  -5.494  0.00  0.00    -0.342 N 
ATOM      9  H   UNL d   1      24.670 -11.359  -5.859  0.00  0.00     0.164 HD
ATOM     10  H   UNL d   1      24.559 -13.037  -4.261  0.00  0.00     0.192 HD
BRANCH   8  11
ATOM     11  C   UNL d   1      26.141  -9.801  -6.135  0.00  0.00     0.126 C 
BRANCH  11  12
ATOM     12  C   UNL d   1      27.233 -10.135  -7.164  0.00  0.00     0.040 C 
BRANCH  12  13
ATOM     13  C   UNL d   1      28.514 -10.672  -6.508  0.00  0.00     0.130 C 
BRANCH  13  14
ATOM     14  N   UNL d   1      28.668 -12.128  -6.716  0.00  0.00    -0.352 N 
ATOM     15  C   UNL d   1      28.930 -13.062  -5.716  0.00  0.00     0.108 A 
ATOM     16  C   UNL d   1      28.956 -14.291  -6.312  0.00  0.00     0.106 A 
ATOM     17  N   UNL d   1      28.705 -14.076  -7.645  0.00  0.00    -0.361 N 
ATOM     18  C   UNL d   1      28.530 -12.772  -7.889  0.00  0.00     0.182 A 
ATOM     19  H   UNL d   1      28.653 -14.804  -8.355  0.00  0.00     0.166 HD
ENDBRANCH  13  14
ENDBRANCH  12  13
ENDBRANCH  11  12
ENDBRANCH   8  11
ENDBRANCH   3   5
BRANCH   1  20
ATOM     20  C   UNL d   1      26.152 -15.364  -1.164  0.00  0.00     0.218 C 
ATOM     21  C   UNL d   1      26.833 -16.648  -1.648  0.00  0.00     0.050 C 
BRANCH  20  22
ATOM     22  O   UNL d   1      25.169 -15.681  -0.150  0.00  0.00    -0.337 OA
BRANCH  22  23
ATOM     23  C   UNL d   1      24.264 -16.700  -0.356  0.00  0.00     0.070 A 
ATOM     24  C   UNL d   1      22.958 -16.326  -0.701  0.00  0.00     0.039 A 
ATOM     25  C   UNL d   1      21.958 -17.298  -0.895  0.00  0.00     0.039 A 
ATOM     26  C   UNL d   1      22.269 -18.657  -0.834  0.00  0.00     0.068 A 
ATOM     27  C   UNL d   1      23.576 -19.031  -0.556  0.00  0.00     0.039 A 
ATOM     28  C   UNL d   1      24.544 -18.063  -0.267  0.00  0.00     0.039 A 
BRANCH  26  29
ATOM     29  O   UNL d   1      21.271 -19.544  -1.129  0.00  0.00    -0.356 OA
ATOM     30  C   UNL d   1      19.957 -19.099  -0.796  0.00  0.00     0.210 C 
ENDBRANCH  26  29
ENDBRANCH  22  23
ENDBRANCH  20  22
ENDBRANCH   1  20
TORSDOF 9
ENDMDL
MODEL 7
REMARK VINA RESULT:    -6.568      6.999     10.074
REMARK INTER + INTRA:         -10.925
REMARK INTER:                  -9.253
REMARK INTRA:                  -1.672
REMARK CONF_INDEPENDENT:        2.685
REMARK UNBOUND:                -1.672
REMARK  9 active torsions:
REMARK  status: ('A' for Active; 'I' for Inactive)
REMARK    1  A    between atoms: O_2  and  C_3 
REMARK    2  A    between atoms: C_6  and  O_7 
REMARK    3  A    between atoms: O_7  and  C_8 
REMARK    4  A    between atoms: C_8  and  C_10 
REMARK       I    between atoms: C_10  and  N_12 
REMARK    5  A    between atoms: N_12  and  N_13 
REMARK       I    between atoms: N_13  and  C_14 
REMARK       I    between atoms: C_14  and  N_16 
REMARK    6  A    between atoms: N_16  and  C_17 
REMARK    7  A    between atoms: C_17  and  C_18 
REMARK    8  A    between atoms: C_18  and  C_19 
REMARK    9  A    between atoms: C_19  and  N_20 
ROOT
ATOM      1  C   UNL d   1      27.347 -14.935  -4.964  0.00  0.00     0.265 C 
ATOM      2  O   UNL d   1      26.685 -15.540  -5.813  0.00  0.00    -0.269 OA
ATOM      3  N   UNL d   1      27.076 -15.118  -3.600  0.00  0.00    -0.264 N 
ATOM      4  H   UNL d   1      27.584 -14.660  -2.847  0.00  0.00     0.190 HD
ENDROOT
BRANCH   3   5
ATOM      5  N   UNL d   1      25.977 -15.960  -3.188  0.00  0.00    -0.249 N 
ATOM      6  C   UNL d   1      25.798 -16.256  -1.844  0.00  0.00     0.334 C 
ATOM      7  O   UNL d   1      26.546 -15.825  -0.964  0.00  0.00    -0.246 OA
ATOM      8  N   UNL d   1      24.715 -17.074  -1.556  0.00  0.00    -0.342 N 
ATOM      9  H   UNL d   1      24.139 -17.401  -2.320  0.00  0.00     0.164 HD
ATOM     10  H   UNL d   1      25.375 -16.290  -3.938  0.00  0.00     0.192 HD
BRANCH   8  11
ATOM     11  C   UNL d   1      24.407 -17.477  -0.178  0.00  0.00     0.126 C 
BRANCH  11  12
ATOM     12  C   UNL d   1      22.925 -17.799   0.075  0.00  0.00     0.040 C 
BRANCH  12  13
ATOM     13  C   UNL d   1      22.502 -19.142  -0.537  0.00  0.00     0.130 C 
BRANCH  13  14
ATOM     14  N   UNL d   1      21.063 -19.411  -0.328  0.00  0.00    -0.352 N 
ATOM     15  C   UNL d   1      20.474 -19.745   0.889  0.00  0.00     0.108 A 
ATOM     16  C   UNL d   1      19.132 -19.869   0.665  0.00  0.00     0.106 A 
ATOM     17  N   UNL d   1      18.941 -19.603  -0.669  0.00  0.00    -0.361 N 
ATOM     18  C   UNL d   1      20.105 -19.326  -1.268  0.00  0.00     0.182 A 
ATOM     19  H   UNL d   1      18.039 -19.609  -1.143  0.00  0.00     0.166 HD
ENDBRANCH  13  14
ENDBRANCH  12  13
ENDBRANCH  11  12
ENDBRANCH   8  11
ENDBRANCH   3   5
BRANCH   1  20
ATOM     20  C   UNL d   1      28.526 -13.939  -5.332  0.00  0.00     0.218 C 
ATOM     21  C   UNL d   1      28.402 -13.584  -6.817  0.00  0.00     0.050 C 
BRANCH  20  22
ATOM     22  O   UNL d   1      29.824 -14.526  -5.074  0.00  0.00    -0.337 OA
BRANCH  22  23
ATOM     23  C   UNL d   1      30.081 -15.828  -5.439  0.00  0.00     0.070 A 
ATOM     24  C   UNL d   1      30.527 -16.041  -6.751  0.00  0.00     0.039 A 
ATOM     25  C   UNL d   1      30.781 -17.343  -7.224  0.00  0.00     0.039 A 
ATOM     26  C   UNL d   1      30.677 -18.440  -6.368  0.00  0.00     0.068 A 
ATOM     27  C   UNL d   1      30.298 -18.227  -5.051  0.00  0.00     0.039 A 
ATOM     28  C   UNL d   1      29.952 -16.944  -4.612  0.00  0.00     0.039 A 
BRANCH  26  29
ATOM     29  O   UNL d   1      31.034 -19.663  -6.868  0.00  0.00    -0.356 OA
ATOM     30  C   UNL d   1      31.583 -19.633  -8.185  0.00  0.00     0.210 C 
ENDBRANCH  26  29
ENDBRANCH  22  23
ENDBRANCH  20  22
ENDBRANCH   1  20
TORSDOF 9
ENDMDL
MODEL 8
REMARK VINA RESULT:    -6.083      6.354      9.061
REMARK INTER + INTRA:         -10.971
REMARK INTER:                  -8.768
REMARK INTRA:                  -2.204
REMARK CONF_INDEPENDENT:        2.685
REMARK UNBOUND:                -2.204
REMARK  9 active torsions:
REMARK  status: ('A' for Active; 'I' for Inactive)
REMARK    1  A    between atoms: O_2  and  C_3 
REMARK    2  A    between atoms: C_6  and  O_7 
REMARK    3  A    between atoms: O_7  and  C_8 
REMARK    4  A    between atoms: C_8  and  C_10 
REMARK       I    between atoms: C_10  and  N_12 
REMARK    5  A    between atoms: N_12  and  N_13 
REMARK       I    between atoms: N_13  and  C_14 
REMARK       I    between atoms: C_14  and  N_16 
REMARK    6  A    between atoms: N_16  and  C_17 
REMARK    7  A    between atoms: C_17  and  C_18 
REMARK    8  A    between atoms: C_18  and  C_19 
REMARK    9  A    between atoms: C_19  and  N_20 
ROOT
ATOM      1  C   UNL d   1      25.760 -15.288  -2.063  0.00  0.00     0.265 C 
ATOM      2  O   UNL d   1      25.598 -16.006  -3.054  0.00  0.00    -0.269 OA
ATOM      3  N   UNL d   1      25.553 -13.904  -2.157  0.00  0.00    -0.264 N 
ATOM      4  H   UNL d   1      25.660 -13.253  -1.382  0.00  0.00     0.190 HD
ENDROOT
BRANCH   3   5
ATOM      5  N   UNL d   1      25.218 -13.308  -3.429  0.00  0.00    -0.249 N 
ATOM      6  C   UNL d   1      26.048 -12.342  -3.981  0.00  0.00     0.334 C 
ATOM      7  O   UNL d   1      27.082 -11.959  -3.427  0.00  0.00    -0.246 OA
ATOM      8  N   UNL d   1      25.635 -11.833  -5.203  0.00  0.00    -0.342 N 
ATOM      9  H   UNL d   1      24.776 -12.182  -5.607  0.00  0.00     0.164 HD
ATOM     10  H   UNL d   1      24.365 -13.653  -3.861  0.00  0.00     0.192 HD
BRANCH   8  11
ATOM     11  C   UNL d   1      26.409 -10.799  -5.901  0.00  0.00     0.126 C 
BRANCH  11  12
ATOM     12  C   UNL d   1      27.856 -11.201  -6.230  0.00  0.00     0.040 C 
BRANCH  12  13
ATOM     13  C   UNL d   1      27.940 -12.540  -6.976  0.00  0.00     0.130 C 
BRANCH  13  14
ATOM     14  N   UNL d   1      28.110 -13.677  -6.044  0.00  0.00    -0.352 N 
ATOM     15  C   UNL d   1      29.237 -13.915  -5.261  0.00  0.00     0.108 A 
ATOM     16  C   UNL d   1      28.980 -15.031  -4.516  0.00  0.00     0.106 A 
ATOM     17  N   UNL d   1      27.713 -15.436  -4.859  0.00  0.00    -0.361 N 
ATOM     18  C   UNL d   1      27.188 -14.619  -5.779  0.00  0.00     0.182 A 
ATOM     19  H   UNL d   1      27.231 -16.243  -4.467  0.00  0.00     0.166 HD
ENDBRANCH  13  14
ENDBRANCH  12  13
ENDBRANCH  11  12
ENDBRANCH   8  11
ENDBRANCH   3   5
BRANCH   1  20
ATOM     20  C   UNL d   1      26.195 -15.852  -0.645  0.00  0.00     0.218 C 
ATOM     21  C   UNL d   1      27.717 -15.722  -0.528  0.00  0.00     0.050 C 
BRANCH  20  22
ATOM     22  O   UNL d   1      25.805 -17.235  -0.475  0.00  0.00    -0.337 OA
BRANCH  22  23
ATOM     23  C   UNL d   1      24.479 -17.599  -0.565  0.00  0.00     0.070 A 
ATOM     24  C   UNL d   1      23.536 -16.563  -0.529  0.00  0.00     0.039 A 
ATOM     25  C   UNL d   1      22.156 -16.842  -0.578  0.00  0.00     0.039 A 
ATOM     26  C   UNL d   1      21.704 -18.151  -0.751  0.00  0.00     0.068 A 
ATOM     27  C   UNL d   1      22.638 -19.173  -0.851  0.00  0.00     0.039 A 
ATOM     28  C   UNL d   1      24.003 -18.902  -0.703  0.00  0.00     0.039 A 
BRANCH  26  29
ATOM     29  O   UNL d   1      20.356 -18.338  -0.889  0.00  0.00    -0.356 OA
ATOM     30  C   UNL d   1      19.896 -19.643  -0.542  0.00  0.00     0.210 C 
ENDBRANCH  26  29
ENDBRANCH  22  23
ENDBRANCH  20  22
ENDBRANCH   1  20
TORSDOF 9
ENDMDL
MODEL 9
REMARK VINA RESULT:    -6.038      2.594      3.151
REMARK INTER + INTRA:         -10.990
REMARK INTER:                  -8.723
REMARK INTRA:                  -2.268
REMARK CONF_INDEPENDENT:        2.685
REMARK UNBOUND:                -2.268
REMARK  9 active torsions:
REMARK  status: ('A' for Active; 'I' for Inactive)
REMARK    1  A    between atoms: O_2  and  C_3 
REMARK    2  A    between atoms: C_6  and  O_7 
REMARK    3  A    between atoms: O_7  and  C_8 
REMARK    4  A    between atoms: C_8  and  C_10 
REMARK       I    between atoms: C_10  and  N_12 
REMARK    5  A    between atoms: N_12  and  N_13 
REMARK       I    between atoms: N_13  and  C_14 
REMARK       I    between atoms: C_14  and  N_16 
REMARK    6  A    between atoms: N_16  and  C_17 
REMARK    7  A    between atoms: C_17  and  C_18 
REMARK    8  A    between atoms: C_18  and  C_19 
REMARK    9  A    between atoms: C_19  and  N_20 
ROOT
ATOM      1  C   UNL d   1      27.412 -15.159  -0.460  0.00  0.00     0.265 C 
ATOM      2  O   UNL d   1      28.496 -14.976  -1.021  0.00  0.00    -0.269 OA
ATOM      3  N   UNL d   1      27.009 -14.313   0.584  0.00  0.00    -0.264 N 
ATOM      4  H   UNL d   1      26.127 -14.399   1.085  0.00  0.00     0.190 HD
ENDROOT
BRANCH   3   5
ATOM      5  N   UNL d   1      27.892 -13.269   1.049  0.00  0.00    -0.249 N 
ATOM      6  C   UNL d   1      27.451 -12.366   2.007  0.00  0.00     0.334 C 
ATOM      7  O   UNL d   1      26.317 -12.413   2.492  0.00  0.00    -0.246 OA
ATOM      8  N   UNL d   1      28.375 -11.402   2.383  0.00  0.00    -0.342 N 
ATOM      9  H   UNL d   1      29.288 -11.411   1.948  0.00  0.00     0.164 HD
ATOM     10  H   UNL d   1      28.820 -13.266   0.636  0.00  0.00     0.192 HD
BRANCH   8  11
ATOM     11  C   UNL d   1      28.046 -10.376   3.381  0.00  0.00     0.126 C 
BRANCH  11  12
ATOM     12  C   UNL d   1      28.589 -10.661   4.790  0.00  0.00     0.040 C 
BRANCH  12  13
ATOM     13  C   UNL d   1      27.808 -11.771   5.509  0.00  0.00     0.130 C 
BRANCH  13  14
ATOM     14  N   UNL d   1      28.341 -13.113   5.190  0.00  0.00    -0.352 N 
ATOM     15  C   UNL d   1      29.675 -13.498   5.303  0.00  0.00     0.108 A 
ATOM     16  C   UNL d   1      29.743 -14.817   4.956  0.00  0.00     0.106 A 
ATOM     17  N   UNL d   1      28.460 -15.199   4.649  0.00  0.00    -0.361 N 
ATOM     18  C   UNL d   1      27.614 -14.171   4.791  0.00  0.00     0.182 A 
ATOM     19  H   UNL d   1      28.182 -16.134   4.357  0.00  0.00     0.166 HD
ENDBRANCH  13  14
ENDBRANCH  12  13
ENDBRANCH  11  12
ENDBRANCH   8  11
ENDBRANCH   3   5
BRANCH   1  20
ATOM     20  C   UNL d   1      26.413 -16.324  -0.863  0.00  0.00     0.218 C 
ATOM     21  C   UNL d   1      26.013 -16.122  -2.327  0.00  0.00     0.050 C 
BRANCH  20  22
ATOM     22  O   UNL d   1      25.231 -16.330  -0.027  0.00  0.00    -0.337 OA
BRANCH  22  23
ATOM     23  C   UNL d   1      24.134 -17.084  -0.381  0.00  0.00     0.070 A 
ATOM     24  C   UNL d   1      24.332 -18.465  -0.515  0.00  0.00     0.039 A 
ATOM     25  C   UNL d   1      23.277 -19.310  -0.910  0.00  0.00     0.039 A 
ATOM     26  C   UNL d   1      21.991 -18.800  -1.090  0.00  0.00     0.068 A 
ATOM     27  C   UNL d   1      21.777 -17.442  -0.896  0.00  0.00     0.039 A 
ATOM     28  C   UNL d   1      22.848 -16.592  -0.600  0.00  0.00     0.039 A 
BRANCH  26  29
ATOM     29  O   UNL d   1      20.995 -19.692  -1.376  0.00  0.00    -0.356 OA
ATOM     30  C   UNL d   1      19.715 -19.351  -0.845  0.00  0.00     0.210 C 
ENDBRANCH  26  29
ENDBRANCH  22  23
ENDBRANCH  20  22
ENDBRANCH   1  20
TORSDOF 9
ENDMDL
