MODEL 1
REMARK VINA RESULT:    -9.001      0.000      0.000
REMARK INTER + INTRA:         -10.665
REMARK INTER:                 -10.194
REMARK INTRA:                  -0.471
REMARK CONF_INDEPENDENT:        1.193
REMARK UNBOUND:                -0.471
REMARK  4 active torsions:
REMARK  status: ('A' for Active; 'I' for Inactive)
REMARK       I    between atoms: C_2  and  N_3 
REMARK    1  A    between atoms: C_2  and  C_18 
REMARK    2  A    between atoms: N_3  and  C_4 
REMARK    3  A    between atoms: C_4  and  C_5 
REMARK    4  A    between atoms: C_21  and  N_22 
ROOT
ATOM      1  C   UNL d   1      27.881 -15.500  -3.374  0.00  0.00    -0.040 C 
ATOM      2  C   UNL d   1      27.076 -14.665  -4.287  0.00  0.00     0.011 C 
ATOM      3  C   UNL d   1      27.413 -14.414  -5.584  0.00  0.00     0.030 C 
ATOM      4  C   UNL d   1      28.687 -14.999  -6.111  0.00  0.00     0.039 C 
ATOM      5  C   UNL d   1      29.346 -15.950  -5.215  0.00  0.00    -0.005 C 
ATOM      6  C   UNL d   1      28.981 -16.096  -3.841  0.00  0.00     0.023 C 
ATOM      7  C   UNL d   1      30.276 -16.522  -5.930  0.00  0.00    -0.045 C 
ATOM      8  C   UNL d   1      31.287 -17.502  -5.508  0.00  0.00     0.037 C 
ATOM      9  C   UNL d   1      32.126 -17.982  -6.717  0.00  0.00     0.004 C 
ATOM     10  C   UNL d   1      33.146 -16.901  -6.710  0.00  0.00     0.003 C 
ATOM     11  C   UNL d   1      32.118 -15.569  -7.261  0.00  0.00     0.029 C 
ATOM     12  C   UNL d   1      30.492 -15.923  -7.270  0.00  0.00     0.112 C 
ATOM     13  N   UNL d   1      29.342 -14.911  -7.229  0.00  0.00    -0.381 N 
ATOM     14  H   UNL d   1      28.902 -14.487  -8.051  0.00  0.00     0.160 HD
ENDROOT
BRANCH   1  15
ATOM     15  C   UNL d   1      27.518 -15.666  -1.910  0.00  0.00     0.161 C 
BRANCH  15  16
ATOM     16  N   UNL d   1      26.141 -16.133  -1.776  0.00  0.00    -0.353 N 
ATOM     17  C   UNL d   1      25.802 -17.013  -0.757  0.00  0.00     0.251 C 
ATOM     18  O   UNL d   1      26.624 -17.438   0.044  0.00  0.00    -0.268 OA
ATOM     19  H   UNL d   1      25.422 -15.760  -2.376  0.00  0.00     0.163 HD
BRANCH  17  20
ATOM     20  C   UNL d   1      24.376 -17.462  -0.652  0.00  0.00     0.032 A 
ATOM     21  C   UNL d   1      24.097 -18.833  -0.511  0.00  0.00     0.019 A 
ATOM     22  C   UNL d   1      22.791 -19.325  -0.678  0.00  0.00     0.037 A 
ATOM     23  C   UNL d   1      21.740 -18.426  -0.891  0.00  0.00     0.102 A 
ATOM     24  C   UNL d   1      21.989 -17.045  -0.895  0.00  0.00     0.037 A 
ATOM     25  C   UNL d   1      23.312 -16.571  -0.834  0.00  0.00     0.019 A 
BRANCH  23  26
ATOM     26  N   UNL d   1      20.382 -18.928  -1.167  0.00  0.00    -0.116 N 
ATOM     27  O   UNL d   1      19.426 -18.203  -0.862  0.00  0.00    -0.532 OA
ATOM     28  O   UNL d   1      20.280 -20.056  -1.672  0.00  0.00    -0.532 OA
ENDBRANCH  23  26
ENDBRANCH  17  20
ENDBRANCH  15  16
ENDBRANCH   1  15
TORSDOF 4
ENDMDL
MODEL 2
REMARK VINA RESULT:    -8.783      4.583      7.475
REMARK INTER + INTRA:         -10.586
REMARK INTER:                  -9.976
REMARK INTRA:                  -0.610
REMARK CONF_INDEPENDENT:        1.193
REMARK UNBOUND:                -0.610
REMARK  4 active torsions:
REMARK  status: ('A' for Active; 'I' for Inactive)
REMARK       I    between atoms: C_2  and  N_3 
REMARK    1  A    between atoms: C_2  and  C_18 
REMARK    2  A    between atoms: N_3  and  C_4 
REMARK    3  A    between atoms: C_4  and  C_5 
REMARK    4  A    between atoms: C_21  and  N_22 
ROOT
ATOM      1  C   UNL d   1      27.717 -14.562   0.722  0.00  0.00    -0.040 C 
ATOM      2  C   UNL d   1      26.943 -13.346   0.399  0.00  0.00     0.011 C 
ATOM      3  C   UNL d   1      26.724 -12.329   1.280  0.00  0.00     0.030 C 
ATOM      4  C   UNL d   1      27.277 -12.460   2.666  0.00  0.00     0.039 C 
ATOM      5  C   UNL d   1      28.172 -13.600   2.867  0.00  0.00    -0.005 C 
ATOM      6  C   UNL d   1      28.285 -14.669   1.924  0.00  0.00     0.023 C 
ATOM      7  C   UNL d   1      28.732 -13.408   4.030  0.00  0.00    -0.045 C 
ATOM      8  C   UNL d   1      29.659 -14.285   4.760  0.00  0.00     0.037 C 
ATOM      9  C   UNL d   1      30.147 -13.606   6.063  0.00  0.00     0.004 C 
ATOM     10  C   UNL d   1      29.029 -14.021   6.950  0.00  0.00     0.003 C 
ATOM     11  C   UNL d   1      27.756 -13.004   6.256  0.00  0.00     0.029 C 
ATOM     12  C   UNL d   1      28.171 -12.282   4.816  0.00  0.00     0.112 C 
ATOM     13  N   UNL d   1      27.203 -11.753   3.752  0.00  0.00    -0.381 N 
ATOM     14  H   UNL d   1      26.823 -10.802   3.723  0.00  0.00     0.160 HD
ENDROOT
BRANCH   1  15
ATOM     15  C   UNL d   1      27.846 -15.713  -0.260  0.00  0.00     0.161 C 
BRANCH  15  16
ATOM     16  N   UNL d   1      26.527 -16.165  -0.691  0.00  0.00    -0.353 N 
ATOM     17  C   UNL d   1      25.874 -17.170   0.010  0.00  0.00     0.251 C 
ATOM     18  O   UNL d   1      26.369 -17.718   0.986  0.00  0.00    -0.268 OA
ATOM     19  H   UNL d   1      26.057 -15.697  -1.451  0.00  0.00     0.163 HD
BRANCH  17  20
ATOM     20  C   UNL d   1      24.518 -17.599  -0.462  0.00  0.00     0.032 A 
ATOM     21  C   UNL d   1      23.539 -16.622  -0.715  0.00  0.00     0.019 A 
ATOM     22  C   UNL d   1      22.191 -16.980  -0.894  0.00  0.00     0.037 A 
ATOM     23  C   UNL d   1      21.837 -18.333  -0.919  0.00  0.00     0.102 A 
ATOM     24  C   UNL d   1      22.829 -19.319  -0.805  0.00  0.00     0.037 A 
ATOM     25  C   UNL d   1      24.156 -18.950  -0.520  0.00  0.00     0.019 A 
BRANCH  23  26
ATOM     26  N   UNL d   1      20.418 -18.725  -1.006  0.00  0.00    -0.116 N 
ATOM     27  O   UNL d   1      19.566 -17.834  -0.895  0.00  0.00    -0.532 OA
ATOM     28  O   UNL d   1      20.166 -19.928  -1.167  0.00  0.00    -0.532 OA
ENDBRANCH  23  26
ENDBRANCH  17  20
ENDBRANCH  15  16
ENDBRANCH   1  15
TORSDOF 4
ENDMDL
MODEL 3
REMARK VINA RESULT:    -8.609      2.642      3.986
REMARK INTER + INTRA:         -10.276
REMARK INTER:                  -9.802
REMARK INTRA:                  -0.473
REMARK CONF_INDEPENDENT:        1.193
REMARK UNBOUND:                -0.473
REMARK  4 active torsions:
REMARK  status: ('A' for Active; 'I' for Inactive)
REMARK       I    between atoms: C_2  and  N_3 
REMARK    1  A    between atoms: C_2  and  C_18 
REMARK    2  A    between atoms: N_3  and  C_4 
REMARK    3  A    between atoms: C_4  and  C_5 
REMARK    4  A    between atoms: C_21  and  N_22 
ROOT
ATOM      1  C   UNL d   1      25.261 -16.723  -1.481  0.00  0.00    -0.040 C 
ATOM      2  C   UNL d   1      24.070 -15.871  -1.671  0.00  0.00     0.011 C 
ATOM      3  C   UNL d   1      24.019 -14.817  -2.533  0.00  0.00     0.030 C 
ATOM      4  C   UNL d   1      25.251 -14.484  -3.319  0.00  0.00     0.039 C 
ATOM      5  C   UNL d   1      26.333 -15.463  -3.213  0.00  0.00    -0.005 C 
ATOM      6  C   UNL d   1      26.346 -16.495  -2.224  0.00  0.00     0.023 C 
ATOM      7  C   UNL d   1      27.197 -15.135  -4.135  0.00  0.00    -0.045 C 
ATOM      8  C   UNL d   1      28.508 -15.735  -4.420  0.00  0.00     0.037 C 
ATOM      9  C   UNL d   1      29.148 -15.087  -5.672  0.00  0.00     0.004 C 
ATOM     10  C   UNL d   1      29.803 -13.934  -5.002  0.00  0.00     0.003 C 
ATOM     11  C   UNL d   1      28.349 -13.007  -4.599  0.00  0.00     0.029 C 
ATOM     12  C   UNL d   1      26.927 -13.844  -4.814  0.00  0.00     0.112 C 
ATOM     13  N   UNL d   1      25.582 -13.539  -4.145  0.00  0.00    -0.381 N 
ATOM     14  H   UNL d   1      24.867 -12.910  -4.522  0.00  0.00     0.160 HD
ENDROOT
BRANCH   1  15
ATOM     15  C   UNL d   1      25.302 -17.821  -0.434  0.00  0.00     0.161 C 
BRANCH  15  16
ATOM     16  N   UNL d   1      23.952 -18.145   0.017  0.00  0.00    -0.353 N 
ATOM     17  C   UNL d   1      23.002 -18.584  -0.895  0.00  0.00     0.251 C 
ATOM     18  O   UNL d   1      23.243 -18.701  -2.089  0.00  0.00    -0.268 OA
ATOM     19  H   UNL d   1      23.730 -18.123   1.001  0.00  0.00     0.163 HD
BRANCH  17  20
ATOM     20  C   UNL d   1      21.630 -18.913  -0.388  0.00  0.00     0.032 A 
ATOM     21  C   UNL d   1      21.402 -18.950   0.999  0.00  0.00     0.019 A 
ATOM     22  C   UNL d   1      20.223 -19.509   1.521  0.00  0.00     0.037 A 
ATOM     23  C   UNL d   1      19.222 -19.946   0.647  0.00  0.00     0.102 A 
ATOM     24  C   UNL d   1      19.384 -19.786  -0.738  0.00  0.00     0.037 A 
ATOM     25  C   UNL d   1      20.609 -19.325  -1.253  0.00  0.00     0.019 A 
BRANCH  23  26
ATOM     26  N   UNL d   1      18.024 -20.625   1.173  0.00  0.00    -0.116 N 
ATOM     27  O   UNL d   1      17.440 -21.424   0.428  0.00  0.00    -0.532 OA
ATOM     28  O   UNL d   1      17.664 -20.340   2.324  0.00  0.00    -0.532 OA
ENDBRANCH  23  26
ENDBRANCH  17  20
ENDBRANCH  15  16
ENDBRANCH   1  15
TORSDOF 4
ENDMDL
MODEL 4
REMARK VINA RESULT:    -8.265      5.140      7.952
REMARK INTER + INTRA:          -9.996
REMARK INTER:                  -9.459
REMARK INTRA:                  -0.538
REMARK CONF_INDEPENDENT:        1.193
REMARK UNBOUND:                -0.538
REMARK  4 active torsions:
REMARK  status: ('A' for Active; 'I' for Inactive)
REMARK       I    between atoms: C_2  and  N_3 
REMARK    1  A    between atoms: C_2  and  C_18 
REMARK    2  A    between atoms: N_3  and  C_4 
REMARK    3  A    between atoms: C_4  and  C_5 
REMARK    4  A    between atoms: C_21  and  N_22 
ROOT
ATOM      1  C   UNL d   1      27.928 -14.614   1.540  0.00  0.00    -0.040 C 
ATOM      2  C   UNL d   1      27.319 -13.332   1.135  0.00  0.00     0.011 C 
ATOM      3  C   UNL d   1      27.190 -12.257   1.962  0.00  0.00     0.030 C 
ATOM      4  C   UNL d   1      27.668 -12.388   3.376  0.00  0.00     0.039 C 
ATOM      5  C   UNL d   1      28.411 -13.616   3.663  0.00  0.00    -0.005 C 
ATOM      6  C   UNL d   1      28.432 -14.733   2.770  0.00  0.00     0.023 C 
ATOM      7  C   UNL d   1      28.945 -13.438   4.841  0.00  0.00    -0.045 C 
ATOM      8  C   UNL d   1      29.729 -14.384   5.646  0.00  0.00     0.037 C 
ATOM      9  C   UNL d   1      30.244 -13.709   6.940  0.00  0.00     0.004 C 
ATOM     10  C   UNL d   1      29.051 -13.947   7.793  0.00  0.00     0.003 C 
ATOM     11  C   UNL d   1      27.938 -12.819   7.003  0.00  0.00     0.029 C 
ATOM     12  C   UNL d   1      28.493 -12.218   5.554  0.00  0.00     0.112 C 
ATOM     13  N   UNL d   1      27.637 -11.628   4.428  0.00  0.00    -0.381 N 
ATOM     14  H   UNL d   1      27.376 -10.642   4.342  0.00  0.00     0.160 HD
ENDROOT
BRANCH   1  15
ATOM     15  C   UNL d   1      27.956 -15.817   0.614  0.00  0.00     0.161 C 
BRANCH  15  16
ATOM     16  N   UNL d   1      26.658 -16.484   0.606  0.00  0.00    -0.353 N 
ATOM     17  C   UNL d   1      25.795 -16.311  -0.468  0.00  0.00     0.251 C 
ATOM     18  O   UNL d   1      26.070 -15.597  -1.423  0.00  0.00    -0.268 OA
ATOM     19  H   UNL d   1      26.419 -17.130   1.343  0.00  0.00     0.163 HD
BRANCH  17  20
ATOM     20  C   UNL d   1      24.475 -17.020  -0.439  0.00  0.00     0.032 A 
ATOM     21  C   UNL d   1      24.449 -18.414  -0.251  0.00  0.00     0.019 A 
ATOM     22  C   UNL d   1      23.275 -19.151  -0.484  0.00  0.00     0.037 A 
ATOM     23  C   UNL d   1      22.093 -18.479  -0.813  0.00  0.00     0.102 A 
ATOM     24  C   UNL d   1      22.078 -17.077  -0.867  0.00  0.00     0.037 A 
ATOM     25  C   UNL d   1      23.279 -16.356  -0.737  0.00  0.00     0.019 A 
BRANCH  23  26
ATOM     26  N   UNL d   1      20.879 -19.241  -1.157  0.00  0.00    -0.116 N 
ATOM     27  O   UNL d   1      20.788 -19.692  -2.307  0.00  0.00    -0.532 OA
ATOM     28  O   UNL d   1      20.014 -19.367  -0.278  0.00  0.00    -0.532 OA
ENDBRANCH  23  26
ENDBRANCH  17  20
ENDBRANCH  15  16
ENDBRANCH   1  15
TORSDOF 4
ENDMDL
MODEL 5
REMARK VINA RESULT:    -8.132      4.553      7.387
REMARK INTER + INTRA:          -9.781
REMARK INTER:                  -9.325
REMARK INTRA:                  -0.456
REMARK CONF_INDEPENDENT:        1.193
REMARK UNBOUND:                -0.456
REMARK  4 active torsions:
REMARK  status: ('A' for Active; 'I' for Inactive)
REMARK       I    between atoms: C_2  and  N_3 
REMARK    1  A    between atoms: C_2  and  C_18 
REMARK    2  A    between atoms: N_3  and  C_4 
REMARK    3  A    between atoms: C_4  and  C_5 
REMARK    4  A    between atoms: C_21  and  N_22 
ROOT
ATOM      1  C   UNL d   1      28.556 -14.856   0.431  0.00  0.00    -0.040 C 
ATOM      2  C   UNL d   1      29.975 -15.251   0.335  0.00  0.00     0.011 C 
ATOM      3  C   UNL d   1      30.879 -15.090   1.342  0.00  0.00     0.030 C 
ATOM      4  C   UNL d   1      30.416 -14.450   2.615  0.00  0.00     0.039 C 
ATOM      5  C   UNL d   1      28.970 -14.241   2.708  0.00  0.00    -0.005 C 
ATOM      6  C   UNL d   1      28.099 -14.355   1.581  0.00  0.00     0.023 C 
ATOM      7  C   UNL d   1      28.741 -13.915   3.952  0.00  0.00    -0.045 C 
ATOM      8  C   UNL d   1      27.471 -13.521   4.578  0.00  0.00     0.037 C 
ATOM      9  C   UNL d   1      27.651 -13.317   6.102  0.00  0.00     0.004 C 
ATOM     10  C   UNL d   1      28.096 -11.899   6.075  0.00  0.00     0.003 C 
ATOM     11  C   UNL d   1      29.702 -12.146   5.371  0.00  0.00     0.029 C 
ATOM     12  C   UNL d   1      29.955 -13.676   4.770  0.00  0.00     0.112 C 
ATOM     13  N   UNL d   1      30.993 -14.079   3.717  0.00  0.00    -0.381 N 
ATOM     14  H   UNL d   1      31.952 -14.374   3.920  0.00  0.00     0.160 HD
ENDROOT
BRANCH   1  15
ATOM     15  C   UNL d   1      27.612 -14.961  -0.753  0.00  0.00     0.161 C 
BRANCH  15  16
ATOM     16  N   UNL d   1      26.399 -15.681  -0.375  0.00  0.00    -0.353 N 
ATOM     17  C   UNL d   1      25.616 -16.282  -1.351  0.00  0.00     0.251 C 
ATOM     18  O   UNL d   1      25.891 -16.223  -2.542  0.00  0.00    -0.268 OA
ATOM     19  H   UNL d   1      26.171 -15.807   0.599  0.00  0.00     0.163 HD
BRANCH  17  20
ATOM     20  C   UNL d   1      24.384 -17.017  -0.919  0.00  0.00     0.032 A 
ATOM     21  C   UNL d   1      24.462 -18.400  -0.669  0.00  0.00     0.019 A 
ATOM     22  C   UNL d   1      23.298 -19.174  -0.527  0.00  0.00     0.037 A 
ATOM     23  C   UNL d   1      22.048 -18.546  -0.538  0.00  0.00     0.102 A 
ATOM     24  C   UNL d   1      21.967 -17.149  -0.649  0.00  0.00     0.037 A 
ATOM     25  C   UNL d   1      23.129 -16.396  -0.896  0.00  0.00     0.019 A 
BRANCH  23  26
ATOM     26  N   UNL d   1      20.814 -19.351  -0.491  0.00  0.00    -0.116 N 
ATOM     27  O   UNL d   1      20.314 -19.704  -1.567  0.00  0.00    -0.532 OA
ATOM     28  O   UNL d   1      20.342 -19.611   0.626  0.00  0.00    -0.532 OA
ENDBRANCH  23  26
ENDBRANCH  17  20
ENDBRANCH  15  16
ENDBRANCH   1  15
TORSDOF 4
ENDMDL
MODEL 6
REMARK VINA RESULT:    -8.090      2.180      4.274
REMARK INTER + INTRA:          -9.765
REMARK INTER:                  -9.283
REMARK INTRA:                  -0.482
REMARK CONF_INDEPENDENT:        1.193
REMARK UNBOUND:                -0.482
REMARK  4 active torsions:
REMARK  status: ('A' for Active; 'I' for Inactive)
REMARK       I    between atoms: C_2  and  N_3 
REMARK    1  A    between atoms: C_2  and  C_18 
REMARK    2  A    between atoms: N_3  and  C_4 
REMARK    3  A    between atoms: C_4  and  C_5 
REMARK    4  A    between atoms: C_21  and  N_22 
ROOT
ATOM      1  C   UNL d   1      27.806 -15.084  -3.305  0.00  0.00    -0.040 C 
ATOM      2  C   UNL d   1      28.477 -15.581  -4.523  0.00  0.00     0.011 C 
ATOM      3  C   UNL d   1      28.559 -14.877  -5.687  0.00  0.00     0.030 C 
ATOM      4  C   UNL d   1      27.909 -13.528  -5.747  0.00  0.00     0.039 C 
ATOM      5  C   UNL d   1      27.414 -13.026  -4.464  0.00  0.00    -0.005 C 
ATOM      6  C   UNL d   1      27.286 -13.856  -3.308  0.00  0.00     0.023 C 
ATOM      7  C   UNL d   1      27.117 -11.771  -4.669  0.00  0.00    -0.045 C 
ATOM      8  C   UNL d   1      26.507 -10.809  -3.740  0.00  0.00     0.037 C 
ATOM      9  C   UNL d   1      26.427  -9.402  -4.381  0.00  0.00     0.004 C 
ATOM     10  C   UNL d   1      25.131  -9.565  -5.090  0.00  0.00     0.003 C 
ATOM     11  C   UNL d   1      25.661 -10.699  -6.342  0.00  0.00     0.029 C 
ATOM     12  C   UNL d   1      27.176 -11.337  -6.086  0.00  0.00     0.112 C 
ATOM     13  N   UNL d   1      27.725 -12.641  -6.676  0.00  0.00    -0.381 N 
ATOM     14  H   UNL d   1      28.220 -12.720  -7.569  0.00  0.00     0.160 HD
ENDROOT
BRANCH   1  15
ATOM     15  C   UNL d   1      27.652 -15.948  -2.066  0.00  0.00     0.161 C 
BRANCH  15  16
ATOM     16  N   UNL d   1      26.274 -16.415  -1.940  0.00  0.00    -0.353 N 
ATOM     17  C   UNL d   1      25.779 -16.790  -0.699  0.00  0.00     0.251 C 
ATOM     18  O   UNL d   1      26.462 -16.761   0.317  0.00  0.00    -0.268 OA
ATOM     19  H   UNL d   1      25.660 -16.395  -2.740  0.00  0.00     0.163 HD
BRANCH  17  20
ATOM     20  C   UNL d   1      24.358 -17.256  -0.612  0.00  0.00     0.032 A 
ATOM     21  C   UNL d   1      24.095 -18.631  -0.465  0.00  0.00     0.019 A 
ATOM     22  C   UNL d   1      22.798 -19.140  -0.649  0.00  0.00     0.037 A 
ATOM     23  C   UNL d   1      21.739 -18.258  -0.886  0.00  0.00     0.102 A 
ATOM     24  C   UNL d   1      21.970 -16.874  -0.896  0.00  0.00     0.037 A 
ATOM     25  C   UNL d   1      23.285 -16.381  -0.818  0.00  0.00     0.019 A 
BRANCH  23  26
ATOM     26  N   UNL d   1      20.392 -18.780  -1.180  0.00  0.00    -0.116 N 
ATOM     27  O   UNL d   1      19.435 -18.286  -0.567  0.00  0.00    -0.532 OA
ATOM     28  O   UNL d   1      20.301 -19.695  -2.011  0.00  0.00    -0.532 OA
ENDBRANCH  23  26
ENDBRANCH  17  20
ENDBRANCH  15  16
ENDBRANCH   1  15
TORSDOF 4
ENDMDL
MODEL 7
REMARK VINA RESULT:    -7.723      5.942      8.945
REMARK INTER + INTRA:          -9.427
REMARK INTER:                  -8.916
REMARK INTRA:                  -0.511
REMARK CONF_INDEPENDENT:        1.193
REMARK UNBOUND:                -0.511
REMARK  4 active torsions:
REMARK  status: ('A' for Active; 'I' for Inactive)
REMARK       I    between atoms: C_2  and  N_3 
REMARK    1  A    between atoms: C_2  and  C_18 
REMARK    2  A    between atoms: N_3  and  C_4 
REMARK    3  A    between atoms: C_4  and  C_5 
REMARK    4  A    between atoms: C_21  and  N_22 
ROOT
ATOM      1  C   UNL d   1      30.195 -17.228  -1.158  0.00  0.00    -0.040 C 
ATOM      2  C   UNL d   1      30.217 -15.881  -1.763  0.00  0.00     0.011 C 
ATOM      3  C   UNL d   1      29.100 -15.138  -2.003  0.00  0.00     0.030 C 
ATOM      4  C   UNL d   1      27.767 -15.728  -1.656  0.00  0.00     0.039 C 
ATOM      5  C   UNL d   1      27.826 -16.985  -0.908  0.00  0.00    -0.005 C 
ATOM      6  C   UNL d   1      29.028 -17.746  -0.770  0.00  0.00     0.023 C 
ATOM      7  C   UNL d   1      26.607 -17.206  -0.494  0.00  0.00    -0.045 C 
ATOM      8  C   UNL d   1      26.083 -18.367   0.238  0.00  0.00     0.037 C 
ATOM      9  C   UNL d   1      24.595 -18.157   0.607  0.00  0.00     0.004 C 
ATOM     10  C   UNL d   1      23.990 -18.659  -0.654  0.00  0.00     0.003 C 
ATOM     11  C   UNL d   1      24.474 -17.330  -1.720  0.00  0.00     0.029 C 
ATOM     12  C   UNL d   1      25.583 -16.287  -1.048  0.00  0.00     0.112 C 
ATOM     13  N   UNL d   1      26.533 -15.357  -1.810  0.00  0.00    -0.381 N 
ATOM     14  H   UNL d   1      26.316 -14.396  -2.091  0.00  0.00     0.160 HD
ENDROOT
BRANCH   1  15
ATOM     15  C   UNL d   1      31.457 -18.058  -1.006  0.00  0.00     0.161 C 
BRANCH  15  16
ATOM     16  N   UNL d   1      31.546 -18.606   0.345  0.00  0.00    -0.353 N 
ATOM     17  C   UNL d   1      32.205 -19.807   0.565  0.00  0.00     0.251 C 
ATOM     18  O   UNL d   1      32.713 -20.453  -0.341  0.00  0.00    -0.268 OA
ATOM     19  H   UNL d   1      31.196 -18.075   1.128  0.00  0.00     0.163 HD
BRANCH  17  20
ATOM     20  C   UNL d   1      32.279 -20.329   1.968  0.00  0.00     0.032 A 
ATOM     21  C   UNL d   1      31.279 -21.205   2.428  0.00  0.00     0.019 A 
ATOM     22  C   UNL d   1      31.155 -21.503   3.796  0.00  0.00     0.037 A 
ATOM     23  C   UNL d   1      32.099 -21.000   4.699  0.00  0.00     0.102 A 
ATOM     24  C   UNL d   1      33.180 -20.239   4.229  0.00  0.00     0.037 A 
ATOM     25  C   UNL d   1      33.235 -19.858   2.876  0.00  0.00     0.019 A 
BRANCH  23  26
ATOM     26  N   UNL d   1      31.929 -21.220   6.147  0.00  0.00    -0.116 N 
ATOM     27  O   UNL d   1      30.778 -21.199   6.602  0.00  0.00    -0.532 OA
ATOM     28  O   UNL d   1      32.953 -21.395   6.823  0.00  0.00    -0.532 OA
ENDBRANCH  23  26
ENDBRANCH  17  20
ENDBRANCH  15  16
ENDBRANCH   1  15
TORSDOF 4
ENDMDL
MODEL 8
REMARK VINA RESULT:    -7.695      5.048      8.650
REMARK INTER + INTRA:          -9.481
REMARK INTER:                  -8.889
REMARK INTRA:                  -0.593
REMARK CONF_INDEPENDENT:        1.193
REMARK UNBOUND:                -0.593
REMARK  4 active torsions:
REMARK  status: ('A' for Active; 'I' for Inactive)
REMARK       I    between atoms: C_2  and  N_3 
REMARK    1  A    between atoms: C_2  and  C_18 
REMARK    2  A    between atoms: N_3  and  C_4 
REMARK    3  A    between atoms: C_4  and  C_5 
REMARK    4  A    between atoms: C_21  and  N_22 
ROOT
ATOM      1  C   UNL d   1      26.991 -14.519  -2.771  0.00  0.00    -0.040 C 
ATOM      2  C   UNL d   1      28.310 -15.028  -2.344  0.00  0.00     0.011 C 
ATOM      3  C   UNL d   1      28.483 -16.134  -1.567  0.00  0.00     0.030 C 
ATOM      4  C   UNL d   1      27.264 -16.866  -1.094  0.00  0.00     0.039 C 
ATOM      5  C   UNL d   1      26.005 -16.414  -1.688  0.00  0.00    -0.005 C 
ATOM      6  C   UNL d   1      25.893 -15.195  -2.427  0.00  0.00     0.023 C 
ATOM      7  C   UNL d   1      25.116 -17.308  -1.352  0.00  0.00    -0.045 C 
ATOM      8  C   UNL d   1      23.670 -17.311  -1.617  0.00  0.00     0.037 C 
ATOM      9  C   UNL d   1      23.022 -18.625  -1.117  0.00  0.00     0.004 C 
ATOM     10  C   UNL d   1      22.780 -18.219   0.292  0.00  0.00     0.003 C 
ATOM     11  C   UNL d   1      24.461 -18.200   0.849  0.00  0.00     0.029 C 
ATOM     12  C   UNL d   1      25.584 -18.319  -0.372  0.00  0.00     0.112 C 
ATOM     13  N   UNL d   1      27.050 -17.874  -0.306  0.00  0.00    -0.381 N 
ATOM     14  H   UNL d   1      27.830 -18.463   0.001  0.00  0.00     0.160 HD
ENDROOT
BRANCH   1  15
ATOM     15  C   UNL d   1      26.845 -13.224  -3.550  0.00  0.00     0.161 C 
BRANCH  15  16
ATOM     16  N   UNL d   1      26.644 -12.101  -2.639  0.00  0.00    -0.353 N 
ATOM     17  C   UNL d   1      27.671 -11.698  -1.797  0.00  0.00     0.251 C 
ATOM     18  O   UNL d   1      28.758 -12.261  -1.770  0.00  0.00    -0.268 OA
ATOM     19  H   UNL d   1      25.787 -11.571  -2.675  0.00  0.00     0.163 HD
BRANCH  17  20
ATOM     20  C   UNL d   1      27.425 -10.536  -0.883  0.00  0.00     0.032 A 
ATOM     21  C   UNL d   1      27.551 -10.718   0.506  0.00  0.00     0.019 A 
ATOM     22  C   UNL d   1      27.075  -9.749   1.406  0.00  0.00     0.037 A 
ATOM     23  C   UNL d   1      26.557  -8.547   0.913  0.00  0.00     0.102 A 
ATOM     24  C   UNL d   1      26.554  -8.300  -0.468  0.00  0.00     0.037 A 
ATOM     25  C   UNL d   1      26.934  -9.316  -1.363  0.00  0.00     0.019 A 
BRANCH  23  26
ATOM     26  N   UNL d   1      25.962  -7.563   1.836  0.00  0.00    -0.116 N 
ATOM     27  O   UNL d   1      26.280  -7.627   3.031  0.00  0.00    -0.532 OA
ATOM     28  O   UNL d   1      25.165  -6.741   1.361  0.00  0.00    -0.532 OA
ENDBRANCH  23  26
ENDBRANCH  17  20
ENDBRANCH  15  16
ENDBRANCH   1  15
TORSDOF 4
ENDMDL
MODEL 9
REMARK VINA RESULT:    -7.652      1.832      2.649
REMARK INTER + INTRA:          -9.437
REMARK INTER:                  -8.846
REMARK INTRA:                  -0.591
REMARK CONF_INDEPENDENT:        1.193
REMARK UNBOUND:                -0.591
REMARK  4 active torsions:
REMARK  status: ('A' for Active; 'I' for Inactive)
REMARK       I    between atoms: C_2  and  N_3 
REMARK    1  A    between atoms: C_2  and  C_18 
REMARK    2  A    between atoms: N_3  and  C_4 
REMARK    3  A    between atoms: C_4  and  C_5 
REMARK    4  A    between atoms: C_21  and  N_22 
ROOT
ATOM      1  C   UNL d   1      28.431 -15.953  -2.293  0.00  0.00    -0.040 C 
ATOM      2  C   UNL d   1      29.108 -16.574  -1.137  0.00  0.00     0.011 C 
ATOM      3  C   UNL d   1      30.092 -17.510  -1.246  0.00  0.00     0.030 C 
ATOM      4  C   UNL d   1      30.497 -17.957  -2.617  0.00  0.00     0.039 C 
ATOM      5  C   UNL d   1      29.913 -17.185  -3.714  0.00  0.00    -0.005 C 
ATOM      6  C   UNL d   1      28.825 -16.277  -3.526  0.00  0.00     0.023 C 
ATOM      7  C   UNL d   1      30.559 -17.552  -4.788  0.00  0.00    -0.045 C 
ATOM      8  C   UNL d   1      30.328 -17.149  -6.182  0.00  0.00     0.037 C 
ATOM      9  C   UNL d   1      31.402 -17.760  -7.115  0.00  0.00     0.004 C 
ATOM     10  C   UNL d   1      30.743 -19.068  -7.368  0.00  0.00     0.003 C 
ATOM     11  C   UNL d   1      30.957 -19.780  -5.760  0.00  0.00     0.029 C 
ATOM     12  C   UNL d   1      31.475 -18.704  -4.602  0.00  0.00     0.112 C 
ATOM     13  N   UNL d   1      31.312 -18.853  -3.085  0.00  0.00    -0.381 N 
ATOM     14  H   UNL d   1      31.982 -19.314  -2.464  0.00  0.00     0.160 HD
ENDROOT
BRANCH   1  15
ATOM     15  C   UNL d   1      27.270 -14.990  -2.119  0.00  0.00     0.161 C 
BRANCH  15  16
ATOM     16  N   UNL d   1      26.023 -15.726  -1.928  0.00  0.00    -0.353 N 
ATOM     17  C   UNL d   1      25.744 -16.313  -0.702  0.00  0.00     0.251 C 
ATOM     18  O   UNL d   1      26.518 -16.255   0.246  0.00  0.00    -0.268 OA
ATOM     19  H   UNL d   1      25.331 -15.745  -2.662  0.00  0.00     0.163 HD
BRANCH  17  20
ATOM     20  C   UNL d   1      24.450 -17.053  -0.546  0.00  0.00     0.032 A 
ATOM     21  C   UNL d   1      24.476 -18.411  -0.182  0.00  0.00     0.019 A 
ATOM     22  C   UNL d   1      23.323 -19.208  -0.286  0.00  0.00     0.037 A 
ATOM     23  C   UNL d   1      22.111 -18.619  -0.664  0.00  0.00     0.102 A 
ATOM     24  C   UNL d   1      22.047 -17.236  -0.895  0.00  0.00     0.037 A 
ATOM     25  C   UNL d   1      23.226 -16.469  -0.892  0.00  0.00     0.019 A 
BRANCH  23  26
ATOM     26  N   UNL d   1      20.915 -19.455  -0.875  0.00  0.00    -0.116 N 
ATOM     27  O   UNL d   1      20.325 -19.881   0.127  0.00  0.00    -0.532 OA
ATOM     28  O   UNL d   1      20.585 -19.696  -2.045  0.00  0.00    -0.532 OA
ENDBRANCH  23  26
ENDBRANCH  17  20
ENDBRANCH  15  16
ENDBRANCH   1  15
TORSDOF 4
ENDMDL
