MODEL 1
REMARK VINA RESULT:   -11.325      0.000      0.000
REMARK INTER + INTRA:         -16.022
REMARK INTER:                 -14.308
REMARK INTRA:                  -1.714
REMARK CONF_INDEPENDENT:        2.983
REMARK UNBOUND:                -1.714
REMARK  10 active torsions:
REMARK  status: ('A' for Active; 'I' for Inactive)
REMARK    1  A    between atoms: N_1  and  C_2 
REMARK    2  A    between atoms: C_6  and  N_7 
REMARK    3  A    between atoms: C_10  and  C_11 
REMARK    4  A    between atoms: C_11  and  N_12 
REMARK    5  A    between atoms: C_17  and  C_18 
REMARK       I    between atoms: C_18  and  N_20 
REMARK    6  A    between atoms: N_20  and  N_21 
REMARK    7  A    between atoms: C_22  and  C_23 
REMARK    8  A    between atoms: C_27  and  O_28 
REMARK    9  A    between atoms: O_28  and  C_29 
REMARK   10  A    between atoms: C_29  and  C_30 
ROOT
ATOM      1  N   UNL d   1      27.275 -11.917  -5.985  0.00  0.00    -0.207 N 
ATOM      2  N   UNL d   1      27.479 -10.752  -6.669  0.00  0.00     0.012 NA
ATOM      3  N   UNL d   1      26.653  -9.753  -6.208  0.00  0.00    -0.160 NA
ATOM      4  C   UNL d   1      26.011 -10.210  -5.101  0.00  0.00     0.112 C 
ATOM      5  C   UNL d   1      26.526 -11.555  -4.980  0.00  0.00     0.153 C 
ENDROOT
BRANCH   5   6
ATOM      6  C   UNL d   1      26.482 -12.342  -3.856  0.00  0.00     0.292 C 
ATOM      7  O   UNL d   1      25.383 -12.671  -4.256  0.00  0.00    -0.264 OA
ATOM      8  N   UNL d   1      27.140 -12.800  -2.578  0.00  0.00    -0.242 N 
ATOM      9  H   UNL d   1      28.103 -12.626  -2.372  0.00  0.00     0.192 HD
BRANCH   8  10
ATOM     10  N   UNL d   1      26.658 -13.930  -1.671  0.00  0.00    -0.183 NA
ATOM     11  C   UNL d   1      25.791 -14.826  -2.023  0.00  0.00     0.150 C 
BRANCH  11  12
ATOM     12  C   UNL d   1      25.194 -15.865  -1.094  0.00  0.00    -0.014 A 
ATOM     13  C   UNL d   1      26.079 -16.615  -0.321  0.00  0.00     0.013 A 
ATOM     14  C   UNL d   1      25.663 -17.807   0.283  0.00  0.00     0.004 A 
ATOM     15  C   UNL d   1      24.323 -18.197   0.231  0.00  0.00     0.037 A 
ATOM     16  C   UNL d   1      23.405 -17.426  -0.485  0.00  0.00     0.070 A 
ATOM     17  C   UNL d   1      23.843 -16.257  -1.135  0.00  0.00     0.049 A 
BRANCH  16  18
ATOM     18  O   UNL d   1      22.129 -17.921  -0.539  0.00  0.00    -0.347 OA
BRANCH  18  19
ATOM     19  C   UNL d   1      21.979 -19.339  -0.382  0.00  0.00     0.214 C 
BRANCH  19  20
ATOM     20  C   UNL d   1      20.651 -19.636   0.259  0.00  0.00    -0.034 C 
ATOM     21  C   UNL d   1      20.479 -19.525   1.645  0.00  0.00     0.009 C 
ATOM     22  C   UNL d   1      19.305 -19.990   2.237  0.00  0.00     0.001 C 
ATOM     23  C   UNL d   1      18.243 -20.417   1.443  0.00  0.00     0.000 C 
ATOM     24  C   UNL d   1      18.379 -20.456   0.059  0.00  0.00     0.001 C 
ATOM     25  C   UNL d   1      19.577 -20.063  -0.530  0.00  0.00     0.009 C 
ENDBRANCH  19  20
ENDBRANCH  18  19
ENDBRANCH  16  18
ENDBRANCH  11  12
ENDBRANCH   8  10
ENDBRANCH   5   6
BRANCH   4  26
ATOM     26  C   UNL d   1      25.037  -9.323  -4.022  0.00  0.00     0.297 C 
BRANCH  26  27
ATOM     27  N   UNL d   1      24.645  -7.632  -4.349  0.00  0.00    -0.066 N 
ATOM     28  C   UNL d   1      23.216  -7.507  -5.365  0.00  0.00     0.235 C 
ATOM     29  C   UNL d   1      23.643  -7.282  -6.802  0.00  0.00     0.029 C 
ATOM     30  C   UNL d   1      25.418  -6.560  -6.584  0.00  0.00     0.029 C 
ATOM     31  C   UNL d   1      25.962  -6.910  -5.133  0.00  0.00     0.235 C 
ATOM     32  H   UNL d   1      24.451  -7.169  -3.452  0.00  0.00     0.280 HD
ENDBRANCH  26  27
ENDBRANCH   4  26
BRANCH   1  33
ATOM     33  C   UNL d   1      27.802 -13.270  -5.924  0.00  0.00     0.225 C 
ATOM     34  N   UNL d   1      26.922 -14.260  -5.685  0.00  0.00    -0.081 NA
ATOM     35  O   UNL d   1      27.586 -15.437  -6.044  0.00  0.00    -0.103 OA
ATOM     36  N   UNL d   1      28.743 -15.174  -6.762  0.00  0.00    -0.083 NA
ATOM     37  C   UNL d   1      28.892 -13.845  -6.742  0.00  0.00     0.201 C 
BRANCH  37  38
ATOM     38  N   UNL d   1      29.722 -13.265  -7.654  0.00  0.00    -0.379 N 
ATOM     39  H   UNL d   1      30.586 -13.742  -7.942  0.00  0.00     0.158 HD
ATOM     40  H   UNL d   1      29.527 -12.455  -8.229  0.00  0.00     0.158 HD
ENDBRANCH  37  38
ENDBRANCH   1  33
TORSDOF 10
ENDMDL
MODEL 2
REMARK VINA RESULT:   -10.887      2.420      5.898
REMARK INTER + INTRA:         -16.758
REMARK INTER:                 -13.870
REMARK INTRA:                  -2.888
REMARK CONF_INDEPENDENT:        2.983
REMARK UNBOUND:                -2.888
REMARK  10 active torsions:
REMARK  status: ('A' for Active; 'I' for Inactive)
REMARK    1  A    between atoms: N_1  and  C_2 
REMARK    2  A    between atoms: C_6  and  N_7 
REMARK    3  A    between atoms: C_10  and  C_11 
REMARK    4  A    between atoms: C_11  and  N_12 
REMARK    5  A    between atoms: C_17  and  C_18 
REMARK       I    between atoms: C_18  and  N_20 
REMARK    6  A    between atoms: N_20  and  N_21 
REMARK    7  A    between atoms: C_22  and  C_23 
REMARK    8  A    between atoms: C_27  and  O_28 
REMARK    9  A    between atoms: O_28  and  C_29 
REMARK   10  A    between atoms: C_29  and  C_30 
ROOT
ATOM      1  N   UNL d   1      28.684 -12.852  -6.257  0.00  0.00    -0.207 N 
ATOM      2  N   UNL d   1      29.577 -12.861  -7.290  0.00  0.00     0.012 NA
ATOM      3  N   UNL d   1      30.226 -14.071  -7.378  0.00  0.00    -0.160 NA
ATOM      4  C   UNL d   1      29.642 -14.930  -6.501  0.00  0.00     0.112 C 
ATOM      5  C   UNL d   1      28.622 -14.103  -5.895  0.00  0.00     0.153 C 
ENDROOT
BRANCH   5   6
ATOM      6  C   UNL d   1      27.525 -14.550  -5.201  0.00  0.00     0.292 C 
ATOM      7  O   UNL d   1      28.218 -15.510  -4.928  0.00  0.00    -0.264 OA
ATOM      8  N   UNL d   1      26.088 -14.343  -4.790  0.00  0.00    -0.242 N 
ATOM      9  H   UNL d   1      25.613 -13.470  -4.904  0.00  0.00     0.192 HD
BRANCH   8  10
ATOM     10  N   UNL d   1      25.313 -15.175  -3.772  0.00  0.00    -0.183 NA
ATOM     11  C   UNL d   1      25.589 -15.223  -2.507  0.00  0.00     0.150 C 
BRANCH  11  12
ATOM     12  C   UNL d   1      24.926 -16.150  -1.509  0.00  0.00    -0.014 A 
ATOM     13  C   UNL d   1      25.732 -17.099  -0.883  0.00  0.00     0.013 A 
ATOM     14  C   UNL d   1      25.164 -18.201  -0.235  0.00  0.00     0.004 A 
ATOM     15  C   UNL d   1      23.779 -18.300  -0.090  0.00  0.00     0.037 A 
ATOM     16  C   UNL d   1      22.952 -17.326  -0.653  0.00  0.00     0.070 A 
ATOM     17  C   UNL d   1      23.530 -16.249  -1.352  0.00  0.00     0.049 A 
BRANCH  16  18
ATOM     18  O   UNL d   1      21.606 -17.542  -0.520  0.00  0.00    -0.347 OA
BRANCH  18  19
ATOM     19  C   UNL d   1      21.090 -18.763  -1.068  0.00  0.00     0.214 C 
BRANCH  19  20
ATOM     20  C   UNL d   1      20.166 -19.408  -0.073  0.00  0.00    -0.034 C 
ATOM     21  C   UNL d   1      20.435 -19.355   1.301  0.00  0.00     0.009 C 
ATOM     22  C   UNL d   1      19.677 -20.122   2.186  0.00  0.00     0.001 C 
ATOM     23  C   UNL d   1      18.557 -20.813   1.730  0.00  0.00     0.000 C 
ATOM     24  C   UNL d   1      18.238 -20.807   0.376  0.00  0.00     0.001 C 
ATOM     25  C   UNL d   1      19.036 -20.104  -0.520  0.00  0.00     0.009 C 
ENDBRANCH  19  20
ENDBRANCH  18  19
ENDBRANCH  16  18
ENDBRANCH  11  12
ENDBRANCH   8  10
ENDBRANCH   5   6
BRANCH   4  26
ATOM     26  C   UNL d   1      29.911 -16.604  -6.347  0.00  0.00     0.297 C 
BRANCH  26  27
ATOM     27  N   UNL d   1      31.435 -17.321  -6.883  0.00  0.00    -0.066 N 
ATOM     28  C   UNL d   1      31.153 -18.529  -8.128  0.00  0.00     0.235 C 
ATOM     29  C   UNL d   1      31.172 -19.909  -7.500  0.00  0.00     0.029 C 
ATOM     30  C   UNL d   1      32.183 -19.599  -5.887  0.00  0.00     0.029 C 
ATOM     31  C   UNL d   1      32.192 -18.046  -5.552  0.00  0.00     0.235 C 
ATOM     32  H   UNL d   1      32.019 -16.574  -7.277  0.00  0.00     0.280 HD
ENDBRANCH  26  27
ENDBRANCH   4  26
BRANCH   1  33
ATOM     33  C   UNL d   1      27.693 -11.972  -5.659  0.00  0.00     0.225 C 
ATOM     34  N   UNL d   1      26.476 -11.944  -6.232  0.00  0.00    -0.081 NA
ATOM     35  O   UNL d   1      25.637 -11.347  -5.285  0.00  0.00    -0.103 OA
ATOM     36  N   UNL d   1      26.246 -11.267  -4.041  0.00  0.00    -0.083 NA
ATOM     37  C   UNL d   1      27.505 -11.679  -4.222  0.00  0.00     0.201 C 
BRANCH  37  38
ATOM     38  N   UNL d   1      28.235 -12.053  -3.134  0.00  0.00    -0.379 N 
ATOM     39  H   UNL d   1      29.251 -11.899  -3.117  0.00  0.00     0.158 HD
ATOM     40  H   UNL d   1      27.881 -12.345  -2.231  0.00  0.00     0.158 HD
ENDBRANCH  37  38
ENDBRANCH   1  33
TORSDOF 10
ENDMDL
MODEL 3
REMARK VINA RESULT:   -10.830      6.157      8.486
REMARK INTER + INTRA:         -17.031
REMARK INTER:                 -13.813
REMARK INTRA:                  -3.218
REMARK CONF_INDEPENDENT:        2.983
REMARK UNBOUND:                -3.218
REMARK  10 active torsions:
REMARK  status: ('A' for Active; 'I' for Inactive)
REMARK    1  A    between atoms: N_1  and  C_2 
REMARK    2  A    between atoms: C_6  and  N_7 
REMARK    3  A    between atoms: C_10  and  C_11 
REMARK    4  A    between atoms: C_11  and  N_12 
REMARK    5  A    between atoms: C_17  and  C_18 
REMARK       I    between atoms: C_18  and  N_20 
REMARK    6  A    between atoms: N_20  and  N_21 
REMARK    7  A    between atoms: C_22  and  C_23 
REMARK    8  A    between atoms: C_27  and  O_28 
REMARK    9  A    between atoms: O_28  and  C_29 
REMARK   10  A    between atoms: C_29  and  C_30 
ROOT
ATOM      1  N   UNL d   1      31.045 -13.753   3.269  0.00  0.00    -0.207 N 
ATOM      2  N   UNL d   1      32.372 -13.433   3.204  0.00  0.00     0.012 NA
ATOM      3  N   UNL d   1      33.043 -14.264   2.337  0.00  0.00    -0.160 NA
ATOM      4  C   UNL d   1      32.127 -15.036   1.694  0.00  0.00     0.112 C 
ATOM      5  C   UNL d   1      30.883 -14.589   2.281  0.00  0.00     0.153 C 
ENDROOT
BRANCH   5   6
ATOM      6  C   UNL d   1      29.627 -14.782   1.761  0.00  0.00     0.292 C 
ATOM      7  O   UNL d   1      30.181 -15.520   0.971  0.00  0.00    -0.264 OA
ATOM      8  N   UNL d   1      28.157 -14.447   1.788  0.00  0.00    -0.242 N 
ATOM      9  H   UNL d   1      27.726 -13.963   2.549  0.00  0.00     0.192 HD
BRANCH   8  10
ATOM     10  N   UNL d   1      27.060 -15.142   0.985  0.00  0.00    -0.183 NA
ATOM     11  C   UNL d   1      27.030 -16.413   0.741  0.00  0.00     0.150 C 
BRANCH  11  12
ATOM     12  C   UNL d   1      26.031 -17.098  -0.171  0.00  0.00    -0.014 A 
ATOM     13  C   UNL d   1      25.996 -16.687  -1.503  0.00  0.00     0.013 A 
ATOM     14  C   UNL d   1      24.898 -16.995  -2.314  0.00  0.00     0.004 A 
ATOM     15  C   UNL d   1      23.882 -17.829  -1.843  0.00  0.00     0.037 A 
ATOM     16  C   UNL d   1      23.929 -18.306  -0.532  0.00  0.00     0.070 A 
ATOM     17  C   UNL d   1      25.010 -17.946   0.295  0.00  0.00     0.049 A 
BRANCH  16  18
ATOM     18  O   UNL d   1      22.856 -19.060  -0.136  0.00  0.00    -0.347 OA
BRANCH  18  19
ATOM     19  C   UNL d   1      21.569 -18.659  -0.625  0.00  0.00     0.214 C 
BRANCH  19  20
ATOM     20  C   UNL d   1      20.493 -19.345   0.171  0.00  0.00    -0.034 C 
ATOM     21  C   UNL d   1      20.511 -19.326   1.573  0.00  0.00     0.009 C 
ATOM     22  C   UNL d   1      19.622 -20.127   2.288  0.00  0.00     0.001 C 
ATOM     23  C   UNL d   1      18.614 -20.821   1.621  0.00  0.00     0.000 C 
ATOM     24  C   UNL d   1      18.543 -20.782   0.232  0.00  0.00     0.001 C 
ATOM     25  C   UNL d   1      19.476 -20.043  -0.488  0.00  0.00     0.009 C 
ENDBRANCH  19  20
ENDBRANCH  18  19
ENDBRANCH  16  18
ENDBRANCH  11  12
ENDBRANCH   8  10
ENDBRANCH   5   6
BRANCH   4  26
ATOM     26  C   UNL d   1      32.388 -16.084   0.378  0.00  0.00     0.297 C 
BRANCH  26  27
ATOM     27  N   UNL d   1      31.396 -17.532   0.174  0.00  0.00    -0.066 N 
ATOM     28  C   UNL d   1      32.399 -18.974   0.129  0.00  0.00     0.235 C 
ATOM     29  C   UNL d   1      32.615 -19.390  -1.314  0.00  0.00     0.029 C 
ATOM     30  C   UNL d   1      31.118 -18.554  -2.198  0.00  0.00     0.029 C 
ATOM     31  C   UNL d   1      30.531 -17.399  -1.278  0.00  0.00     0.235 C 
ATOM     32  H   UNL d   1      30.759 -17.600   0.976  0.00  0.00     0.280 HD
ENDBRANCH  26  27
ENDBRANCH   4  26
BRANCH   1  33
ATOM     33  C   UNL d   1      29.826 -13.288   3.909  0.00  0.00     0.225 C 
ATOM     34  N   UNL d   1      29.084 -12.392   3.234  0.00  0.00    -0.081 NA
ATOM     35  O   UNL d   1      27.834 -12.400   3.862  0.00  0.00    -0.103 OA
ATOM     36  N   UNL d   1      27.701 -13.481   4.721  0.00  0.00    -0.083 NA
ATOM     37  C   UNL d   1      28.898 -14.076   4.750  0.00  0.00     0.201 C 
BRANCH  37  38
ATOM     38  N   UNL d   1      28.984 -15.355   5.211  0.00  0.00    -0.379 N 
ATOM     39  H   UNL d   1      28.613 -15.594   6.140  0.00  0.00     0.158 HD
ATOM     40  H   UNL d   1      29.244 -16.180   4.684  0.00  0.00     0.158 HD
ENDBRANCH  37  38
ENDBRANCH   1  33
TORSDOF 10
ENDMDL
MODEL 4
REMARK VINA RESULT:   -10.585      5.748      7.170
REMARK INTER + INTRA:         -17.115
REMARK INTER:                 -13.568
REMARK INTRA:                  -3.547
REMARK CONF_INDEPENDENT:        2.983
REMARK UNBOUND:                -3.547
REMARK  10 active torsions:
REMARK  status: ('A' for Active; 'I' for Inactive)
REMARK    1  A    between atoms: N_1  and  C_2 
REMARK    2  A    between atoms: C_6  and  N_7 
REMARK    3  A    between atoms: C_10  and  C_11 
REMARK    4  A    between atoms: C_11  and  N_12 
REMARK    5  A    between atoms: C_17  and  C_18 
REMARK       I    between atoms: C_18  and  N_20 
REMARK    6  A    between atoms: N_20  and  N_21 
REMARK    7  A    between atoms: C_22  and  C_23 
REMARK    8  A    between atoms: C_27  and  O_28 
REMARK    9  A    between atoms: O_28  and  C_29 
REMARK   10  A    between atoms: C_29  and  C_30 
ROOT
ATOM      1  N   UNL d   1      32.465 -16.476   0.201  0.00  0.00    -0.207 N 
ATOM      2  N   UNL d   1      33.497 -16.332   1.084  0.00  0.00     0.012 NA
ATOM      3  N   UNL d   1      33.167 -15.460   2.096  0.00  0.00    -0.160 NA
ATOM      4  C   UNL d   1      31.848 -15.152   1.978  0.00  0.00     0.112 C 
ATOM      5  C   UNL d   1      31.461 -15.903   0.805  0.00  0.00     0.153 C 
ENDROOT
BRANCH   5   6
ATOM      6  C   UNL d   1      30.179 -16.230   0.440  0.00  0.00     0.292 C 
ATOM      7  O   UNL d   1      29.924 -15.067   0.683  0.00  0.00    -0.264 OA
ATOM      8  N   UNL d   1      29.196 -17.283  -0.009  0.00  0.00    -0.242 N 
ATOM      9  H   UNL d   1      29.480 -18.180  -0.347  0.00  0.00     0.192 HD
BRANCH   8  10
ATOM     10  N   UNL d   1      27.758 -17.039  -0.461  0.00  0.00    -0.183 NA
ATOM     11  C   UNL d   1      26.724 -17.630   0.048  0.00  0.00     0.150 C 
BRANCH  11  12
ATOM     12  C   UNL d   1      25.309 -17.511  -0.481  0.00  0.00    -0.014 A 
ATOM     13  C   UNL d   1      24.820 -16.226  -0.715  0.00  0.00     0.013 A 
ATOM     14  C   UNL d   1      23.447 -16.002  -0.858  0.00  0.00     0.004 A 
ATOM     15  C   UNL d   1      22.555 -17.076  -0.902  0.00  0.00     0.037 A 
ATOM     16  C   UNL d   1      23.031 -18.378  -0.735  0.00  0.00     0.070 A 
ATOM     17  C   UNL d   1      24.408 -18.590  -0.536  0.00  0.00     0.049 A 
BRANCH  16  18
ATOM     18  O   UNL d   1      22.076 -19.361  -0.724  0.00  0.00    -0.347 OA
BRANCH  18  19
ATOM     19  C   UNL d   1      20.713 -18.939  -0.858  0.00  0.00     0.214 C 
BRANCH  19  20
ATOM     20  C   UNL d   1      19.863 -19.654   0.157  0.00  0.00    -0.034 C 
ATOM     21  C   UNL d   1      20.158 -19.578   1.525  0.00  0.00     0.009 C 
ATOM     22  C   UNL d   1      19.482 -20.401   2.425  0.00  0.00     0.001 C 
ATOM     23  C   UNL d   1      18.410 -21.179   1.994  0.00  0.00     0.000 C 
ATOM     24  C   UNL d   1      18.062 -21.200   0.647  0.00  0.00     0.001 C 
ATOM     25  C   UNL d   1      18.783 -20.437  -0.266  0.00  0.00     0.009 C 
ENDBRANCH  19  20
ENDBRANCH  18  19
ENDBRANCH  16  18
ENDBRANCH  11  12
ENDBRANCH   8  10
ENDBRANCH   5   6
BRANCH   4  26
ATOM     26  C   UNL d   1      30.878 -14.287   3.078  0.00  0.00     0.297 C 
BRANCH  26  27
ATOM     27  N   UNL d   1      29.139 -14.582   3.166  0.00  0.00    -0.066 N 
ATOM     28  C   UNL d   1      28.241 -13.232   2.488  0.00  0.00     0.235 C 
ATOM     29  C   UNL d   1      27.754 -12.340   3.613  0.00  0.00     0.029 C 
ATOM     30  C   UNL d   1      27.773 -13.547   5.117  0.00  0.00     0.029 C 
ATOM     31  C   UNL d   1      28.704 -14.793   4.790  0.00  0.00     0.235 C 
ATOM     32  H   UNL d   1      28.929 -15.425   2.617  0.00  0.00     0.280 HD
ENDBRANCH  26  27
ENDBRANCH   4  26
BRANCH   1  33
ATOM     33  C   UNL d   1      32.133 -17.229  -0.998  0.00  0.00     0.225 C 
ATOM     34  N   UNL d   1      31.586 -18.446  -0.826  0.00  0.00    -0.081 NA
ATOM     35  O   UNL d   1      31.033 -18.780  -2.066  0.00  0.00    -0.103 OA
ATOM     36  N   UNL d   1      30.976 -17.684  -2.913  0.00  0.00    -0.083 NA
ATOM     37  C   UNL d   1      31.613 -16.695  -2.276  0.00  0.00     0.201 C 
BRANCH  37  38
ATOM     38  N   UNL d   1      31.410 -15.412  -2.688  0.00  0.00    -0.379 N 
ATOM     39  H   UNL d   1      30.821 -14.779  -2.133  0.00  0.00     0.158 HD
ATOM     40  H   UNL d   1      31.902 -14.922  -3.426  0.00  0.00     0.158 HD
ENDBRANCH  37  38
ENDBRANCH   1  33
TORSDOF 10
ENDMDL
MODEL 5
REMARK VINA RESULT:   -10.523      2.567      5.821
REMARK INTER + INTRA:         -17.190
REMARK INTER:                 -13.506
REMARK INTRA:                  -3.684
REMARK CONF_INDEPENDENT:        2.983
REMARK UNBOUND:                -3.684
REMARK  10 active torsions:
REMARK  status: ('A' for Active; 'I' for Inactive)
REMARK    1  A    between atoms: N_1  and  C_2 
REMARK    2  A    between atoms: C_6  and  N_7 
REMARK    3  A    between atoms: C_10  and  C_11 
REMARK    4  A    between atoms: C_11  and  N_12 
REMARK    5  A    between atoms: C_17  and  C_18 
REMARK       I    between atoms: C_18  and  N_20 
REMARK    6  A    between atoms: N_20  and  N_21 
REMARK    7  A    between atoms: C_22  and  C_23 
REMARK    8  A    between atoms: C_27  and  O_28 
REMARK    9  A    between atoms: O_28  and  C_29 
REMARK   10  A    between atoms: C_29  and  C_30 
ROOT
ATOM      1  N   UNL d   1      28.850 -13.136  -6.160  0.00  0.00    -0.207 N 
ATOM      2  N   UNL d   1      29.745 -13.123  -7.191  0.00  0.00     0.012 NA
ATOM      3  N   UNL d   1      30.379 -14.337  -7.316  0.00  0.00    -0.160 NA
ATOM      4  C   UNL d   1      29.783 -15.217  -6.469  0.00  0.00     0.112 C 
ATOM      5  C   UNL d   1      28.771 -14.398  -5.839  0.00  0.00     0.153 C 
ENDROOT
BRANCH   5   6
ATOM      6  C   UNL d   1      27.668 -14.852  -5.161  0.00  0.00     0.292 C 
ATOM      7  O   UNL d   1      28.384 -15.775  -4.825  0.00  0.00    -0.264 OA
ATOM      8  N   UNL d   1      26.212 -14.678  -4.805  0.00  0.00    -0.242 N 
ATOM      9  H   UNL d   1      25.712 -13.828  -4.972  0.00  0.00     0.192 HD
BRANCH   8  10
ATOM     10  N   UNL d   1      25.432 -15.494  -3.777  0.00  0.00    -0.183 NA
ATOM     11  C   UNL d   1      25.587 -15.390  -2.496  0.00  0.00     0.150 C 
BRANCH  11  12
ATOM     12  C   UNL d   1      24.928 -16.289  -1.468  0.00  0.00    -0.014 A 
ATOM     13  C   UNL d   1      25.745 -17.196  -0.794  0.00  0.00     0.013 A 
ATOM     14  C   UNL d   1      25.190 -18.281  -0.108  0.00  0.00     0.004 A 
ATOM     15  C   UNL d   1      23.805 -18.401   0.026  0.00  0.00     0.037 A 
ATOM     16  C   UNL d   1      22.967 -17.467  -0.587  0.00  0.00     0.070 A 
ATOM     17  C   UNL d   1      23.533 -16.409  -1.322  0.00  0.00     0.049 A 
BRANCH  16  18
ATOM     18  O   UNL d   1      21.624 -17.703  -0.461  0.00  0.00    -0.347 OA
BRANCH  18  19
ATOM     19  C   UNL d   1      21.133 -18.941  -0.993  0.00  0.00     0.214 C 
BRANCH  19  20
ATOM     20  C   UNL d   1      20.145 -19.544  -0.033  0.00  0.00    -0.034 C 
ATOM     21  C   UNL d   1      20.386 -19.536   1.348  0.00  0.00     0.009 C 
ATOM     22  C   UNL d   1      19.560 -20.269   2.199  0.00  0.00     0.001 C 
ATOM     23  C   UNL d   1      18.408 -20.876   1.705  0.00  0.00     0.000 C 
ATOM     24  C   UNL d   1      18.121 -20.823   0.344  0.00  0.00     0.001 C 
ATOM     25  C   UNL d   1      18.984 -20.156  -0.519  0.00  0.00     0.009 C 
ENDBRANCH  19  20
ENDBRANCH  18  19
ENDBRANCH  16  18
ENDBRANCH  11  12
ENDBRANCH   8  10
ENDBRANCH   5   6
BRANCH   4  26
ATOM     26  C   UNL d   1      30.031 -16.898  -6.368  0.00  0.00     0.297 C 
BRANCH  26  27
ATOM     27  N   UNL d   1      30.157 -17.694  -4.796  0.00  0.00    -0.066 N 
ATOM     28  C   UNL d   1      31.484 -17.022  -3.860  0.00  0.00     0.235 C 
ATOM     29  C   UNL d   1      32.693 -17.929  -3.981  0.00  0.00     0.029 C 
ATOM     30  C   UNL d   1      31.883 -19.608  -4.478  0.00  0.00     0.029 C 
ATOM     31  C   UNL d   1      30.421 -19.350  -5.043  0.00  0.00     0.235 C 
ATOM     32  H   UNL d   1      29.281 -17.534  -4.284  0.00  0.00     0.280 HD
ENDBRANCH  26  27
ENDBRANCH   4  26
BRANCH   1  33
ATOM     33  C   UNL d   1      27.869 -12.264  -5.536  0.00  0.00     0.225 C 
ATOM     34  N   UNL d   1      26.646 -12.220  -6.095  0.00  0.00    -0.081 NA
ATOM     35  O   UNL d   1      25.819 -11.637  -5.130  0.00  0.00    -0.103 OA
ATOM     36  N   UNL d   1      26.441 -11.583  -3.891  0.00  0.00    -0.083 NA
ATOM     37  C   UNL d   1      27.696 -11.996  -4.092  0.00  0.00     0.201 C 
BRANCH  37  38
ATOM     38  N   UNL d   1      28.436 -12.393  -3.019  0.00  0.00    -0.379 N 
ATOM     39  H   UNL d   1      29.389 -12.754  -3.154  0.00  0.00     0.158 HD
ATOM     40  H   UNL d   1      28.225 -12.240  -2.040  0.00  0.00     0.158 HD
ENDBRANCH  37  38
ENDBRANCH   1  33
TORSDOF 10
ENDMDL
MODEL 6
REMARK VINA RESULT:   -10.419      5.210      8.128
REMARK INTER + INTRA:         -16.215
REMARK INTER:                 -13.402
REMARK INTRA:                  -2.812
REMARK CONF_INDEPENDENT:        2.983
REMARK UNBOUND:                -2.812
REMARK  10 active torsions:
REMARK  status: ('A' for Active; 'I' for Inactive)
REMARK    1  A    between atoms: N_1  and  C_2 
REMARK    2  A    between atoms: C_6  and  N_7 
REMARK    3  A    between atoms: C_10  and  C_11 
REMARK    4  A    between atoms: C_11  and  N_12 
REMARK    5  A    between atoms: C_17  and  C_18 
REMARK       I    between atoms: C_18  and  N_20 
REMARK    6  A    between atoms: N_20  and  N_21 
REMARK    7  A    between atoms: C_22  and  C_23 
REMARK    8  A    between atoms: C_27  and  O_28 
REMARK    9  A    between atoms: O_28  and  C_29 
REMARK   10  A    between atoms: C_29  and  C_30 
ROOT
ATOM      1  N   UNL d   1      28.708  -9.655   3.017  0.00  0.00    -0.207 N 
ATOM      2  N   UNL d   1      29.961  -9.129   3.163  0.00  0.00     0.012 NA
ATOM      3  N   UNL d   1      30.871 -10.100   3.512  0.00  0.00    -0.160 NA
ATOM      4  C   UNL d   1      30.253 -11.308   3.436  0.00  0.00     0.112 C 
ATOM      5  C   UNL d   1      28.913 -10.943   3.034  0.00  0.00     0.153 C 
ENDROOT
BRANCH   5   6
ATOM      6  C   UNL d   1      27.977 -11.780   2.481  0.00  0.00     0.292 C 
ATOM      7  O   UNL d   1      28.681 -11.744   1.491  0.00  0.00    -0.264 OA
ATOM      8  N   UNL d   1      26.670 -12.520   2.617  0.00  0.00    -0.242 N 
ATOM      9  H   UNL d   1      26.209 -12.649   3.496  0.00  0.00     0.192 HD
BRANCH   8  10
ATOM     10  N   UNL d   1      26.104 -13.540   1.632  0.00  0.00    -0.183 NA
ATOM     11  C   UNL d   1      26.828 -14.339   0.914  0.00  0.00     0.150 C 
BRANCH  11  12
ATOM     12  C   UNL d   1      26.294 -15.254  -0.171  0.00  0.00    -0.014 A 
ATOM     13  C   UNL d   1      26.315 -14.774  -1.479  0.00  0.00     0.013 A 
ATOM     14  C   UNL d   1      25.538 -15.381  -2.472  0.00  0.00     0.004 A 
ATOM     15  C   UNL d   1      24.834 -16.555  -2.201  0.00  0.00     0.037 A 
ATOM     16  C   UNL d   1      24.852 -17.091  -0.912  0.00  0.00     0.070 A 
ATOM     17  C   UNL d   1      25.591 -16.443   0.096  0.00  0.00     0.049 A 
BRANCH  16  18
ATOM     18  O   UNL d   1      24.077 -18.205  -0.722  0.00  0.00    -0.347 OA
BRANCH  18  19
ATOM     19  C   UNL d   1      22.998 -18.407  -1.645  0.00  0.00     0.214 C 
BRANCH  19  20
ATOM     20  C   UNL d   1      21.793 -18.919  -0.904  0.00  0.00    -0.034 C 
ATOM     21  C   UNL d   1      20.643 -19.325  -1.594  0.00  0.00     0.009 C 
ATOM     22  C   UNL d   1      19.475 -19.608  -0.886  0.00  0.00     0.001 C 
ATOM     23  C   UNL d   1      19.492 -19.644   0.506  0.00  0.00     0.000 C 
ATOM     24  C   UNL d   1      20.655 -19.317   1.198  0.00  0.00     0.001 C 
ATOM     25  C   UNL d   1      21.801 -18.961   0.495  0.00  0.00     0.009 C 
ENDBRANCH  19  20
ENDBRANCH  18  19
ENDBRANCH  16  18
ENDBRANCH  11  12
ENDBRANCH   8  10
ENDBRANCH   5   6
BRANCH   4  26
ATOM     26  C   UNL d   1      30.963 -12.850   3.561  0.00  0.00     0.297 C 
BRANCH  26  27
ATOM     27  N   UNL d   1      30.436 -13.982   4.811  0.00  0.00    -0.066 N 
ATOM     28  C   UNL d   1      28.943 -14.781   4.342  0.00  0.00     0.235 C 
ATOM     29  C   UNL d   1      27.773 -14.094   5.017  0.00  0.00     0.029 C 
ATOM     30  C   UNL d   1      28.627 -13.234   6.518  0.00  0.00     0.029 C 
ATOM     31  C   UNL d   1      30.190 -13.124   6.252  0.00  0.00     0.235 C 
ATOM     32  H   UNL d   1      31.167 -14.694   4.928  0.00  0.00     0.280 HD
ENDBRANCH  26  27
ENDBRANCH   4  26
BRANCH   1  33
ATOM     33  C   UNL d   1      27.369  -9.233   2.640  0.00  0.00     0.225 C 
ATOM     34  N   UNL d   1      26.877  -8.140   3.250  0.00  0.00    -0.081 NA
ATOM     35  O   UNL d   1      25.787  -7.742   2.470  0.00  0.00    -0.103 OA
ATOM     36  N   UNL d   1      25.771  -8.392   1.245  0.00  0.00    -0.083 NA
ATOM     37  C   UNL d   1      26.755  -9.295   1.296  0.00  0.00     0.201 C 
BRANCH  37  38
ATOM     38  N   UNL d   1      27.217  -9.829   0.131  0.00  0.00    -0.379 N 
ATOM     39  H   UNL d   1      28.176 -10.194   0.075  0.00  0.00     0.158 HD
ATOM     40  H   UNL d   1      26.674 -10.064  -0.692  0.00  0.00     0.158 HD
ENDBRANCH  37  38
ENDBRANCH   1  33
TORSDOF 10
ENDMDL
MODEL 7
REMARK VINA RESULT:   -10.215      1.962      2.811
REMARK INTER + INTRA:         -16.153
REMARK INTER:                 -13.198
REMARK INTRA:                  -2.955
REMARK CONF_INDEPENDENT:        2.983
REMARK UNBOUND:                -2.955
REMARK  10 active torsions:
REMARK  status: ('A' for Active; 'I' for Inactive)
REMARK    1  A    between atoms: N_1  and  C_2 
REMARK    2  A    between atoms: C_6  and  N_7 
REMARK    3  A    between atoms: C_10  and  C_11 
REMARK    4  A    between atoms: C_11  and  N_12 
REMARK    5  A    between atoms: C_17  and  C_18 
REMARK       I    between atoms: C_18  and  N_20 
REMARK    6  A    between atoms: N_20  and  N_21 
REMARK    7  A    between atoms: C_22  and  C_23 
REMARK    8  A    between atoms: C_27  and  O_28 
REMARK    9  A    between atoms: O_28  and  C_29 
REMARK   10  A    between atoms: C_29  and  C_30 
ROOT
ATOM      1  N   UNL d   1      28.967 -13.638  -6.537  0.00  0.00    -0.207 N 
ATOM      2  N   UNL d   1      29.512 -12.440  -6.904  0.00  0.00     0.012 NA
ATOM      3  N   UNL d   1      28.551 -11.459  -6.981  0.00  0.00    -0.160 NA
ATOM      4  C   UNL d   1      27.385 -11.967  -6.500  0.00  0.00     0.112 C 
ATOM      5  C   UNL d   1      27.758 -13.323  -6.163  0.00  0.00     0.153 C 
ENDROOT
BRANCH   5   6
ATOM      6  C   UNL d   1      27.070 -14.167  -5.328  0.00  0.00     0.292 C 
ATOM      7  O   UNL d   1      27.686 -13.619  -4.435  0.00  0.00    -0.264 OA
ATOM      8  N   UNL d   1      26.085 -15.299  -5.166  0.00  0.00    -0.242 N 
ATOM      9  H   UNL d   1      25.489 -15.608  -5.907  0.00  0.00     0.192 HD
BRANCH   8  10
ATOM     10  N   UNL d   1      25.507 -15.809  -3.848  0.00  0.00    -0.183 NA
ATOM     11  C   UNL d   1      26.165 -15.858  -2.734  0.00  0.00     0.150 C 
BRANCH  11  12
ATOM     12  C   UNL d   1      25.657 -16.492  -1.454  0.00  0.00    -0.014 A 
ATOM     13  C   UNL d   1      26.600 -17.085  -0.617  0.00  0.00     0.013 A 
ATOM     14  C   UNL d   1      26.202 -17.983   0.380  0.00  0.00     0.004 A 
ATOM     15  C   UNL d   1      24.848 -18.199   0.639  0.00  0.00     0.037 A 
ATOM     16  C   UNL d   1      23.883 -17.563  -0.146  0.00  0.00     0.070 A 
ATOM     17  C   UNL d   1      24.293 -16.704  -1.183  0.00  0.00     0.049 A 
BRANCH  16  18
ATOM     18  O   UNL d   1      22.582 -17.888   0.135  0.00  0.00    -0.347 OA
BRANCH  18  19
ATOM     19  C   UNL d   1      21.871 -18.629  -0.865  0.00  0.00     0.214 C 
BRANCH  19  20
ATOM     20  C   UNL d   1      20.647 -19.254  -0.251  0.00  0.00    -0.034 C 
ATOM     21  C   UNL d   1      20.634 -19.639   1.096  0.00  0.00     0.009 C 
ATOM     22  C   UNL d   1      19.568 -20.390   1.591  0.00  0.00     0.001 C 
ATOM     23  C   UNL d   1      18.447 -20.621   0.798  0.00  0.00     0.000 C 
ATOM     24  C   UNL d   1      18.421 -20.173  -0.520  0.00  0.00     0.001 C 
ATOM     25  C   UNL d   1      19.515 -19.488  -1.039  0.00  0.00     0.009 C 
ENDBRANCH  19  20
ENDBRANCH  18  19
ENDBRANCH  16  18
ENDBRANCH  11  12
ENDBRANCH   8  10
ENDBRANCH   5   6
BRANCH   4  26
ATOM     26  C   UNL d   1      25.939 -11.130  -6.176  0.00  0.00     0.297 C 
BRANCH  26  27
ATOM     27  N   UNL d   1      25.636 -10.446  -4.575  0.00  0.00    -0.066 N 
ATOM     28  C   UNL d   1      26.904  -9.315  -4.129  0.00  0.00     0.235 C 
ATOM     29  C   UNL d   1      27.898 -10.009  -3.219  0.00  0.00     0.029 C 
ATOM     30  C   UNL d   1      26.845 -11.463  -2.514  0.00  0.00     0.029 C 
ATOM     31  C   UNL d   1      25.582 -11.709  -3.446  0.00  0.00     0.235 C 
ATOM     32  H   UNL d   1      24.742  -9.942  -4.606  0.00  0.00     0.280 HD
ENDBRANCH  26  27
ENDBRANCH   4  26
BRANCH   1  33
ATOM     33  C   UNL d   1      29.385 -14.998  -6.240  0.00  0.00     0.225 C 
ATOM     34  N   UNL d   1      29.979 -15.686  -7.231  0.00  0.00    -0.081 NA
ATOM     35  O   UNL d   1      30.601 -16.771  -6.605  0.00  0.00    -0.103 OA
ATOM     36  N   UNL d   1      30.643 -16.612  -5.228  0.00  0.00    -0.083 NA
ATOM     37  C   UNL d   1      29.935 -15.509  -4.965  0.00  0.00     0.201 C 
BRANCH  37  38
ATOM     38  N   UNL d   1      30.095 -14.899  -3.757  0.00  0.00    -0.379 N 
ATOM     39  H   UNL d   1      29.337 -14.326  -3.364  0.00  0.00     0.158 HD
ATOM     40  H   UNL d   1      30.838 -15.055  -3.087  0.00  0.00     0.158 HD
ENDBRANCH  37  38
ENDBRANCH   1  33
TORSDOF 10
ENDMDL
MODEL 8
REMARK VINA RESULT:   -10.202      2.077      5.378
REMARK INTER + INTRA:         -16.132
REMARK INTER:                 -13.185
REMARK INTRA:                  -2.947
REMARK CONF_INDEPENDENT:        2.983
REMARK UNBOUND:                -2.947
REMARK  10 active torsions:
REMARK  status: ('A' for Active; 'I' for Inactive)
REMARK    1  A    between atoms: N_1  and  C_2 
REMARK    2  A    between atoms: C_6  and  N_7 
REMARK    3  A    between atoms: C_10  and  C_11 
REMARK    4  A    between atoms: C_11  and  N_12 
REMARK    5  A    between atoms: C_17  and  C_18 
REMARK       I    between atoms: C_18  and  N_20 
REMARK    6  A    between atoms: N_20  and  N_21 
REMARK    7  A    between atoms: C_22  and  C_23 
REMARK    8  A    between atoms: C_27  and  O_28 
REMARK    9  A    between atoms: O_28  and  C_29 
REMARK   10  A    between atoms: C_29  and  C_30 
ROOT
ATOM      1  N   UNL d   1      27.970 -11.534  -5.999  0.00  0.00    -0.207 N 
ATOM      2  N   UNL d   1      28.656 -11.314  -7.159  0.00  0.00     0.012 NA
ATOM      3  N   UNL d   1      29.287 -12.459  -7.589  0.00  0.00    -0.160 NA
ATOM      4  C   UNL d   1      28.882 -13.489  -6.800  0.00  0.00     0.112 C 
ATOM      5  C   UNL d   1      27.985 -12.832  -5.875  0.00  0.00     0.153 C 
ENDROOT
BRANCH   5   6
ATOM      6  C   UNL d   1      27.040 -13.445  -5.091  0.00  0.00     0.292 C 
ATOM      7  O   UNL d   1      27.904 -14.273  -4.878  0.00  0.00    -0.264 OA
ATOM      8  N   UNL d   1      25.628 -13.474  -4.560  0.00  0.00    -0.242 N 
ATOM      9  H   UNL d   1      25.006 -12.694  -4.633  0.00  0.00     0.192 HD
BRANCH   8  10
ATOM     10  N   UNL d   1      25.089 -14.410  -3.482  0.00  0.00    -0.183 NA
ATOM     11  C   UNL d   1      25.810 -14.921  -2.534  0.00  0.00     0.150 C 
BRANCH  11  12
ATOM     12  C   UNL d   1      25.328 -15.962  -1.543  0.00  0.00    -0.014 A 
ATOM     13  C   UNL d   1      26.298 -16.691  -0.858  0.00  0.00     0.013 A 
ATOM     14  C   UNL d   1      25.965 -17.885  -0.208  0.00  0.00     0.004 A 
ATOM     15  C   UNL d   1      24.635 -18.297  -0.123  0.00  0.00     0.037 A 
ATOM     16  C   UNL d   1      23.636 -17.547  -0.747  0.00  0.00     0.070 A 
ATOM     17  C   UNL d   1      23.986 -16.377  -1.446  0.00  0.00     0.049 A 
BRANCH  16  18
ATOM     18  O   UNL d   1      22.369 -18.064  -0.669  0.00  0.00    -0.347 OA
BRANCH  18  19
ATOM     19  C   UNL d   1      21.958 -18.575   0.606  0.00  0.00     0.214 C 
BRANCH  19  20
ATOM     20  C   UNL d   1      20.713 -19.402   0.437  0.00  0.00    -0.034 C 
ATOM     21  C   UNL d   1      20.031 -19.436  -0.787  0.00  0.00     0.009 C 
ATOM     22  C   UNL d   1      18.780 -20.048  -0.866  0.00  0.00     0.001 C 
ATOM     23  C   UNL d   1      18.280 -20.760   0.222  0.00  0.00     0.000 C 
ATOM     24  C   UNL d   1      18.990 -20.796   1.418  0.00  0.00     0.001 C 
ATOM     25  C   UNL d   1      20.203 -20.124   1.523  0.00  0.00     0.009 C 
ENDBRANCH  19  20
ENDBRANCH  18  19
ENDBRANCH  16  18
ENDBRANCH  11  12
ENDBRANCH   8  10
ENDBRANCH   5   6
BRANCH   4  26
ATOM     26  C   UNL d   1      29.189 -15.149  -7.015  0.00  0.00     0.297 C 
BRANCH  26  27
ATOM     27  N   UNL d   1      30.585 -15.912  -6.245  0.00  0.00    -0.066 N 
ATOM     28  C   UNL d   1      31.606 -16.698  -7.440  0.00  0.00     0.235 C 
ATOM     29  C   UNL d   1      31.297 -18.182  -7.464  0.00  0.00     0.029 C 
ATOM     30  C   UNL d   1      30.513 -18.454  -5.722  0.00  0.00     0.029 C 
ATOM     31  C   UNL d   1      30.031 -17.061  -5.130  0.00  0.00     0.235 C 
ATOM     32  H   UNL d   1      31.132 -15.179  -5.777  0.00  0.00     0.280 HD
ENDBRANCH  26  27
ENDBRANCH   4  26
BRANCH   1  33
ATOM     33  C   UNL d   1      27.099 -10.823  -5.077  0.00  0.00     0.225 C 
ATOM     34  N   UNL d   1      25.784 -10.818  -5.358  0.00  0.00    -0.081 NA
ATOM     35  O   UNL d   1      25.155 -10.419  -4.175  0.00  0.00    -0.103 OA
ATOM     36  N   UNL d   1      26.027 -10.453  -3.096  0.00  0.00    -0.083 NA
ATOM     37  C   UNL d   1      27.230 -10.735  -3.607  0.00  0.00     0.201 C 
BRANCH  37  38
ATOM     38  N   UNL d   1      28.207 -11.188  -2.772  0.00  0.00    -0.379 N 
ATOM     39  H   UNL d   1      28.367 -10.727  -1.867  0.00  0.00     0.158 HD
ATOM     40  H   UNL d   1      28.730 -12.051  -2.854  0.00  0.00     0.158 HD
ENDBRANCH  37  38
ENDBRANCH   1  33
TORSDOF 10
ENDMDL
MODEL 9
REMARK VINA RESULT:    -9.867      3.240      4.985
REMARK INTER + INTRA:         -16.360
REMARK INTER:                 -12.850
REMARK INTRA:                  -3.510
REMARK CONF_INDEPENDENT:        2.983
REMARK UNBOUND:                -3.510
REMARK  10 active torsions:
REMARK  status: ('A' for Active; 'I' for Inactive)
REMARK    1  A    between atoms: N_1  and  C_2 
REMARK    2  A    between atoms: C_6  and  N_7 
REMARK    3  A    between atoms: C_10  and  C_11 
REMARK    4  A    between atoms: C_11  and  N_12 
REMARK    5  A    between atoms: C_17  and  C_18 
REMARK       I    between atoms: C_18  and  N_20 
REMARK    6  A    between atoms: N_20  and  N_21 
REMARK    7  A    between atoms: C_22  and  C_23 
REMARK    8  A    between atoms: C_27  and  O_28 
REMARK    9  A    between atoms: O_28  and  C_29 
REMARK   10  A    between atoms: C_29  and  C_30 
ROOT
ATOM      1  N   UNL d   1      29.498 -12.892  -4.121  0.00  0.00    -0.207 N 
ATOM      2  N   UNL d   1      30.602 -12.090  -4.066  0.00  0.00     0.012 NA
ATOM      3  N   UNL d   1      30.844 -11.662  -2.781  0.00  0.00    -0.160 NA
ATOM      4  C   UNL d   1      29.993 -12.317  -1.949  0.00  0.00     0.112 C 
ATOM      5  C   UNL d   1      29.235 -13.138  -2.867  0.00  0.00     0.153 C 
ENDROOT
BRANCH   5   6
ATOM      6  C   UNL d   1      28.487 -14.241  -2.540  0.00  0.00     0.292 C 
ATOM      7  O   UNL d   1      28.232 -13.635  -1.517  0.00  0.00    -0.264 OA
ATOM      8  N   UNL d   1      28.015 -15.629  -2.894  0.00  0.00    -0.242 N 
ATOM      9  H   UNL d   1      28.120 -16.019  -3.810  0.00  0.00     0.192 HD
BRANCH   8  10
ATOM     10  N   UNL d   1      26.953 -16.437  -2.153  0.00  0.00    -0.183 NA
ATOM     11  C   UNL d   1      25.774 -15.989  -1.855  0.00  0.00     0.150 C 
BRANCH  11  12
ATOM     12  C   UNL d   1      24.761 -16.721  -0.996  0.00  0.00    -0.014 A 
ATOM     13  C   UNL d   1      25.254 -17.620  -0.052  0.00  0.00     0.013 A 
ATOM     14  C   UNL d   1      24.414 -18.580   0.524  0.00  0.00     0.004 A 
ATOM     15  C   UNL d   1      23.043 -18.569   0.262  0.00  0.00     0.037 A 
ATOM     16  C   UNL d   1      22.516 -17.635  -0.633  0.00  0.00     0.070 A 
ATOM     17  C   UNL d   1      23.377 -16.708  -1.250  0.00  0.00     0.049 A 
BRANCH  16  18
ATOM     18  O   UNL d   1      21.173 -17.744  -0.881  0.00  0.00    -0.347 OA
BRANCH  18  19
ATOM     19  C   UNL d   1      20.691 -19.036  -1.273  0.00  0.00     0.214 C 
BRANCH  19  20
ATOM     20  C   UNL d   1      19.970 -19.675  -0.118  0.00  0.00    -0.034 C 
ATOM     21  C   UNL d   1      18.822 -20.450  -0.325  0.00  0.00     0.009 C 
ATOM     22  C   UNL d   1      18.061 -20.867   0.767  0.00  0.00     0.001 C 
ATOM     23  C   UNL d   1      18.523 -20.653   2.064  0.00  0.00     0.000 C 
ATOM     24  C   UNL d   1      19.705 -19.951   2.276  0.00  0.00     0.001 C 
ATOM     25  C   UNL d   1      20.427 -19.468   1.189  0.00  0.00     0.009 C 
ENDBRANCH  19  20
ENDBRANCH  18  19
ENDBRANCH  16  18
ENDBRANCH  11  12
ENDBRANCH   8  10
ENDBRANCH   5   6
BRANCH   4  26
ATOM     26  C   UNL d   1      29.999 -12.323  -0.246  0.00  0.00     0.297 C 
BRANCH  26  27
ATOM     27  N   UNL d   1      29.503 -13.763   0.649  0.00  0.00    -0.066 N 
ATOM     28  C   UNL d   1      27.902 -13.549   1.340  0.00  0.00     0.235 C 
ATOM     29  C   UNL d   1      28.035 -13.161   2.800  0.00  0.00     0.029 C 
ATOM     30  C   UNL d   1      29.797 -13.818   3.228  0.00  0.00     0.029 C 
ATOM     31  C   UNL d   1      30.623 -14.045   1.890  0.00  0.00     0.235 C 
ATOM     32  H   UNL d   1      29.474 -14.554  -0.007  0.00  0.00     0.280 HD
ENDBRANCH  26  27
ENDBRANCH   4  26
BRANCH   1  33
ATOM     33  C   UNL d   1      28.747 -13.675  -5.088  0.00  0.00     0.225 C 
ATOM     34  N   UNL d   1      29.207 -14.909  -5.366  0.00  0.00    -0.081 NA
ATOM     35  O   UNL d   1      28.146 -15.564  -5.999  0.00  0.00    -0.103 OA
ATOM     36  N   UNL d   1      26.957 -14.863  -5.861  0.00  0.00    -0.083 NA
ATOM     37  C   UNL d   1      27.280 -13.707  -5.271  0.00  0.00     0.201 C 
BRANCH  37  38
ATOM     38  N   UNL d   1      26.294 -12.973  -4.683  0.00  0.00    -0.379 N 
ATOM     39  H   UNL d   1      25.696 -13.397  -3.962  0.00  0.00     0.158 HD
ATOM     40  H   UNL d   1      26.150 -11.973  -4.754  0.00  0.00     0.158 HD
ENDBRANCH  37  38
ENDBRANCH   1  33
TORSDOF 10
ENDMDL
