MODEL 1
REMARK VINA RESULT:    -8.206      0.000      0.000
REMARK INTER + INTRA:         -11.587
REMARK INTER:                 -10.890
REMARK INTRA:                  -0.697
REMARK CONF_INDEPENDENT:        2.685
REMARK UNBOUND:                -0.697
REMARK  9 active torsions:
REMARK  status: ('A' for Active; 'I' for Inactive)
REMARK    1  A    between atoms: C_9  and  O_10 
REMARK    2  A    between atoms: C_12  and  O_13 
REMARK    3  A    between atoms: C_16  and  C_17 
REMARK    4  A    between atoms: C_17  and  N_18 
REMARK    5  A    between atoms: N_18  and  N_19 
REMARK    6  A    between atoms: N_19  and  C_20 
REMARK    7  A    between atoms: C_20  and  N_21 
REMARK    8  A    between atoms: C_23  and  O_24 
REMARK    9  A    between atoms: C_27  and  C_28 
ROOT
ATOM      1  C   UNL d   1      30.375 -13.975   1.486  0.00  0.00     0.019 C 
ATOM      2  C   UNL d   1      28.834 -13.845   1.170  0.00  0.00    -0.005 C 
ATOM      3  C   UNL d   1      28.323 -15.273   1.087  0.00  0.00     0.013 C 
ATOM      4  C   UNL d   1      26.920 -15.349   0.590  0.00  0.00     0.007 C 
ATOM      5  C   UNL d   1      27.024 -14.790  -0.812  0.00  0.00     0.009 C 
ATOM      6  C   UNL d   1      27.393 -13.169  -0.796  0.00  0.00     0.026 C 
ATOM      7  C   UNL d   1      27.357 -12.623  -2.258  0.00  0.00     0.011 C 
ATOM      8  C   UNL d   1      25.965 -12.653  -2.839  0.00  0.00     0.039 C 
ATOM      9  C   UNL d   1      25.609 -14.066  -2.906  0.00  0.00     0.073 C 
ATOM     10  C   UNL d   1      26.588 -15.006  -3.541  0.00  0.00     0.070 C 
ATOM     11  C   UNL d   1      25.919 -14.279  -5.020  0.00  0.00     0.121 C 
ATOM     12  C   UNL d   1      25.906 -15.575  -4.493  0.00  0.00     0.033 C 
ATOM     13  C   UNL d   1      24.837 -15.269  -2.555  0.00  0.00     0.021 C 
ATOM     14  C   UNL d   1      25.753 -15.248  -1.495  0.00  0.00     0.031 C 
ATOM     15  C   UNL d   1      28.871 -12.890  -0.008  0.00  0.00     0.070 C 
ATOM     16  C   UNL d   1      29.300 -11.601   1.210  0.00  0.00     0.040 C 
ATOM     17  C   UNL d   1      27.927 -11.465   1.688  0.00  0.00     0.013 C 
ATOM     18  C   UNL d   1      27.765 -12.984   2.005  0.00  0.00     0.028 C 
ENDROOT
BRANCH  14  19
ATOM     19  C   UNL d   1      25.071 -16.737  -1.258  0.00  0.00     0.124 C 
BRANCH  19  20
ATOM     20  N   UNL d   1      24.064 -16.882  -0.423  0.00  0.00    -0.188 NA
BRANCH  20  21
ATOM     21  N   UNL d   1      22.854 -17.197  -0.858  0.00  0.00    -0.254 N 
ATOM     22  H   UNL d   1      22.365 -16.508  -1.400  0.00  0.00     0.191 HD
BRANCH  21  23
ATOM     23  C   UNL d   1      22.202 -18.361  -0.567  0.00  0.00     0.185 C 
ATOM     24  S   UNL d   1      20.651 -18.579  -1.120  0.00  0.00    -0.040 SA
BRANCH  23  25
ATOM     25  N   UNL d   1      22.816 -19.326   0.157  0.00  0.00    -0.375 N 
ATOM     26  H   UNL d   1      23.724 -19.179   0.577  0.00  0.00     0.158 HD
ATOM     27  H   UNL d   1      22.347 -20.213   0.311  0.00  0.00     0.158 HD
ENDBRANCH  23  25
ENDBRANCH  21  23
ENDBRANCH  20  21
ENDBRANCH  19  20
ENDBRANCH  14  19
BRANCH   9  28
ATOM     28  O   UNL d   1      23.985 -13.974  -3.735  0.00  0.00    -0.389 OA
ATOM     29  H   UNL d   1      23.913 -13.629  -4.644  0.00  0.00     0.210 HD
ENDBRANCH   9  28
BRANCH  11  30
ATOM     30  O   UNL d   1      26.887 -13.497  -5.634  0.00  0.00    -0.395 OA
ATOM     31  H   UNL d   1      27.701 -13.578  -5.124  0.00  0.00     0.210 HD
ENDBRANCH  11  30
BRANCH  15  32
ATOM     32  O   UNL d   1      29.852 -13.306  -0.948  0.00  0.00    -0.389 OA
ATOM     33  H   UNL d   1      30.630 -12.723  -0.820  0.00  0.00     0.210 HD
ENDBRANCH  15  32
BRANCH  18  34
ATOM     34  C   UNL d   1      27.755 -13.386   3.423  0.00  0.00    -0.045 A 
ATOM     35  C   UNL d   1      27.726 -12.491   4.396  0.00  0.00     0.087 A 
ATOM     36  C   UNL d   1      27.824 -13.251   5.626  0.00  0.00     0.283 A 
ATOM     37  O   UNL d   1      27.902 -12.754   6.730  0.00  0.00    -0.260 OA
ATOM     38  O   UNL d   1      27.850 -14.579   5.369  0.00  0.00    -0.314 OA
ATOM     39  C   UNL d   1      27.780 -14.761   3.971  0.00  0.00     0.213 A 
ENDBRANCH  18  34
TORSDOF 9
ENDMDL
MODEL 2
REMARK VINA RESULT:    -7.484      3.155      4.864
REMARK INTER + INTRA:         -10.855
REMARK INTER:                 -10.169
REMARK INTRA:                  -0.686
REMARK CONF_INDEPENDENT:        2.685
REMARK UNBOUND:                -0.686
REMARK  9 active torsions:
REMARK  status: ('A' for Active; 'I' for Inactive)
REMARK    1  A    between atoms: C_9  and  O_10 
REMARK    2  A    between atoms: C_12  and  O_13 
REMARK    3  A    between atoms: C_16  and  C_17 
REMARK    4  A    between atoms: C_17  and  N_18 
REMARK    5  A    between atoms: N_18  and  N_19 
REMARK    6  A    between atoms: N_19  and  C_20 
REMARK    7  A    between atoms: C_20  and  N_21 
REMARK    8  A    between atoms: C_23  and  O_24 
REMARK    9  A    between atoms: C_27  and  C_28 
ROOT
ATOM      1  C   UNL d   1      28.344 -12.769   4.977  0.00  0.00     0.019 C 
ATOM      2  C   UNL d   1      28.371 -12.682   3.401  0.00  0.00    -0.005 C 
ATOM      3  C   UNL d   1      27.029 -13.231   2.949  0.00  0.00     0.013 C 
ATOM      4  C   UNL d   1      26.957 -13.417   1.472  0.00  0.00     0.007 C 
ATOM      5  C   UNL d   1      28.022 -14.459   1.207  0.00  0.00     0.009 C 
ATOM      6  C   UNL d   1      29.546 -13.861   1.496  0.00  0.00     0.026 C 
ATOM      7  C   UNL d   1      30.602 -14.933   1.082  0.00  0.00     0.011 C 
ATOM      8  C   UNL d   1      30.605 -15.178  -0.407  0.00  0.00     0.039 C 
ATOM      9  C   UNL d   1      29.293 -15.738  -0.705  0.00  0.00     0.073 C 
ATOM     10  C   UNL d   1      28.815 -16.887   0.131  0.00  0.00     0.070 C 
ATOM     11  C   UNL d   1      29.955 -17.771  -0.910  0.00  0.00     0.121 C 
ATOM     12  C   UNL d   1      28.568 -17.827  -0.737  0.00  0.00     0.033 C 
ATOM     13  C   UNL d   1      27.954 -15.758  -1.315  0.00  0.00     0.021 C 
ATOM     14  C   UNL d   1      27.691 -14.993  -0.171  0.00  0.00     0.031 C 
ATOM     15  C   UNL d   1      29.701 -13.349   3.108  0.00  0.00     0.070 C 
ATOM     16  C   UNL d   1      30.468 -11.828   3.763  0.00  0.00     0.040 C 
ATOM     17  C   UNL d   1      30.218 -11.066   2.543  0.00  0.00     0.013 C 
ATOM     18  C   UNL d   1      28.687 -11.369   2.530  0.00  0.00     0.028 C 
ENDROOT
BRANCH  14  19
ATOM     19  C   UNL d   1      26.146 -15.248  -0.708  0.00  0.00     0.124 C 
BRANCH  19  20
ATOM     20  N   UNL d   1      25.886 -15.266  -1.998  0.00  0.00    -0.188 NA
BRANCH  20  21
ATOM     21  N   UNL d   1      25.793 -14.144  -2.693  0.00  0.00    -0.254 N 
ATOM     22  H   UNL d   1      25.771 -13.282  -2.177  0.00  0.00     0.191 HD
BRANCH  21  23
ATOM     23  C   UNL d   1      25.657 -14.078  -4.049  0.00  0.00     0.185 C 
ATOM     24  S   UNL d   1      26.682 -14.963  -5.010  0.00  0.00    -0.040 SA
BRANCH  23  25
ATOM     25  N   UNL d   1      24.693 -13.306  -4.603  0.00  0.00    -0.375 N 
ATOM     26  H   UNL d   1      24.779 -12.299  -4.648  0.00  0.00     0.158 HD
ATOM     27  H   UNL d   1      23.872 -13.742  -5.011  0.00  0.00     0.158 HD
ENDBRANCH  23  25
ENDBRANCH  21  23
ENDBRANCH  20  21
ENDBRANCH  19  20
ENDBRANCH  14  19
BRANCH   9  28
ATOM     28  O   UNL d   1      29.472 -16.107  -2.485  0.00  0.00    -0.389 OA
ATOM     29  H   UNL d   1      30.284 -16.525  -2.824  0.00  0.00     0.210 HD
ENDBRANCH   9  28
BRANCH  11  30
ATOM     30  O   UNL d   1      31.040 -18.198  -0.156  0.00  0.00    -0.395 OA
ATOM     31  H   UNL d   1      30.781 -18.177   0.772  0.00  0.00     0.210 HD
ENDBRANCH  11  30
BRANCH  15  32
ATOM     32  O   UNL d   1      29.819 -14.557   3.848  0.00  0.00    -0.389 OA
ATOM     33  H   UNL d   1      29.539 -15.282   3.250  0.00  0.00     0.210 HD
ENDBRANCH  15  32
BRANCH  18  34
ATOM     34  C   UNL d   1      27.773 -10.267   2.883  0.00  0.00    -0.045 A 
ATOM     35  C   UNL d   1      26.961  -9.728   1.989  0.00  0.00     0.087 A 
ATOM     36  C   UNL d   1      26.304  -8.632   2.673  0.00  0.00     0.283 A 
ATOM     37  O   UNL d   1      25.538  -7.857   2.139  0.00  0.00    -0.260 OA
ATOM     38  O   UNL d   1      26.689  -8.575   3.969  0.00  0.00    -0.314 OA
ATOM     39  C   UNL d   1      27.616  -9.613   4.202  0.00  0.00     0.213 A 
ENDBRANCH  18  34
TORSDOF 9
ENDMDL
MODEL 3
REMARK VINA RESULT:    -7.247      3.729      7.675
REMARK INTER + INTRA:         -10.967
REMARK INTER:                  -9.932
REMARK INTRA:                  -1.035
REMARK CONF_INDEPENDENT:        2.685
REMARK UNBOUND:                -1.035
REMARK  9 active torsions:
REMARK  status: ('A' for Active; 'I' for Inactive)
REMARK    1  A    between atoms: C_9  and  O_10 
REMARK    2  A    between atoms: C_12  and  O_13 
REMARK    3  A    between atoms: C_16  and  C_17 
REMARK    4  A    between atoms: C_17  and  N_18 
REMARK    5  A    between atoms: N_18  and  N_19 
REMARK    6  A    between atoms: N_19  and  C_20 
REMARK    7  A    between atoms: C_20  and  N_21 
REMARK    8  A    between atoms: C_23  and  O_24 
REMARK    9  A    between atoms: C_27  and  C_28 
ROOT
ATOM      1  C   UNL d   1      29.054 -15.685  -1.579  0.00  0.00     0.019 C 
ATOM      2  C   UNL d   1      28.005 -14.682  -0.960  0.00  0.00    -0.005 C 
ATOM      3  C   UNL d   1      28.432 -13.308  -1.448  0.00  0.00     0.013 C 
ATOM      4  C   UNL d   1      27.670 -12.207  -0.792  0.00  0.00     0.007 C 
ATOM      5  C   UNL d   1      28.058 -12.347   0.665  0.00  0.00     0.009 C 
ATOM      6  C   UNL d   1      27.453 -13.747   1.325  0.00  0.00     0.026 C 
ATOM      7  C   UNL d   1      27.771 -13.770   2.853  0.00  0.00     0.011 C 
ATOM      8  C   UNL d   1      27.030 -12.690   3.601  0.00  0.00     0.039 C 
ATOM      9  C   UNL d   1      27.555 -11.434   3.078  0.00  0.00     0.073 C 
ATOM     10  C   UNL d   1      29.043 -11.266   3.020  0.00  0.00     0.070 C 
ATOM     11  C   UNL d   1      28.813 -10.994   4.762  0.00  0.00     0.121 C 
ATOM     12  C   UNL d   1      29.266 -10.187   3.713  0.00  0.00     0.033 C 
ATOM     13  C   UNL d   1      27.484 -10.148   2.365  0.00  0.00     0.021 C 
ATOM     14  C   UNL d   1      27.676 -11.018   1.283  0.00  0.00     0.031 C 
ATOM     15  C   UNL d   1      28.034 -15.110   0.494  0.00  0.00     0.070 C 
ATOM     16  C   UNL d   1      27.127 -16.596  -0.053  0.00  0.00     0.040 C 
ATOM     17  C   UNL d   1      25.851 -15.894  -0.154  0.00  0.00     0.013 C 
ATOM     18  C   UNL d   1      26.406 -14.780  -1.095  0.00  0.00     0.028 C 
ENDROOT
BRANCH  14  19
ATOM     19  C   UNL d   1      27.873  -9.562   0.521  0.00  0.00     0.124 C 
BRANCH  19  20
ATOM     20  N   UNL d   1      27.033  -9.185  -0.419  0.00  0.00    -0.188 NA
BRANCH  20  21
ATOM     21  N   UNL d   1      27.238  -9.502  -1.687  0.00  0.00    -0.254 N 
ATOM     22  H   UNL d   1      28.183  -9.694  -1.967  0.00  0.00     0.191 HD
BRANCH  21  23
ATOM     23  C   UNL d   1      26.271  -9.521  -2.651  0.00  0.00     0.185 C 
ATOM     24  S   UNL d   1      26.478 -10.486  -3.987  0.00  0.00    -0.040 SA
BRANCH  23  25
ATOM     25  N   UNL d   1      25.155  -8.769  -2.513  0.00  0.00    -0.375 N 
ATOM     26  H   UNL d   1      24.391  -8.825  -3.174  0.00  0.00     0.158 HD
ATOM     27  H   UNL d   1      25.061  -8.150  -1.714  0.00  0.00     0.158 HD
ENDBRANCH  23  25
ENDBRANCH  21  23
ENDBRANCH  20  21
ENDBRANCH  19  20
ENDBRANCH  14  19
BRANCH   9  28
ATOM     28  O   UNL d   1      26.688 -10.228   4.141  0.00  0.00    -0.389 OA
ATOM     29  H   UNL d   1      26.645 -10.362   5.106  0.00  0.00     0.210 HD
ENDBRANCH   9  28
BRANCH  11  30
ATOM     30  O   UNL d   1      29.364 -12.048   5.476  0.00  0.00    -0.395 OA
ATOM     31  H   UNL d   1      30.135 -12.363   4.991  0.00  0.00     0.210 HD
ENDBRANCH  11  30
BRANCH  15  32
ATOM     32  O   UNL d   1      29.376 -15.245   0.941  0.00  0.00    -0.389 OA
ATOM     33  H   UNL d   1      29.424 -16.088   1.440  0.00  0.00     0.210 HD
ENDBRANCH  15  32
BRANCH  18  34
ATOM     34  C   UNL d   1      25.997 -14.819  -2.511  0.00  0.00    -0.045 A 
ATOM     35  C   UNL d   1      26.707 -15.467  -3.419  0.00  0.00     0.087 A 
ATOM     36  C   UNL d   1      26.055 -15.199  -4.685  0.00  0.00     0.283 A 
ATOM     37  O   UNL d   1      26.474 -15.575  -5.760  0.00  0.00    -0.260 OA
ATOM     38  O   UNL d   1      24.943 -14.450  -4.503  0.00  0.00    -0.314 OA
ATOM     39  C   UNL d   1      24.811 -14.181  -3.125  0.00  0.00     0.213 A 
ENDBRANCH  18  34
TORSDOF 9
ENDMDL
MODEL 4
REMARK VINA RESULT:    -7.029      2.137      2.576
REMARK INTER + INTRA:         -10.890
REMARK INTER:                  -9.714
REMARK INTRA:                  -1.176
REMARK CONF_INDEPENDENT:        2.685
REMARK UNBOUND:                -1.176
REMARK  9 active torsions:
REMARK  status: ('A' for Active; 'I' for Inactive)
REMARK    1  A    between atoms: C_9  and  O_10 
REMARK    2  A    between atoms: C_12  and  O_13 
REMARK    3  A    between atoms: C_16  and  C_17 
REMARK    4  A    between atoms: C_17  and  N_18 
REMARK    5  A    between atoms: N_18  and  N_19 
REMARK    6  A    between atoms: N_19  and  C_20 
REMARK    7  A    between atoms: C_20  and  N_21 
REMARK    8  A    between atoms: C_23  and  O_24 
REMARK    9  A    between atoms: C_27  and  C_28 
ROOT
ATOM      1  C   UNL d   1      30.146 -12.652   1.535  0.00  0.00     0.019 C 
ATOM      2  C   UNL d   1      28.616 -12.817   1.184  0.00  0.00    -0.005 C 
ATOM      3  C   UNL d   1      28.368 -14.315   1.177  0.00  0.00     0.013 C 
ATOM      4  C   UNL d   1      27.014 -14.667   0.660  0.00  0.00     0.007 C 
ATOM      5  C   UNL d   1      27.058 -14.176  -0.770  0.00  0.00     0.009 C 
ATOM      6  C   UNL d   1      27.133 -12.517  -0.843  0.00  0.00     0.026 C 
ATOM      7  C   UNL d   1      27.041 -12.067  -2.335  0.00  0.00     0.011 C 
ATOM      8  C   UNL d   1      25.694 -12.377  -2.938  0.00  0.00     0.039 C 
ATOM      9  C   UNL d   1      25.596 -13.832  -2.927  0.00  0.00     0.073 C 
ATOM     10  C   UNL d   1      26.743 -14.616  -3.489  0.00  0.00     0.070 C 
ATOM     11  C   UNL d   1      25.997 -14.102  -5.020  0.00  0.00     0.121 C 
ATOM     12  C   UNL d   1      26.199 -15.348  -4.418  0.00  0.00     0.033 C 
ATOM     13  C   UNL d   1      25.039 -15.132  -2.521  0.00  0.00     0.021 C 
ATOM     14  C   UNL d   1      25.906 -14.890  -1.447  0.00  0.00     0.031 C 
ATOM     15  C   UNL d   1      28.516 -11.936  -0.047  0.00  0.00     0.070 C 
ATOM     16  C   UNL d   1      28.676 -10.526   1.100  0.00  0.00     0.040 C 
ATOM     17  C   UNL d   1      27.288 -10.611   1.546  0.00  0.00     0.013 C 
ATOM     18  C   UNL d   1      27.388 -12.116   1.948  0.00  0.00     0.028 C 
ENDROOT
BRANCH  14  19
ATOM     19  C   UNL d   1      25.493 -16.462  -1.135  0.00  0.00     0.124 C 
BRANCH  19  20
ATOM     20  N   UNL d   1      26.399 -17.413  -1.202  0.00  0.00    -0.188 NA
BRANCH  20  21
ATOM     21  N   UNL d   1      27.430 -17.436  -0.372  0.00  0.00    -0.254 N 
ATOM     22  H   UNL d   1      27.245 -17.674   0.586  0.00  0.00     0.191 HD
BRANCH  21  23
ATOM     23  C   UNL d   1      28.708 -17.095  -0.710  0.00  0.00     0.185 C 
ATOM     24  S   UNL d   1      29.049 -16.690  -2.284  0.00  0.00    -0.040 SA
BRANCH  23  25
ATOM     25  N   UNL d   1      29.682 -17.080   0.230  0.00  0.00    -0.375 N 
ATOM     26  H   UNL d   1      29.708 -16.379   0.959  0.00  0.00     0.158 HD
ATOM     27  H   UNL d   1      30.392 -17.805   0.228  0.00  0.00     0.158 HD
ENDBRANCH  23  25
ENDBRANCH  21  23
ENDBRANCH  20  21
ENDBRANCH  19  20
ENDBRANCH  14  19
BRANCH   9  28
ATOM     28  O   UNL d   1      24.004 -14.076  -3.790  0.00  0.00    -0.389 OA
ATOM     29  H   UNL d   1      23.833 -13.639  -4.644  0.00  0.00     0.210 HD
ENDBRANCH   9  28
BRANCH  11  30
ATOM     30  O   UNL d   1      26.828 -13.194  -5.661  0.00  0.00    -0.395 OA
ATOM     31  H   UNL d   1      27.467 -12.870  -5.017  0.00  0.00     0.210 HD
ENDBRANCH  11  30
BRANCH  15  32
ATOM     32  O   UNL d   1      29.581 -12.222  -0.944  0.00  0.00    -0.389 OA
ATOM     33  H   UNL d   1      29.680 -13.198  -0.961  0.00  0.00     0.210 HD
ENDBRANCH  15  32
BRANCH  18  34
ATOM     34  C   UNL d   1      27.410 -12.435   3.387  0.00  0.00    -0.045 A 
ATOM     35  C   UNL d   1      27.803 -11.548   4.287  0.00  0.00     0.087 A 
ATOM     36  C   UNL d   1      27.781 -12.248   5.556  0.00  0.00     0.283 A 
ATOM     37  O   UNL d   1      28.154 -11.767   6.606  0.00  0.00    -0.260 OA
ATOM     38  O   UNL d   1      27.323 -13.512   5.400  0.00  0.00    -0.314 OA
ATOM     39  C   UNL d   1      27.030 -13.711   4.034  0.00  0.00     0.213 A 
ENDBRANCH  18  34
TORSDOF 9
ENDMDL
MODEL 5
REMARK VINA RESULT:    -6.969      4.200      8.167
REMARK INTER + INTRA:         -11.264
REMARK INTER:                  -9.654
REMARK INTRA:                  -1.611
REMARK CONF_INDEPENDENT:        2.685
REMARK UNBOUND:                -1.611
REMARK  9 active torsions:
REMARK  status: ('A' for Active; 'I' for Inactive)
REMARK    1  A    between atoms: C_9  and  O_10 
REMARK    2  A    between atoms: C_12  and  O_13 
REMARK    3  A    between atoms: C_16  and  C_17 
REMARK    4  A    between atoms: C_17  and  N_18 
REMARK    5  A    between atoms: N_18  and  N_19 
REMARK    6  A    between atoms: N_19  and  C_20 
REMARK    7  A    between atoms: C_20  and  N_21 
REMARK    8  A    between atoms: C_23  and  O_24 
REMARK    9  A    between atoms: C_27  and  C_28 
ROOT
ATOM      1  C   UNL d   1      29.343 -15.900  -1.919  0.00  0.00     0.019 C 
ATOM      2  C   UNL d   1      28.327 -15.082  -1.031  0.00  0.00    -0.005 C 
ATOM      3  C   UNL d   1      28.631 -13.622  -1.321  0.00  0.00     0.013 C 
ATOM      4  C   UNL d   1      27.901 -12.695  -0.409  0.00  0.00     0.007 C 
ATOM      5  C   UNL d   1      28.460 -13.046   0.953  0.00  0.00     0.009 C 
ATOM      6  C   UNL d   1      28.000 -14.572   1.426  0.00  0.00     0.026 C 
ATOM      7  C   UNL d   1      28.493 -14.825   2.885  0.00  0.00     0.011 C 
ATOM      8  C   UNL d   1      27.795 -13.932   3.880  0.00  0.00     0.039 C 
ATOM      9  C   UNL d   1      28.198 -12.576   3.525  0.00  0.00     0.073 C 
ATOM     10  C   UNL d   1      29.660 -12.305   3.339  0.00  0.00     0.070 C 
ATOM     11  C   UNL d   1      29.620 -12.337   5.117  0.00  0.00     0.121 C 
ATOM     12  C   UNL d   1      29.912 -11.342   4.178  0.00  0.00     0.033 C 
ATOM     13  C   UNL d   1      27.986 -11.198   3.053  0.00  0.00     0.021 C 
ATOM     14  C   UNL d   1      28.092 -11.865   1.825  0.00  0.00     0.031 C 
ATOM     15  C   UNL d   1      28.543 -15.740   0.318  0.00  0.00     0.070 C 
ATOM     16  C   UNL d   1      27.648 -17.171  -0.375  0.00  0.00     0.040 C 
ATOM     17  C   UNL d   1      26.338 -16.546  -0.219  0.00  0.00     0.013 C 
ATOM     18  C   UNL d   1      26.730 -15.259  -1.010  0.00  0.00     0.028 C 
ENDROOT
BRANCH  14  19
ATOM     19  C   UNL d   1      28.133 -10.294   1.305  0.00  0.00     0.124 C 
BRANCH  19  20
ATOM     20  N   UNL d   1      27.210  -9.440   1.696  0.00  0.00    -0.188 NA
BRANCH  20  21
ATOM     21  N   UNL d   1      27.538  -8.252   2.178  0.00  0.00    -0.254 N 
ATOM     22  H   UNL d   1      27.951  -7.594   1.542  0.00  0.00     0.191 HD
BRANCH  21  23
ATOM     23  C   UNL d   1      27.416  -7.883   3.486  0.00  0.00     0.185 C 
ATOM     24  S   UNL d   1      27.753  -6.315   3.920  0.00  0.00    -0.040 SA
BRANCH  23  25
ATOM     25  N   UNL d   1      27.018  -8.782   4.416  0.00  0.00    -0.375 N 
ATOM     26  H   UNL d   1      26.978  -8.549   5.400  0.00  0.00     0.158 HD
ATOM     27  H   UNL d   1      26.722  -9.709   4.125  0.00  0.00     0.158 HD
ENDBRANCH  23  25
ENDBRANCH  21  23
ENDBRANCH  20  21
ENDBRANCH  19  20
ENDBRANCH  14  19
BRANCH   9  28
ATOM     28  O   UNL d   1      27.405 -11.619   4.864  0.00  0.00    -0.389 OA
ATOM     29  H   UNL d   1      27.323 -11.996   5.759  0.00  0.00     0.210 HD
ENDBRANCH   9  28
BRANCH  11  30
ATOM     30  O   UNL d   1      30.298 -13.457   5.578  0.00  0.00    -0.395 OA
ATOM     31  H   UNL d   1      31.226 -13.360   5.340  0.00  0.00     0.210 HD
ENDBRANCH  11  30
BRANCH  15  32
ATOM     32  O   UNL d   1      29.933 -15.859   0.590  0.00  0.00    -0.389 OA
ATOM     33  H   UNL d   1      30.019 -16.470   1.353  0.00  0.00     0.210 HD
ENDBRANCH  15  32
BRANCH  18  34
ATOM     34  C   UNL d   1      26.162 -15.092  -2.360  0.00  0.00    -0.045 A 
ATOM     35  C   UNL d   1      26.771 -15.572  -3.432  0.00  0.00     0.087 A 
ATOM     36  C   UNL d   1      25.976 -15.132  -4.560  0.00  0.00     0.283 A 
ATOM     37  O   UNL d   1      26.273 -15.326  -5.721  0.00  0.00    -0.260 OA
ATOM     38  O   UNL d   1      24.883 -14.452  -4.142  0.00  0.00    -0.314 OA
ATOM     39  C   UNL d   1      24.906 -14.402  -2.732  0.00  0.00     0.213 A 
ENDBRANCH  18  34
TORSDOF 9
ENDMDL
MODEL 6
REMARK VINA RESULT:    -6.831      2.648      4.304
REMARK INTER + INTRA:         -10.560
REMARK INTER:                  -9.516
REMARK INTRA:                  -1.044
REMARK CONF_INDEPENDENT:        2.685
REMARK UNBOUND:                -1.044
REMARK  9 active torsions:
REMARK  status: ('A' for Active; 'I' for Inactive)
REMARK    1  A    between atoms: C_9  and  O_10 
REMARK    2  A    between atoms: C_12  and  O_13 
REMARK    3  A    between atoms: C_16  and  C_17 
REMARK    4  A    between atoms: C_17  and  N_18 
REMARK    5  A    between atoms: N_18  and  N_19 
REMARK    6  A    between atoms: N_19  and  C_20 
REMARK    7  A    between atoms: C_20  and  N_21 
REMARK    8  A    between atoms: C_23  and  O_24 
REMARK    9  A    between atoms: C_27  and  C_28 
ROOT
ATOM      1  C   UNL d   1      28.142 -12.791   4.846  0.00  0.00     0.019 C 
ATOM      2  C   UNL d   1      28.266 -12.672   3.278  0.00  0.00    -0.005 C 
ATOM      3  C   UNL d   1      26.943 -13.186   2.734  0.00  0.00     0.013 C 
ATOM      4  C   UNL d   1      26.957 -13.340   1.252  0.00  0.00     0.007 C 
ATOM      5  C   UNL d   1      28.017 -14.397   1.029  0.00  0.00     0.009 C 
ATOM      6  C   UNL d   1      29.531 -13.835   1.421  0.00  0.00     0.026 C 
ATOM      7  C   UNL d   1      30.591 -14.919   1.047  0.00  0.00     0.011 C 
ATOM      8  C   UNL d   1      30.679 -15.133  -0.443  0.00  0.00     0.039 C 
ATOM      9  C   UNL d   1      29.377 -15.662  -0.831  0.00  0.00     0.073 C 
ATOM     10  C   UNL d   1      28.828 -16.818  -0.051  0.00  0.00     0.070 C 
ATOM     11  C   UNL d   1      30.013 -17.702  -1.040  0.00  0.00     0.121 C 
ATOM     12  C   UNL d   1      28.617 -17.734  -0.952  0.00  0.00     0.033 C 
ATOM     13  C   UNL d   1      28.077 -15.642  -1.521  0.00  0.00     0.021 C 
ATOM     14  C   UNL d   1      27.760 -14.896  -0.378  0.00  0.00     0.031 C 
ATOM     15  C   UNL d   1      29.598 -13.359   3.050  0.00  0.00     0.070 C 
ATOM     16  C   UNL d   1      30.353 -11.868   3.782  0.00  0.00     0.040 C 
ATOM     17  C   UNL d   1      30.190 -11.076   2.566  0.00  0.00     0.013 C 
ATOM     18  C   UNL d   1      28.658 -11.348   2.455  0.00  0.00     0.028 C 
ENDROOT
BRANCH  14  19
ATOM     19  C   UNL d   1      26.246 -15.109  -1.012  0.00  0.00     0.124 C 
BRANCH  19  20
ATOM     20  N   UNL d   1      25.946 -16.215  -1.659  0.00  0.00    -0.188 NA
BRANCH  20  21
ATOM     21  N   UNL d   1      24.789 -16.828  -1.469  0.00  0.00    -0.254 N 
ATOM     22  H   UNL d   1      24.013 -16.533  -2.035  0.00  0.00     0.191 HD
BRANCH  21  23
ATOM     23  C   UNL d   1      24.559 -17.779  -0.518  0.00  0.00     0.185 C 
ATOM     24  S   UNL d   1      23.078 -18.530  -0.465  0.00  0.00    -0.040 SA
BRANCH  23  25
ATOM     25  N   UNL d   1      25.529 -18.110   0.366  0.00  0.00    -0.375 N 
ATOM     26  H   UNL d   1      25.313 -18.371   1.319  0.00  0.00     0.158 HD
ATOM     27  H   UNL d   1      26.498 -18.128   0.065  0.00  0.00     0.158 HD
ENDBRANCH  23  25
ENDBRANCH  21  23
ENDBRANCH  20  21
ENDBRANCH  19  20
ENDBRANCH  14  19
BRANCH   9  28
ATOM     28  O   UNL d   1      29.656 -15.997  -2.605  0.00  0.00    -0.389 OA
ATOM     29  H   UNL d   1      30.554 -15.960  -2.979  0.00  0.00     0.210 HD
ENDBRANCH   9  28
BRANCH  11  30
ATOM     30  O   UNL d   1      31.042 -18.165  -0.232  0.00  0.00    -0.395 OA
ATOM     31  H   UNL d   1      30.657 -18.447   0.605  0.00  0.00     0.210 HD
ENDBRANCH  11  30
BRANCH  15  32
ATOM     32  O   UNL d   1      29.650 -14.584   3.770  0.00  0.00    -0.389 OA
ATOM     33  H   UNL d   1      29.094 -15.224   3.276  0.00  0.00     0.210 HD
ENDBRANCH  15  32
BRANCH  18  34
ATOM     34  C   UNL d   1      27.744 -10.236   2.777  0.00  0.00    -0.045 A 
ATOM     35  C   UNL d   1      26.947  -9.709   1.863  0.00  0.00     0.087 A 
ATOM     36  C   UNL d   1      26.286  -8.598   2.518  0.00  0.00     0.283 A 
ATOM     37  O   UNL d   1      25.530  -7.830   1.961  0.00  0.00    -0.260 OA
ATOM     38  O   UNL d   1      26.655  -8.519   3.818  0.00  0.00    -0.314 OA
ATOM     39  C   UNL d   1      27.574  -9.558   4.081  0.00  0.00     0.213 A 
ENDBRANCH  18  34
TORSDOF 9
ENDMDL
MODEL 7
REMARK VINA RESULT:    -6.286      4.048      7.465
REMARK INTER + INTRA:         -10.212
REMARK INTER:                  -8.970
REMARK INTRA:                  -1.242
REMARK CONF_INDEPENDENT:        2.685
REMARK UNBOUND:                -1.242
REMARK  9 active torsions:
REMARK  status: ('A' for Active; 'I' for Inactive)
REMARK    1  A    between atoms: C_9  and  O_10 
REMARK    2  A    between atoms: C_12  and  O_13 
REMARK    3  A    between atoms: C_16  and  C_17 
REMARK    4  A    between atoms: C_17  and  N_18 
REMARK    5  A    between atoms: N_18  and  N_19 
REMARK    6  A    between atoms: N_19  and  C_20 
REMARK    7  A    between atoms: C_20  and  N_21 
REMARK    8  A    between atoms: C_23  and  O_24 
REMARK    9  A    between atoms: C_27  and  C_28 
ROOT
ATOM      1  C   UNL d   1      26.177 -13.800  -2.293  0.00  0.00     0.019 C 
ATOM      2  C   UNL d   1      26.921 -14.591  -1.148  0.00  0.00    -0.005 C 
ATOM      3  C   UNL d   1      26.303 -14.092   0.147  0.00  0.00     0.013 C 
ATOM      4  C   UNL d   1      27.030 -14.584   1.352  0.00  0.00     0.007 C 
ATOM      5  C   UNL d   1      28.402 -13.964   1.199  0.00  0.00     0.009 C 
ATOM      6  C   UNL d   1      29.221 -14.608  -0.096  0.00  0.00     0.026 C 
ATOM      7  C   UNL d   1      30.670 -14.029  -0.123  0.00  0.00     0.011 C 
ATOM      8  C   UNL d   1      31.484 -14.487   1.062  0.00  0.00     0.039 C 
ATOM      9  C   UNL d   1      30.820 -13.913   2.226  0.00  0.00     0.073 C 
ATOM     10  C   UNL d   1      30.497 -12.450   2.199  0.00  0.00     0.070 C 
ATOM     11  C   UNL d   1      32.239 -12.331   2.541  0.00  0.00     0.121 C 
ATOM     12  C   UNL d   1      31.091 -11.976   3.257  0.00  0.00     0.033 C 
ATOM     13  C   UNL d   1      30.072 -13.951   3.493  0.00  0.00     0.021 C 
ATOM     14  C   UNL d   1      29.015 -14.063   2.580  0.00  0.00     0.031 C 
ATOM     15  C   UNL d   1      28.366 -14.356  -1.542  0.00  0.00     0.070 C 
ATOM     16  C   UNL d   1      28.054 -15.521  -2.911  0.00  0.00     0.040 C 
ATOM     17  C   UNL d   1      28.143 -16.699  -2.053  0.00  0.00     0.013 C 
ATOM     18  C   UNL d   1      27.069 -16.188  -1.042  0.00  0.00     0.028 C 
ENDROOT
BRANCH  14  19
ATOM     19  C   UNL d   1      28.163 -13.827   3.979  0.00  0.00     0.124 C 
BRANCH  19  20
ATOM     20  N   UNL d   1      27.998 -14.816   4.831  0.00  0.00    -0.188 NA
BRANCH  20  21
ATOM     21  N   UNL d   1      28.620 -14.824   6.000  0.00  0.00    -0.254 N 
ATOM     22  H   UNL d   1      28.533 -15.651   6.563  0.00  0.00     0.191 HD
BRANCH  21  23
ATOM     23  C   UNL d   1      29.312 -13.769   6.520  0.00  0.00     0.185 C 
ATOM     24  S   UNL d   1      28.482 -12.569   7.314  0.00  0.00    -0.040 SA
BRANCH  23  25
ATOM     25  N   UNL d   1      30.658 -13.707   6.395  0.00  0.00    -0.375 N 
ATOM     26  H   UNL d   1      31.260 -13.560   7.195  0.00  0.00     0.158 HD
ATOM     27  H   UNL d   1      31.085 -13.838   5.484  0.00  0.00     0.158 HD
ENDBRANCH  23  25
ENDBRANCH  21  23
ENDBRANCH  20  21
ENDBRANCH  19  20
ENDBRANCH  14  19
BRANCH   9  28
ATOM     28  O   UNL d   1      31.961 -14.422   3.559  0.00  0.00    -0.389 OA
ATOM     29  H   UNL d   1      32.068 -13.871   4.355  0.00  0.00     0.210 HD
ENDBRANCH   9  28
BRANCH  11  30
ATOM     30  O   UNL d   1      32.894 -11.796   1.441  0.00  0.00    -0.395 OA
ATOM     31  H   UNL d   1      33.340 -12.516   0.983  0.00  0.00     0.210 HD
ENDBRANCH  11  30
BRANCH  15  32
ATOM     32  O   UNL d   1      28.579 -12.983  -1.838  0.00  0.00    -0.389 OA
ATOM     33  H   UNL d   1      28.479 -12.494  -0.993  0.00  0.00     0.210 HD
ENDBRANCH  15  32
BRANCH  18  34
ATOM     34  C   UNL d   1      25.749 -16.844  -1.062  0.00  0.00    -0.045 A 
ATOM     35  C   UNL d   1      25.420 -17.762  -0.169  0.00  0.00     0.087 A 
ATOM     36  C   UNL d   1      24.109 -18.236  -0.566  0.00  0.00     0.283 A 
ATOM     37  O   UNL d   1      23.516 -19.141  -0.017  0.00  0.00    -0.260 OA
ATOM     38  O   UNL d   1      23.659 -17.556  -1.646  0.00  0.00    -0.314 OA
ATOM     39  C   UNL d   1      24.642 -16.615  -2.018  0.00  0.00     0.213 A 
ENDBRANCH  18  34
TORSDOF 9
ENDMDL
MODEL 8
REMARK VINA RESULT:    -6.254      4.511      8.393
REMARK INTER + INTRA:         -10.469
REMARK INTER:                  -8.939
REMARK INTRA:                  -1.530
REMARK CONF_INDEPENDENT:        2.685
REMARK UNBOUND:                -1.530
REMARK  9 active torsions:
REMARK  status: ('A' for Active; 'I' for Inactive)
REMARK    1  A    between atoms: C_9  and  O_10 
REMARK    2  A    between atoms: C_12  and  O_13 
REMARK    3  A    between atoms: C_16  and  C_17 
REMARK    4  A    between atoms: C_17  and  N_18 
REMARK    5  A    between atoms: N_18  and  N_19 
REMARK    6  A    between atoms: N_19  and  C_20 
REMARK    7  A    between atoms: C_20  and  N_21 
REMARK    8  A    between atoms: C_23  and  O_24 
REMARK    9  A    between atoms: C_27  and  C_28 
ROOT
ATOM      1  C   UNL d   1      29.341 -15.340  -1.529  0.00  0.00     0.019 C 
ATOM      2  C   UNL d   1      28.321 -14.580  -0.595  0.00  0.00    -0.005 C 
ATOM      3  C   UNL d   1      28.598 -13.104  -0.821  0.00  0.00     0.013 C 
ATOM      4  C   UNL d   1      27.862 -12.232   0.139  0.00  0.00     0.007 C 
ATOM      5  C   UNL d   1      28.441 -12.634   1.478  0.00  0.00     0.009 C 
ATOM      6  C   UNL d   1      28.013 -14.188   1.886  0.00  0.00     0.026 C 
ATOM      7  C   UNL d   1      28.526 -14.497   3.327  0.00  0.00     0.011 C 
ATOM      8  C   UNL d   1      27.824 -13.662   4.369  0.00  0.00     0.039 C 
ATOM      9  C   UNL d   1      28.199 -12.285   4.071  0.00  0.00     0.073 C 
ATOM     10  C   UNL d   1      29.655 -11.980   3.883  0.00  0.00     0.070 C 
ATOM     11  C   UNL d   1      29.635 -12.094   5.658  0.00  0.00     0.121 C 
ATOM     12  C   UNL d   1      29.899 -11.052   4.762  0.00  0.00     0.033 C 
ATOM     13  C   UNL d   1      27.959 -10.891   3.664  0.00  0.00     0.021 C 
ATOM     14  C   UNL d   1      28.063 -11.500   2.407  0.00  0.00     0.031 C 
ATOM     15  C   UNL d   1      28.564 -15.295   0.721  0.00  0.00     0.070 C 
ATOM     16  C   UNL d   1      27.686 -16.709  -0.027  0.00  0.00     0.040 C 
ATOM     17  C   UNL d   1      26.367 -16.114   0.171  0.00  0.00     0.013 C 
ATOM     18  C   UNL d   1      26.728 -14.787  -0.566  0.00  0.00     0.028 C 
ENDROOT
BRANCH  14  19
ATOM     19  C   UNL d   1      28.071  -9.907   1.958  0.00  0.00     0.124 C 
BRANCH  19  20
ATOM     20  N   UNL d   1      27.591  -8.986   2.766  0.00  0.00    -0.188 NA
BRANCH  20  21
ATOM     21  N   UNL d   1      28.353  -7.997   3.207  0.00  0.00    -0.254 N 
ATOM     22  H   UNL d   1      28.849  -7.457   2.521  0.00  0.00     0.191 HD
BRANCH  21  23
ATOM     23  C   UNL d   1      28.563  -7.704   4.523  0.00  0.00     0.185 C 
ATOM     24  S   UNL d   1      29.787  -6.659   4.935  0.00  0.00    -0.040 SA
BRANCH  23  25
ATOM     25  N   UNL d   1      27.779  -8.254   5.479  0.00  0.00    -0.375 N 
ATOM     26  H   UNL d   1      27.392  -7.701   6.233  0.00  0.00     0.158 HD
ATOM     27  H   UNL d   1      27.544  -9.240   5.431  0.00  0.00     0.158 HD
ENDBRANCH  23  25
ENDBRANCH  21  23
ENDBRANCH  20  21
ENDBRANCH  19  20
ENDBRANCH  14  19
BRANCH   9  28
ATOM     28  O   UNL d   1      27.405 -11.404   5.460  0.00  0.00    -0.389 OA
ATOM     29  H   UNL d   1      27.481 -11.745   6.370  0.00  0.00     0.210 HD
ENDBRANCH   9  28
BRANCH  11  30
ATOM     30  O   UNL d   1      30.336 -13.221   6.061  0.00  0.00    -0.395 OA
ATOM     31  H   UNL d   1      30.932 -13.471   5.345  0.00  0.00     0.210 HD
ENDBRANCH  11  30
BRANCH  15  32
ATOM     32  O   UNL d   1      29.958 -15.402   0.973  0.00  0.00    -0.389 OA
ATOM     33  H   UNL d   1      30.056 -15.936   1.790  0.00  0.00     0.210 HD
ENDBRANCH  15  32
BRANCH  18  34
ATOM     34  C   UNL d   1      26.142 -14.569  -1.901  0.00  0.00    -0.045 A 
ATOM     35  C   UNL d   1      26.154 -13.377  -2.476  0.00  0.00     0.087 A 
ATOM     36  C   UNL d   1      25.414 -13.536  -3.712  0.00  0.00     0.283 A 
ATOM     37  O   UNL d   1      25.155 -12.626  -4.472  0.00  0.00    -0.260 OA
ATOM     38  O   UNL d   1      25.027 -14.822  -3.878  0.00  0.00    -0.314 OA
ATOM     39  C   UNL d   1      25.480 -15.568  -2.770  0.00  0.00     0.213 A 
ENDBRANCH  18  34
TORSDOF 9
ENDMDL
MODEL 9
REMARK VINA RESULT:    -6.199      4.516      8.778
REMARK INTER + INTRA:         -10.237
REMARK INTER:                  -8.883
REMARK INTRA:                  -1.353
REMARK CONF_INDEPENDENT:        2.685
REMARK UNBOUND:                -1.353
REMARK  9 active torsions:
REMARK  status: ('A' for Active; 'I' for Inactive)
REMARK    1  A    between atoms: C_9  and  O_10 
REMARK    2  A    between atoms: C_12  and  O_13 
REMARK    3  A    between atoms: C_16  and  C_17 
REMARK    4  A    between atoms: C_17  and  N_18 
REMARK    5  A    between atoms: N_18  and  N_19 
REMARK    6  A    between atoms: N_19  and  C_20 
REMARK    7  A    between atoms: C_20  and  N_21 
REMARK    8  A    between atoms: C_23  and  O_24 
REMARK    9  A    between atoms: C_27  and  C_28 
ROOT
ATOM      1  C   UNL d   1      25.750  -9.381   2.080  0.00  0.00     0.019 C 
ATOM      2  C   UNL d   1      27.086 -10.147   2.422  0.00  0.00    -0.005 C 
ATOM      3  C   UNL d   1      26.655 -11.557   2.786  0.00  0.00     0.013 C 
ATOM      4  C   UNL d   1      27.775 -12.371   3.339  0.00  0.00     0.007 C 
ATOM      5  C   UNL d   1      28.140 -11.631   4.608  0.00  0.00     0.009 C 
ATOM      6  C   UNL d   1      28.806 -10.144   4.278  0.00  0.00     0.026 C 
ATOM      7  C   UNL d   1      29.280  -9.489   5.612  0.00  0.00     0.011 C 
ATOM      8  C   UNL d   1      30.425 -10.247   6.238  0.00  0.00     0.039 C 
ATOM      9  C   UNL d   1      29.877 -11.554   6.579  0.00  0.00     0.073 C 
ATOM     10  C   UNL d   1      28.588 -11.597   7.343  0.00  0.00     0.070 C 
ATOM     11  C   UNL d   1      29.678 -11.176   8.684  0.00  0.00     0.121 C 
ATOM     12  C   UNL d   1      28.876 -12.288   8.409  0.00  0.00     0.033 C 
ATOM     13  C   UNL d   1      29.753 -13.018   6.487  0.00  0.00     0.021 C 
ATOM     14  C   UNL d   1      28.944 -12.634   5.409  0.00  0.00     0.031 C 
ATOM     15  C   UNL d   1      27.721  -9.176   3.398  0.00  0.00     0.070 C 
ATOM     16  C   UNL d   1      28.042  -8.117   1.948  0.00  0.00     0.040 C 
ATOM     17  C   UNL d   1      29.182  -8.913   1.502  0.00  0.00     0.013 C 
ATOM     18  C   UNL d   1      28.384 -10.254   1.479  0.00  0.00     0.028 C 
ENDROOT
BRANCH  14  19
ATOM     19  C   UNL d   1      28.586 -14.249   5.478  0.00  0.00     0.124 C 
BRANCH  19  20
ATOM     20  N   UNL d   1      29.254 -15.109   4.740  0.00  0.00    -0.188 NA
BRANCH  20  21
ATOM     21  N   UNL d   1      30.410 -14.783   4.185  0.00  0.00    -0.254 N 
ATOM     22  H   UNL d   1      31.241 -14.932   4.729  0.00  0.00     0.191 HD
BRANCH  21  23
ATOM     23  C   UNL d   1      30.548 -14.198   2.960  0.00  0.00     0.185 C 
ATOM     24  S   UNL d   1      31.284 -12.712   2.850  0.00  0.00    -0.040 SA
BRANCH  23  25
ATOM     25  N   UNL d   1      30.097 -14.825   1.849  0.00  0.00    -0.375 N 
ATOM     26  H   UNL d   1      29.846 -14.312   1.013  0.00  0.00     0.158 HD
ATOM     27  H   UNL d   1      30.033 -15.837   1.834  0.00  0.00     0.158 HD
ENDBRANCH  23  25
ENDBRANCH  21  23
ENDBRANCH  20  21
ENDBRANCH  19  20
ENDBRANCH  14  19
BRANCH   9  28
ATOM     28  O   UNL d   1      31.301 -12.312   7.435  0.00  0.00    -0.389 OA
ATOM     29  H   UNL d   1      31.873 -12.951   6.972  0.00  0.00     0.210 HD
ENDBRANCH   9  28
BRANCH  11  30
ATOM     30  O   UNL d   1      29.419  -9.879   9.106  0.00  0.00    -0.395 OA
ATOM     31  H   UNL d   1      28.531  -9.862   9.479  0.00  0.00     0.210 HD
ENDBRANCH  11  30
BRANCH  15  32
ATOM     32  O   UNL d   1      26.768  -8.755   4.364  0.00  0.00    -0.389 OA
ATOM     33  H   UNL d   1      26.948  -9.270   5.180  0.00  0.00     0.210 HD
ENDBRANCH  15  32
BRANCH  18  34
ATOM     34  C   UNL d   1      28.035 -10.817   0.162  0.00  0.00    -0.045 A 
ATOM     35  C   UNL d   1      28.057 -12.120  -0.062  0.00  0.00     0.087 A 
ATOM     36  C   UNL d   1      27.757 -12.277  -1.471  0.00  0.00     0.283 A 
ATOM     37  O   UNL d   1      27.762 -13.340  -2.055  0.00  0.00    -0.260 OA
ATOM     38  O   UNL d   1      27.507 -11.077  -2.045  0.00  0.00    -0.314 OA
ATOM     39  C   UNL d   1      27.636 -10.078  -1.057  0.00  0.00     0.213 A 
ENDBRANCH  18  34
TORSDOF 9
ENDMDL
