MODEL 1
REMARK VINA RESULT:    -8.690      0.000      0.000
REMARK INTER + INTRA:         -11.304
REMARK INTER:                 -10.182
REMARK INTRA:                  -1.122
REMARK CONF_INDEPENDENT:        1.492
REMARK UNBOUND:                -1.122
REMARK  5 active torsions:
REMARK  status: ('A' for Active; 'I' for Inactive)
REMARK    1  A    between atoms: O_2  and  C_3 
REMARK    2  A    between atoms: C_9  and  N_10 
REMARK       I    between atoms: N_10  and  C_11 
REMARK    3  A    between atoms: C_13  and  C_11 
REMARK    4  A    between atoms: C_13  and  N_15 
REMARK       I    between atoms: N_15  and  C_16 
REMARK    5  A    between atoms: C_16  and  C_18 
ROOT
ATOM      1  N   UNL d   1      27.271 -14.152  -4.113  0.00  0.00    -0.323 N 
ATOM      2  C   UNL d   1      25.982 -14.565  -3.793  0.00  0.00     0.244 C 
ATOM      3  O   UNL d   1      25.040 -14.617  -4.582  0.00  0.00    -0.271 OA
ATOM      4  H   UNL d   1      27.973 -14.184  -3.383  0.00  0.00     0.169 HD
ENDROOT
BRANCH   2   5
ATOM      5  C   UNL d   1      25.643 -14.894  -2.326  0.00  0.00     0.173 C 
ATOM      6  C   UNL d   1      26.458 -13.780  -1.604  0.00  0.00     0.042 C 
BRANCH   5   7
ATOM      7  N   UNL d   1      26.125 -16.233  -1.856  0.00  0.00    -0.344 N 
ATOM      8  C   UNL d   1      25.645 -17.001  -0.783  0.00  0.00     0.252 C 
ATOM      9  O   UNL d   1      26.413 -17.371   0.080  0.00  0.00    -0.268 OA
ATOM     10  H   UNL d   1      27.137 -16.310  -1.879  0.00  0.00     0.163 HD
BRANCH   8  11
ATOM     11  C   UNL d   1      24.221 -17.488  -0.771  0.00  0.00     0.032 C 
ATOM     12  C   UNL d   1      23.098 -16.663  -0.906  0.00  0.00     0.018 C 
ATOM     13  C   UNL d   1      21.780 -17.202  -0.895  0.00  0.00     0.025 C 
ATOM     14  C   UNL d   1      21.577 -18.564  -0.785  0.00  0.00     0.034 C 
ATOM     15 CL   UNL d   1      20.038 -19.321  -0.831  0.00  0.00    -0.084 Cl
ATOM     16  C   UNL d   1      22.667 -19.335  -0.508  0.00  0.00     0.025 C 
ATOM     17  C   UNL d   1      23.946 -18.786  -0.425  0.00  0.00     0.018 C 
ENDBRANCH   8  11
ENDBRANCH   5   7
ENDBRANCH   2   5
BRANCH   1  18
ATOM     18  C   UNL d   1      27.644 -13.457  -5.331  0.00  0.00     0.069 A 
ATOM     19  C   UNL d   1      27.023 -12.213  -5.607  0.00  0.00     0.039 A 
ATOM     20  C   UNL d   1      27.222 -11.547  -6.845  0.00  0.00    -0.060 A 
ATOM     21  C   UNL d   1      28.012 -12.140  -7.834  0.00  0.00     0.009 A 
ATOM     22  C   UNL d   1      26.604 -10.209  -7.145  0.00  0.00     0.048 C 
ATOM     23  C   UNL d   1      28.594 -13.375  -7.609  0.00  0.00     0.039 A 
ATOM     24  C   UNL d   1      28.409 -14.033  -6.387  0.00  0.00     0.095 A 
BRANCH  24  25
ATOM     25  O   UNL d   1      28.512 -15.405  -6.515  0.00  0.00    -0.354 OA
ATOM     26  C   UNL d   1      29.795 -15.926  -6.200  0.00  0.00     0.210 C 
ENDBRANCH  24  25
ENDBRANCH   1  18
TORSDOF 5
ENDMDL
MODEL 2
REMARK VINA RESULT:    -8.253      4.670      7.583
REMARK INTER + INTRA:         -11.103
REMARK INTER:                  -9.744
REMARK INTRA:                  -1.358
REMARK CONF_INDEPENDENT:        1.492
REMARK UNBOUND:                -1.358
REMARK  5 active torsions:
REMARK  status: ('A' for Active; 'I' for Inactive)
REMARK    1  A    between atoms: O_2  and  C_3 
REMARK    2  A    between atoms: C_9  and  N_10 
REMARK       I    between atoms: N_10  and  C_11 
REMARK    3  A    between atoms: C_13  and  C_11 
REMARK    4  A    between atoms: C_13  and  N_15 
REMARK       I    between atoms: N_15  and  C_16 
REMARK    5  A    between atoms: C_16  and  C_18 
ROOT
ATOM      1  N   UNL d   1      27.861 -14.475   2.744  0.00  0.00    -0.323 N 
ATOM      2  C   UNL d   1      27.237 -14.315   1.511  0.00  0.00     0.244 C 
ATOM      3  O   UNL d   1      26.732 -13.270   1.105  0.00  0.00    -0.271 OA
ATOM      4  H   UNL d   1      28.269 -15.379   2.954  0.00  0.00     0.169 HD
ENDROOT
BRANCH   2   5
ATOM      5  C   UNL d   1      27.054 -15.544   0.598  0.00  0.00     0.173 C 
ATOM      6  C   UNL d   1      28.546 -15.929   0.363  0.00  0.00     0.042 C 
BRANCH   5   7
ATOM      7  N   UNL d   1      26.410 -15.252  -0.723  0.00  0.00    -0.344 N 
ATOM      8  C   UNL d   1      25.768 -16.148  -1.592  0.00  0.00     0.252 C 
ATOM      9  O   UNL d   1      26.130 -16.227  -2.747  0.00  0.00    -0.268 OA
ATOM     10  H   UNL d   1      26.949 -14.595  -1.280  0.00  0.00     0.163 HD
BRANCH   8  11
ATOM     11  C   UNL d   1      24.546 -16.902  -1.142  0.00  0.00     0.032 C 
ATOM     12  C   UNL d   1      23.287 -16.325  -0.937  0.00  0.00     0.018 C 
ATOM     13  C   UNL d   1      22.174 -17.109  -0.520  0.00  0.00     0.025 C 
ATOM     14  C   UNL d   1      22.301 -18.472  -0.339  0.00  0.00     0.034 C 
ATOM     15 CL   UNL d   1      21.010 -19.517   0.094  0.00  0.00    -0.084 Cl
ATOM     16  C   UNL d   1      23.560 -18.993  -0.398  0.00  0.00     0.025 C 
ATOM     17  C   UNL d   1      24.663 -18.200  -0.714  0.00  0.00     0.018 C 
ENDBRANCH   8  11
ENDBRANCH   5   7
ENDBRANCH   2   5
BRANCH   1  18
ATOM     18  C   UNL d   1      27.772 -13.540   3.850  0.00  0.00     0.069 A 
ATOM     19  C   UNL d   1      27.775 -12.153   3.553  0.00  0.00     0.039 A 
ATOM     20  C   UNL d   1      27.841 -11.178   4.583  0.00  0.00    -0.060 A 
ATOM     21  C   UNL d   1      27.946 -11.583   5.917  0.00  0.00     0.009 A 
ATOM     22  C   UNL d   1      27.807  -9.702   4.295  0.00  0.00     0.048 C 
ATOM     23  C   UNL d   1      27.991 -12.929   6.232  0.00  0.00     0.039 A 
ATOM     24  C   UNL d   1      27.917 -13.896   5.222  0.00  0.00     0.095 A 
BRANCH  24  25
ATOM     25  O   UNL d   1      28.547 -15.072   5.582  0.00  0.00    -0.354 OA
ATOM     26  C   UNL d   1      29.872 -15.199   5.087  0.00  0.00     0.210 C 
ENDBRANCH  24  25
ENDBRANCH   1  18
TORSDOF 5
ENDMDL
MODEL 3
REMARK VINA RESULT:    -8.091      1.319      2.433
REMARK INTER + INTRA:         -10.622
REMARK INTER:                  -9.583
REMARK INTRA:                  -1.039
REMARK CONF_INDEPENDENT:        1.492
REMARK UNBOUND:                -1.039
REMARK  5 active torsions:
REMARK  status: ('A' for Active; 'I' for Inactive)
REMARK    1  A    between atoms: O_2  and  C_3 
REMARK    2  A    between atoms: C_9  and  N_10 
REMARK       I    between atoms: N_10  and  C_11 
REMARK    3  A    between atoms: C_13  and  C_11 
REMARK    4  A    between atoms: C_13  and  N_15 
REMARK       I    between atoms: N_15  and  C_16 
REMARK    5  A    between atoms: C_16  and  C_18 
ROOT
ATOM      1  N   UNL d   1      26.698 -13.260  -3.826  0.00  0.00    -0.323 N 
ATOM      2  C   UNL d   1      25.771 -14.241  -3.491  0.00  0.00     0.244 C 
ATOM      3  O   UNL d   1      24.958 -14.741  -4.268  0.00  0.00    -0.271 OA
ATOM      4  H   UNL d   1      27.339 -12.948  -3.105  0.00  0.00     0.169 HD
ENDROOT
BRANCH   2   5
ATOM      5  C   UNL d   1      25.652 -14.689  -2.021  0.00  0.00     0.173 C 
ATOM      6  C   UNL d   1      26.606 -13.658  -1.347  0.00  0.00     0.042 C 
BRANCH   5   7
ATOM      7  N   UNL d   1      26.155 -16.073  -1.745  0.00  0.00    -0.344 N 
ATOM      8  C   UNL d   1      25.720 -16.975  -0.762  0.00  0.00     0.252 C 
ATOM      9  O   UNL d   1      26.521 -17.446   0.018  0.00  0.00    -0.268 OA
ATOM     10  H   UNL d   1      27.167 -16.138  -1.816  0.00  0.00     0.163 HD
BRANCH   8  11
ATOM     11  C   UNL d   1      24.299 -17.471  -0.759  0.00  0.00     0.032 C 
ATOM     12  C   UNL d   1      23.171 -16.652  -0.888  0.00  0.00     0.018 C 
ATOM     13  C   UNL d   1      21.856 -17.199  -0.886  0.00  0.00     0.025 C 
ATOM     14  C   UNL d   1      21.662 -18.563  -0.792  0.00  0.00     0.034 C 
ATOM     15 CL   UNL d   1      20.128 -19.330  -0.850  0.00  0.00    -0.084 Cl
ATOM     16  C   UNL d   1      22.756 -19.331  -0.520  0.00  0.00     0.025 C 
ATOM     17  C   UNL d   1      24.031 -18.775  -0.427  0.00  0.00     0.018 C 
ENDBRANCH   8  11
ENDBRANCH   5   7
ENDBRANCH   2   5
BRANCH   1  18
ATOM     18  C   UNL d   1      26.674 -12.474  -5.046  0.00  0.00     0.069 A 
ATOM     19  C   UNL d   1      27.609 -12.791  -6.063  0.00  0.00     0.039 A 
ATOM     20  C   UNL d   1      27.748 -11.977  -7.218  0.00  0.00    -0.060 A 
ATOM     21  C   UNL d   1      26.980 -10.816  -7.346  0.00  0.00     0.009 A 
ATOM     22  C   UNL d   1      28.705 -12.314  -8.328  0.00  0.00     0.048 C 
ATOM     23  C   UNL d   1      26.092 -10.458  -6.348  0.00  0.00     0.039 A 
ATOM     24  C   UNL d   1      25.944 -11.260  -5.210  0.00  0.00     0.095 A 
BRANCH  24  25
ATOM     25  O   UNL d   1      25.531 -10.532  -4.111  0.00  0.00    -0.354 OA
ATOM     26  C   UNL d   1      26.593 -10.016  -3.321  0.00  0.00     0.210 C 
ENDBRANCH  24  25
ENDBRANCH   1  18
TORSDOF 5
ENDMDL
MODEL 4
REMARK VINA RESULT:    -8.081      1.181      2.431
REMARK INTER + INTRA:         -10.738
REMARK INTER:                  -9.572
REMARK INTRA:                  -1.166
REMARK CONF_INDEPENDENT:        1.492
REMARK UNBOUND:                -1.166
REMARK  5 active torsions:
REMARK  status: ('A' for Active; 'I' for Inactive)
REMARK    1  A    between atoms: O_2  and  C_3 
REMARK    2  A    between atoms: C_9  and  N_10 
REMARK       I    between atoms: N_10  and  C_11 
REMARK    3  A    between atoms: C_13  and  C_11 
REMARK    4  A    between atoms: C_13  and  N_15 
REMARK       I    between atoms: N_15  and  C_16 
REMARK    5  A    between atoms: C_16  and  C_18 
ROOT
ATOM      1  N   UNL d   1      27.756 -15.087  -4.085  0.00  0.00    -0.323 N 
ATOM      2  C   UNL d   1      26.384 -15.198  -3.885  0.00  0.00     0.244 C 
ATOM      3  O   UNL d   1      25.535 -15.156  -4.774  0.00  0.00    -0.271 OA
ATOM      4  H   UNL d   1      28.360 -15.168  -3.275  0.00  0.00     0.169 HD
ENDROOT
BRANCH   2   5
ATOM      5  C   UNL d   1      25.840 -15.277  -2.445  0.00  0.00     0.173 C 
ATOM      6  C   UNL d   1      26.558 -14.044  -1.818  0.00  0.00     0.042 C 
BRANCH   5   7
ATOM      7  N   UNL d   1      26.238 -16.509  -1.692  0.00  0.00    -0.344 N 
ATOM      8  C   UNL d   1      25.634 -17.062  -0.552  0.00  0.00     0.252 C 
ATOM      9  O   UNL d   1      26.302 -17.272   0.440  0.00  0.00    -0.268 OA
ATOM     10  H   UNL d   1      27.246 -16.596  -1.596  0.00  0.00     0.163 HD
BRANCH   8  11
ATOM     11  C   UNL d   1      24.204 -17.530  -0.597  0.00  0.00     0.032 C 
ATOM     12  C   UNL d   1      23.106 -16.701  -0.857  0.00  0.00     0.018 C 
ATOM     13  C   UNL d   1      21.781 -17.221  -0.893  0.00  0.00     0.025 C 
ATOM     14  C   UNL d   1      21.548 -18.570  -0.707  0.00  0.00     0.034 C 
ATOM     15 CL   UNL d   1      20.002 -19.308  -0.800  0.00  0.00    -0.084 Cl
ATOM     16  C   UNL d   1      22.606 -19.335  -0.311  0.00  0.00     0.025 C 
ATOM     17  C   UNL d   1      23.886 -18.798  -0.184  0.00  0.00     0.018 C 
ENDBRANCH   8  11
ENDBRANCH   5   7
ENDBRANCH   2   5
BRANCH   1  18
ATOM     18  C   UNL d   1      28.384 -14.628  -5.310  0.00  0.00     0.069 A 
ATOM     19  C   UNL d   1      29.461 -15.388  -5.833  0.00  0.00     0.039 A 
ATOM     20  C   UNL d   1      30.222 -14.926  -6.939  0.00  0.00    -0.060 A 
ATOM     21  C   UNL d   1      29.937 -13.681  -7.506  0.00  0.00     0.009 A 
ATOM     22  C   UNL d   1      31.343 -15.733  -7.535  0.00  0.00     0.048 C 
ATOM     23  C   UNL d   1      28.921 -12.899  -6.988  0.00  0.00     0.039 A 
ATOM     24  C   UNL d   1      28.162 -13.351  -5.902  0.00  0.00     0.095 A 
BRANCH  24  25
ATOM     25  O   UNL d   1      27.649 -12.308  -5.156  0.00  0.00    -0.354 OA
ATOM     26  C   UNL d   1      26.230 -12.254  -5.125  0.00  0.00     0.210 C 
ENDBRANCH  24  25
ENDBRANCH   1  18
TORSDOF 5
ENDMDL
MODEL 5
REMARK VINA RESULT:    -8.043      1.987      2.776
REMARK INTER + INTRA:         -10.717
REMARK INTER:                  -9.535
REMARK INTRA:                  -1.182
REMARK CONF_INDEPENDENT:        1.492
REMARK UNBOUND:                -1.182
REMARK  5 active torsions:
REMARK  status: ('A' for Active; 'I' for Inactive)
REMARK    1  A    between atoms: O_2  and  C_3 
REMARK    2  A    between atoms: C_9  and  N_10 
REMARK       I    between atoms: N_10  and  C_11 
REMARK    3  A    between atoms: C_13  and  C_11 
REMARK    4  A    between atoms: C_13  and  N_15 
REMARK       I    between atoms: N_15  and  C_16 
REMARK    5  A    between atoms: C_16  and  C_18 
ROOT
ATOM      1  N   UNL d   1      28.251 -15.911  -4.324  0.00  0.00    -0.323 N 
ATOM      2  C   UNL d   1      26.940 -15.549  -4.615  0.00  0.00     0.244 C 
ATOM      3  O   UNL d   1      26.520 -15.252  -5.733  0.00  0.00    -0.271 OA
ATOM      4  H   UNL d   1      28.471 -16.166  -3.368  0.00  0.00     0.169 HD
ENDROOT
BRANCH   2   5
ATOM      5  C   UNL d   1      25.930 -15.398  -3.461  0.00  0.00     0.173 C 
ATOM      6  C   UNL d   1      25.703 -13.857  -3.501  0.00  0.00     0.042 C 
BRANCH   5   7
ATOM      7  N   UNL d   1      26.459 -15.778  -2.111  0.00  0.00    -0.344 N 
ATOM      8  C   UNL d   1      25.766 -15.838  -0.892  0.00  0.00     0.252 C 
ATOM      9  O   UNL d   1      26.178 -15.214   0.063  0.00  0.00    -0.268 OA
ATOM     10  H   UNL d   1      27.384 -15.396  -1.937  0.00  0.00     0.163 HD
BRANCH   8  11
ATOM     11  C   UNL d   1      24.604 -16.778  -0.722  0.00  0.00     0.032 C 
ATOM     12  C   UNL d   1      24.720 -18.164  -0.560  0.00  0.00     0.018 C 
ATOM     13  C   UNL d   1      23.571 -18.988  -0.394  0.00  0.00     0.025 C 
ATOM     14  C   UNL d   1      22.307 -18.433  -0.353  0.00  0.00     0.034 C 
ATOM     15 CL   UNL d   1      20.866 -19.325  -0.087  0.00  0.00    -0.084 Cl
ATOM     16  C   UNL d   1      22.199 -17.108  -0.657  0.00  0.00     0.025 C 
ATOM     17  C   UNL d   1      23.324 -16.325  -0.914  0.00  0.00     0.018 C 
ENDBRANCH   8  11
ENDBRANCH   5   7
ENDBRANCH   2   5
BRANCH   1  18
ATOM     18  C   UNL d   1      29.383 -15.726  -5.214  0.00  0.00     0.069 A 
ATOM     19  C   UNL d   1      29.384 -14.593  -6.066  0.00  0.00     0.039 A 
ATOM     20  C   UNL d   1      30.378 -14.423  -7.066  0.00  0.00    -0.060 A 
ATOM     21  C   UNL d   1      31.354 -15.406  -7.249  0.00  0.00     0.009 A 
ATOM     22  C   UNL d   1      30.422 -13.211  -7.956  0.00  0.00     0.048 C 
ATOM     23  C   UNL d   1      31.350 -16.543  -6.462  0.00  0.00     0.039 A 
ATOM     24  C   UNL d   1      30.379 -16.714  -5.468  0.00  0.00     0.095 A 
BRANCH  24  25
ATOM     25  O   UNL d   1      30.132 -18.047  -5.206  0.00  0.00    -0.354 OA
ATOM     26  C   UNL d   1      30.420 -18.919  -6.290  0.00  0.00     0.210 C 
ENDBRANCH  24  25
ENDBRANCH   1  18
TORSDOF 5
ENDMDL
MODEL 6
REMARK VINA RESULT:    -8.008      4.714      7.792
REMARK INTER + INTRA:         -10.850
REMARK INTER:                  -9.500
REMARK INTRA:                  -1.350
REMARK CONF_INDEPENDENT:        1.492
REMARK UNBOUND:                -1.350
REMARK  5 active torsions:
REMARK  status: ('A' for Active; 'I' for Inactive)
REMARK    1  A    between atoms: O_2  and  C_3 
REMARK    2  A    between atoms: C_9  and  N_10 
REMARK       I    between atoms: N_10  and  C_11 
REMARK    3  A    between atoms: C_13  and  C_11 
REMARK    4  A    between atoms: C_13  and  N_15 
REMARK       I    between atoms: N_15  and  C_16 
REMARK    5  A    between atoms: C_16  and  C_18 
ROOT
ATOM      1  N   UNL d   1      28.062 -15.006   2.846  0.00  0.00    -0.323 N 
ATOM      2  C   UNL d   1      27.843 -14.747   1.498  0.00  0.00     0.244 C 
ATOM      3  O   UNL d   1      28.019 -13.661   0.948  0.00  0.00    -0.271 OA
ATOM      4  H   UNL d   1      27.912 -15.953   3.178  0.00  0.00     0.169 HD
ENDROOT
BRANCH   2   5
ATOM      5  C   UNL d   1      27.236 -15.853   0.611  0.00  0.00     0.173 C 
ATOM      6  C   UNL d   1      28.538 -16.575   0.152  0.00  0.00     0.042 C 
BRANCH   5   7
ATOM      7  N   UNL d   1      26.501 -15.355  -0.596  0.00  0.00    -0.344 N 
ATOM      8  C   UNL d   1      25.752 -16.097  -1.523  0.00  0.00     0.252 C 
ATOM      9  O   UNL d   1      26.015 -16.022  -2.705  0.00  0.00    -0.268 OA
ATOM     10  H   UNL d   1      27.022 -14.644  -1.100  0.00  0.00     0.163 HD
BRANCH   8  11
ATOM     11  C   UNL d   1      24.538 -16.867  -1.079  0.00  0.00     0.032 C 
ATOM     12  C   UNL d   1      23.257 -16.319  -0.935  0.00  0.00     0.018 C 
ATOM     13  C   UNL d   1      22.154 -17.117  -0.519  0.00  0.00     0.025 C 
ATOM     14  C   UNL d   1      22.313 -18.468  -0.280  0.00  0.00     0.034 C 
ATOM     15 CL   UNL d   1      21.039 -19.531   0.156  0.00  0.00    -0.084 Cl
ATOM     16  C   UNL d   1      23.587 -18.954  -0.281  0.00  0.00     0.025 C 
ATOM     17  C   UNL d   1      24.677 -18.143  -0.596  0.00  0.00     0.018 C 
ENDBRANCH   8  11
ENDBRANCH   5   7
ENDBRANCH   2   5
BRANCH   1  18
ATOM     18  C   UNL d   1      28.256 -13.993   3.867  0.00  0.00     0.069 A 
ATOM     19  C   UNL d   1      28.702 -14.412   5.147  0.00  0.00     0.039 A 
ATOM     20  C   UNL d   1      28.771 -13.505   6.237  0.00  0.00    -0.060 A 
ATOM     21  C   UNL d   1      28.357 -12.181   6.067  0.00  0.00     0.009 A 
ATOM     22  C   UNL d   1      29.277 -13.916   7.593  0.00  0.00     0.048 C 
ATOM     23  C   UNL d   1      27.875 -11.757   4.841  0.00  0.00     0.039 A 
ATOM     24  C   UNL d   1      27.811 -12.643   3.760  0.00  0.00     0.095 A 
BRANCH  24  25
ATOM     25  O   UNL d   1      26.820 -12.298   2.862  0.00  0.00    -0.354 OA
ATOM     26  C   UNL d   1      26.881 -10.951   2.415  0.00  0.00     0.210 C 
ENDBRANCH  24  25
ENDBRANCH   1  18
TORSDOF 5
ENDMDL
MODEL 7
REMARK VINA RESULT:    -7.661      2.109      2.798
REMARK INTER + INTRA:         -10.614
REMARK INTER:                  -9.153
REMARK INTRA:                  -1.462
REMARK CONF_INDEPENDENT:        1.492
REMARK UNBOUND:                -1.462
REMARK  5 active torsions:
REMARK  status: ('A' for Active; 'I' for Inactive)
REMARK    1  A    between atoms: O_2  and  C_3 
REMARK    2  A    between atoms: C_9  and  N_10 
REMARK       I    between atoms: N_10  and  C_11 
REMARK    3  A    between atoms: C_13  and  C_11 
REMARK    4  A    between atoms: C_13  and  N_15 
REMARK       I    between atoms: N_15  and  C_16 
REMARK    5  A    between atoms: C_16  and  C_18 
ROOT
ATOM      1  N   UNL d   1      25.985 -13.739  -1.812  0.00  0.00    -0.323 N 
ATOM      2  C   UNL d   1      26.740 -13.618  -0.651  0.00  0.00     0.244 C 
ATOM      3  O   UNL d   1      27.432 -12.645  -0.355  0.00  0.00    -0.271 OA
ATOM      4  H   UNL d   1      25.427 -14.578  -1.930  0.00  0.00     0.169 HD
ENDROOT
BRANCH   2   5
ATOM      5  C   UNL d   1      26.823 -14.815   0.317  0.00  0.00     0.173 C 
ATOM      6  C   UNL d   1      28.062 -14.393   1.162  0.00  0.00     0.042 C 
BRANCH   5   7
ATOM      7  N   UNL d   1      27.104 -16.133  -0.338  0.00  0.00    -0.344 N 
ATOM      8  C   UNL d   1      26.519 -17.379  -0.066  0.00  0.00     0.252 C 
ATOM      9  O   UNL d   1      27.226 -18.328   0.205  0.00  0.00    -0.268 OA
ATOM     10  H   UNL d   1      28.094 -16.274  -0.514  0.00  0.00     0.163 HD
BRANCH   8  11
ATOM     11  C   UNL d   1      25.040 -17.584  -0.249  0.00  0.00     0.032 C 
ATOM     12  C   UNL d   1      24.120 -16.556  -0.494  0.00  0.00     0.018 C 
ATOM     13  C   UNL d   1      22.733 -16.831  -0.666  0.00  0.00     0.025 C 
ATOM     14  C   UNL d   1      22.264 -18.129  -0.630  0.00  0.00     0.034 C 
ATOM     15 CL   UNL d   1      20.628 -18.575  -0.895  0.00  0.00    -0.084 Cl
ATOM     16  C   UNL d   1      23.142 -19.099  -0.247  0.00  0.00     0.025 C 
ATOM     17  C   UNL d   1      24.481 -18.808   0.015  0.00  0.00     0.018 C 
ENDBRANCH   8  11
ENDBRANCH   5   7
ENDBRANCH   2   5
BRANCH   1  18
ATOM     18  C   UNL d   1      26.107 -12.883  -2.978  0.00  0.00     0.069 A 
ATOM     19  C   UNL d   1      26.223 -11.486  -2.770  0.00  0.00     0.039 A 
ATOM     20  C   UNL d   1      26.197 -10.573  -3.858  0.00  0.00    -0.060 A 
ATOM     21  C   UNL d   1      26.013 -11.049  -5.159  0.00  0.00     0.009 A 
ATOM     22  C   UNL d   1      26.356  -9.090  -3.666  0.00  0.00     0.048 C 
ATOM     23  C   UNL d   1      25.852 -12.404  -5.386  0.00  0.00     0.039 A 
ATOM     24  C   UNL d   1      25.886 -13.310  -4.320  0.00  0.00     0.095 A 
BRANCH  24  25
ATOM     25  O   UNL d   1      25.154 -14.451  -4.584  0.00  0.00    -0.354 OA
ATOM     26  C   UNL d   1      25.905 -15.503  -5.173  0.00  0.00     0.210 C 
ENDBRANCH  24  25
ENDBRANCH   1  18
TORSDOF 5
ENDMDL
MODEL 8
REMARK VINA RESULT:    -7.258      2.842      4.949
REMARK INTER + INTRA:         -10.904
REMARK INTER:                  -8.750
REMARK INTRA:                  -2.154
REMARK CONF_INDEPENDENT:        1.492
REMARK UNBOUND:                -2.154
REMARK  5 active torsions:
REMARK  status: ('A' for Active; 'I' for Inactive)
REMARK    1  A    between atoms: O_2  and  C_3 
REMARK    2  A    between atoms: C_9  and  N_10 
REMARK       I    between atoms: N_10  and  C_11 
REMARK    3  A    between atoms: C_13  and  C_11 
REMARK    4  A    between atoms: C_13  and  N_15 
REMARK       I    between atoms: N_15  and  C_16 
REMARK    5  A    between atoms: C_16  and  C_18 
ROOT
ATOM      1  N   UNL d   1      28.420 -14.767  -4.080  0.00  0.00    -0.323 N 
ATOM      2  C   UNL d   1      27.398 -14.456  -4.970  0.00  0.00     0.244 C 
ATOM      3  O   UNL d   1      26.980 -15.200  -5.856  0.00  0.00    -0.271 OA
ATOM      4  H   UNL d   1      28.654 -14.083  -3.370  0.00  0.00     0.169 HD
ENDROOT
BRANCH   2   5
ATOM      5  C   UNL d   1      26.785 -13.042  -4.943  0.00  0.00     0.173 C 
ATOM      6  C   UNL d   1      27.900 -12.279  -4.167  0.00  0.00     0.042 C 
BRANCH   5   7
ATOM      7  N   UNL d   1      25.498 -12.931  -4.182  0.00  0.00    -0.344 N 
ATOM      8  C   UNL d   1      24.726 -13.964  -3.628  0.00  0.00     0.252 C 
ATOM      9  O   UNL d   1      23.554 -14.064  -3.925  0.00  0.00    -0.268 OA
ATOM     10  H   UNL d   1      24.870 -12.240  -4.583  0.00  0.00     0.163 HD
BRANCH   8  11
ATOM     11  C   UNL d   1      25.301 -14.856  -2.561  0.00  0.00     0.032 C 
ATOM     12  C   UNL d   1      26.160 -14.424  -1.542  0.00  0.00     0.018 C 
ATOM     13  C   UNL d   1      26.656 -15.329  -0.561  0.00  0.00     0.025 C 
ATOM     14  C   UNL d   1      26.271 -16.656  -0.568  0.00  0.00     0.034 C 
ATOM     15 CL   UNL d   1      26.752 -17.811   0.606  0.00  0.00    -0.084 Cl
ATOM     16  C   UNL d   1      25.556 -17.090  -1.646  0.00  0.00     0.025 C 
ATOM     17  C   UNL d   1      25.155 -16.216  -2.655  0.00  0.00     0.018 C 
ENDBRANCH   8  11
ENDBRANCH   5   7
ENDBRANCH   2   5
BRANCH   1  18
ATOM     18  C   UNL d   1      29.338 -15.881  -4.224  0.00  0.00     0.069 A 
ATOM     19  C   UNL d   1      29.655 -16.320  -5.535  0.00  0.00     0.039 A 
ATOM     20  C   UNL d   1      30.424 -17.494  -5.754  0.00  0.00    -0.060 A 
ATOM     21  C   UNL d   1      30.848 -18.260  -4.666  0.00  0.00     0.009 A 
ATOM     22  C   UNL d   1      30.804 -17.957  -7.134  0.00  0.00     0.048 C 
ATOM     23  C   UNL d   1      30.516 -17.880  -3.378  0.00  0.00     0.039 A 
ATOM     24  C   UNL d   1      29.765 -16.720  -3.153  0.00  0.00     0.095 A 
BRANCH  24  25
ATOM     25  O   UNL d   1      29.037 -16.791  -1.981  0.00  0.00    -0.354 OA
ATOM     26  C   UNL d   1      29.808 -17.119  -0.834  0.00  0.00     0.210 C 
ENDBRANCH  24  25
ENDBRANCH   1  18
TORSDOF 5
ENDMDL
MODEL 9
REMARK VINA RESULT:    -7.005      3.008      4.928
REMARK INTER + INTRA:         -10.610
REMARK INTER:                  -8.497
REMARK INTRA:                  -2.113
REMARK CONF_INDEPENDENT:        1.492
REMARK UNBOUND:                -2.113
REMARK  5 active torsions:
REMARK  status: ('A' for Active; 'I' for Inactive)
REMARK    1  A    between atoms: O_2  and  C_3 
REMARK    2  A    between atoms: C_9  and  N_10 
REMARK       I    between atoms: N_10  and  C_11 
REMARK    3  A    between atoms: C_13  and  C_11 
REMARK    4  A    between atoms: C_13  and  N_15 
REMARK       I    between atoms: N_15  and  C_16 
REMARK    5  A    between atoms: C_16  and  C_18 
ROOT
ATOM      1  N   UNL d   1      28.073 -14.938  -4.005  0.00  0.00    -0.323 N 
ATOM      2  C   UNL d   1      27.268 -14.537  -5.066  0.00  0.00     0.244 C 
ATOM      3  O   UNL d   1      27.047 -15.200  -6.077  0.00  0.00    -0.271 OA
ATOM      4  H   UNL d   1      28.153 -14.316  -3.209  0.00  0.00     0.169 HD
ENDROOT
BRANCH   2   5
ATOM      5  C   UNL d   1      26.670 -13.115  -5.056  0.00  0.00     0.173 C 
ATOM      6  C   UNL d   1      27.823 -12.343  -4.348  0.00  0.00     0.042 C 
BRANCH   5   7
ATOM      7  N   UNL d   1      25.415 -12.969  -4.249  0.00  0.00    -0.344 N 
ATOM      8  C   UNL d   1      24.654 -13.977  -3.639  0.00  0.00     0.252 C 
ATOM      9  O   UNL d   1      23.470 -14.069  -3.888  0.00  0.00    -0.268 OA
ATOM     10  H   UNL d   1      24.781 -12.280  -4.643  0.00  0.00     0.163 HD
BRANCH   8  11
ATOM     11  C   UNL d   1      25.259 -14.850  -2.573  0.00  0.00     0.032 C 
ATOM     12  C   UNL d   1      26.107 -14.391  -1.557  0.00  0.00     0.018 C 
ATOM     13  C   UNL d   1      26.633 -15.279  -0.576  0.00  0.00     0.025 C 
ATOM     14  C   UNL d   1      26.290 -16.617  -0.582  0.00  0.00     0.034 C 
ATOM     15 CL   UNL d   1      26.810 -17.755   0.592  0.00  0.00    -0.084 Cl
ATOM     16  C   UNL d   1      25.586 -17.074  -1.656  0.00  0.00     0.025 C 
ATOM     17  C   UNL d   1      25.155 -16.214  -2.665  0.00  0.00     0.018 C 
ENDBRANCH   8  11
ENDBRANCH   5   7
ENDBRANCH   2   5
BRANCH   1  18
ATOM     18  C   UNL d   1      28.996 -16.058  -4.039  0.00  0.00     0.069 A 
ATOM     19  C   UNL d   1      29.463 -16.576  -2.805  0.00  0.00     0.039 A 
ATOM     20  C   UNL d   1      30.478 -17.567  -2.757  0.00  0.00    -0.060 A 
ATOM     21  C   UNL d   1      31.064 -18.019  -3.943  0.00  0.00     0.009 A 
ATOM     22  C   UNL d   1      30.962 -18.159  -1.461  0.00  0.00     0.048 C 
ATOM     23  C   UNL d   1      30.659 -17.499  -5.158  0.00  0.00     0.039 A 
ATOM     24  C   UNL d   1      29.653 -16.527  -5.214  0.00  0.00     0.095 A 
BRANCH  24  25
ATOM     25  O   UNL d   1      29.775 -15.715  -6.325  0.00  0.00    -0.354 OA
ATOM     26  C   UNL d   1      31.088 -15.655  -6.863  0.00  0.00     0.210 C 
ENDBRANCH  24  25
ENDBRANCH   1  18
TORSDOF 5
ENDMDL
