MODEL 1
REMARK VINA RESULT:    -8.136      0.000      0.000
REMARK INTER + INTRA:          -9.644
REMARK INTER:                  -9.031
REMARK INTRA:                  -0.612
REMARK CONF_INDEPENDENT:        0.895
REMARK UNBOUND:                -0.612
REMARK  3 active torsions:
REMARK  status: ('A' for Active; 'I' for Inactive)
REMARK       I    between atoms: C_2  and  N_3 
REMARK    1  A    between atoms: C_2  and  C_12 
REMARK    2  A    between atoms: N_3  and  C_4 
REMARK    3  A    between atoms: C_10  and  O_11 
ROOT
ATOM      1  O   UNL d   1      22.289 -16.741  -0.781  0.00  0.00    -0.267 OA
ATOM      2  C   UNL d   1      22.557 -17.832  -0.269  0.00  0.00     0.256 C 
ATOM      3  N   UNL d   1      23.839 -18.374  -0.154  0.00  0.00    -0.320 N 
ATOM      4  H   UNL d   1      23.935 -19.377  -0.077  0.00  0.00     0.169 HD
ENDROOT
BRANCH   3   5
ATOM      5  C   UNL d   1      24.971 -17.610  -0.554  0.00  0.00     0.070 A 
ATOM      6  C   UNL d   1      24.932 -16.803  -1.698  0.00  0.00     0.056 A 
ATOM      7  C   UNL d   1      26.023 -15.968  -1.988  0.00  0.00     0.036 A 
ATOM      8 CL   UNL d   1      25.973 -14.913  -3.351  0.00  0.00    -0.084 Cl
ATOM      9  C   UNL d   1      27.157 -15.953  -1.171  0.00  0.00     0.026 A 
ATOM     10  C   UNL d   1      27.221 -16.797  -0.068  0.00  0.00     0.040 A 
ATOM     11  C   UNL d   1      26.146 -17.635   0.217  0.00  0.00     0.092 A 
BRANCH  11  12
ATOM     12  O   UNL d   1      26.274 -18.578   1.201  0.00  0.00    -0.358 OA
ATOM     13  H   UNL d   1      27.215 -18.770   1.333  0.00  0.00     0.217 HD
ENDBRANCH  11  12
ENDBRANCH   3   5
BRANCH   2  14
ATOM     14  C   UNL d   1      21.406 -18.692   0.104  0.00  0.00     0.032 A 
ATOM     15  C   UNL d   1      20.642 -19.227  -0.947  0.00  0.00     0.018 A 
ATOM     16  C   UNL d   1      19.564 -20.074  -0.688  0.00  0.00     0.020 A 
ATOM     17  C   UNL d   1      19.229 -20.367   0.629  0.00  0.00     0.011 A 
ATOM     18 BR   UNL d   1      17.802 -21.555   0.983  0.00  0.00    -0.051 Br
ATOM     19  C   UNL d   1      19.944 -19.796   1.686  0.00  0.00     0.020 A 
ATOM     20  C   UNL d   1      21.035 -18.952   1.427  0.00  0.00     0.018 A 
ENDBRANCH   2  14
TORSDOF 3
ENDMDL
MODEL 2
REMARK VINA RESULT:    -7.368      4.123      7.190
REMARK INTER + INTRA:          -9.039
REMARK INTER:                  -8.263
REMARK INTRA:                  -0.776
REMARK CONF_INDEPENDENT:        0.895
REMARK UNBOUND:                -0.776
REMARK  3 active torsions:
REMARK  status: ('A' for Active; 'I' for Inactive)
REMARK       I    between atoms: C_2  and  N_3 
REMARK    1  A    between atoms: C_2  and  C_12 
REMARK    2  A    between atoms: N_3  and  C_4 
REMARK    3  A    between atoms: C_10  and  O_11 
ROOT
ATOM      1  O   UNL d   1      23.699 -18.763   0.693  0.00  0.00    -0.267 OA
ATOM      2  C   UNL d   1      23.264 -18.071  -0.232  0.00  0.00     0.256 C 
ATOM      3  N   UNL d   1      21.987 -18.179  -0.786  0.00  0.00    -0.320 N 
ATOM      4  H   UNL d   1      21.843 -17.862  -1.735  0.00  0.00     0.169 HD
ENDROOT
BRANCH   3   5
ATOM      5  C   UNL d   1      21.039 -19.073  -0.215  0.00  0.00     0.070 A 
ATOM      6  C   UNL d   1      21.020 -19.325   1.163  0.00  0.00     0.056 A 
ATOM      7  C   UNL d   1      19.992 -20.112   1.704  0.00  0.00     0.036 A 
ATOM      8 CL   UNL d   1      19.905 -20.382   3.406  0.00  0.00    -0.084 Cl
ATOM      9  C   UNL d   1      19.005 -20.672   0.887  0.00  0.00     0.026 A 
ATOM     10  C   UNL d   1      19.056 -20.471  -0.488  0.00  0.00     0.040 A 
ATOM     11  C   UNL d   1      20.081 -19.700  -1.030  0.00  0.00     0.092 A 
BRANCH  11  12
ATOM     12  O   UNL d   1      20.225 -19.638  -2.391  0.00  0.00    -0.358 OA
ATOM     13  H   UNL d   1      19.351 -19.523  -2.794  0.00  0.00     0.217 HD
ENDBRANCH  11  12
ENDBRANCH   3   5
BRANCH   2  14
ATOM     14  C   UNL d   1      24.236 -17.170  -0.902  0.00  0.00     0.032 A 
ATOM     15  C   UNL d   1      25.600 -17.461  -0.730  0.00  0.00     0.018 A 
ATOM     16  C   UNL d   1      26.579 -16.688  -1.353  0.00  0.00     0.020 A 
ATOM     17  C   UNL d   1      26.196 -15.600  -2.131  0.00  0.00     0.011 A 
ATOM     18 BR   UNL d   1      27.519 -14.581  -3.018  0.00  0.00    -0.051 Br
ATOM     19  C   UNL d   1      24.846 -15.264  -2.263  0.00  0.00     0.020 A 
ATOM     20  C   UNL d   1      23.859 -16.047  -1.645  0.00  0.00     0.018 A 
ENDBRANCH   2  14
TORSDOF 3
ENDMDL
MODEL 3
REMARK VINA RESULT:    -6.859      1.662      2.380
REMARK INTER + INTRA:          -8.717
REMARK INTER:                  -7.754
REMARK INTRA:                  -0.964
REMARK CONF_INDEPENDENT:        0.895
REMARK UNBOUND:                -0.964
REMARK  3 active torsions:
REMARK  status: ('A' for Active; 'I' for Inactive)
REMARK       I    between atoms: C_2  and  N_3 
REMARK    1  A    between atoms: C_2  and  C_12 
REMARK    2  A    between atoms: N_3  and  C_4 
REMARK    3  A    between atoms: C_10  and  O_11 
ROOT
ATOM      1  O   UNL d   1      22.676 -16.373   0.032  0.00  0.00    -0.267 OA
ATOM      2  C   UNL d   1      22.844 -17.549  -0.305  0.00  0.00     0.256 C 
ATOM      3  N   UNL d   1      23.981 -18.048  -0.942  0.00  0.00    -0.320 N 
ATOM      4  H   UNL d   1      23.895 -18.887  -1.499  0.00  0.00     0.169 HD
ENDROOT
BRANCH   3   5
ATOM      5  C   UNL d   1      25.105 -17.202  -1.154  0.00  0.00     0.070 A 
ATOM      6  C   UNL d   1      26.377 -17.557  -0.686  0.00  0.00     0.056 A 
ATOM      7  C   UNL d   1      27.481 -16.759  -1.026  0.00  0.00     0.036 A 
ATOM      8 CL   UNL d   1      29.068 -17.210  -0.521  0.00  0.00    -0.084 Cl
ATOM      9  C   UNL d   1      27.327 -15.603  -1.795  0.00  0.00     0.026 A 
ATOM     10  C   UNL d   1      26.057 -15.218  -2.211  0.00  0.00     0.040 A 
ATOM     11  C   UNL d   1      24.958 -16.000  -1.867  0.00  0.00     0.092 A 
BRANCH  11  12
ATOM     12  O   UNL d   1      23.697 -15.537  -2.134  0.00  0.00    -0.358 OA
ATOM     13  H   UNL d   1      23.050 -16.184  -1.814  0.00  0.00     0.217 HD
ENDBRANCH  11  12
ENDBRANCH   3   5
BRANCH   2  14
ATOM     14  C   UNL d   1      21.676 -18.454  -0.163  0.00  0.00     0.032 A 
ATOM     15  C   UNL d   1      21.404 -18.950   1.124  0.00  0.00     0.018 A 
ATOM     16  C   UNL d   1      20.306 -19.778   1.354  0.00  0.00     0.020 A 
ATOM     17  C   UNL d   1      19.488 -20.137   0.288  0.00  0.00     0.011 A 
ATOM     18 BR   UNL d   1      17.969 -21.217   0.605  0.00  0.00    -0.051 Br
ATOM     19  C   UNL d   1      19.779 -19.699  -1.007  0.00  0.00     0.020 A 
ATOM     20  C   UNL d   1      20.878 -18.858  -1.239  0.00  0.00     0.018 A 
ENDBRANCH   2  14
TORSDOF 3
ENDMDL
MODEL 4
REMARK VINA RESULT:    -6.800      2.900      4.261
REMARK INTER + INTRA:          -8.452
REMARK INTER:                  -7.695
REMARK INTRA:                  -0.758
REMARK CONF_INDEPENDENT:        0.895
REMARK UNBOUND:                -0.758
REMARK  3 active torsions:
REMARK  status: ('A' for Active; 'I' for Inactive)
REMARK       I    between atoms: C_2  and  N_3 
REMARK    1  A    between atoms: C_2  and  C_12 
REMARK    2  A    between atoms: N_3  and  C_4 
REMARK    3  A    between atoms: C_10  and  O_11 
ROOT
ATOM      1  O   UNL d   1      25.977 -15.801  -0.679  0.00  0.00    -0.267 OA
ATOM      2  C   UNL d   1      25.314 -16.406  -1.526  0.00  0.00     0.256 C 
ATOM      3  N   UNL d   1      25.425 -16.234  -2.908  0.00  0.00    -0.320 N 
ATOM      4  H   UNL d   1      24.632 -16.466  -3.490  0.00  0.00     0.169 HD
ENDROOT
BRANCH   3   5
ATOM      5  C   UNL d   1      26.432 -15.380  -3.438  0.00  0.00     0.070 A 
ATOM      6  C   UNL d   1      27.773 -15.520  -3.060  0.00  0.00     0.056 A 
ATOM      7  C   UNL d   1      28.753 -14.744  -3.699  0.00  0.00     0.036 A 
ATOM      8 CL   UNL d   1      30.419 -14.946  -3.302  0.00  0.00    -0.084 Cl
ATOM      9  C   UNL d   1      28.408 -13.814  -4.683  0.00  0.00     0.026 A 
ATOM     10  C   UNL d   1      27.071 -13.632  -5.019  0.00  0.00     0.040 A 
ATOM     11  C   UNL d   1      26.095 -14.392  -4.378  0.00  0.00     0.092 A 
BRANCH  11  12
ATOM     12  O   UNL d   1      24.773 -14.098  -4.588  0.00  0.00    -0.358 OA
ATOM     13  H   UNL d   1      24.693 -13.568  -5.395  0.00  0.00     0.217 HD
ENDBRANCH  11  12
ENDBRANCH   3   5
BRANCH   2  14
ATOM     14  C   UNL d   1      24.209 -17.258  -1.021  0.00  0.00     0.032 A 
ATOM     15  C   UNL d   1      22.932 -16.674  -0.949  0.00  0.00     0.018 A 
ATOM     16  C   UNL d   1      21.831 -17.413  -0.520  0.00  0.00     0.020 A 
ATOM     17  C   UNL d   1      22.008 -18.738  -0.134  0.00  0.00     0.011 A 
ATOM     18 BR   UNL d   1      20.508 -19.758   0.399  0.00  0.00    -0.051 Br
ATOM     19  C   UNL d   1      23.280 -19.315  -0.145  0.00  0.00     0.020 A 
ATOM     20  C   UNL d   1      24.389 -18.575  -0.587  0.00  0.00     0.018 A 
ENDBRANCH   2  14
TORSDOF 3
ENDMDL
MODEL 5
REMARK VINA RESULT:    -6.745      5.231      8.000
REMARK INTER + INTRA:          -8.393
REMARK INTER:                  -7.640
REMARK INTRA:                  -0.753
REMARK CONF_INDEPENDENT:        0.895
REMARK UNBOUND:                -0.753
REMARK  3 active torsions:
REMARK  status: ('A' for Active; 'I' for Inactive)
REMARK       I    between atoms: C_2  and  N_3 
REMARK    1  A    between atoms: C_2  and  C_12 
REMARK    2  A    between atoms: N_3  and  C_4 
REMARK    3  A    between atoms: C_10  and  O_11 
ROOT
ATOM      1  O   UNL d   1      24.741 -14.825  -3.218  0.00  0.00    -0.267 OA
ATOM      2  C   UNL d   1      25.913 -15.175  -3.388  0.00  0.00     0.256 C 
ATOM      3  N   UNL d   1      26.616 -16.058  -2.567  0.00  0.00    -0.320 N 
ATOM      4  H   UNL d   1      27.625 -16.003  -2.548  0.00  0.00     0.169 HD
ENDROOT
BRANCH   3   5
ATOM      5  C   UNL d   1      25.951 -16.710  -1.492  0.00  0.00     0.070 A 
ATOM      6  C   UNL d   1      24.563 -16.896  -1.506  0.00  0.00     0.056 A 
ATOM      7  C   UNL d   1      23.960 -17.654  -0.490  0.00  0.00     0.036 A 
ATOM      8 CL   UNL d   1      22.262 -17.957  -0.520  0.00  0.00    -0.084 Cl
ATOM      9  C   UNL d   1      24.718 -18.200   0.550  0.00  0.00     0.026 A 
ATOM     10  C   UNL d   1      26.088 -17.967   0.597  0.00  0.00     0.040 A 
ATOM     11  C   UNL d   1      26.688 -17.206  -0.403  0.00  0.00     0.092 A 
BRANCH  11  12
ATOM     12  O   UNL d   1      28.001 -16.840  -0.269  0.00  0.00    -0.358 OA
ATOM     13  H   UNL d   1      28.415 -17.397   0.408  0.00  0.00     0.217 HD
ENDBRANCH  11  12
ENDBRANCH   3   5
BRANCH   2  14
ATOM     14  C   UNL d   1      26.667 -14.474  -4.458  0.00  0.00     0.032 A 
ATOM     15  C   UNL d   1      27.682 -15.200  -5.105  0.00  0.00     0.018 A 
ATOM     16  C   UNL d   1      28.416 -14.630  -6.144  0.00  0.00     0.020 A 
ATOM     17  C   UNL d   1      28.156 -13.317  -6.523  0.00  0.00     0.011 A 
ATOM     18 BR   UNL d   1      29.114 -12.559  -7.966  0.00  0.00    -0.051 Br
ATOM     19  C   UNL d   1      27.190 -12.564  -5.850  0.00  0.00     0.020 A 
ATOM     20  C   UNL d   1      26.443 -13.139  -4.810  0.00  0.00     0.018 A 
ENDBRANCH   2  14
TORSDOF 3
ENDMDL
MODEL 6
REMARK VINA RESULT:    -6.504      2.743      3.781
REMARK INTER + INTRA:          -8.169
REMARK INTER:                  -7.399
REMARK INTRA:                  -0.770
REMARK CONF_INDEPENDENT:        0.895
REMARK UNBOUND:                -0.770
REMARK  3 active torsions:
REMARK  status: ('A' for Active; 'I' for Inactive)
REMARK       I    between atoms: C_2  and  N_3 
REMARK    1  A    between atoms: C_2  and  C_12 
REMARK    2  A    between atoms: N_3  and  C_4 
REMARK    3  A    between atoms: C_10  and  O_11 
ROOT
ATOM      1  O   UNL d   1      25.658 -15.387  -1.427  0.00  0.00    -0.267 OA
ATOM      2  C   UNL d   1      25.617 -16.366  -0.677  0.00  0.00     0.256 C 
ATOM      3  N   UNL d   1      26.698 -16.872   0.047  0.00  0.00    -0.320 N 
ATOM      4  H   UNL d   1      26.684 -17.844   0.323  0.00  0.00     0.169 HD
ENDROOT
BRANCH   3   5
ATOM      5  C   UNL d   1      27.945 -16.187   0.032  0.00  0.00     0.070 A 
ATOM      6  C   UNL d   1      28.010 -14.799   0.206  0.00  0.00     0.056 A 
ATOM      7  C   UNL d   1      29.264 -14.177   0.312  0.00  0.00     0.036 A 
ATOM      8 CL   UNL d   1      29.373 -12.479   0.595  0.00  0.00    -0.084 Cl
ATOM      9  C   UNL d   1      30.446 -14.916   0.216  0.00  0.00     0.026 A 
ATOM     10  C   UNL d   1      30.384 -16.286  -0.015  0.00  0.00     0.040 A 
ATOM     11  C   UNL d   1      29.142 -16.904  -0.132  0.00  0.00     0.092 A 
BRANCH  11  12
ATOM     12  O   UNL d   1      29.081 -18.216  -0.521  0.00  0.00    -0.358 OA
ATOM     13  H   UNL d   1      29.778 -18.712  -0.064  0.00  0.00     0.217 HD
ENDBRANCH  11  12
ENDBRANCH   3   5
BRANCH   2  14
ATOM     14  C   UNL d   1      24.357 -17.152  -0.678  0.00  0.00     0.032 A 
ATOM     15  C   UNL d   1      23.158 -16.436  -0.846  0.00  0.00     0.018 A 
ATOM     16  C   UNL d   1      21.932 -17.098  -0.895  0.00  0.00     0.020 A 
ATOM     17  C   UNL d   1      21.897 -18.481  -0.747  0.00  0.00     0.011 A 
ATOM     18 BR   UNL d   1      20.242 -19.387  -0.864  0.00  0.00    -0.051 Br
ATOM     19  C   UNL d   1      23.075 -19.199  -0.521  0.00  0.00     0.020 A 
ATOM     20  C   UNL d   1      24.311 -18.535  -0.482  0.00  0.00     0.018 A 
ENDBRANCH   2  14
TORSDOF 3
ENDMDL
MODEL 7
REMARK VINA RESULT:    -6.104      2.770      3.772
REMARK INTER + INTRA:          -8.193
REMARK INTER:                  -6.999
REMARK INTRA:                  -1.194
REMARK CONF_INDEPENDENT:        0.895
REMARK UNBOUND:                -1.194
REMARK  3 active torsions:
REMARK  status: ('A' for Active; 'I' for Inactive)
REMARK       I    between atoms: C_2  and  N_3 
REMARK    1  A    between atoms: C_2  and  C_12 
REMARK    2  A    between atoms: N_3  and  C_4 
REMARK    3  A    between atoms: C_10  and  O_11 
ROOT
ATOM      1  O   UNL d   1      25.669 -15.576  -1.245  0.00  0.00    -0.267 OA
ATOM      2  C   UNL d   1      25.533 -16.631  -0.620  0.00  0.00     0.256 C 
ATOM      3  N   UNL d   1      26.568 -17.345  -0.012  0.00  0.00    -0.320 N 
ATOM      4  H   UNL d   1      26.446 -18.337   0.142  0.00  0.00     0.169 HD
ENDROOT
BRANCH   3   5
ATOM      5  C   UNL d   1      27.886 -16.811   0.003  0.00  0.00     0.070 A 
ATOM      6  C   UNL d   1      28.966 -17.533  -0.520  0.00  0.00     0.056 A 
ATOM      7  C   UNL d   1      30.227 -16.921  -0.603  0.00  0.00     0.036 A 
ATOM      8 CL   UNL d   1      31.559 -17.763  -1.306  0.00  0.00    -0.084 Cl
ATOM      9  C   UNL d   1      30.428 -15.616  -0.145  0.00  0.00     0.026 A 
ATOM     10  C   UNL d   1      29.370 -14.918   0.428  0.00  0.00     0.040 A 
ATOM     11  C   UNL d   1      28.120 -15.526   0.523  0.00  0.00     0.092 A 
BRANCH  11  12
ATOM     12  O   UNL d   1      27.126 -14.905   1.231  0.00  0.00    -0.358 OA
ATOM     13  H   UNL d   1      26.348 -14.808   0.661  0.00  0.00     0.217 HD
ENDBRANCH  11  12
ENDBRANCH   3   5
BRANCH   2  14
ATOM     14  C   UNL d   1      24.189 -17.261  -0.663  0.00  0.00     0.032 A 
ATOM     15  C   UNL d   1      24.132 -18.656  -0.499  0.00  0.00     0.018 A 
ATOM     16  C   UNL d   1      22.908 -19.324  -0.490  0.00  0.00     0.020 A 
ATOM     17  C   UNL d   1      21.734 -18.600  -0.673  0.00  0.00     0.011 A 
ATOM     18 BR   UNL d   1      20.070 -19.495  -0.610  0.00  0.00    -0.051 Br
ATOM     19  C   UNL d   1      21.780 -17.221  -0.895  0.00  0.00     0.020 A 
ATOM     20  C   UNL d   1      23.011 -16.545  -0.894  0.00  0.00     0.018 A 
ENDBRANCH   2  14
TORSDOF 3
ENDMDL
MODEL 8
REMARK VINA RESULT:    -6.031      1.726      2.296
REMARK INTER + INTRA:          -8.053
REMARK INTER:                  -6.926
REMARK INTRA:                  -1.127
REMARK CONF_INDEPENDENT:        0.895
REMARK UNBOUND:                -1.127
REMARK  3 active torsions:
REMARK  status: ('A' for Active; 'I' for Inactive)
REMARK       I    between atoms: C_2  and  N_3 
REMARK    1  A    between atoms: C_2  and  C_12 
REMARK    2  A    between atoms: N_3  and  C_4 
REMARK    3  A    between atoms: C_10  and  O_11 
ROOT
ATOM      1  O   UNL d   1      25.241 -17.970  -0.300  0.00  0.00    -0.267 OA
ATOM      2  C   UNL d   1      24.252 -17.587  -0.931  0.00  0.00     0.256 C 
ATOM      3  N   UNL d   1      24.235 -16.517  -1.829  0.00  0.00    -0.320 N 
ATOM      4  H   UNL d   1      23.358 -16.048  -2.006  0.00  0.00     0.169 HD
ENDROOT
BRANCH   3   5
ATOM      5  C   UNL d   1      25.446 -15.843  -2.152  0.00  0.00     0.070 A 
ATOM      6  C   UNL d   1      25.877 -15.727  -3.479  0.00  0.00     0.056 A 
ATOM      7  C   UNL d   1      27.007 -14.946  -3.769  0.00  0.00     0.036 A 
ATOM      8 CL   UNL d   1      27.520 -14.729  -5.402  0.00  0.00    -0.084 Cl
ATOM      9  C   UNL d   1      27.725 -14.310  -2.753  0.00  0.00     0.026 A 
ATOM     10  C   UNL d   1      27.333 -14.473  -1.428  0.00  0.00     0.040 A 
ATOM     11  C   UNL d   1      26.218 -15.255  -1.136  0.00  0.00     0.092 A 
BRANCH  11  12
ATOM     12  O   UNL d   1      25.930 -15.548   0.171  0.00  0.00    -0.358 OA
ATOM     13  H   UNL d   1      26.436 -16.331   0.437  0.00  0.00     0.217 HD
ENDBRANCH  11  12
ENDBRANCH   3   5
BRANCH   2  14
ATOM     14  C   UNL d   1      22.954 -18.217  -0.580  0.00  0.00     0.032 A 
ATOM     15  C   UNL d   1      22.166 -18.690  -1.643  0.00  0.00     0.018 A 
ATOM     16  C   UNL d   1      20.949 -19.327  -1.402  0.00  0.00     0.020 A 
ATOM     17  C   UNL d   1      20.502 -19.469  -0.092  0.00  0.00     0.011 A 
ATOM     18 BR   UNL d   1      18.878 -20.377   0.242  0.00  0.00    -0.051 Br
ATOM     19  C   UNL d   1      21.248 -18.952   0.971  0.00  0.00     0.020 A 
ATOM     20  C   UNL d   1      22.478 -18.320   0.730  0.00  0.00     0.018 A 
ENDBRANCH   2  14
TORSDOF 3
ENDMDL
MODEL 9
REMARK VINA RESULT:    -5.862      5.250      7.910
REMARK INTER + INTRA:          -7.937
REMARK INTER:                  -6.757
REMARK INTRA:                  -1.181
REMARK CONF_INDEPENDENT:        0.895
REMARK UNBOUND:                -1.181
REMARK  3 active torsions:
REMARK  status: ('A' for Active; 'I' for Inactive)
REMARK       I    between atoms: C_2  and  N_3 
REMARK    1  A    between atoms: C_2  and  C_12 
REMARK    2  A    between atoms: N_3  and  C_4 
REMARK    3  A    between atoms: C_10  and  O_11 
ROOT
ATOM      1  O   UNL d   1      26.993 -15.950  -3.182  0.00  0.00    -0.267 OA
ATOM      2  C   UNL d   1      26.206 -15.014  -3.018  0.00  0.00     0.256 C 
ATOM      3  N   UNL d   1      25.106 -15.028  -2.158  0.00  0.00    -0.320 N 
ATOM      4  H   UNL d   1      24.333 -14.406  -2.350  0.00  0.00     0.169 HD
ENDROOT
BRANCH   3   5
ATOM      5  C   UNL d   1      24.884 -16.148  -1.309  0.00  0.00     0.070 A 
ATOM      6  C   UNL d   1      23.641 -16.792  -1.271  0.00  0.00     0.056 A 
ATOM      7  C   UNL d   1      23.499 -17.968  -0.518  0.00  0.00     0.036 A 
ATOM      8 CL   UNL d   1      21.998 -18.820  -0.509  0.00  0.00    -0.084 Cl
ATOM      9  C   UNL d   1      24.567 -18.488   0.218  0.00  0.00     0.026 A 
ATOM     10  C   UNL d   1      25.785 -17.817   0.229  0.00  0.00     0.040 A 
ATOM     11  C   UNL d   1      25.927 -16.644  -0.508  0.00  0.00     0.092 A 
BRANCH  11  12
ATOM     12  O   UNL d   1      27.068 -15.899  -0.368  0.00  0.00    -0.358 OA
ATOM     13  H   UNL d   1      27.643 -16.057  -1.132  0.00  0.00     0.217 HD
ENDBRANCH  11  12
ENDBRANCH   3   5
BRANCH   2  14
ATOM     14  C   UNL d   1      26.359 -13.850  -3.927  0.00  0.00     0.032 A 
ATOM     15  C   UNL d   1      27.230 -14.003  -5.020  0.00  0.00     0.018 A 
ATOM     16  C   UNL d   1      27.405 -12.973  -5.943  0.00  0.00     0.020 A 
ATOM     17  C   UNL d   1      26.729 -11.771  -5.761  0.00  0.00     0.011 A 
ATOM     18 BR   UNL d   1      26.925 -10.391  -7.038  0.00  0.00    -0.051 Br
ATOM     19  C   UNL d   1      25.905 -11.584  -4.648  0.00  0.00     0.020 A 
ATOM     20  C   UNL d   1      25.719 -12.623  -3.722  0.00  0.00     0.018 A 
ENDBRANCH   2  14
TORSDOF 3
ENDMDL
