MODEL 1
REMARK VINA RESULT:    -9.077      0.000      0.000
REMARK INTER + INTRA:         -13.873
REMARK INTER:                 -11.463
REMARK INTRA:                  -2.410
REMARK CONF_INDEPENDENT:        2.386
REMARK UNBOUND:                -2.410
REMARK  8 active torsions:
REMARK  status: ('A' for Active; 'I' for Inactive)
REMARK    1  A    between atoms: O_2  and  C_3 
REMARK    2  A    between atoms: C_8  and  N_9 
REMARK       I    between atoms: N_9  and  C_10 
REMARK       I    between atoms: C_10  and  N_12 
REMARK    3  A    between atoms: N_12  and  C_13 
REMARK    4  A    between atoms: C_15  and  C_16 
REMARK    5  A    between atoms: C_16  and  C_17 
REMARK       I    between atoms: C_17  and  N_19 
REMARK    6  A    between atoms: N_19  and  C_20 
REMARK    7  A    between atoms: C_25  and  O_26 
REMARK    8  A    between atoms: O_26  and  C_27 
ROOT
ATOM      1  C   UNL d   1      28.327 -14.579  -6.180  0.00  0.00     0.174 C 
ATOM      2  N   UNL d   1      27.716 -15.013  -5.094  0.00  0.00    -0.228 NA
ATOM      3  C   UNL d   1      27.094 -13.992  -4.331  0.00  0.00     0.052 C 
ATOM      4  C   UNL d   1      27.069 -12.792  -5.037  0.00  0.00     0.081 C 
ATOM      5  S   UNL d   1      27.901 -12.954  -6.568  0.00  0.00    -0.062 SA
ENDROOT
BRANCH   3   6
ATOM      6  C   UNL d   1      26.729 -14.190  -2.812  0.00  0.00     0.163 C 
BRANCH   6   7
ATOM      7  C   UNL d   1      25.649 -15.274  -2.523  0.00  0.00     0.227 C 
ATOM      8  O   UNL d   1      25.155 -15.951  -3.423  0.00  0.00    -0.273 OA
ATOM      9  N   UNL d   1      25.184 -15.438  -1.210  0.00  0.00    -0.324 N 
ATOM     10  H   UNL d   1      25.344 -14.754  -0.482  0.00  0.00     0.169 HD
BRANCH   9  11
ATOM     11  C   UNL d   1      24.404 -16.587  -0.843  0.00  0.00     0.069 A 
ATOM     12  C   UNL d   1      23.004 -16.469  -0.895  0.00  0.00     0.032 A 
ATOM     13  C   UNL d   1      22.166 -17.556  -0.594  0.00  0.00     0.002 A 
ATOM     14  C   UNL d   1      22.714 -18.790  -0.259  0.00  0.00     0.003 A 
ATOM     15  C   UNL d   1      24.098 -18.913  -0.165  0.00  0.00     0.039 A 
ATOM     16  C   UNL d   1      24.954 -17.821  -0.433  0.00  0.00     0.102 A 
BRANCH  16  17
ATOM     17  O   UNL d   1      26.280 -18.151  -0.241  0.00  0.00    -0.309 OA
BRANCH  17  18
ATOM     18  C   UNL d   1      27.256 -17.203  -0.112  0.00  0.00     0.076 C 
ATOM     19  C   UNL d   1      28.112 -17.074  -1.192  0.00  0.00     0.037 C 
ATOM     20  C   UNL d   1      29.143 -16.139  -1.168  0.00  0.00     0.003 C 
ATOM     21  C   UNL d   1      29.184 -15.176  -0.169  0.00  0.00     0.000 C 
ATOM     22  C   UNL d   1      28.306 -15.273   0.902  0.00  0.00     0.003 C 
ATOM     23  C   UNL d   1      27.395 -16.334   0.969  0.00  0.00     0.037 C 
ENDBRANCH  17  18
ENDBRANCH  16  17
ENDBRANCH   9  11
ENDBRANCH   6   7
ENDBRANCH   3   6
BRANCH   1  24
ATOM     24  N   UNL d   1      29.265 -15.226  -7.021  0.00  0.00    -0.287 N 
ATOM     25  C   UNL d   1      30.263 -16.083  -6.527  0.00  0.00     0.326 C 
ATOM     26  N   UNL d   1      30.500 -17.220  -7.319  0.00  0.00    -0.306 N 
ATOM     27  O   UNL d   1      30.786 -15.980  -5.407  0.00  0.00    -0.247 OA
ATOM     28  H   UNL d   1      30.790 -17.066  -8.275  0.00  0.00     0.171 HD
ATOM     29  H   UNL d   1      29.303 -14.937  -7.986  0.00  0.00     0.172 HD
BRANCH  26  30
ATOM     30  C   UNL d   1      30.780 -18.542  -6.776  0.00  0.00     0.069 A 
ATOM     31  C   UNL d   1      31.321 -19.524  -7.643  0.00  0.00     0.032 A 
ATOM     32  C   UNL d   1      31.647 -20.827  -7.199  0.00  0.00     0.002 A 
ATOM     33  C   UNL d   1      31.432 -21.190  -5.877  0.00  0.00     0.003 A 
ATOM     34  C   UNL d   1      30.839 -20.268  -5.027  0.00  0.00     0.039 A 
ATOM     35  C   UNL d   1      30.515 -18.959  -5.452  0.00  0.00     0.095 A 
BRANCH  35  36
ATOM     36  O   UNL d   1      30.027 -18.231  -4.406  0.00  0.00    -0.354 OA
ATOM     37  C   UNL d   1      30.839 -18.033  -3.270  0.00  0.00     0.210 C 
ENDBRANCH  35  36
ENDBRANCH  26  30
ENDBRANCH   1  24
TORSDOF 8
ENDMDL
MODEL 2
REMARK VINA RESULT:    -8.769      2.046      6.070
REMARK INTER + INTRA:         -14.202
REMARK INTER:                 -11.155
REMARK INTRA:                  -3.047
REMARK CONF_INDEPENDENT:        2.386
REMARK UNBOUND:                -3.047
REMARK  8 active torsions:
REMARK  status: ('A' for Active; 'I' for Inactive)
REMARK    1  A    between atoms: O_2  and  C_3 
REMARK    2  A    between atoms: C_8  and  N_9 
REMARK       I    between atoms: N_9  and  C_10 
REMARK       I    between atoms: C_10  and  N_12 
REMARK    3  A    between atoms: N_12  and  C_13 
REMARK    4  A    between atoms: C_15  and  C_16 
REMARK    5  A    between atoms: C_16  and  C_17 
REMARK       I    between atoms: C_17  and  N_19 
REMARK    6  A    between atoms: N_19  and  C_20 
REMARK    7  A    between atoms: C_25  and  O_26 
REMARK    8  A    between atoms: O_26  and  C_27 
ROOT
ATOM      1  C   UNL d   1      30.038 -16.188  -6.069  0.00  0.00     0.174 C 
ATOM      2  N   UNL d   1      30.290 -16.346  -4.784  0.00  0.00    -0.228 NA
ATOM      3  C   UNL d   1      30.827 -17.614  -4.449  0.00  0.00     0.052 C 
ATOM      4  C   UNL d   1      31.189 -18.317  -5.595  0.00  0.00     0.081 C 
ATOM      5  S   UNL d   1      30.760 -17.421  -7.035  0.00  0.00    -0.062 SA
ENDROOT
BRANCH   3   6
ATOM      6  C   UNL d   1      30.765 -18.187  -2.983  0.00  0.00     0.163 C 
BRANCH   6   7
ATOM      7  C   UNL d   1      29.881 -17.378  -1.989  0.00  0.00     0.227 C 
ATOM      8  O   UNL d   1      29.932 -17.566  -0.775  0.00  0.00    -0.273 OA
ATOM      9  N   UNL d   1      28.957 -16.454  -2.500  0.00  0.00    -0.324 N 
ATOM     10  H   UNL d   1      28.676 -16.438  -3.471  0.00  0.00     0.169 HD
BRANCH   9  11
ATOM     11  C   UNL d   1      28.320 -15.497  -1.637  0.00  0.00     0.069 A 
ATOM     12  C   UNL d   1      28.753 -14.162  -1.711  0.00  0.00     0.032 A 
ATOM     13  C   UNL d   1      28.157 -13.153  -0.935  0.00  0.00     0.002 A 
ATOM     14  C   UNL d   1      27.097 -13.459  -0.087  0.00  0.00     0.003 A 
ATOM     15  C   UNL d   1      26.681 -14.784   0.027  0.00  0.00     0.039 A 
ATOM     16  C   UNL d   1      27.292 -15.814  -0.723  0.00  0.00     0.102 A 
BRANCH  16  17
ATOM     17  O   UNL d   1      26.755 -17.050  -0.427  0.00  0.00    -0.309 OA
BRANCH  17  18
ATOM     18  C   UNL d   1      25.419 -17.312  -0.546  0.00  0.00     0.076 C 
ATOM     19  C   UNL d   1      25.018 -18.574  -0.143  0.00  0.00     0.037 C 
ATOM     20  C   UNL d   1      23.680 -18.948  -0.220  0.00  0.00     0.003 C 
ATOM     21  C   UNL d   1      22.706 -17.994  -0.481  0.00  0.00     0.000 C 
ATOM     22  C   UNL d   1      23.094 -16.713  -0.850  0.00  0.00     0.003 C 
ATOM     23  C   UNL d   1      24.453 -16.396  -0.959  0.00  0.00     0.037 C 
ENDBRANCH  17  18
ENDBRANCH  16  17
ENDBRANCH   9  11
ENDBRANCH   6   7
ENDBRANCH   3   6
BRANCH   1  24
ATOM     24  N   UNL d   1      29.267 -15.205  -6.736  0.00  0.00    -0.287 N 
ATOM     25  C   UNL d   1      27.985 -14.825  -6.306  0.00  0.00     0.326 C 
ATOM     26  N   UNL d   1      27.720 -13.448  -6.404  0.00  0.00    -0.306 N 
ATOM     27  O   UNL d   1      27.191 -15.575  -5.718  0.00  0.00    -0.247 OA
ATOM     28  H   UNL d   1      27.781 -13.029  -7.321  0.00  0.00     0.171 HD
ATOM     29  H   UNL d   1      29.597 -14.882  -7.632  0.00  0.00     0.172 HD
BRANCH  26  30
ATOM     30  C   UNL d   1      26.965 -12.695  -5.412  0.00  0.00     0.069 A 
ATOM     31  C   UNL d   1      27.326 -11.346  -5.174  0.00  0.00     0.032 A 
ATOM     32  C   UNL d   1      26.635 -10.531  -4.247  0.00  0.00     0.002 A 
ATOM     33  C   UNL d   1      25.568 -11.044  -3.524  0.00  0.00     0.003 A 
ATOM     34  C   UNL d   1      25.240 -12.382  -3.688  0.00  0.00     0.039 A 
ATOM     35  C   UNL d   1      25.915 -13.208  -4.616  0.00  0.00     0.095 A 
BRANCH  35  36
ATOM     36  O   UNL d   1      25.346 -14.448  -4.645  0.00  0.00    -0.354 OA
ATOM     37  C   UNL d   1      25.530 -15.311  -3.545  0.00  0.00     0.210 C 
ENDBRANCH  35  36
ENDBRANCH  26  30
ENDBRANCH   1  24
TORSDOF 8
ENDMDL
MODEL 3
REMARK VINA RESULT:    -8.452      2.837      6.948
REMARK INTER + INTRA:         -15.101
REMARK INTER:                 -10.838
REMARK INTRA:                  -4.262
REMARK CONF_INDEPENDENT:        2.386
REMARK UNBOUND:                -4.262
REMARK  8 active torsions:
REMARK  status: ('A' for Active; 'I' for Inactive)
REMARK    1  A    between atoms: O_2  and  C_3 
REMARK    2  A    between atoms: C_8  and  N_9 
REMARK       I    between atoms: N_9  and  C_10 
REMARK       I    between atoms: C_10  and  N_12 
REMARK    3  A    between atoms: N_12  and  C_13 
REMARK    4  A    between atoms: C_15  and  C_16 
REMARK    5  A    between atoms: C_16  and  C_17 
REMARK       I    between atoms: C_17  and  N_19 
REMARK    6  A    between atoms: N_19  and  C_20 
REMARK    7  A    between atoms: C_25  and  O_26 
REMARK    8  A    between atoms: O_26  and  C_27 
ROOT
ATOM      1  C   UNL d   1      30.168 -17.475  -1.860  0.00  0.00     0.174 C 
ATOM      2  N   UNL d   1      29.484 -17.062  -2.909  0.00  0.00    -0.228 NA
ATOM      3  C   UNL d   1      30.042 -17.445  -4.154  0.00  0.00     0.052 C 
ATOM      4  C   UNL d   1      31.060 -18.379  -3.974  0.00  0.00     0.081 C 
ATOM      5  S   UNL d   1      31.346 -18.665  -2.272  0.00  0.00    -0.062 SA
ENDROOT
BRANCH   3   6
ATOM      6  C   UNL d   1      29.686 -16.700  -5.495  0.00  0.00     0.163 C 
BRANCH   6   7
ATOM      7  C   UNL d   1      28.619 -15.573  -5.366  0.00  0.00     0.227 C 
ATOM      8  O   UNL d   1      27.948 -15.203  -6.329  0.00  0.00    -0.273 OA
ATOM      9  N   UNL d   1      28.464 -14.922  -4.133  0.00  0.00    -0.324 N 
ATOM     10  H   UNL d   1      29.146 -14.986  -3.389  0.00  0.00     0.169 HD
BRANCH   9  11
ATOM     11  C   UNL d   1      27.327 -14.079  -3.884  0.00  0.00     0.069 A 
ATOM     12  C   UNL d   1      27.513 -12.689  -3.973  0.00  0.00     0.032 A 
ATOM     13  C   UNL d   1      26.446 -11.793  -3.787  0.00  0.00     0.002 A 
ATOM     14  C   UNL d   1      25.167 -12.274  -3.531  0.00  0.00     0.003 A 
ATOM     15  C   UNL d   1      24.972 -13.648  -3.402  0.00  0.00     0.039 A 
ATOM     16  C   UNL d   1      26.041 -14.560  -3.554  0.00  0.00     0.102 A 
BRANCH  16  17
ATOM     17  O   UNL d   1      25.636 -15.862  -3.344  0.00  0.00    -0.309 OA
BRANCH  17  18
ATOM     18  C   UNL d   1      25.662 -16.443  -2.108  0.00  0.00     0.076 C 
ATOM     19  C   UNL d   1      24.462 -16.980  -1.673  0.00  0.00     0.037 C 
ATOM     20  C   UNL d   1      24.374 -17.597  -0.429  0.00  0.00     0.003 C 
ATOM     21  C   UNL d   1      25.528 -17.884   0.286  0.00  0.00     0.000 C 
ATOM     22  C   UNL d   1      26.744 -17.383  -0.158  0.00  0.00     0.003 C 
ATOM     23  C   UNL d   1      26.797 -16.595  -1.314  0.00  0.00     0.037 C 
ENDBRANCH  17  18
ENDBRANCH  16  17
ENDBRANCH   9  11
ENDBRANCH   6   7
ENDBRANCH   3   6
BRANCH   1  24
ATOM     24  N   UNL d   1      30.093 -17.075  -0.504  0.00  0.00    -0.287 N 
ATOM     25  C   UNL d   1      30.030 -15.727  -0.112  0.00  0.00     0.326 C 
ATOM     26  N   UNL d   1      29.158 -15.471   0.960  0.00  0.00    -0.306 N 
ATOM     27  O   UNL d   1      30.539 -14.788  -0.743  0.00  0.00    -0.247 OA
ATOM     28  H   UNL d   1      29.344 -15.948   1.832  0.00  0.00     0.171 HD
ATOM     29  H   UNL d   1      30.241 -17.781   0.200  0.00  0.00     0.172 HD
BRANCH  26  30
ATOM     30  C   UNL d   1      28.311 -14.290   1.053  0.00  0.00     0.069 A 
ATOM     31  C   UNL d   1      28.174 -13.468  -0.094  0.00  0.00     0.032 A 
ATOM     32  C   UNL d   1      27.354 -12.315  -0.104  0.00  0.00     0.002 A 
ATOM     33  C   UNL d   1      26.655 -11.944   1.035  0.00  0.00     0.003 A 
ATOM     34  C   UNL d   1      26.827 -12.693   2.190  0.00  0.00     0.039 A 
ATOM     35  C   UNL d   1      27.636 -13.853   2.216  0.00  0.00     0.095 A 
BRANCH  35  36
ATOM     36  O   UNL d   1      27.567 -14.449   3.441  0.00  0.00    -0.354 OA
ATOM     37  C   UNL d   1      28.709 -14.448   4.268  0.00  0.00     0.210 C 
ENDBRANCH  35  36
ENDBRANCH  26  30
ENDBRANCH   1  24
TORSDOF 8
ENDMDL
MODEL 4
REMARK VINA RESULT:    -8.126      2.800      6.873
REMARK INTER + INTRA:         -15.023
REMARK INTER:                 -10.512
REMARK INTRA:                  -4.511
REMARK CONF_INDEPENDENT:        2.386
REMARK UNBOUND:                -4.511
REMARK  8 active torsions:
REMARK  status: ('A' for Active; 'I' for Inactive)
REMARK    1  A    between atoms: O_2  and  C_3 
REMARK    2  A    between atoms: C_8  and  N_9 
REMARK       I    between atoms: N_9  and  C_10 
REMARK       I    between atoms: C_10  and  N_12 
REMARK    3  A    between atoms: N_12  and  C_13 
REMARK    4  A    between atoms: C_15  and  C_16 
REMARK    5  A    between atoms: C_16  and  C_17 
REMARK       I    between atoms: C_17  and  N_19 
REMARK    6  A    between atoms: N_19  and  C_20 
REMARK    7  A    between atoms: C_25  and  O_26 
REMARK    8  A    between atoms: O_26  and  C_27 
ROOT
ATOM      1  C   UNL d   1      30.092 -17.514  -1.824  0.00  0.00     0.174 C 
ATOM      2  N   UNL d   1      29.473 -17.064  -2.898  0.00  0.00    -0.228 NA
ATOM      3  C   UNL d   1      30.068 -17.464  -4.121  0.00  0.00     0.052 C 
ATOM      4  C   UNL d   1      31.035 -18.442  -3.905  0.00  0.00     0.081 C 
ATOM      5  S   UNL d   1      31.234 -18.752  -2.194  0.00  0.00    -0.062 SA
ENDROOT
BRANCH   3   6
ATOM      6  C   UNL d   1      29.804 -16.694  -5.470  0.00  0.00     0.163 C 
BRANCH   6   7
ATOM      7  C   UNL d   1      28.726 -15.573  -5.396  0.00  0.00     0.227 C 
ATOM      8  O   UNL d   1      28.110 -15.200  -6.393  0.00  0.00    -0.273 OA
ATOM      9  N   UNL d   1      28.498 -14.930  -4.170  0.00  0.00    -0.324 N 
ATOM     10  H   UNL d   1      29.136 -14.996  -3.389  0.00  0.00     0.169 HD
BRANCH   9  11
ATOM     11  C   UNL d   1      27.345 -14.094  -3.982  0.00  0.00     0.069 A 
ATOM     12  C   UNL d   1      27.519 -12.704  -4.103  0.00  0.00     0.032 A 
ATOM     13  C   UNL d   1      26.438 -11.816  -3.976  0.00  0.00     0.002 A 
ATOM     14  C   UNL d   1      25.155 -12.304  -3.749  0.00  0.00     0.003 A 
ATOM     15  C   UNL d   1      24.971 -13.676  -3.589  0.00  0.00     0.039 A 
ATOM     16  C   UNL d   1      26.053 -14.580  -3.681  0.00  0.00     0.102 A 
BRANCH  16  17
ATOM     17  O   UNL d   1      25.655 -15.880  -3.450  0.00  0.00    -0.309 OA
BRANCH  17  18
ATOM     18  C   UNL d   1      25.642 -16.427  -2.197  0.00  0.00     0.076 C 
ATOM     19  C   UNL d   1      24.418 -16.909  -1.767  0.00  0.00     0.037 C 
ATOM     20  C   UNL d   1      24.291 -17.487  -0.508  0.00  0.00     0.003 C 
ATOM     21  C   UNL d   1      25.424 -17.794   0.234  0.00  0.00     0.000 C 
ATOM     22  C   UNL d   1      26.663 -17.347  -0.206  0.00  0.00     0.003 C 
ATOM     23  C   UNL d   1      26.760 -16.595  -1.382  0.00  0.00     0.037 C 
ENDBRANCH  17  18
ENDBRANCH  16  17
ENDBRANCH   9  11
ENDBRANCH   6   7
ENDBRANCH   3   6
BRANCH   1  24
ATOM     24  N   UNL d   1      29.974 -17.119  -0.469  0.00  0.00    -0.287 N 
ATOM     25  C   UNL d   1      30.007 -15.774  -0.064  0.00  0.00     0.326 C 
ATOM     26  N   UNL d   1      29.101 -15.451   0.961  0.00  0.00    -0.306 N 
ATOM     27  O   UNL d   1      30.632 -14.879  -0.653  0.00  0.00    -0.247 OA
ATOM     28  H   UNL d   1      29.195 -15.950   1.835  0.00  0.00     0.171 HD
ATOM     29  H   UNL d   1      30.020 -17.841   0.232  0.00  0.00     0.172 HD
BRANCH  26  30
ATOM     30  C   UNL d   1      28.357 -14.201   1.021  0.00  0.00     0.069 A 
ATOM     31  C   UNL d   1      27.752 -13.836   2.250  0.00  0.00     0.032 A 
ATOM     32  C   UNL d   1      27.030 -12.631   2.408  0.00  0.00     0.002 A 
ATOM     33  C   UNL d   1      26.881 -11.759   1.340  0.00  0.00     0.003 A 
ATOM     34  C   UNL d   1      27.403 -12.127   0.108  0.00  0.00     0.039 A 
ATOM     35  C   UNL d   1      28.136 -13.324  -0.066  0.00  0.00     0.095 A 
BRANCH  35  36
ATOM     36  O   UNL d   1      28.610 -13.406  -1.342  0.00  0.00    -0.354 OA
ATOM     37  C   UNL d   1      29.578 -12.477  -1.774  0.00  0.00     0.210 C 
ENDBRANCH  35  36
ENDBRANCH  26  30
ENDBRANCH   1  24
TORSDOF 8
ENDMDL
MODEL 5
REMARK VINA RESULT:    -7.929      2.646      5.402
REMARK INTER + INTRA:         -13.793
REMARK INTER:                 -10.316
REMARK INTRA:                  -3.477
REMARK CONF_INDEPENDENT:        2.386
REMARK UNBOUND:                -3.477
REMARK  8 active torsions:
REMARK  status: ('A' for Active; 'I' for Inactive)
REMARK    1  A    between atoms: O_2  and  C_3 
REMARK    2  A    between atoms: C_8  and  N_9 
REMARK       I    between atoms: N_9  and  C_10 
REMARK       I    between atoms: C_10  and  N_12 
REMARK    3  A    between atoms: N_12  and  C_13 
REMARK    4  A    between atoms: C_15  and  C_16 
REMARK    5  A    between atoms: C_16  and  C_17 
REMARK       I    between atoms: C_17  and  N_19 
REMARK    6  A    between atoms: N_19  and  C_20 
REMARK    7  A    between atoms: C_25  and  O_26 
REMARK    8  A    between atoms: O_26  and  C_27 
ROOT
ATOM      1  C   UNL d   1      30.143 -16.054  -4.694  0.00  0.00     0.174 C 
ATOM      2  N   UNL d   1      30.175 -15.344  -3.582  0.00  0.00    -0.228 NA
ATOM      3  C   UNL d   1      30.074 -16.115  -2.397  0.00  0.00     0.052 C 
ATOM      4  C   UNL d   1      30.206 -17.473  -2.677  0.00  0.00     0.081 C 
ATOM      5  S   UNL d   1      30.350 -17.740  -4.401  0.00  0.00    -0.062 SA
ENDROOT
BRANCH   3   6
ATOM      6  C   UNL d   1      29.627 -15.484  -1.024  0.00  0.00     0.163 C 
BRANCH   6   7
ATOM      7  C   UNL d   1      28.216 -15.911  -0.525  0.00  0.00     0.227 C 
ATOM      8  O   UNL d   1      27.667 -15.351   0.423  0.00  0.00    -0.273 OA
ATOM      9  N   UNL d   1      27.581 -17.005  -1.134  0.00  0.00    -0.324 N 
ATOM     10  H   UNL d   1      28.071 -17.664  -1.724  0.00  0.00     0.169 HD
BRANCH   9  11
ATOM     11  C   UNL d   1      26.188 -17.268  -0.904  0.00  0.00     0.069 A 
ATOM     12  C   UNL d   1      25.837 -17.939   0.280  0.00  0.00     0.032 A 
ATOM     13  C   UNL d   1      24.494 -18.200   0.604  0.00  0.00     0.002 A 
ATOM     14  C   UNL d   1      23.475 -17.771  -0.240  0.00  0.00     0.003 A 
ATOM     15  C   UNL d   1      23.807 -17.138  -1.436  0.00  0.00     0.039 A 
ATOM     16  C   UNL d   1      25.154 -16.897  -1.792  0.00  0.00     0.102 A 
BRANCH  16  17
ATOM     17  O   UNL d   1      25.256 -16.299  -3.031  0.00  0.00    -0.309 OA
BRANCH  17  18
ATOM     18  C   UNL d   1      25.555 -14.974  -3.178  0.00  0.00     0.076 C 
ATOM     19  C   UNL d   1      25.155 -14.399  -4.373  0.00  0.00     0.037 C 
ATOM     20  C   UNL d   1      25.407 -13.055  -4.628  0.00  0.00     0.003 C 
ATOM     21  C   UNL d   1      25.852 -12.225  -3.608  0.00  0.00     0.000 C 
ATOM     22  C   UNL d   1      26.222 -12.785  -2.392  0.00  0.00     0.003 C 
ATOM     23  C   UNL d   1      26.148 -14.170  -2.206  0.00  0.00     0.037 C 
ENDBRANCH  17  18
ENDBRANCH  16  17
ENDBRANCH   9  11
ENDBRANCH   6   7
ENDBRANCH   3   6
BRANCH   1  24
ATOM     24  N   UNL d   1      29.943 -15.645  -6.034  0.00  0.00    -0.287 N 
ATOM     25  C   UNL d   1      28.779 -14.985  -6.461  0.00  0.00     0.326 C 
ATOM     26  N   UNL d   1      29.000 -13.952  -7.390  0.00  0.00    -0.306 N 
ATOM     27  O   UNL d   1      27.657 -15.143  -5.957  0.00  0.00    -0.247 OA
ATOM     28  H   UNL d   1      29.448 -14.202  -8.261  0.00  0.00     0.171 HD
ATOM     29  H   UNL d   1      30.598 -15.976  -6.725  0.00  0.00     0.172 HD
BRANCH  26  30
ATOM     30  C   UNL d   1      28.271 -12.692  -7.390  0.00  0.00     0.069 A 
ATOM     31  C   UNL d   1      27.782 -12.198  -8.625  0.00  0.00     0.032 A 
ATOM     32  C   UNL d   1      27.043 -10.995  -8.718  0.00  0.00     0.002 A 
ATOM     33  C   UNL d   1      26.781 -10.245  -7.581  0.00  0.00     0.003 A 
ATOM     34  C   UNL d   1      27.310 -10.671  -6.371  0.00  0.00     0.039 A 
ATOM     35  C   UNL d   1      28.043 -11.875  -6.259  0.00  0.00     0.095 A 
BRANCH  35  36
ATOM     36  O   UNL d   1      28.373 -12.106  -4.955  0.00  0.00    -0.354 OA
ATOM     37  C   UNL d   1      29.734 -12.216  -4.603  0.00  0.00     0.210 C 
ENDBRANCH  35  36
ENDBRANCH  26  30
ENDBRANCH   1  24
TORSDOF 8
ENDMDL
MODEL 6
REMARK VINA RESULT:    -7.534      3.896      7.323
REMARK INTER + INTRA:         -13.826
REMARK INTER:                  -9.920
REMARK INTRA:                  -3.906
REMARK CONF_INDEPENDENT:        2.386
REMARK UNBOUND:                -3.906
REMARK  8 active torsions:
REMARK  status: ('A' for Active; 'I' for Inactive)
REMARK    1  A    between atoms: O_2  and  C_3 
REMARK    2  A    between atoms: C_8  and  N_9 
REMARK       I    between atoms: N_9  and  C_10 
REMARK       I    between atoms: C_10  and  N_12 
REMARK    3  A    between atoms: N_12  and  C_13 
REMARK    4  A    between atoms: C_15  and  C_16 
REMARK    5  A    between atoms: C_16  and  C_17 
REMARK       I    between atoms: C_17  and  N_19 
REMARK    6  A    between atoms: N_19  and  C_20 
REMARK    7  A    between atoms: C_25  and  O_26 
REMARK    8  A    between atoms: O_26  and  C_27 
ROOT
ATOM      1  C   UNL d   1      27.527 -11.954  -0.732  0.00  0.00     0.174 C 
ATOM      2  N   UNL d   1      27.526 -13.179  -1.221  0.00  0.00    -0.228 NA
ATOM      3  C   UNL d   1      27.707 -13.243  -2.626  0.00  0.00     0.052 C 
ATOM      4  C   UNL d   1      28.085 -12.003  -3.134  0.00  0.00     0.081 C 
ATOM      5  S   UNL d   1      28.104 -10.793  -1.869  0.00  0.00    -0.062 SA
ENDROOT
BRANCH   3   6
ATOM      6  C   UNL d   1      27.283 -14.506  -3.467  0.00  0.00     0.163 C 
BRANCH   6   7
ATOM      7  C   UNL d   1      26.029 -15.264  -2.941  0.00  0.00     0.227 C 
ATOM      8  O   UNL d   1      25.155 -15.676  -3.702  0.00  0.00    -0.273 OA
ATOM      9  N   UNL d   1      25.863 -15.425  -1.557  0.00  0.00    -0.324 N 
ATOM     10  H   UNL d   1      26.388 -14.894  -0.876  0.00  0.00     0.169 HD
BRANCH   9  11
ATOM     11  C   UNL d   1      24.884 -16.338  -1.035  0.00  0.00     0.069 A 
ATOM     12  C   UNL d   1      23.529 -16.044  -1.265  0.00  0.00     0.032 A 
ATOM     13  C   UNL d   1      22.507 -16.904  -0.826  0.00  0.00     0.002 A 
ATOM     14  C   UNL d   1      22.825 -18.089  -0.171  0.00  0.00     0.003 A 
ATOM     15  C   UNL d   1      24.161 -18.377   0.099  0.00  0.00     0.039 A 
ATOM     16  C   UNL d   1      25.198 -17.506  -0.307  0.00  0.00     0.102 A 
BRANCH  16  17
ATOM     17  O   UNL d   1      26.436 -17.962   0.097  0.00  0.00    -0.309 OA
BRANCH  17  18
ATOM     18  C   UNL d   1      27.543 -17.160   0.099  0.00  0.00     0.076 C 
ATOM     19  C   UNL d   1      28.494 -17.450  -0.865  0.00  0.00     0.037 C 
ATOM     20  C   UNL d   1      29.660 -16.697  -0.954  0.00  0.00     0.003 C 
ATOM     21  C   UNL d   1      29.781 -15.515  -0.237  0.00  0.00     0.000 C 
ATOM     22  C   UNL d   1      28.815 -15.194   0.708  0.00  0.00     0.003 C 
ATOM     23  C   UNL d   1      27.737 -16.059   0.930  0.00  0.00     0.037 C 
ENDBRANCH  17  18
ENDBRANCH  16  17
ENDBRANCH   9  11
ENDBRANCH   6   7
ENDBRANCH   3   6
BRANCH   1  24
ATOM     24  N   UNL d   1      27.112 -11.475   0.534  0.00  0.00    -0.287 N 
ATOM     25  C   UNL d   1      26.722 -12.330   1.579  0.00  0.00     0.326 C 
ATOM     26  N   UNL d   1      27.160 -11.933   2.854  0.00  0.00    -0.306 N 
ATOM     27  O   UNL d   1      26.194 -13.441   1.417  0.00  0.00    -0.247 OA
ATOM     28  H   UNL d   1      26.861 -11.025   3.184  0.00  0.00     0.171 HD
ATOM     29  H   UNL d   1      26.952 -10.485   0.629  0.00  0.00     0.172 HD
BRANCH  26  30
ATOM     30  C   UNL d   1      27.623 -12.858   3.878  0.00  0.00     0.069 A 
ATOM     31  C   UNL d   1      27.728 -14.232   3.545  0.00  0.00     0.032 A 
ATOM     32  C   UNL d   1      28.190 -15.200   4.467  0.00  0.00     0.002 A 
ATOM     33  C   UNL d   1      28.550 -14.825   5.753  0.00  0.00     0.003 A 
ATOM     34  C   UNL d   1      28.389 -13.498   6.125  0.00  0.00     0.039 A 
ATOM     35  C   UNL d   1      27.937 -12.516   5.213  0.00  0.00     0.095 A 
BRANCH  35  36
ATOM     36  O   UNL d   1      27.949 -11.285   5.801  0.00  0.00    -0.354 OA
ATOM     37  C   UNL d   1      28.530 -11.141   7.078  0.00  0.00     0.210 C 
ENDBRANCH  35  36
ENDBRANCH  26  30
ENDBRANCH   1  24
TORSDOF 8
ENDMDL
MODEL 7
REMARK VINA RESULT:    -7.081      3.801      6.664
REMARK INTER + INTRA:         -13.945
REMARK INTER:                  -9.468
REMARK INTRA:                  -4.477
REMARK CONF_INDEPENDENT:        2.386
REMARK UNBOUND:                -4.477
REMARK  8 active torsions:
REMARK  status: ('A' for Active; 'I' for Inactive)
REMARK    1  A    between atoms: O_2  and  C_3 
REMARK    2  A    between atoms: C_8  and  N_9 
REMARK       I    between atoms: N_9  and  C_10 
REMARK       I    between atoms: C_10  and  N_12 
REMARK    3  A    between atoms: N_12  and  C_13 
REMARK    4  A    between atoms: C_15  and  C_16 
REMARK    5  A    between atoms: C_16  and  C_17 
REMARK       I    between atoms: C_17  and  N_19 
REMARK    6  A    between atoms: N_19  and  C_20 
REMARK    7  A    between atoms: C_25  and  O_26 
REMARK    8  A    between atoms: O_26  and  C_27 
ROOT
ATOM      1  C   UNL d   1      27.288 -11.892  -1.031  0.00  0.00     0.174 C 
ATOM      2  N   UNL d   1      27.474 -13.080  -1.574  0.00  0.00    -0.228 NA
ATOM      3  C   UNL d   1      27.343 -13.100  -2.985  0.00  0.00     0.052 C 
ATOM      4  C   UNL d   1      27.285 -11.806  -3.496  0.00  0.00     0.081 C 
ATOM      5  S   UNL d   1      27.295 -10.627  -2.203  0.00  0.00    -0.062 SA
ENDROOT
BRANCH   3   6
ATOM      6  C   UNL d   1      27.060 -14.431  -3.780  0.00  0.00     0.163 C 
BRANCH   6   7
ATOM      7  C   UNL d   1      25.917 -15.318  -3.205  0.00  0.00     0.227 C 
ATOM      8  O   UNL d   1      25.155 -15.948  -3.937  0.00  0.00    -0.273 OA
ATOM      9  N   UNL d   1      25.713 -15.349  -1.817  0.00  0.00    -0.324 N 
ATOM     10  H   UNL d   1      26.117 -14.667  -1.188  0.00  0.00     0.169 HD
BRANCH   9  11
ATOM     11  C   UNL d   1      24.867 -16.344  -1.219  0.00  0.00     0.069 A 
ATOM     12  C   UNL d   1      23.482 -16.103  -1.211  0.00  0.00     0.032 A 
ATOM     13  C   UNL d   1      22.577 -17.042  -0.686  0.00  0.00     0.002 A 
ATOM     14  C   UNL d   1      23.041 -18.251  -0.180  0.00  0.00     0.003 A 
ATOM     15  C   UNL d   1      24.414 -18.490  -0.145  0.00  0.00     0.039 A 
ATOM     16  C   UNL d   1      25.338 -17.542  -0.640  0.00  0.00     0.102 A 
BRANCH  16  17
ATOM     17  O   UNL d   1      26.641 -17.962  -0.471  0.00  0.00    -0.309 OA
BRANCH  17  18
ATOM     18  C   UNL d   1      27.671 -17.084  -0.280  0.00  0.00     0.076 C 
ATOM     19  C   UNL d   1      28.627 -17.056  -1.281  0.00  0.00     0.037 C 
ATOM     20  C   UNL d   1      29.719 -16.199  -1.190  0.00  0.00     0.003 C 
ATOM     21  C   UNL d   1      29.745 -15.206  -0.220  0.00  0.00     0.000 C 
ATOM     22  C   UNL d   1      28.770 -15.201   0.769  0.00  0.00     0.003 C 
ATOM     23  C   UNL d   1      27.779 -16.189   0.783  0.00  0.00     0.037 C 
ENDBRANCH  17  18
ENDBRANCH  16  17
ENDBRANCH   9  11
ENDBRANCH   6   7
ENDBRANCH   3   6
BRANCH   1  24
ATOM     24  N   UNL d   1      27.066 -11.529   0.319  0.00  0.00    -0.287 N 
ATOM     25  C   UNL d   1      26.850 -12.476   1.335  0.00  0.00     0.326 C 
ATOM     26  N   UNL d   1      27.474 -12.172   2.557  0.00  0.00    -0.306 N 
ATOM     27  O   UNL d   1      26.318 -13.582   1.162  0.00  0.00    -0.247 OA
ATOM     28  H   UNL d   1      27.218 -11.303   3.004  0.00  0.00     0.171 HD
ATOM     29  H   UNL d   1      26.910 -10.554   0.520  0.00  0.00     0.172 HD
BRANCH  26  30
ATOM     30  C   UNL d   1      28.099 -13.167   3.418  0.00  0.00     0.069 A 
ATOM     31  C   UNL d   1      27.267 -13.950   4.256  0.00  0.00     0.032 A 
ATOM     32  C   UNL d   1      27.783 -14.955   5.107  0.00  0.00     0.002 A 
ATOM     33  C   UNL d   1      29.148 -15.200   5.153  0.00  0.00     0.003 A 
ATOM     34  C   UNL d   1      29.989 -14.398   4.394  0.00  0.00     0.039 A 
ATOM     35  C   UNL d   1      29.490 -13.395   3.532  0.00  0.00     0.095 A 
BRANCH  35  36
ATOM     36  O   UNL d   1      30.513 -12.816   2.840  0.00  0.00    -0.354 OA
ATOM     37  C   UNL d   1      31.488 -13.639   2.241  0.00  0.00     0.210 C 
ENDBRANCH  35  36
ENDBRANCH  26  30
ENDBRANCH   1  24
TORSDOF 8
ENDMDL
MODEL 8
REMARK VINA RESULT:    -7.006      2.033      6.583
REMARK INTER + INTRA:         -13.848
REMARK INTER:                  -9.392
REMARK INTRA:                  -4.456
REMARK CONF_INDEPENDENT:        2.386
REMARK UNBOUND:                -4.456
REMARK  8 active torsions:
REMARK  status: ('A' for Active; 'I' for Inactive)
REMARK    1  A    between atoms: O_2  and  C_3 
REMARK    2  A    between atoms: C_8  and  N_9 
REMARK       I    between atoms: N_9  and  C_10 
REMARK       I    between atoms: C_10  and  N_12 
REMARK    3  A    between atoms: N_12  and  C_13 
REMARK    4  A    between atoms: C_15  and  C_16 
REMARK    5  A    between atoms: C_16  and  C_17 
REMARK       I    between atoms: C_17  and  N_19 
REMARK    6  A    between atoms: N_19  and  C_20 
REMARK    7  A    between atoms: C_25  and  O_26 
REMARK    8  A    between atoms: O_26  and  C_27 
ROOT
ATOM      1  C   UNL d   1      26.283 -12.565  -5.011  0.00  0.00     0.174 C 
ATOM      2  N   UNL d   1      27.368 -13.163  -5.464  0.00  0.00    -0.228 NA
ATOM      3  C   UNL d   1      28.084 -12.412  -6.430  0.00  0.00     0.052 C 
ATOM      4  C   UNL d   1      27.601 -11.107  -6.501  0.00  0.00     0.081 C 
ATOM      5  S   UNL d   1      26.224 -10.896  -5.442  0.00  0.00    -0.062 SA
ENDROOT
BRANCH   3   6
ATOM      6  C   UNL d   1      29.102 -13.085  -7.426  0.00  0.00     0.163 C 
BRANCH   6   7
ATOM      7  C   UNL d   1      29.754 -14.405  -6.918  0.00  0.00     0.227 C 
ATOM      8  O   UNL d   1      30.878 -14.752  -7.278  0.00  0.00    -0.273 OA
ATOM      9  N   UNL d   1      29.013 -15.249  -6.078  0.00  0.00    -0.324 N 
ATOM     10  H   UNL d   1      28.013 -15.164  -5.958  0.00  0.00     0.169 HD
BRANCH   9  11
ATOM     11  C   UNL d   1      29.650 -16.325  -5.369  0.00  0.00     0.069 A 
ATOM     12  C   UNL d   1      30.272 -17.329  -6.131  0.00  0.00     0.032 A 
ATOM     13  C   UNL d   1      30.954 -18.396  -5.519  0.00  0.00     0.002 A 
ATOM     14  C   UNL d   1      31.047 -18.462  -4.134  0.00  0.00     0.003 A 
ATOM     15  C   UNL d   1      30.404 -17.496  -3.363  0.00  0.00     0.039 A 
ATOM     16  C   UNL d   1      29.687 -16.436  -3.962  0.00  0.00     0.102 A 
BRANCH  16  17
ATOM     17  O   UNL d   1      29.096 -15.621  -3.019  0.00  0.00    -0.309 OA
BRANCH  17  18
ATOM     18  C   UNL d   1      29.208 -14.259  -3.058  0.00  0.00     0.076 C 
ATOM     19  C   UNL d   1      28.251 -13.559  -2.344  0.00  0.00     0.037 C 
ATOM     20  C   UNL d   1      28.271 -12.168  -2.315  0.00  0.00     0.003 C 
ATOM     21  C   UNL d   1      29.370 -11.478  -2.805  0.00  0.00     0.000 C 
ATOM     22  C   UNL d   1      30.356 -12.174  -3.493  0.00  0.00     0.003 C 
ATOM     23  C   UNL d   1      30.233 -13.555  -3.687  0.00  0.00     0.037 C 
ENDBRANCH  17  18
ENDBRANCH  16  17
ENDBRANCH   9  11
ENDBRANCH   6   7
ENDBRANCH   3   6
BRANCH   1  24
ATOM     24  N   UNL d   1      25.192 -13.087  -4.274  0.00  0.00    -0.287 N 
ATOM     25  C   UNL d   1      25.076 -14.450  -3.952  0.00  0.00     0.326 C 
ATOM     26  N   UNL d   1      24.583 -14.704  -2.661  0.00  0.00    -0.306 N 
ATOM     27  O   UNL d   1      25.526 -15.376  -4.644  0.00  0.00    -0.247 OA
ATOM     28  H   UNL d   1      23.666 -14.343  -2.436  0.00  0.00     0.171 HD
ATOM     29  H   UNL d   1      24.406 -12.478  -4.110  0.00  0.00     0.172 HD
BRANCH  26  30
ATOM     30  C   UNL d   1      25.068 -15.777  -1.804  0.00  0.00     0.069 A 
ATOM     31  C   UNL d   1      26.463 -16.027  -1.763  0.00  0.00     0.032 A 
ATOM     32  C   UNL d   1      27.027 -17.032  -0.943  0.00  0.00     0.002 A 
ATOM     33  C   UNL d   1      26.213 -17.823  -0.146  0.00  0.00     0.003 A 
ATOM     34  C   UNL d   1      24.839 -17.644  -0.221  0.00  0.00     0.039 A 
ATOM     35  C   UNL d   1      24.259 -16.639  -1.029  0.00  0.00     0.095 A 
BRANCH  35  36
ATOM     36  O   UNL d   1      22.905 -16.619  -0.858  0.00  0.00    -0.354 OA
ATOM     37  C   UNL d   1      22.238 -17.817  -0.529  0.00  0.00     0.210 C 
ENDBRANCH  35  36
ENDBRANCH  26  30
ENDBRANCH   1  24
TORSDOF 8
ENDMDL
MODEL 9
REMARK VINA RESULT:    -6.944      2.674      6.611
REMARK INTER + INTRA:         -13.746
REMARK INTER:                  -9.331
REMARK INTRA:                  -4.415
REMARK CONF_INDEPENDENT:        2.386
REMARK UNBOUND:                -4.415
REMARK  8 active torsions:
REMARK  status: ('A' for Active; 'I' for Inactive)
REMARK    1  A    between atoms: O_2  and  C_3 
REMARK    2  A    between atoms: C_8  and  N_9 
REMARK       I    between atoms: N_9  and  C_10 
REMARK       I    between atoms: C_10  and  N_12 
REMARK    3  A    between atoms: N_12  and  C_13 
REMARK    4  A    between atoms: C_15  and  C_16 
REMARK    5  A    between atoms: C_16  and  C_17 
REMARK       I    between atoms: C_17  and  N_19 
REMARK    6  A    between atoms: N_19  and  C_20 
REMARK    7  A    between atoms: C_25  and  O_26 
REMARK    8  A    between atoms: O_26  and  C_27 
ROOT
ATOM      1  C   UNL d   1      26.016 -12.265  -4.141  0.00  0.00     0.174 C 
ATOM      2  N   UNL d   1      27.189 -12.043  -3.580  0.00  0.00    -0.228 NA
ATOM      3  C   UNL d   1      28.177 -11.555  -4.472  0.00  0.00     0.052 C 
ATOM      4  C   UNL d   1      27.608 -11.194  -5.691  0.00  0.00     0.081 C 
ATOM      5  S   UNL d   1      25.898 -11.566  -5.713  0.00  0.00    -0.062 SA
ENDROOT
BRANCH   3   6
ATOM      6  C   UNL d   1      29.716 -11.664  -4.156  0.00  0.00     0.163 C 
BRANCH   6   7
ATOM      7  C   UNL d   1      30.184 -13.039  -3.597  0.00  0.00     0.227 C 
ATOM      8  O   UNL d   1      31.341 -13.435  -3.734  0.00  0.00    -0.273 OA
ATOM      9  N   UNL d   1      29.245 -13.875  -2.974  0.00  0.00    -0.324 N 
ATOM     10  H   UNL d   1      28.247 -13.738  -3.060  0.00  0.00     0.169 HD
BRANCH   9  11
ATOM     11  C   UNL d   1      29.667 -15.015  -2.209  0.00  0.00     0.069 A 
ATOM     12  C   UNL d   1      30.142 -14.787  -0.906  0.00  0.00     0.032 A 
ATOM     13  C   UNL d   1      30.536 -15.848  -0.072  0.00  0.00     0.002 A 
ATOM     14  C   UNL d   1      30.438 -17.161  -0.520  0.00  0.00     0.003 A 
ATOM     15  C   UNL d   1      30.006 -17.403  -1.823  0.00  0.00     0.039 A 
ATOM     16  C   UNL d   1      29.638 -16.345  -2.684  0.00  0.00     0.102 A 
BRANCH  16  17
ATOM     17  O   UNL d   1      29.282 -16.804  -3.935  0.00  0.00    -0.309 OA
BRANCH  17  18
ATOM     18  C   UNL d   1      29.345 -16.012  -5.048  0.00  0.00     0.076 C 
ATOM     19  C   UNL d   1      28.201 -15.287  -5.333  0.00  0.00     0.037 C 
ATOM     20  C   UNL d   1      28.155 -14.448  -6.442  0.00  0.00     0.003 C 
ATOM     21  C   UNL d   1      29.319 -14.153  -7.138  0.00  0.00     0.000 C 
ATOM     22  C   UNL d   1      30.483 -14.847  -6.838  0.00  0.00     0.003 C 
ATOM     23  C   UNL d   1      30.475 -15.834  -5.845  0.00  0.00     0.037 C 
ENDBRANCH  17  18
ENDBRANCH  16  17
ENDBRANCH   9  11
ENDBRANCH   6   7
ENDBRANCH   3   6
BRANCH   1  24
ATOM     24  N   UNL d   1      24.897 -12.990  -3.664  0.00  0.00    -0.287 N 
ATOM     25  C   UNL d   1      24.893 -14.390  -3.545  0.00  0.00     0.326 C 
ATOM     26  N   UNL d   1      24.249 -14.876  -2.395  0.00  0.00    -0.306 N 
ATOM     27  O   UNL d   1      25.544 -15.157  -4.271  0.00  0.00    -0.247 OA
ATOM     28  H   UNL d   1      23.274 -14.639  -2.276  0.00  0.00     0.171 HD
ATOM     29  H   UNL d   1      24.031 -12.488  -3.550  0.00  0.00     0.172 HD
BRANCH  26  30
ATOM     30  C   UNL d   1      24.724 -16.013  -1.618  0.00  0.00     0.069 A 
ATOM     31  C   UNL d   1      26.123 -16.207  -1.497  0.00  0.00     0.032 A 
ATOM     32  C   UNL d   1      26.676 -17.269  -0.744  0.00  0.00     0.002 A 
ATOM     33  C   UNL d   1      25.847 -18.174  -0.098  0.00  0.00     0.003 A 
ATOM     34  C   UNL d   1      24.475 -18.046  -0.260  0.00  0.00     0.039 A 
ATOM     35  C   UNL d   1      23.905 -16.986  -1.002  0.00  0.00     0.095 A 
BRANCH  35  36
ATOM     36  O   UNL d   1      22.543 -17.041  -0.933  0.00  0.00    -0.354 OA
ATOM     37  C   UNL d   1      21.926 -18.239  -0.519  0.00  0.00     0.210 C 
ENDBRANCH  35  36
ENDBRANCH  26  30
ENDBRANCH   1  24
TORSDOF 8
ENDMDL
