MODEL 1
REMARK VINA RESULT:   -10.478      0.000      0.000
REMARK INTER + INTRA:         -14.050
REMARK INTER:                 -12.566
REMARK INTRA:                  -1.484
REMARK CONF_INDEPENDENT:        2.088
REMARK UNBOUND:                -1.484
REMARK  7 active torsions:
REMARK  status: ('A' for Active; 'I' for Inactive)
REMARK       I    between atoms: C_2  and  N_3 
REMARK    1  A    between atoms: C_2  and  C_22 
REMARK    2  A    between atoms: N_3  and  C_4 
REMARK    3  A    between atoms: C_4  and  C_5 
REMARK    4  A    between atoms: C_5  and  S_6 
REMARK    5  A    between atoms: S_6  and  C_7 
REMARK    6  A    between atoms: C_8  and  C_9 
REMARK    7  A    between atoms: C_22  and  C_24 
ROOT
ATOM      1  C   UNL d   1      28.542 -16.160  -0.278  0.00  0.00     0.099 C 
ENDROOT
BRANCH   1   2
ATOM      2  C   UNL d   1      27.406 -15.894   0.706  0.00  0.00     0.133 C 
BRANCH   2   3
ATOM      3  N   UNL d   1      27.821 -15.051   1.831  0.00  0.00    -0.353 N 
ATOM      4  C   UNL d   1      27.211 -13.822   2.060  0.00  0.00     0.292 C 
ATOM      5  O   UNL d   1      26.295 -13.414   1.341  0.00  0.00    -0.264 OA
ATOM      6  H   UNL d   1      28.579 -15.362   2.431  0.00  0.00     0.162 HD
BRANCH   4   7
ATOM      7  C   UNL d   1      27.684 -12.962   3.269  0.00  0.00     0.251 C 
ATOM      8  O   UNL d   1      27.726 -11.734   3.132  0.00  0.00    -0.281 OA
BRANCH   7   9
ATOM      9  C   UNL d   1      28.069 -13.564   4.541  0.00  0.00     0.048 C 
ATOM     10  C   UNL d   1      28.083 -14.913   4.845  0.00  0.00     0.105 C 
ATOM     11  N   UNL d   1      28.528 -15.066   6.133  0.00  0.00    -0.364 N 
ATOM     12  C   UNL d   1      28.682 -13.833   6.723  0.00  0.00     0.043 C 
ATOM     13  H   UNL d   1      28.650 -15.950   6.612  0.00  0.00     0.165 HD
ATOM     14  C   UNL d   1      29.061 -13.486   8.024  0.00  0.00     0.030 C 
ATOM     15  C   UNL d   1      28.350 -12.884   5.755  0.00  0.00     0.006 C 
ATOM     16  C   UNL d   1      28.976 -12.135   8.362  0.00  0.00     0.002 C 
ATOM     17  C   UNL d   1      28.530 -11.192   7.434  0.00  0.00     0.001 C 
ATOM     18  C   UNL d   1      28.310 -11.532   6.109  0.00  0.00     0.015 C 
ENDBRANCH   7   9
ENDBRANCH   4   7
ENDBRANCH   2   3
ENDBRANCH   1   2
BRANCH   1  19
ATOM     19  S   UNL d   1      28.005 -16.685  -1.924  0.00  0.00    -0.125 SA
BRANCH  19  20
ATOM     20  C   UNL d   1      26.624 -15.666  -2.382  0.00  0.00     0.040 A 
ATOM     21  C   UNL d   1      25.284 -15.718  -2.033  0.00  0.00     0.060 A 
ATOM     22  N   UNL d   1      24.616 -14.761  -2.760  0.00  0.00    -0.354 N 
ATOM     23  C   UNL d   1      25.472 -14.124  -3.620  0.00  0.00     0.044 A 
ATOM     24  H   UNL d   1      23.620 -14.591  -2.702  0.00  0.00     0.166 HD
ATOM     25  C   UNL d   1      25.221 -13.136  -4.579  0.00  0.00     0.030 A 
ATOM     26  C   UNL d   1      26.740 -14.666  -3.398  0.00  0.00     0.010 A 
ATOM     27  C   UNL d   1      26.303 -12.698  -5.346  0.00  0.00     0.002 A 
ATOM     28  C   UNL d   1      27.581 -13.215  -5.149  0.00  0.00     0.001 A 
ATOM     29  C   UNL d   1      27.811 -14.192  -4.179  0.00  0.00     0.015 A 
BRANCH  21  30
ATOM     30  C   UNL d   1      24.559 -16.600  -1.157  0.00  0.00    -0.008 C 
ATOM     31  C   UNL d   1      25.197 -17.738  -0.692  0.00  0.00     0.014 C 
ATOM     32  C   UNL d   1      24.436 -18.744  -0.144  0.00  0.00     0.001 C 
ATOM     33  C   UNL d   1      23.085 -18.526   0.135  0.00  0.00     0.000 C 
ATOM     34  C   UNL d   1      22.462 -17.349  -0.237  0.00  0.00     0.001 C 
ATOM     35  C   UNL d   1      23.201 -16.383  -0.895  0.00  0.00     0.014 C 
ENDBRANCH  21  30
ENDBRANCH  19  20
ENDBRANCH   1  19
TORSDOF 7
ENDMDL
MODEL 2
REMARK VINA RESULT:    -9.876      0.879      4.010
REMARK INTER + INTRA:         -13.825
REMARK INTER:                 -11.964
REMARK INTRA:                  -1.861
REMARK CONF_INDEPENDENT:        2.088
REMARK UNBOUND:                -1.861
REMARK  7 active torsions:
REMARK  status: ('A' for Active; 'I' for Inactive)
REMARK       I    between atoms: C_2  and  N_3 
REMARK    1  A    between atoms: C_2  and  C_22 
REMARK    2  A    between atoms: N_3  and  C_4 
REMARK    3  A    between atoms: C_4  and  C_5 
REMARK    4  A    between atoms: C_5  and  S_6 
REMARK    5  A    between atoms: S_6  and  C_7 
REMARK    6  A    between atoms: C_8  and  C_9 
REMARK    7  A    between atoms: C_22  and  C_24 
ROOT
ATOM      1  C   UNL d   1      28.988 -15.338  -1.023  0.00  0.00     0.099 C 
ENDROOT
BRANCH   1   2
ATOM      2  C   UNL d   1      28.706 -16.100   0.269  0.00  0.00     0.133 C 
BRANCH   2   3
ATOM      3  N   UNL d   1      28.566 -15.213   1.427  0.00  0.00    -0.353 N 
ATOM      4  C   UNL d   1      27.474 -14.358   1.537  0.00  0.00     0.292 C 
ATOM      5  O   UNL d   1      26.587 -14.333   0.680  0.00  0.00    -0.264 OA
ATOM      6  H   UNL d   1      29.288 -15.210   2.140  0.00  0.00     0.162 HD
BRANCH   4   7
ATOM      7  C   UNL d   1      27.366 -13.435   2.786  0.00  0.00     0.251 C 
ATOM      8  O   UNL d   1      26.871 -12.311   2.642  0.00  0.00    -0.281 OA
BRANCH   7   9
ATOM      9  C   UNL d   1      27.825 -13.861   4.104  0.00  0.00     0.048 C 
ATOM     10  C   UNL d   1      27.859 -15.157   4.585  0.00  0.00     0.105 C 
ATOM     11  N   UNL d   1      28.379 -15.138   5.855  0.00  0.00    -0.364 N 
ATOM     12  C   UNL d   1      28.565 -13.838   6.263  0.00  0.00     0.043 C 
ATOM     13  H   UNL d   1      28.530 -15.950   6.441  0.00  0.00     0.165 HD
ATOM     14  C   UNL d   1      29.019 -13.321   7.481  0.00  0.00     0.030 C 
ATOM     15  C   UNL d   1      28.176 -13.026   5.197  0.00  0.00     0.006 C 
ATOM     16  C   UNL d   1      28.951 -11.936   7.638  0.00  0.00     0.002 C 
ATOM     17  C   UNL d   1      28.450 -11.124   6.618  0.00  0.00     0.001 C 
ATOM     18  C   UNL d   1      28.154 -11.638   5.367  0.00  0.00     0.015 C 
ENDBRANCH   7   9
ENDBRANCH   4   7
ENDBRANCH   2   3
ENDBRANCH   1   2
BRANCH   1  19
ATOM     19  S   UNL d   1      28.270 -16.081  -2.509  0.00  0.00    -0.125 SA
BRANCH  19  20
ATOM     20  C   UNL d   1      26.507 -15.903  -2.391  0.00  0.00     0.040 A 
ATOM     21  C   UNL d   1      25.634 -14.981  -2.945  0.00  0.00     0.060 A 
ATOM     22  N   UNL d   1      24.378 -15.223  -2.441  0.00  0.00    -0.354 N 
ATOM     23  C   UNL d   1      24.416 -16.241  -1.523  0.00  0.00     0.044 A 
ATOM     24  H   UNL d   1      23.553 -14.686  -2.677  0.00  0.00     0.166 HD
ATOM     25  C   UNL d   1      23.398 -16.778  -0.726  0.00  0.00     0.030 A 
ATOM     26  C   UNL d   1      25.737 -16.691  -1.478  0.00  0.00     0.010 A 
ATOM     27  C   UNL d   1      23.749 -17.801   0.156  0.00  0.00     0.002 A 
ATOM     28  C   UNL d   1      25.057 -18.275   0.226  0.00  0.00     0.001 A 
ATOM     29  C   UNL d   1      26.054 -17.734  -0.587  0.00  0.00     0.015 A 
BRANCH  21  30
ATOM     30  C   UNL d   1      25.856 -13.868  -3.831  0.00  0.00    -0.008 C 
ATOM     31  C   UNL d   1      26.558 -14.090  -5.005  0.00  0.00     0.014 C 
ATOM     32  C   UNL d   1      27.065 -13.008  -5.686  0.00  0.00     0.001 C 
ATOM     33  C   UNL d   1      26.691 -11.714  -5.318  0.00  0.00     0.000 C 
ATOM     34  C   UNL d   1      25.906 -11.488  -4.203  0.00  0.00     0.001 C 
ATOM     35  C   UNL d   1      25.493 -12.572  -3.449  0.00  0.00     0.014 C 
ENDBRANCH  21  30
ENDBRANCH  19  20
ENDBRANCH   1  19
TORSDOF 7
ENDMDL
MODEL 3
REMARK VINA RESULT:    -9.372      1.546      2.267
REMARK INTER + INTRA:         -13.687
REMARK INTER:                 -11.460
REMARK INTRA:                  -2.227
REMARK CONF_INDEPENDENT:        2.088
REMARK UNBOUND:                -2.227
REMARK  7 active torsions:
REMARK  status: ('A' for Active; 'I' for Inactive)
REMARK       I    between atoms: C_2  and  N_3 
REMARK    1  A    between atoms: C_2  and  C_22 
REMARK    2  A    between atoms: N_3  and  C_4 
REMARK    3  A    between atoms: C_4  and  C_5 
REMARK    4  A    between atoms: C_5  and  S_6 
REMARK    5  A    between atoms: S_6  and  C_7 
REMARK    6  A    between atoms: C_8  and  C_9 
REMARK    7  A    between atoms: C_22  and  C_24 
ROOT
ATOM      1  C   UNL d   1      29.993 -16.326  -1.113  0.00  0.00     0.099 C 
ENDROOT
BRANCH   1   2
ATOM      2  C   UNL d   1      30.399 -15.603   0.168  0.00  0.00     0.133 C 
BRANCH   2   3
ATOM      3  N   UNL d   1      29.245 -15.171   0.962  0.00  0.00    -0.353 N 
ATOM      4  C   UNL d   1      28.385 -14.187   0.485  0.00  0.00     0.292 C 
ATOM      5  O   UNL d   1      28.554 -13.664  -0.620  0.00  0.00    -0.264 OA
ATOM      6  H   UNL d   1      29.092 -15.581   1.877  0.00  0.00     0.162 HD
BRANCH   4   7
ATOM      7  C   UNL d   1      27.171 -13.762   1.363  0.00  0.00     0.251 C 
ATOM      8  O   UNL d   1      26.036 -14.070   0.979  0.00  0.00    -0.281 OA
BRANCH   7   9
ATOM      9  C   UNL d   1      27.339 -13.024   2.610  0.00  0.00     0.048 C 
ATOM     10  C   UNL d   1      27.271 -11.652   2.771  0.00  0.00     0.105 C 
ATOM     11  N   UNL d   1      27.459 -11.358   4.097  0.00  0.00    -0.364 N 
ATOM     12  C   UNL d   1      27.780 -12.504   4.788  0.00  0.00     0.043 C 
ATOM     13  H   UNL d   1      27.446 -10.430   4.501  0.00  0.00     0.165 HD
ATOM     14  C   UNL d   1      28.105 -12.696   6.135  0.00  0.00     0.030 C 
ATOM     15  C   UNL d   1      27.758 -13.547   3.861  0.00  0.00     0.006 C 
ATOM     16  C   UNL d   1      28.534 -13.972   6.500  0.00  0.00     0.002 C 
ATOM     17  C   UNL d   1      28.630 -14.993   5.552  0.00  0.00     0.001 C 
ATOM     18  C   UNL d   1      28.156 -14.826   4.261  0.00  0.00     0.015 C 
ENDBRANCH   7   9
ENDBRANCH   4   7
ENDBRANCH   2   3
ENDBRANCH   1   2
BRANCH   1  19
ATOM     19  S   UNL d   1      28.394 -17.170  -1.027  0.00  0.00    -0.125 SA
BRANCH  19  20
ATOM     20  C   UNL d   1      27.258 -16.257  -2.042  0.00  0.00     0.040 A 
ATOM     21  C   UNL d   1      25.876 -16.157  -2.019  0.00  0.00     0.060 A 
ATOM     22  N   UNL d   1      25.483 -15.407  -3.102  0.00  0.00    -0.354 N 
ATOM     23  C   UNL d   1      26.567 -15.064  -3.869  0.00  0.00     0.044 A 
ATOM     24  H   UNL d   1      24.522 -15.186  -3.327  0.00  0.00     0.166 HD
ATOM     25  C   UNL d   1      26.633 -14.364  -5.079  0.00  0.00     0.030 A 
ATOM     26  C   UNL d   1      27.693 -15.577  -3.223  0.00  0.00     0.010 A 
ATOM     27  C   UNL d   1      27.894 -14.196  -5.654  0.00  0.00     0.002 A 
ATOM     28  C   UNL d   1      29.039 -14.693  -5.036  0.00  0.00     0.001 A 
ATOM     29  C   UNL d   1      28.952 -15.378  -3.823  0.00  0.00     0.015 A 
BRANCH  21  30
ATOM     30  C   UNL d   1      24.891 -16.737  -1.144  0.00  0.00    -0.008 C 
ATOM     31  C   UNL d   1      25.265 -17.807  -0.349  0.00  0.00     0.014 C 
ATOM     32  C   UNL d   1      24.281 -18.576   0.228  0.00  0.00     0.001 C 
ATOM     33  C   UNL d   1      22.951 -18.153   0.190  0.00  0.00     0.000 C 
ATOM     34  C   UNL d   1      22.582 -17.026  -0.520  0.00  0.00     0.001 C 
ATOM     35  C   UNL d   1      23.557 -16.318  -1.200  0.00  0.00     0.014 C 
ENDBRANCH  21  30
ENDBRANCH  19  20
ENDBRANCH   1  19
TORSDOF 7
ENDMDL
MODEL 4
REMARK VINA RESULT:    -8.928      5.276      7.521
REMARK INTER + INTRA:         -13.616
REMARK INTER:                 -11.016
REMARK INTRA:                  -2.600
REMARK CONF_INDEPENDENT:        2.088
REMARK UNBOUND:                -2.600
REMARK  7 active torsions:
REMARK  status: ('A' for Active; 'I' for Inactive)
REMARK       I    between atoms: C_2  and  N_3 
REMARK    1  A    between atoms: C_2  and  C_22 
REMARK    2  A    between atoms: N_3  and  C_4 
REMARK    3  A    between atoms: C_4  and  C_5 
REMARK    4  A    between atoms: C_5  and  S_6 
REMARK    5  A    between atoms: S_6  and  C_7 
REMARK    6  A    between atoms: C_8  and  C_9 
REMARK    7  A    between atoms: C_22  and  C_24 
ROOT
ATOM      1  C   UNL d   1      26.479 -10.027  -4.644  0.00  0.00     0.099 C 
ENDROOT
BRANCH   1   2
ATOM      2  C   UNL d   1      25.609 -10.638  -3.548  0.00  0.00     0.133 C 
BRANCH   2   3
ATOM      3  N   UNL d   1      25.335 -12.060  -3.774  0.00  0.00    -0.353 N 
ATOM      4  C   UNL d   1      25.856 -13.027  -2.921  0.00  0.00     0.292 C 
ATOM      5  O   UNL d   1      26.546 -12.720  -1.944  0.00  0.00    -0.264 OA
ATOM      6  H   UNL d   1      24.778 -12.336  -4.576  0.00  0.00     0.162 HD
BRANCH   4   7
ATOM      7  C   UNL d   1      25.536 -14.525  -3.200  0.00  0.00     0.251 C 
ATOM      8  O   UNL d   1      24.944 -14.812  -4.247  0.00  0.00    -0.281 OA
BRANCH   7   9
ATOM      9  C   UNL d   1      25.918 -15.583  -2.269  0.00  0.00     0.048 C 
ATOM     10  C   UNL d   1      27.182 -16.117  -2.102  0.00  0.00     0.105 C 
ATOM     11  N   UNL d   1      27.127 -17.069  -1.116  0.00  0.00    -0.364 N 
ATOM     12  C   UNL d   1      25.822 -17.259  -0.724  0.00  0.00     0.043 C 
ATOM     13  H   UNL d   1      27.912 -17.612  -0.778  0.00  0.00     0.165 HD
ATOM     14  C   UNL d   1      25.270 -18.149   0.204  0.00  0.00     0.030 C 
ATOM     15  C   UNL d   1      25.048 -16.372  -1.472  0.00  0.00     0.006 C 
ATOM     16  C   UNL d   1      23.877 -18.203   0.266  0.00  0.00     0.002 C 
ATOM     17  C   UNL d   1      23.091 -17.403  -0.566  0.00  0.00     0.001 C 
ATOM     18  C   UNL d   1      23.655 -16.420  -1.363  0.00  0.00     0.015 C 
ENDBRANCH   7   9
ENDBRANCH   4   7
ENDBRANCH   2   3
ENDBRANCH   1   2
BRANCH   1  19
ATOM     19  S   UNL d   1      28.092 -10.819  -4.854  0.00  0.00    -0.125 SA
BRANCH  19  20
ATOM     20  C   UNL d   1      28.032 -11.754  -6.362  0.00  0.00     0.040 A 
ATOM     21  C   UNL d   1      28.470 -13.031  -6.674  0.00  0.00     0.060 A 
ATOM     22  N   UNL d   1      28.285 -13.230  -8.022  0.00  0.00    -0.354 N 
ATOM     23  C   UNL d   1      27.794 -12.095  -8.613  0.00  0.00     0.044 A 
ATOM     24  H   UNL d   1      28.530 -14.080  -8.514  0.00  0.00     0.166 HD
ATOM     25  C   UNL d   1      27.514 -11.824  -9.957  0.00  0.00     0.030 A 
ATOM     26  C   UNL d   1      27.617 -11.156  -7.594  0.00  0.00     0.010 A 
ATOM     27  C   UNL d   1      27.050 -10.545 -10.270  0.00  0.00     0.002 A 
ATOM     28  C   UNL d   1      26.861  -9.585  -9.279  0.00  0.00     0.001 A 
ATOM     29  C   UNL d   1      27.135  -9.880  -7.942  0.00  0.00     0.015 A 
BRANCH  21  30
ATOM     30  C   UNL d   1      29.099 -14.048  -5.872  0.00  0.00    -0.008 C 
ATOM     31  C   UNL d   1      29.410 -15.259  -6.468  0.00  0.00     0.014 C 
ATOM     32  C   UNL d   1      29.692 -16.337  -5.663  0.00  0.00     0.001 C 
ATOM     33  C   UNL d   1      29.875 -16.156  -4.290  0.00  0.00     0.000 C 
ATOM     34  C   UNL d   1      29.664 -14.924  -3.700  0.00  0.00     0.001 C 
ATOM     35  C   UNL d   1      29.265 -13.864  -4.494  0.00  0.00     0.014 C 
ENDBRANCH  21  30
ENDBRANCH  19  20
ENDBRANCH   1  19
TORSDOF 7
ENDMDL
MODEL 5
REMARK VINA RESULT:    -8.808      4.612      9.241
REMARK INTER + INTRA:         -13.716
REMARK INTER:                 -10.896
REMARK INTRA:                  -2.820
REMARK CONF_INDEPENDENT:        2.088
REMARK UNBOUND:                -2.820
REMARK  7 active torsions:
REMARK  status: ('A' for Active; 'I' for Inactive)
REMARK       I    between atoms: C_2  and  N_3 
REMARK    1  A    between atoms: C_2  and  C_22 
REMARK    2  A    between atoms: N_3  and  C_4 
REMARK    3  A    between atoms: C_4  and  C_5 
REMARK    4  A    between atoms: C_5  and  S_6 
REMARK    5  A    between atoms: S_6  and  C_7 
REMARK    6  A    between atoms: C_8  and  C_9 
REMARK    7  A    between atoms: C_22  and  C_24 
ROOT
ATOM      1  C   UNL d   1      24.869 -14.216  -2.852  0.00  0.00     0.099 C 
ENDROOT
BRANCH   1   2
ATOM      2  C   UNL d   1      25.542 -14.695  -4.135  0.00  0.00     0.133 C 
BRANCH   2   3
ATOM      3  N   UNL d   1      26.914 -15.160  -3.911  0.00  0.00    -0.353 N 
ATOM      4  C   UNL d   1      27.768 -15.393  -4.984  0.00  0.00     0.292 C 
ATOM      5  O   UNL d   1      27.407 -15.200  -6.148  0.00  0.00    -0.264 OA
ATOM      6  H   UNL d   1      27.230 -15.334  -2.962  0.00  0.00     0.162 HD
BRANCH   4   7
ATOM      7  C   UNL d   1      29.218 -15.884  -4.697  0.00  0.00     0.251 C 
ATOM      8  O   UNL d   1      29.671 -15.734  -3.556  0.00  0.00    -0.281 OA
BRANCH   7   9
ATOM      9  C   UNL d   1      30.039 -16.512  -5.727  0.00  0.00     0.048 C 
ATOM     10  C   UNL d   1      30.487 -15.923  -6.895  0.00  0.00     0.105 C 
ATOM     11  N   UNL d   1      31.248 -16.837  -7.580  0.00  0.00    -0.364 N 
ATOM     12  C   UNL d   1      31.199 -18.055  -6.943  0.00  0.00     0.043 C 
ATOM     13  H   UNL d   1      31.713 -16.670  -8.463  0.00  0.00     0.165 HD
ATOM     14  C   UNL d   1      31.767 -19.287  -7.287  0.00  0.00     0.030 C 
ATOM     15  C   UNL d   1      30.405 -17.880  -5.809  0.00  0.00     0.006 C 
ATOM     16  C   UNL d   1      31.403 -20.384  -6.506  0.00  0.00     0.002 C 
ATOM     17  C   UNL d   1      30.513 -20.240  -5.439  0.00  0.00     0.001 C 
ATOM     18  C   UNL d   1      30.086 -18.990  -5.020  0.00  0.00     0.015 C 
ENDBRANCH   7   9
ENDBRANCH   4   7
ENDBRANCH   2   3
ENDBRANCH   1   2
BRANCH   1  19
ATOM     19  S   UNL d   1      25.914 -14.295  -1.377  0.00  0.00    -0.125 SA
BRANCH  19  20
ATOM     20  C   UNL d   1      25.839 -15.960  -0.763  0.00  0.00     0.040 A 
ATOM     21  C   UNL d   1      26.833 -16.867  -0.433  0.00  0.00     0.060 A 
ATOM     22  N   UNL d   1      26.233 -18.063  -0.117  0.00  0.00    -0.354 N 
ATOM     23  C   UNL d   1      24.876 -17.982  -0.290  0.00  0.00     0.044 A 
ATOM     24  H   UNL d   1      26.734 -18.900   0.154  0.00  0.00     0.166 HD
ATOM     25  C   UNL d   1      23.886 -18.960  -0.145  0.00  0.00     0.030 A 
ATOM     26  C   UNL d   1      24.600 -16.671  -0.686  0.00  0.00     0.010 A 
ATOM     27  C   UNL d   1      22.570 -18.587  -0.429  0.00  0.00     0.002 A 
ATOM     28  C   UNL d   1      22.260 -17.289  -0.826  0.00  0.00     0.001 A 
ATOM     29  C   UNL d   1      23.261 -16.325  -0.952  0.00  0.00     0.015 A 
BRANCH  21  30
ATOM     30  C   UNL d   1      28.269 -16.758  -0.449  0.00  0.00    -0.008 C 
ATOM     31  C   UNL d   1      28.840 -15.534  -0.143  0.00  0.00     0.014 C 
ATOM     32  C   UNL d   1      30.158 -15.320  -0.474  0.00  0.00     0.001 C 
ATOM     33  C   UNL d   1      30.952 -16.385  -0.903  0.00  0.00     0.000 C 
ATOM     34  C   UNL d   1      30.410 -17.639  -1.115  0.00  0.00     0.001 C 
ATOM     35  C   UNL d   1      29.057 -17.825  -0.895  0.00  0.00     0.014 C 
ENDBRANCH  21  30
ENDBRANCH  19  20
ENDBRANCH   1  19
TORSDOF 7
ENDMDL
MODEL 6
REMARK VINA RESULT:    -8.702      1.939      3.316
REMARK INTER + INTRA:         -13.916
REMARK INTER:                 -10.790
REMARK INTRA:                  -3.126
REMARK CONF_INDEPENDENT:        2.088
REMARK UNBOUND:                -3.126
REMARK  7 active torsions:
REMARK  status: ('A' for Active; 'I' for Inactive)
REMARK       I    between atoms: C_2  and  N_3 
REMARK    1  A    between atoms: C_2  and  C_22 
REMARK    2  A    between atoms: N_3  and  C_4 
REMARK    3  A    between atoms: C_4  and  C_5 
REMARK    4  A    between atoms: C_5  and  S_6 
REMARK    5  A    between atoms: S_6  and  C_7 
REMARK    6  A    between atoms: C_8  and  C_9 
REMARK    7  A    between atoms: C_22  and  C_24 
ROOT
ATOM      1  C   UNL d   1      25.539 -13.754  -2.772  0.00  0.00     0.099 C 
ENDROOT
BRANCH   1   2
ATOM      2  C   UNL d   1      26.622 -13.189  -1.857  0.00  0.00     0.133 C 
BRANCH   2   3
ATOM      3  N   UNL d   1      26.820 -13.998  -0.651  0.00  0.00    -0.353 N 
ATOM      4  C   UNL d   1      27.906 -13.769   0.186  0.00  0.00     0.292 C 
ATOM      5  O   UNL d   1      28.721 -12.873  -0.047  0.00  0.00    -0.264 OA
ATOM      6  H   UNL d   1      26.166 -14.747  -0.444  0.00  0.00     0.162 HD
BRANCH   4   7
ATOM      7  C   UNL d   1      28.073 -14.653   1.457  0.00  0.00     0.251 C 
ATOM      8  O   UNL d   1      27.406 -15.691   1.540  0.00  0.00    -0.281 OA
BRANCH   7   9
ATOM      9  C   UNL d   1      28.990 -14.292   2.534  0.00  0.00     0.048 C 
ATOM     10  C   UNL d   1      30.363 -14.451   2.535  0.00  0.00     0.105 C 
ATOM     11  N   UNL d   1      30.858 -13.967   3.720  0.00  0.00    -0.364 N 
ATOM     12  C   UNL d   1      29.819 -13.613   4.549  0.00  0.00     0.043 C 
ATOM     13  H   UNL d   1      31.835 -13.946   3.984  0.00  0.00     0.165 HD
ATOM     14  C   UNL d   1      29.824 -13.123   5.860  0.00  0.00     0.030 C 
ATOM     15  C   UNL d   1      28.642 -13.858   3.840  0.00  0.00     0.006 C 
ATOM     16  C   UNL d   1      28.585 -13.002   6.488  0.00  0.00     0.002 C 
ATOM     17  C   UNL d   1      27.408 -13.359   5.826  0.00  0.00     0.001 C 
ATOM     18  C   UNL d   1      27.411 -13.691   4.481  0.00  0.00     0.015 C 
ENDBRANCH   7   9
ENDBRANCH   4   7
ENDBRANCH   2   3
ENDBRANCH   1   2
BRANCH   1  19
ATOM     19  S   UNL d   1      25.923 -15.373  -3.483  0.00  0.00    -0.125 SA
BRANCH  19  20
ATOM     20  C   UNL d   1      26.744 -16.322  -2.226  0.00  0.00     0.040 A 
ATOM     21  C   UNL d   1      26.256 -17.046  -1.150  0.00  0.00     0.060 A 
ATOM     22  N   UNL d   1      27.327 -17.498  -0.417  0.00  0.00    -0.354 N 
ATOM     23  C   UNL d   1      28.504 -17.038  -0.950  0.00  0.00     0.044 A 
ATOM     24  H   UNL d   1      27.251 -18.048   0.429  0.00  0.00     0.166 HD
ATOM     25  C   UNL d   1      29.821 -17.197  -0.505  0.00  0.00     0.030 A 
ATOM     26  C   UNL d   1      28.168 -16.306  -2.090  0.00  0.00     0.010 A 
ATOM     27  C   UNL d   1      30.827 -16.573  -1.246  0.00  0.00     0.002 A 
ATOM     28  C   UNL d   1      30.528 -15.836  -2.389  0.00  0.00     0.001 A 
ATOM     29  C   UNL d   1      29.208 -15.701  -2.822  0.00  0.00     0.015 A 
BRANCH  21  30
ATOM     30  C   UNL d   1      24.912 -17.299  -0.700  0.00  0.00    -0.008 C 
ATOM     31  C   UNL d   1      24.595 -18.572  -0.255  0.00  0.00     0.014 C 
ATOM     32  C   UNL d   1      23.270 -18.921  -0.143  0.00  0.00     0.001 C 
ATOM     33  C   UNL d   1      22.278 -17.946  -0.264  0.00  0.00     0.000 C 
ATOM     34  C   UNL d   1      22.595 -16.646  -0.610  0.00  0.00     0.001 C 
ATOM     35  C   UNL d   1      23.920 -16.322  -0.839  0.00  0.00     0.014 C 
ENDBRANCH  21  30
ENDBRANCH  19  20
ENDBRANCH   1  19
TORSDOF 7
ENDMDL
MODEL 7
REMARK VINA RESULT:    -8.627      5.183      8.367
REMARK INTER + INTRA:         -13.900
REMARK INTER:                 -10.715
REMARK INTRA:                  -3.185
REMARK CONF_INDEPENDENT:        2.088
REMARK UNBOUND:                -3.185
REMARK  7 active torsions:
REMARK  status: ('A' for Active; 'I' for Inactive)
REMARK       I    between atoms: C_2  and  N_3 
REMARK    1  A    between atoms: C_2  and  C_22 
REMARK    2  A    between atoms: N_3  and  C_4 
REMARK    3  A    between atoms: C_4  and  C_5 
REMARK    4  A    between atoms: C_5  and  S_6 
REMARK    5  A    between atoms: S_6  and  C_7 
REMARK    6  A    between atoms: C_8  and  C_9 
REMARK    7  A    between atoms: C_22  and  C_24 
ROOT
ATOM      1  C   UNL d   1      24.651 -14.188  -2.895  0.00  0.00     0.099 C 
ENDROOT
BRANCH   1   2
ATOM      2  C   UNL d   1      25.162 -14.008  -4.322  0.00  0.00     0.133 C 
BRANCH   2   3
ATOM      3  N   UNL d   1      26.610 -13.785  -4.378  0.00  0.00    -0.353 N 
ATOM      4  C   UNL d   1      27.429 -14.629  -5.121  0.00  0.00     0.292 C 
ATOM      5  O   UNL d   1      26.964 -15.572  -5.768  0.00  0.00    -0.264 OA
ATOM      6  H   UNL d   1      27.015 -13.021  -3.847  0.00  0.00     0.162 HD
BRANCH   4   7
ATOM      7  C   UNL d   1      28.961 -14.352  -5.153  0.00  0.00     0.251 C 
ATOM      8  O   UNL d   1      29.404 -13.438  -4.448  0.00  0.00    -0.281 OA
BRANCH   7   9
ATOM      9  C   UNL d   1      29.871 -15.138  -5.979  0.00  0.00     0.048 C 
ATOM     10  C   UNL d   1      30.390 -14.774  -7.208  0.00  0.00     0.105 C 
ATOM     11  N   UNL d   1      31.222 -15.774  -7.644  0.00  0.00    -0.364 N 
ATOM     12  C   UNL d   1      31.155 -16.845  -6.783  0.00  0.00     0.043 C 
ATOM     13  H   UNL d   1      31.747 -15.767  -8.509  0.00  0.00     0.165 HD
ATOM     14  C   UNL d   1      31.776 -18.097  -6.835  0.00  0.00     0.030 C 
ATOM     15  C   UNL d   1      30.275 -16.481  -5.762  0.00  0.00     0.006 C 
ATOM     16  C   UNL d   1      31.381 -19.032  -5.878  0.00  0.00     0.002 C 
ATOM     17  C   UNL d   1      30.411 -18.716  -4.925  0.00  0.00     0.001 C 
ATOM     18  C   UNL d   1      29.925 -17.425  -4.792  0.00  0.00     0.015 C 
ENDBRANCH   7   9
ENDBRANCH   4   7
ENDBRANCH   2   3
ENDBRANCH   1   2
BRANCH   1  19
ATOM     19  S   UNL d   1      25.916 -14.008  -1.613  0.00  0.00    -0.125 SA
BRANCH  19  20
ATOM     20  C   UNL d   1      26.681 -15.596  -1.396  0.00  0.00     0.040 A 
ATOM     21  C   UNL d   1      26.168 -16.819  -0.998  0.00  0.00     0.060 A 
ATOM     22  N   UNL d   1      27.213 -17.704  -0.881  0.00  0.00    -0.354 N 
ATOM     23  C   UNL d   1      28.406 -17.077  -1.133  0.00  0.00     0.044 A 
ATOM     24  H   UNL d   1      27.116 -18.671  -0.596  0.00  0.00     0.166 HD
ATOM     25  C   UNL d   1      29.716 -17.566  -1.073  0.00  0.00     0.030 A 
ATOM     26  C   UNL d   1      28.101 -15.756  -1.467  0.00  0.00     0.010 A 
ATOM     27  C   UNL d   1      30.748 -16.668  -1.351  0.00  0.00     0.002 A 
ATOM     28  C   UNL d   1      30.479 -15.344  -1.689  0.00  0.00     0.001 A 
ATOM     29  C   UNL d   1      29.165 -14.880  -1.755  0.00  0.00     0.015 A 
BRANCH  21  30
ATOM     30  C   UNL d   1      24.831 -17.228  -0.652  0.00  0.00    -0.008 C 
ATOM     31  C   UNL d   1      24.581 -18.579  -0.472  0.00  0.00     0.014 C 
ATOM     32  C   UNL d   1      23.277 -19.015  -0.476  0.00  0.00     0.001 C 
ATOM     33  C   UNL d   1      22.231 -18.090  -0.441  0.00  0.00     0.000 C 
ATOM     34  C   UNL d   1      22.478 -16.732  -0.519  0.00  0.00     0.001 C 
ATOM     35  C   UNL d   1      23.786 -16.298  -0.634  0.00  0.00     0.014 C 
ENDBRANCH  21  30
ENDBRANCH  19  20
ENDBRANCH   1  19
TORSDOF 7
ENDMDL
MODEL 8
REMARK VINA RESULT:    -8.508      4.085      7.521
REMARK INTER + INTRA:         -13.626
REMARK INTER:                 -10.596
REMARK INTRA:                  -3.030
REMARK CONF_INDEPENDENT:        2.088
REMARK UNBOUND:                -3.030
REMARK  7 active torsions:
REMARK  status: ('A' for Active; 'I' for Inactive)
REMARK       I    between atoms: C_2  and  N_3 
REMARK    1  A    between atoms: C_2  and  C_22 
REMARK    2  A    between atoms: N_3  and  C_4 
REMARK    3  A    between atoms: C_4  and  C_5 
REMARK    4  A    between atoms: C_5  and  S_6 
REMARK    5  A    between atoms: S_6  and  C_7 
REMARK    6  A    between atoms: C_8  and  C_9 
REMARK    7  A    between atoms: C_22  and  C_24 
ROOT
ATOM      1  C   UNL d   1      27.925 -15.448   0.799  0.00  0.00     0.099 C 
ENDROOT
BRANCH   1   2
ATOM      2  C   UNL d   1      27.801 -16.898   0.336  0.00  0.00     0.133 C 
BRANCH   2   3
ATOM      3  N   UNL d   1      29.053 -17.421  -0.217  0.00  0.00    -0.353 N 
ATOM      4  C   UNL d   1      29.281 -17.414  -1.589  0.00  0.00     0.292 C 
ATOM      5  O   UNL d   1      28.450 -16.952  -2.377  0.00  0.00    -0.264 OA
ATOM      6  H   UNL d   1      29.747 -17.814   0.412  0.00  0.00     0.162 HD
BRANCH   4   7
ATOM      7  C   UNL d   1      30.627 -17.978  -2.130  0.00  0.00     0.251 C 
ATOM      8  O   UNL d   1      31.588 -18.043  -1.355  0.00  0.00    -0.281 OA
BRANCH   7   9
ATOM      9  C   UNL d   1      30.776 -18.431  -3.509  0.00  0.00     0.048 C 
ATOM     10  C   UNL d   1      31.156 -19.693  -3.926  0.00  0.00     0.105 C 
ATOM     11  N   UNL d   1      31.152 -19.720  -5.298  0.00  0.00    -0.364 N 
ATOM     12  C   UNL d   1      30.903 -18.459  -5.788  0.00  0.00     0.043 C 
ATOM     13  H   UNL d   1      31.378 -20.523  -5.871  0.00  0.00     0.165 HD
ATOM     14  C   UNL d   1      30.852 -17.986  -7.103  0.00  0.00     0.030 C 
ATOM     15  C   UNL d   1      30.715 -17.631  -4.680  0.00  0.00     0.006 C 
ATOM     16  C   UNL d   1      30.725 -16.606  -7.268  0.00  0.00     0.002 C 
ATOM     17  C   UNL d   1      30.657 -15.756  -6.163  0.00  0.00     0.001 C 
ATOM     18  C   UNL d   1      30.551 -16.256  -4.875  0.00  0.00     0.015 C 
ENDBRANCH   7   9
ENDBRANCH   4   7
ENDBRANCH   2   3
ENDBRANCH   1   2
BRANCH   1  19
ATOM     19  S   UNL d   1      26.621 -14.350   0.192  0.00  0.00    -0.125 SA
BRANCH  19  20
ATOM     20  C   UNL d   1      26.137 -14.937  -1.413  0.00  0.00     0.040 A 
ATOM     21  C   UNL d   1      25.242 -15.920  -1.803  0.00  0.00     0.060 A 
ATOM     22  N   UNL d   1      25.328 -16.058  -3.169  0.00  0.00    -0.354 N 
ATOM     23  C   UNL d   1      26.300 -15.235  -3.676  0.00  0.00     0.044 A 
ATOM     24  H   UNL d   1      24.785 -16.717  -3.712  0.00  0.00     0.166 HD
ATOM     25  C   UNL d   1      26.767 -15.089  -4.987  0.00  0.00     0.030 A 
ATOM     26  C   UNL d   1      26.817 -14.514  -2.598  0.00  0.00     0.010 A 
ATOM     27  C   UNL d   1      27.808 -14.183  -5.199  0.00  0.00     0.002 A 
ATOM     28  C   UNL d   1      28.347 -13.447  -4.147  0.00  0.00     0.001 A 
ATOM     29  C   UNL d   1      27.858 -13.599  -2.848  0.00  0.00     0.015 A 
BRANCH  21  30
ATOM     30  C   UNL d   1      24.377 -16.782  -1.041  0.00  0.00    -0.008 C 
ATOM     31  C   UNL d   1      24.888 -17.981  -0.572  0.00  0.00     0.014 C 
ATOM     32  C   UNL d   1      24.010 -18.950  -0.146  0.00  0.00     0.001 C 
ATOM     33  C   UNL d   1      22.657 -18.646   0.015  0.00  0.00     0.000 C 
ATOM     34  C   UNL d   1      22.155 -17.413  -0.357  0.00  0.00     0.001 C 
ATOM     35  C   UNL d   1      23.019 -16.477  -0.898  0.00  0.00     0.014 C 
ENDBRANCH  21  30
ENDBRANCH  19  20
ENDBRANCH   1  19
TORSDOF 7
ENDMDL
MODEL 9
REMARK VINA RESULT:    -7.710      3.885      6.529
REMARK INTER + INTRA:         -13.614
REMARK INTER:                  -9.798
REMARK INTRA:                  -3.816
REMARK CONF_INDEPENDENT:        2.088
REMARK UNBOUND:                -3.816
REMARK  7 active torsions:
REMARK  status: ('A' for Active; 'I' for Inactive)
REMARK       I    between atoms: C_2  and  N_3 
REMARK    1  A    between atoms: C_2  and  C_22 
REMARK    2  A    between atoms: N_3  and  C_4 
REMARK    3  A    between atoms: C_4  and  C_5 
REMARK    4  A    between atoms: C_5  and  S_6 
REMARK    5  A    between atoms: S_6  and  C_7 
REMARK    6  A    between atoms: C_8  and  C_9 
REMARK    7  A    between atoms: C_22  and  C_24 
ROOT
ATOM      1  C   UNL d   1      30.347 -14.008  -5.133  0.00  0.00     0.099 C 
ENDROOT
BRANCH   1   2
ATOM      2  C   UNL d   1      29.422 -15.208  -5.320  0.00  0.00     0.133 C 
BRANCH   2   3
ATOM      3  N   UNL d   1      28.399 -15.299  -4.273  0.00  0.00    -0.353 N 
ATOM      4  C   UNL d   1      27.047 -15.279  -4.599  0.00  0.00     0.292 C 
ATOM      5  O   UNL d   1      26.668 -15.203  -5.771  0.00  0.00    -0.264 OA
ATOM      6  H   UNL d   1      28.688 -15.353  -3.302  0.00  0.00     0.162 HD
BRANCH   4   7
ATOM      7  C   UNL d   1      25.998 -15.380  -3.454  0.00  0.00     0.251 C 
ATOM      8  O   UNL d   1      24.944 -14.742  -3.567  0.00  0.00    -0.281 OA
BRANCH   7   9
ATOM      9  C   UNL d   1      26.223 -16.203  -2.270  0.00  0.00     0.048 C 
ATOM     10  C   UNL d   1      27.439 -16.685  -1.820  0.00  0.00     0.105 C 
ATOM     11  N   UNL d   1      27.227 -17.392  -0.664  0.00  0.00    -0.364 N 
ATOM     12  C   UNL d   1      25.878 -17.492  -0.418  0.00  0.00     0.043 C 
ATOM     13  H   UNL d   1      27.945 -17.845  -0.113  0.00  0.00     0.165 HD
ATOM     14  C   UNL d   1      25.183 -18.153   0.601  0.00  0.00     0.030 C 
ATOM     15  C   UNL d   1      25.234 -16.795  -1.442  0.00  0.00     0.006 C 
ATOM     16  C   UNL d   1      23.793 -18.193   0.486  0.00  0.00     0.002 C 
ATOM     17  C   UNL d   1      23.146 -17.600  -0.600  0.00  0.00     0.001 C 
ATOM     18  C   UNL d   1      23.838 -16.819  -1.512  0.00  0.00     0.015 C 
ENDBRANCH   7   9
ENDBRANCH   4   7
ENDBRANCH   2   3
ENDBRANCH   1   2
BRANCH   1  19
ATOM     19  S   UNL d   1      30.220 -13.203  -3.517  0.00  0.00    -0.125 SA
BRANCH  19  20
ATOM     20  C   UNL d   1      28.552 -12.615  -3.348  0.00  0.00     0.040 A 
ATOM     21  C   UNL d   1      27.647 -12.700  -2.303  0.00  0.00     0.060 A 
ATOM     22  N   UNL d   1      26.448 -12.181  -2.732  0.00  0.00    -0.354 N 
ATOM     23  C   UNL d   1      26.527 -11.814  -4.051  0.00  0.00     0.044 A 
ATOM     24  H   UNL d   1      25.611 -12.129  -2.166  0.00  0.00     0.166 HD
ATOM     25  C   UNL d   1      25.546 -11.301  -4.907  0.00  0.00     0.030 A 
ATOM     26  C   UNL d   1      27.838 -12.067  -4.459  0.00  0.00     0.010 A 
ATOM     27  C   UNL d   1      25.917 -11.052  -6.230  0.00  0.00     0.002 A 
ATOM     28  C   UNL d   1      27.216 -11.292  -6.671  0.00  0.00     0.001 A 
ATOM     29  C   UNL d   1      28.183 -11.792  -5.797  0.00  0.00     0.015 A 
BRANCH  21  30
ATOM     30  C   UNL d   1      27.758 -13.270  -0.986  0.00  0.00    -0.008 C 
ATOM     31  C   UNL d   1      28.893 -14.003  -0.679  0.00  0.00     0.014 C 
ATOM     32  C   UNL d   1      28.871 -14.821   0.426  0.00  0.00     0.001 C 
ATOM     33  C   UNL d   1      27.813 -14.743   1.333  0.00  0.00     0.000 C 
ATOM     34  C   UNL d   1      26.719 -13.935   1.083  0.00  0.00     0.001 C 
ATOM     35  C   UNL d   1      26.687 -13.201  -0.088  0.00  0.00     0.014 C 
ENDBRANCH  21  30
ENDBRANCH  19  20
ENDBRANCH   1  19
TORSDOF 7
ENDMDL
