MODEL 1
REMARK VINA RESULT:    -8.678      0.000      0.000
REMARK INTER + INTRA:         -12.394
REMARK INTER:                 -10.169
REMARK INTRA:                  -2.224
REMARK CONF_INDEPENDENT:        1.492
REMARK UNBOUND:                -2.224
REMARK  5 active torsions:
REMARK  status: ('A' for Active; 'I' for Inactive)
REMARK    1  A    between atoms: C_2  and  C_16 
REMARK    2  A    between atoms: C_2  and  N_3 
REMARK    3  A    between atoms: C_4  and  N_3 
REMARK    4  A    between atoms: C_4  and  C_6 
REMARK       I    between atoms: C_16  and  N_18 
REMARK    5  A    between atoms: N_18  and  C_19 
ROOT
ATOM      1  C   UNL d   1      25.842 -17.173  -0.787  0.00  0.00     0.055 A 
ATOM      2  C   UNL d   1      25.436 -18.052   0.228  0.00  0.00     0.031 A 
ATOM      3  C   UNL d   1      24.071 -18.204   0.527  0.00  0.00     0.002 A 
ATOM      4  C   UNL d   1      23.101 -17.550  -0.230  0.00  0.00     0.002 A 
ATOM      5  C   UNL d   1      23.492 -16.720  -1.268  0.00  0.00     0.025 A 
ATOM      6  C   UNL d   1      24.851 -16.509  -1.528  0.00  0.00     0.071 A 
ATOM      7  C   UNL d   1      25.157 -15.633  -2.614  0.00  0.00     0.102 C 
ATOM      8  N   UNL d   1      25.348 -14.919  -3.494  0.00  0.00    -0.191 NA
ENDROOT
BRANCH   1   9
ATOM      9  N   UNL d   1      27.232 -16.983  -1.038  0.00  0.00    -0.324 N 
ATOM     10  C   UNL d   1      28.104 -16.556  -0.035  0.00  0.00     0.255 C 
ATOM     11  O   UNL d   1      27.756 -16.375   1.133  0.00  0.00    -0.271 OA
ATOM     12  H   UNL d   1      27.620 -17.384  -1.884  0.00  0.00     0.169 HD
BRANCH  10  13
ATOM     13  C   UNL d   1      29.581 -16.349  -0.452  0.00  0.00     0.308 C 
ATOM     14  C   UNL d   1      30.236 -17.671  -0.766  0.00  0.00     0.053 C 
BRANCH  13  15
ATOM     15  N   UNL d   1      30.342 -15.798   0.699  0.00  0.00     0.105 N 
ATOM     16  H   UNL d   1      29.880 -16.185   1.525  0.00  0.00     0.317 HD
BRANCH  15  17
ATOM     17  C   UNL d   1      30.354 -14.324   0.745  0.00  0.00     0.251 C 
ATOM     18  C   UNL d   1      31.597 -13.764   1.460  0.00  0.00     0.048 C 
BRANCH  17  19
ATOM     19  C   UNL d   1      29.090 -13.768   1.387  0.00  0.00    -0.015 A 
ATOM     20  C   UNL d   1      28.086 -13.220   0.561  0.00  0.00     0.010 A 
ATOM     21  C   UNL d   1      26.874 -12.814   1.110  0.00  0.00     0.002 A 
ATOM     22  C   UNL d   1      26.656 -12.950   2.480  0.00  0.00     0.012 A 
ATOM     23  C   UNL d   1      27.636 -13.500   3.325  0.00  0.00    -0.025 A 
ATOM     24  C   UNL d   1      27.400 -13.684   4.699  0.00  0.00     0.012 A 
ATOM     25  C   UNL d   1      28.873 -13.899   2.789  0.00  0.00    -0.018 A 
ATOM     26  C   UNL d   1      28.369 -14.234   5.543  0.00  0.00     0.001 A 
ATOM     27  C   UNL d   1      29.589 -14.622   5.032  0.00  0.00     0.001 A 
ATOM     28  C   UNL d   1      29.824 -14.450   3.684  0.00  0.00     0.013 A 
ENDBRANCH  17  19
ENDBRANCH  15  17
ENDBRANCH  13  15
ENDBRANCH  10  13
ENDBRANCH   1   9
TORSDOF 5
ENDMDL
MODEL 2
REMARK VINA RESULT:    -8.317      2.519      6.940
REMARK INTER + INTRA:         -11.317
REMARK INTER:                  -9.809
REMARK INTRA:                  -1.508
REMARK CONF_INDEPENDENT:        1.492
REMARK UNBOUND:                -1.508
REMARK  5 active torsions:
REMARK  status: ('A' for Active; 'I' for Inactive)
REMARK    1  A    between atoms: C_2  and  C_16 
REMARK    2  A    between atoms: C_2  and  N_3 
REMARK    3  A    between atoms: C_4  and  N_3 
REMARK    4  A    between atoms: C_4  and  C_6 
REMARK       I    between atoms: C_16  and  N_18 
REMARK    5  A    between atoms: N_18  and  C_19 
ROOT
ATOM      1  C   UNL d   1      28.228 -12.782   5.105  0.00  0.00     0.055 A 
ATOM      2  C   UNL d   1      28.669 -13.762   6.007  0.00  0.00     0.031 A 
ATOM      3  C   UNL d   1      29.100 -13.397   7.294  0.00  0.00     0.002 A 
ATOM      4  C   UNL d   1      29.018 -12.074   7.721  0.00  0.00     0.002 A 
ATOM      5  C   UNL d   1      28.534 -11.106   6.854  0.00  0.00     0.025 A 
ATOM      6  C   UNL d   1      28.170 -11.451   5.548  0.00  0.00     0.071 A 
ATOM      7  C   UNL d   1      27.688 -10.386   4.725  0.00  0.00     0.102 C 
ATOM      8  N   UNL d   1      27.312  -9.494   4.107  0.00  0.00    -0.191 NA
ENDROOT
BRANCH   1   9
ATOM      9  N   UNL d   1      27.853 -13.160   3.784  0.00  0.00    -0.324 N 
ATOM     10  C   UNL d   1      28.751 -13.794   2.922  0.00  0.00     0.255 C 
ATOM     11  O   UNL d   1      29.892 -14.122   3.254  0.00  0.00    -0.271 OA
ATOM     12  H   UNL d   1      26.866 -13.177   3.558  0.00  0.00     0.169 HD
BRANCH  10  13
ATOM     13  C   UNL d   1      28.229 -14.111   1.499  0.00  0.00     0.308 C 
ATOM     14  C   UNL d   1      26.798 -13.661   1.345  0.00  0.00     0.053 C 
BRANCH  13  15
ATOM     15  N   UNL d   1      28.199 -15.584   1.307  0.00  0.00     0.105 N 
ATOM     16  H   UNL d   1      28.888 -15.947   1.969  0.00  0.00     0.317 HD
BRANCH  15  17
ATOM     17  C   UNL d   1      28.519 -16.004  -0.070  0.00  0.00     0.251 C 
ATOM     18  C   UNL d   1      29.758 -15.286  -0.635  0.00  0.00     0.048 C 
BRANCH  17  19
ATOM     19  C   UNL d   1      27.336 -15.814  -1.009  0.00  0.00    -0.015 A 
ATOM     20  C   UNL d   1      27.472 -14.952  -2.118  0.00  0.00     0.010 A 
ATOM     21  C   UNL d   1      26.451 -14.852  -3.056  0.00  0.00     0.002 A 
ATOM     22  C   UNL d   1      25.290 -15.608  -2.897  0.00  0.00     0.012 A 
ATOM     23  C   UNL d   1      25.131 -16.481  -1.806  0.00  0.00    -0.025 A 
ATOM     24  C   UNL d   1      23.982 -17.282  -1.669  0.00  0.00     0.012 A 
ATOM     25  C   UNL d   1      26.147 -16.581  -0.839  0.00  0.00    -0.018 A 
ATOM     26  C   UNL d   1      23.821 -18.155  -0.589  0.00  0.00     0.001 A 
ATOM     27  C   UNL d   1      24.806 -18.256   0.369  0.00  0.00     0.001 A 
ATOM     28  C   UNL d   1      25.936 -17.478   0.237  0.00  0.00     0.013 A 
ENDBRANCH  17  19
ENDBRANCH  15  17
ENDBRANCH  13  15
ENDBRANCH  10  13
ENDBRANCH   1   9
TORSDOF 5
ENDMDL
MODEL 3
REMARK VINA RESULT:    -8.133      3.454      6.552
REMARK INTER + INTRA:         -11.129
REMARK INTER:                  -9.624
REMARK INTRA:                  -1.505
REMARK CONF_INDEPENDENT:        1.492
REMARK UNBOUND:                -1.505
REMARK  5 active torsions:
REMARK  status: ('A' for Active; 'I' for Inactive)
REMARK    1  A    between atoms: C_2  and  C_16 
REMARK    2  A    between atoms: C_2  and  N_3 
REMARK    3  A    between atoms: C_4  and  N_3 
REMARK    4  A    between atoms: C_4  and  C_6 
REMARK       I    between atoms: C_16  and  N_18 
REMARK    5  A    between atoms: N_18  and  C_19 
ROOT
ATOM      1  C   UNL d   1      29.067 -15.950  -4.922  0.00  0.00     0.055 A 
ATOM      2  C   UNL d   1      29.760 -17.096  -4.507  0.00  0.00     0.031 A 
ATOM      3  C   UNL d   1      30.720 -17.686  -5.348  0.00  0.00     0.002 A 
ATOM      4  C   UNL d   1      31.055 -17.097  -6.565  0.00  0.00     0.002 A 
ATOM      5  C   UNL d   1      30.412 -15.934  -6.960  0.00  0.00     0.025 A 
ATOM      6  C   UNL d   1      29.406 -15.380  -6.160  0.00  0.00     0.071 A 
ATOM      7  C   UNL d   1      28.796 -14.185  -6.652  0.00  0.00     0.102 C 
ATOM      8  N   UNL d   1      28.337 -13.229  -7.094  0.00  0.00    -0.191 NA
ENDROOT
BRANCH   1   9
ATOM      9  N   UNL d   1      28.054 -15.399  -4.086  0.00  0.00    -0.324 N 
ATOM     10  C   UNL d   1      26.728 -15.296  -4.514  0.00  0.00     0.255 C 
ATOM     11  O   UNL d   1      26.332 -15.722  -5.600  0.00  0.00    -0.271 OA
ATOM     12  H   UNL d   1      28.256 -15.300  -3.099  0.00  0.00     0.169 HD
BRANCH  10  13
ATOM     13  C   UNL d   1      25.736 -14.639  -3.523  0.00  0.00     0.308 C 
ATOM     14  C   UNL d   1      24.808 -13.696  -4.246  0.00  0.00     0.053 C 
BRANCH  13  15
ATOM     15  N   UNL d   1      26.491 -13.789  -2.566  0.00  0.00     0.105 N 
ATOM     16  H   UNL d   1      27.474 -13.954  -2.792  0.00  0.00     0.317 HD
BRANCH  15  17
ATOM     17  C   UNL d   1      26.216 -14.107  -1.153  0.00  0.00     0.251 C 
ATOM     18  C   UNL d   1      27.105 -13.309  -0.182  0.00  0.00     0.048 C 
BRANCH  17  19
ATOM     19  C   UNL d   1      26.348 -15.598  -0.872  0.00  0.00    -0.015 A 
ATOM     20  C   UNL d   1      27.624 -16.132  -0.595  0.00  0.00     0.010 A 
ATOM     21  C   UNL d   1      27.758 -17.464  -0.220  0.00  0.00     0.002 A 
ATOM     22  C   UNL d   1      26.625 -18.270  -0.116  0.00  0.00     0.012 A 
ATOM     23  C   UNL d   1      25.341 -17.762  -0.378  0.00  0.00    -0.025 A 
ATOM     24  C   UNL d   1      24.191 -18.559  -0.227  0.00  0.00     0.012 A 
ATOM     25  C   UNL d   1      25.190 -16.422  -0.777  0.00  0.00    -0.018 A 
ATOM     26  C   UNL d   1      22.912 -18.057  -0.482  0.00  0.00     0.001 A 
ATOM     27  C   UNL d   1      22.751 -16.748  -0.881  0.00  0.00     0.001 A 
ATOM     28  C   UNL d   1      23.873 -15.960  -1.024  0.00  0.00     0.013 A 
ENDBRANCH  17  19
ENDBRANCH  15  17
ENDBRANCH  13  15
ENDBRANCH  10  13
ENDBRANCH   1   9
TORSDOF 5
ENDMDL
MODEL 4
REMARK VINA RESULT:    -8.048      0.694      2.178
REMARK INTER + INTRA:         -11.932
REMARK INTER:                  -9.540
REMARK INTRA:                  -2.392
REMARK CONF_INDEPENDENT:        1.492
REMARK UNBOUND:                -2.392
REMARK  5 active torsions:
REMARK  status: ('A' for Active; 'I' for Inactive)
REMARK    1  A    between atoms: C_2  and  C_16 
REMARK    2  A    between atoms: C_2  and  N_3 
REMARK    3  A    between atoms: C_4  and  N_3 
REMARK    4  A    between atoms: C_4  and  C_6 
REMARK       I    between atoms: C_16  and  N_18 
REMARK    5  A    between atoms: N_18  and  C_19 
ROOT
ATOM      1  C   UNL d   1      25.763 -17.208  -0.901  0.00  0.00     0.055 A 
ATOM      2  C   UNL d   1      25.347 -18.160   0.042  0.00  0.00     0.031 A 
ATOM      3  C   UNL d   1      23.985 -18.285   0.366  0.00  0.00     0.002 A 
ATOM      4  C   UNL d   1      23.023 -17.527  -0.298  0.00  0.00     0.002 A 
ATOM      5  C   UNL d   1      23.422 -16.621  -1.269  0.00  0.00     0.025 A 
ATOM      6  C   UNL d   1      24.781 -16.441  -1.548  0.00  0.00     0.071 A 
ATOM      7  C   UNL d   1      25.096 -15.481  -2.560  0.00  0.00     0.102 C 
ATOM      8  N   UNL d   1      25.293 -14.697  -3.376  0.00  0.00    -0.191 NA
ENDROOT
BRANCH   1   9
ATOM      9  N   UNL d   1      27.152 -17.051  -1.175  0.00  0.00    -0.324 N 
ATOM     10  C   UNL d   1      28.061 -16.709  -0.171  0.00  0.00     0.255 C 
ATOM     11  O   UNL d   1      27.746 -16.581   1.013  0.00  0.00    -0.271 OA
ATOM     12  H   UNL d   1      27.507 -17.417  -2.050  0.00  0.00     0.169 HD
BRANCH  10  13
ATOM     13  C   UNL d   1      29.535 -16.528  -0.612  0.00  0.00     0.308 C 
ATOM     14  C   UNL d   1      30.039 -17.769  -1.305  0.00  0.00     0.053 C 
BRANCH  13  15
ATOM     15  N   UNL d   1      30.390 -16.376   0.592  0.00  0.00     0.105 N 
ATOM     16  H   UNL d   1      29.841 -16.780   1.354  0.00  0.00     0.317 HD
BRANCH  15  17
ATOM     17  C   UNL d   1      30.749 -14.976   0.886  0.00  0.00     0.251 C 
ATOM     18  C   UNL d   1      32.266 -14.776   1.056  0.00  0.00     0.048 C 
BRANCH  17  19
ATOM     19  C   UNL d   1      30.015 -14.449   2.112  0.00  0.00    -0.015 A 
ATOM     20  C   UNL d   1      30.623 -14.573   3.380  0.00  0.00     0.010 A 
ATOM     21  C   UNL d   1      30.030 -13.998   4.498  0.00  0.00     0.002 A 
ATOM     22  C   UNL d   1      28.834 -13.295   4.362  0.00  0.00     0.012 A 
ATOM     23  C   UNL d   1      28.212 -13.149   3.110  0.00  0.00    -0.025 A 
ATOM     24  C   UNL d   1      27.030 -12.400   2.961  0.00  0.00     0.012 A 
ATOM     25  C   UNL d   1      28.788 -13.741   1.972  0.00  0.00    -0.018 A 
ATOM     26  C   UNL d   1      26.409 -12.247   1.718  0.00  0.00     0.001 A 
ATOM     27  C   UNL d   1      26.959 -12.829   0.597  0.00  0.00     0.001 A 
ATOM     28  C   UNL d   1      28.120 -13.559   0.735  0.00  0.00     0.013 A 
ENDBRANCH  17  19
ENDBRANCH  15  17
ENDBRANCH  13  15
ENDBRANCH  10  13
ENDBRANCH   1   9
TORSDOF 5
ENDMDL
MODEL 5
REMARK VINA RESULT:    -7.971      1.093      1.973
REMARK INTER + INTRA:         -11.353
REMARK INTER:                  -9.463
REMARK INTRA:                  -1.891
REMARK CONF_INDEPENDENT:        1.492
REMARK UNBOUND:                -1.891
REMARK  5 active torsions:
REMARK  status: ('A' for Active; 'I' for Inactive)
REMARK    1  A    between atoms: C_2  and  C_16 
REMARK    2  A    between atoms: C_2  and  N_3 
REMARK    3  A    between atoms: C_4  and  N_3 
REMARK    4  A    between atoms: C_4  and  C_6 
REMARK       I    between atoms: C_16  and  N_18 
REMARK    5  A    between atoms: N_18  and  C_19 
ROOT
ATOM      1  C   UNL d   1      25.534 -17.142  -0.809  0.00  0.00     0.055 A 
ATOM      2  C   UNL d   1      25.179 -18.192   0.051  0.00  0.00     0.031 A 
ATOM      3  C   UNL d   1      23.825 -18.482   0.292  0.00  0.00     0.002 A 
ATOM      4  C   UNL d   1      22.820 -17.787  -0.378  0.00  0.00     0.002 A 
ATOM      5  C   UNL d   1      23.163 -16.783  -1.269  0.00  0.00     0.025 A 
ATOM      6  C   UNL d   1      24.507 -16.443  -1.462  0.00  0.00     0.071 A 
ATOM      7  C   UNL d   1      24.763 -15.391  -2.396  0.00  0.00     0.102 C 
ATOM      8  N   UNL d   1      24.913 -14.539  -3.152  0.00  0.00    -0.191 NA
ENDROOT
BRANCH   1   9
ATOM      9  N   UNL d   1      26.910 -16.822  -0.997  0.00  0.00    -0.324 N 
ATOM     10  C   UNL d   1      27.762 -16.596   0.086  0.00  0.00     0.255 C 
ATOM     11  O   UNL d   1      27.410 -16.715   1.261  0.00  0.00    -0.271 OA
ATOM     12  H   UNL d   1      27.315 -16.990  -1.910  0.00  0.00     0.169 HD
BRANCH  10  13
ATOM     13  C   UNL d   1      29.223 -16.214  -0.258  0.00  0.00     0.308 C 
ATOM     14  C   UNL d   1      30.046 -17.449  -0.529  0.00  0.00     0.053 C 
BRANCH  13  15
ATOM     15  N   UNL d   1      29.853 -15.576   0.926  0.00  0.00     0.105 N 
ATOM     16  H   UNL d   1      29.444 -16.056   1.730  0.00  0.00     0.317 HD
BRANCH  15  17
ATOM     17  C   UNL d   1      29.616 -14.122   1.005  0.00  0.00     0.251 C 
ATOM     18  C   UNL d   1      30.181 -13.363  -0.210  0.00  0.00     0.048 C 
BRANCH  17  19
ATOM     19  C   UNL d   1      30.171 -13.528   2.293  0.00  0.00    -0.015 A 
ATOM     20  C   UNL d   1      31.401 -12.838   2.254  0.00  0.00     0.010 A 
ATOM     21  C   UNL d   1      31.872 -12.185   3.388  0.00  0.00     0.002 A 
ATOM     22  C   UNL d   1      31.122 -12.214   4.563  0.00  0.00     0.012 A 
ATOM     23  C   UNL d   1      29.889 -12.886   4.627  0.00  0.00    -0.025 A 
ATOM     24  C   UNL d   1      29.108 -12.877   5.797  0.00  0.00     0.012 A 
ATOM     25  C   UNL d   1      29.408 -13.567   3.495  0.00  0.00    -0.018 A 
ATOM     26  C   UNL d   1      27.879 -13.540   5.864  0.00  0.00     0.001 A 
ATOM     27  C   UNL d   1      27.400 -14.217   4.764  0.00  0.00     0.001 A 
ATOM     28  C   UNL d   1      28.158 -14.226   3.613  0.00  0.00     0.013 A 
ENDBRANCH  17  19
ENDBRANCH  15  17
ENDBRANCH  13  15
ENDBRANCH  10  13
ENDBRANCH   1   9
TORSDOF 5
ENDMDL
MODEL 6
REMARK VINA RESULT:    -7.760      1.093      1.995
REMARK INTER + INTRA:         -11.530
REMARK INTER:                  -9.252
REMARK INTRA:                  -2.278
REMARK CONF_INDEPENDENT:        1.492
REMARK UNBOUND:                -2.278
REMARK  5 active torsions:
REMARK  status: ('A' for Active; 'I' for Inactive)
REMARK    1  A    between atoms: C_2  and  C_16 
REMARK    2  A    between atoms: C_2  and  N_3 
REMARK    3  A    between atoms: C_4  and  N_3 
REMARK    4  A    between atoms: C_4  and  C_6 
REMARK       I    between atoms: C_16  and  N_18 
REMARK    5  A    between atoms: N_18  and  C_19 
ROOT
ATOM      1  C   UNL d   1      26.527 -16.389  -1.113  0.00  0.00     0.055 A 
ATOM      2  C   UNL d   1      25.827 -15.504  -1.946  0.00  0.00     0.031 A 
ATOM      3  C   UNL d   1      24.426 -15.575  -2.035  0.00  0.00     0.002 A 
ATOM      4  C   UNL d   1      23.708 -16.465  -1.240  0.00  0.00     0.002 A 
ATOM      5  C   UNL d   1      24.389 -17.308  -0.375  0.00  0.00     0.025 A 
ATOM      6  C   UNL d   1      25.788 -17.292  -0.332  0.00  0.00     0.071 A 
ATOM      7  C   UNL d   1      26.401 -18.200   0.585  0.00  0.00     0.102 C 
ATOM      8  N   UNL d   1      26.843 -18.950   1.335  0.00  0.00    -0.191 NA
ENDROOT
BRANCH   1   9
ATOM      9  N   UNL d   1      27.951 -16.346  -1.080  0.00  0.00    -0.324 N 
ATOM     10  C   UNL d   1      28.646 -16.047   0.094  0.00  0.00     0.255 C 
ATOM     11  O   UNL d   1      28.093 -15.862   1.180  0.00  0.00    -0.271 OA
ATOM     12  H   UNL d   1      28.456 -16.762  -1.853  0.00  0.00     0.169 HD
BRANCH  10  13
ATOM     13  C   UNL d   1      30.189 -15.990  -0.018  0.00  0.00     0.308 C 
ATOM     14  C   UNL d   1      30.755 -17.366  -0.265  0.00  0.00     0.053 C 
BRANCH  13  15
ATOM     15  N   UNL d   1      30.759 -15.561   1.285  0.00  0.00     0.105 N 
ATOM     16  H   UNL d   1      30.125 -15.950   1.987  0.00  0.00     0.317 HD
BRANCH  15  17
ATOM     17  C   UNL d   1      30.864 -14.097   1.427  0.00  0.00     0.251 C 
ATOM     18  C   UNL d   1      32.048 -13.672   2.316  0.00  0.00     0.048 C 
BRANCH  17  19
ATOM     19  C   UNL d   1      29.573 -13.484   1.953  0.00  0.00    -0.015 A 
ATOM     20  C   UNL d   1      28.765 -12.731   1.075  0.00  0.00     0.010 A 
ATOM     21  C   UNL d   1      27.526 -12.261   1.496  0.00  0.00     0.002 A 
ATOM     22  C   UNL d   1      27.085 -12.537   2.790  0.00  0.00     0.012 A 
ATOM     23  C   UNL d   1      27.867 -13.292   3.682  0.00  0.00    -0.025 A 
ATOM     24  C   UNL d   1      27.404 -13.614   4.971  0.00  0.00     0.012 A 
ATOM     25  C   UNL d   1      29.130 -13.759   3.278  0.00  0.00    -0.018 A 
ATOM     26  C   UNL d   1      28.175 -14.367   5.861  0.00  0.00     0.001 A 
ATOM     27  C   UNL d   1      29.418 -14.824   5.480  0.00  0.00     0.001 A 
ATOM     28  C   UNL d   1      29.874 -14.517   4.216  0.00  0.00     0.013 A 
ENDBRANCH  17  19
ENDBRANCH  15  17
ENDBRANCH  13  15
ENDBRANCH  10  13
ENDBRANCH   1   9
TORSDOF 5
ENDMDL
MODEL 7
REMARK VINA RESULT:    -7.583      1.347      3.072
REMARK INTER + INTRA:         -11.963
REMARK INTER:                  -9.074
REMARK INTRA:                  -2.889
REMARK CONF_INDEPENDENT:        1.492
REMARK UNBOUND:                -2.889
REMARK  5 active torsions:
REMARK  status: ('A' for Active; 'I' for Inactive)
REMARK    1  A    between atoms: C_2  and  C_16 
REMARK    2  A    between atoms: C_2  and  N_3 
REMARK    3  A    between atoms: C_4  and  N_3 
REMARK    4  A    between atoms: C_4  and  C_6 
REMARK       I    between atoms: C_16  and  N_18 
REMARK    5  A    between atoms: N_18  and  C_19 
ROOT
ATOM      1  C   UNL d   1      25.636 -17.236  -0.893  0.00  0.00     0.055 A 
ATOM      2  C   UNL d   1      25.208 -18.138   0.093  0.00  0.00     0.031 A 
ATOM      3  C   UNL d   1      23.846 -18.223   0.432  0.00  0.00     0.002 A 
ATOM      4  C   UNL d   1      22.895 -17.475  -0.259  0.00  0.00     0.002 A 
ATOM      5  C   UNL d   1      23.303 -16.619  -1.270  0.00  0.00     0.025 A 
ATOM      6  C   UNL d   1      24.664 -16.478  -1.566  0.00  0.00     0.071 A 
ATOM      7  C   UNL d   1      24.989 -15.569  -2.620  0.00  0.00     0.102 C 
ATOM      8  N   UNL d   1      25.196 -14.825  -3.470  0.00  0.00    -0.191 NA
ENDROOT
BRANCH   1   9
ATOM      9  N   UNL d   1      27.025 -17.118  -1.183  0.00  0.00    -0.324 N 
ATOM     10  C   UNL d   1      27.980 -17.042  -0.166  0.00  0.00     0.255 C 
ATOM     11  O   UNL d   1      27.703 -17.132   1.031  0.00  0.00    -0.271 OA
ATOM     12  H   UNL d   1      27.332 -17.326  -2.125  0.00  0.00     0.169 HD
BRANCH  10  13
ATOM     13  C   UNL d   1      29.452 -16.873  -0.618  0.00  0.00     0.308 C 
ATOM     14  C   UNL d   1      30.030 -18.196  -1.053  0.00  0.00     0.053 C 
BRANCH  13  15
ATOM     15  N   UNL d   1      30.274 -16.449   0.544  0.00  0.00     0.105 N 
ATOM     16  H   UNL d   1      29.817 -16.871   1.355  0.00  0.00     0.317 HD
BRANCH  15  17
ATOM     17  C   UNL d   1      30.367 -14.985   0.695  0.00  0.00     0.251 C 
ATOM     18  C   UNL d   1      31.181 -14.567   1.933  0.00  0.00     0.048 C 
BRANCH  17  19
ATOM     19  C   UNL d   1      28.991 -14.332   0.734  0.00  0.00    -0.015 A 
ATOM     20  C   UNL d   1      28.353 -14.154   1.980  0.00  0.00     0.010 A 
ATOM     21  C   UNL d   1      27.153 -13.456   2.057  0.00  0.00     0.002 A 
ATOM     22  C   UNL d   1      26.583 -12.931   0.897  0.00  0.00     0.012 A 
ATOM     23  C   UNL d   1      27.202 -13.086  -0.355  0.00  0.00    -0.025 A 
ATOM     24  C   UNL d   1      26.655 -12.516  -1.520  0.00  0.00     0.012 A 
ATOM     25  C   UNL d   1      28.407 -13.805  -0.453  0.00  0.00    -0.018 A 
ATOM     26  C   UNL d   1      27.269 -12.664  -2.767  0.00  0.00     0.001 A 
ATOM     27  C   UNL d   1      28.445 -13.373  -2.877  0.00  0.00     0.001 A 
ATOM     28  C   UNL d   1      28.989 -13.928  -1.739  0.00  0.00     0.013 A 
ENDBRANCH  17  19
ENDBRANCH  15  17
ENDBRANCH  13  15
ENDBRANCH  10  13
ENDBRANCH   1   9
TORSDOF 5
ENDMDL
MODEL 8
REMARK VINA RESULT:    -7.402      1.135      2.070
REMARK INTER + INTRA:         -11.355
REMARK INTER:                  -8.893
REMARK INTRA:                  -2.462
REMARK CONF_INDEPENDENT:        1.492
REMARK UNBOUND:                -2.462
REMARK  5 active torsions:
REMARK  status: ('A' for Active; 'I' for Inactive)
REMARK    1  A    between atoms: C_2  and  C_16 
REMARK    2  A    between atoms: C_2  and  N_3 
REMARK    3  A    between atoms: C_4  and  N_3 
REMARK    4  A    between atoms: C_4  and  C_6 
REMARK       I    between atoms: C_16  and  N_18 
REMARK    5  A    between atoms: N_18  and  C_19 
ROOT
ATOM      1  C   UNL d   1      25.693 -17.282  -0.924  0.00  0.00     0.055 A 
ATOM      2  C   UNL d   1      25.284 -18.253   0.002  0.00  0.00     0.031 A 
ATOM      3  C   UNL d   1      23.925 -18.389   0.331  0.00  0.00     0.002 A 
ATOM      4  C   UNL d   1      22.957 -17.622  -0.314  0.00  0.00     0.002 A 
ATOM      5  C   UNL d   1      23.348 -16.696  -1.269  0.00  0.00     0.025 A 
ATOM      6  C   UNL d   1      24.705 -16.506  -1.551  0.00  0.00     0.071 A 
ATOM      7  C   UNL d   1      25.011 -15.526  -2.546  0.00  0.00     0.102 C 
ATOM      8  N   UNL d   1      25.202 -14.726  -3.348  0.00  0.00    -0.191 NA
ENDROOT
BRANCH   1   9
ATOM      9  N   UNL d   1      27.080 -17.115  -1.202  0.00  0.00    -0.324 N 
ATOM     10  C   UNL d   1      27.995 -16.804  -0.193  0.00  0.00     0.255 C 
ATOM     11  O   UNL d   1      27.688 -16.715   0.996  0.00  0.00    -0.271 OA
ATOM     12  H   UNL d   1      27.429 -17.452  -2.090  0.00  0.00     0.169 HD
BRANCH  10  13
ATOM     13  C   UNL d   1      29.466 -16.607  -0.638  0.00  0.00     0.308 C 
ATOM     14  C   UNL d   1      29.965 -17.823  -1.377  0.00  0.00     0.053 C 
BRANCH  13  15
ATOM     15  N   UNL d   1      30.330 -16.498   0.565  0.00  0.00     0.105 N 
ATOM     16  H   UNL d   1      29.695 -16.634   1.355  0.00  0.00     0.317 HD
BRANCH  15  17
ATOM     17  C   UNL d   1      31.030 -15.205   0.671  0.00  0.00     0.251 C 
ATOM     18  C   UNL d   1      31.485 -14.892   2.108  0.00  0.00     0.048 C 
BRANCH  17  19
ATOM     19  C   UNL d   1      30.185 -14.058   0.133  0.00  0.00    -0.015 A 
ATOM     20  C   UNL d   1      30.515 -13.492  -1.117  0.00  0.00     0.010 A 
ATOM     21  C   UNL d   1      29.692 -12.525  -1.685  0.00  0.00     0.002 A 
ATOM     22  C   UNL d   1      28.539 -12.119  -1.016  0.00  0.00     0.012 A 
ATOM     23  C   UNL d   1      28.182 -12.673   0.226  0.00  0.00    -0.025 A 
ATOM     24  C   UNL d   1      26.994 -12.300   0.882  0.00  0.00     0.012 A 
ATOM     25  C   UNL d   1      29.013 -13.637   0.824  0.00  0.00    -0.018 A 
ATOM     26  C   UNL d   1      26.633 -12.850   2.115  0.00  0.00     0.001 A 
ATOM     27  C   UNL d   1      27.442 -13.791   2.714  0.00  0.00     0.001 A 
ATOM     28  C   UNL d   1      28.604 -14.164   2.074  0.00  0.00     0.013 A 
ENDBRANCH  17  19
ENDBRANCH  15  17
ENDBRANCH  13  15
ENDBRANCH  10  13
ENDBRANCH   1   9
TORSDOF 5
ENDMDL
MODEL 9
REMARK VINA RESULT:    -7.114      3.031      6.129
REMARK INTER + INTRA:         -11.087
REMARK INTER:                  -8.606
REMARK INTRA:                  -2.481
REMARK CONF_INDEPENDENT:        1.492
REMARK UNBOUND:                -2.481
REMARK  5 active torsions:
REMARK  status: ('A' for Active; 'I' for Inactive)
REMARK    1  A    between atoms: C_2  and  C_16 
REMARK    2  A    between atoms: C_2  and  N_3 
REMARK    3  A    between atoms: C_4  and  N_3 
REMARK    4  A    between atoms: C_4  and  C_6 
REMARK       I    between atoms: C_16  and  N_18 
REMARK    5  A    between atoms: N_18  and  C_19 
ROOT
ATOM      1  C   UNL d   1      31.431 -18.557  -3.747  0.00  0.00     0.055 A 
ATOM      2  C   UNL d   1      32.004 -19.838  -3.746  0.00  0.00     0.031 A 
ATOM      3  C   UNL d   1      31.718 -20.741  -4.784  0.00  0.00     0.002 A 
ATOM      4  C   UNL d   1      30.932 -20.354  -5.867  0.00  0.00     0.002 A 
ATOM      5  C   UNL d   1      30.405 -19.072  -5.902  0.00  0.00     0.025 A 
ATOM      6  C   UNL d   1      30.627 -18.190  -4.838  0.00  0.00     0.071 A 
ATOM      7  C   UNL d   1      30.040 -16.893  -4.961  0.00  0.00     0.102 C 
ATOM      8  N   UNL d   1      29.543 -15.867  -5.108  0.00  0.00    -0.191 NA
ENDROOT
BRANCH   1   9
ATOM      9  N   UNL d   1      31.682 -17.674  -2.658  0.00  0.00    -0.324 N 
ATOM     10  C   UNL d   1      30.930 -17.733  -1.482  0.00  0.00     0.255 C 
ATOM     11  O   UNL d   1      30.054 -18.575  -1.279  0.00  0.00    -0.271 OA
ATOM     12  H   UNL d   1      32.556 -17.164  -2.652  0.00  0.00     0.169 HD
BRANCH  10  13
ATOM     13  C   UNL d   1      31.277 -16.688  -0.393  0.00  0.00     0.308 C 
ATOM     14  C   UNL d   1      32.494 -17.117   0.388  0.00  0.00     0.053 C 
BRANCH  13  15
ATOM     15  N   UNL d   1      30.174 -16.632   0.601  0.00  0.00     0.105 N 
ATOM     16  H   UNL d   1      29.820 -17.589   0.650  0.00  0.00     0.317 HD
BRANCH  15  17
ATOM     17  C   UNL d   1      29.099 -15.692   0.233  0.00  0.00     0.251 C 
ATOM     18  C   UNL d   1      28.766 -14.701   1.363  0.00  0.00     0.048 C 
BRANCH  17  19
ATOM     19  C   UNL d   1      27.836 -16.420  -0.208  0.00  0.00    -0.015 A 
ATOM     20  C   UNL d   1      27.320 -17.450   0.607  0.00  0.00     0.010 A 
ATOM     21  C   UNL d   1      26.106 -18.050   0.290  0.00  0.00     0.002 A 
ATOM     22  C   UNL d   1      25.401 -17.629  -0.836  0.00  0.00     0.012 A 
ATOM     23  C   UNL d   1      25.888 -16.600  -1.661  0.00  0.00    -0.025 A 
ATOM     24  C   UNL d   1      25.155 -16.139  -2.770  0.00  0.00     0.012 A 
ATOM     25  C   UNL d   1      27.122 -15.995  -1.365  0.00  0.00    -0.018 A 
ATOM     26  C   UNL d   1      25.632 -15.113  -3.590  0.00  0.00     0.001 A 
ATOM     27  C   UNL d   1      26.844 -14.518  -3.316  0.00  0.00     0.001 A 
ATOM     28  C   UNL d   1      27.564 -14.960  -2.226  0.00  0.00     0.013 A 
ENDBRANCH  17  19
ENDBRANCH  15  17
ENDBRANCH  13  15
ENDBRANCH  10  13
ENDBRANCH   1   9
TORSDOF 5
ENDMDL
