MODEL 1
REMARK VINA RESULT:    -9.607      0.000      0.000
REMARK INTER + INTRA:         -12.538
REMARK INTER:                 -11.098
REMARK INTRA:                  -1.440
REMARK CONF_INDEPENDENT:        1.492
REMARK UNBOUND:                -1.440
REMARK  5 active torsions:
REMARK  status: ('A' for Active; 'I' for Inactive)
REMARK       I    between atoms: C_2  and  N_3 
REMARK       I    between atoms: C_2  and  N_10 
REMARK    1  A    between atoms: N_3  and  C_4 
REMARK    2  A    between atoms: N_10  and  N_11 
REMARK       I    between atoms: N_11  and  C_12 
REMARK    3  A    between atoms: N_11  and  C_21 
REMARK       I    between atoms: C_12  and  N_14 
REMARK    4  A    between atoms: N_14  and  C_15 
REMARK    5  A    between atoms: C_23  and  C_24 
ROOT
ATOM      1  N   UNL d   1      28.121 -15.146   0.292  0.00  0.00    -0.176 N 
ATOM      2  C   UNL d   1      28.484 -14.163   1.224  0.00  0.00     0.344 C 
ATOM      3  O   UNL d   1      28.514 -12.946   0.947  0.00  0.00    -0.245 OA
ATOM      4  N   UNL d   1      28.799 -14.581   2.480  0.00  0.00    -0.337 N 
ATOM      5  H   UNL d   1      29.141 -15.553   2.446  0.00  0.00     0.164 HD
ENDROOT
BRANCH   1   6
ATOM      6  N   UNL d   1      27.805 -16.542   0.624  0.00  0.00    -0.239 N 
ATOM      7  C   UNL d   1      26.745 -17.370   0.266  0.00  0.00     0.335 C 
ATOM      8  O   UNL d   1      26.634 -18.463   0.849  0.00  0.00    -0.246 OA
ATOM      9  N   UNL d   1      25.823 -16.926  -0.653  0.00  0.00    -0.337 N 
ATOM     10  H   UNL d   1      26.088 -16.282  -1.407  0.00  0.00     0.164 HD
ATOM     11  H   UNL d   1      28.463 -16.951   1.297  0.00  0.00     0.192 HD
BRANCH   9  12
ATOM     12  C   UNL d   1      24.520 -17.399  -1.051  0.00  0.00     0.086 C 
ATOM     13  C   UNL d   1      24.384 -18.721  -0.348  0.00  0.00     0.025 C 
ATOM     14  C   UNL d   1      23.033 -19.320  -0.521  0.00  0.00     0.002 C 
ATOM     15  C   UNL d   1      22.000 -18.307  -0.089  0.00  0.00     0.000 C 
ATOM     16  C   UNL d   1      22.112 -17.017  -0.895  0.00  0.00     0.002 C 
ATOM     17  C   UNL d   1      23.468 -16.400  -0.742  0.00  0.00     0.025 C 
ENDBRANCH   9  12
ENDBRANCH   1   6
BRANCH   1  18
ATOM     18  C   UNL d   1      27.905 -14.693  -1.053  0.00  0.00     0.197 A 
ATOM     19  N   UNL d   1      27.235 -13.626  -1.463  0.00  0.00    -0.222 NA
ATOM     20  C   UNL d   1      27.245 -13.536  -2.868  0.00  0.00     0.076 A 
ATOM     21  C   UNL d   1      27.834 -14.602  -3.518  0.00  0.00     0.086 A 
ATOM     22  S   UNL d   1      28.457 -15.707  -2.364  0.00  0.00    -0.060 SA
BRANCH  20  23
ATOM     23  C   UNL d   1      26.653 -12.414  -3.608  0.00  0.00    -0.007 A 
ATOM     24  C   UNL d   1      26.304 -11.226  -2.953  0.00  0.00     0.017 A 
ATOM     25  C   UNL d   1      25.759 -10.142  -3.659  0.00  0.00     0.043 A 
ATOM     26  C   UNL d   1      25.571 -10.235  -5.028  0.00  0.00     0.116 A 
ATOM     27  F   UNL d   1      25.054  -9.200  -5.703  0.00  0.00    -0.206 F 
ATOM     28  C   UNL d   1      25.914 -11.396  -5.702  0.00  0.00     0.043 A 
ATOM     29  C   UNL d   1      26.449 -12.483  -4.995  0.00  0.00     0.017 A 
ENDBRANCH  20  23
ENDBRANCH   1  18
BRANCH   4  30
ATOM     30  C   UNL d   1      28.969 -13.845   3.759  0.00  0.00     0.086 C 
ATOM     31  C   UNL d   1      27.821 -12.908   3.804  0.00  0.00     0.025 C 
ATOM     32  C   UNL d   1      27.780 -12.094   5.052  0.00  0.00     0.002 C 
ATOM     33  C   UNL d   1      27.828 -12.976   6.290  0.00  0.00     0.000 C 
ATOM     34  C   UNL d   1      29.070 -13.840   6.294  0.00  0.00     0.002 C 
ATOM     35  C   UNL d   1      29.075 -14.697   5.039  0.00  0.00     0.025 C 
ENDBRANCH   4  30
TORSDOF 5
ENDMDL
MODEL 2
REMARK VINA RESULT:    -9.354      3.331      4.437
REMARK INTER + INTRA:         -12.529
REMARK INTER:                 -10.846
REMARK INTRA:                  -1.683
REMARK CONF_INDEPENDENT:        1.492
REMARK UNBOUND:                -1.683
REMARK  5 active torsions:
REMARK  status: ('A' for Active; 'I' for Inactive)
REMARK       I    between atoms: C_2  and  N_3 
REMARK       I    between atoms: C_2  and  N_10 
REMARK    1  A    between atoms: N_3  and  C_4 
REMARK    2  A    between atoms: N_10  and  N_11 
REMARK       I    between atoms: N_11  and  C_12 
REMARK    3  A    between atoms: N_11  and  C_21 
REMARK       I    between atoms: C_12  and  N_14 
REMARK    4  A    between atoms: N_14  and  C_15 
REMARK    5  A    between atoms: C_23  and  C_24 
ROOT
ATOM      1  N   UNL d   1      28.725 -16.241  -0.725  0.00  0.00    -0.176 N 
ATOM      2  C   UNL d   1      28.958 -15.042  -0.037  0.00  0.00     0.344 C 
ATOM      3  O   UNL d   1      29.058 -13.939  -0.613  0.00  0.00    -0.245 OA
ATOM      4  N   UNL d   1      29.060 -15.111   1.319  0.00  0.00    -0.337 N 
ATOM      5  H   UNL d   1      29.381 -16.050   1.594  0.00  0.00     0.164 HD
ENDROOT
BRANCH   1   6
ATOM      6  N   UNL d   1      28.331 -17.509  -0.095  0.00  0.00    -0.239 N 
ATOM      7  C   UNL d   1      27.086 -18.049   0.214  0.00  0.00     0.335 C 
ATOM      8  O   UNL d   1      27.052 -19.070   0.923  0.00  0.00    -0.246 OA
ATOM      9  N   UNL d   1      25.947 -17.401  -0.204  0.00  0.00    -0.337 N 
ATOM     10  H   UNL d   1      25.931 -16.855  -1.072  0.00  0.00     0.164 HD
ATOM     11  H   UNL d   1      29.133 -18.059   0.230  0.00  0.00     0.192 HD
BRANCH   9  12
ATOM     12  C   UNL d   1      24.552 -17.538   0.139  0.00  0.00     0.086 C 
ATOM     13  C   UNL d   1      23.880 -16.435  -0.631  0.00  0.00     0.025 C 
ATOM     14  C   UNL d   1      22.397 -16.487  -0.521  0.00  0.00     0.002 C 
ATOM     15  C   UNL d   1      21.934 -17.865  -0.927  0.00  0.00     0.000 C 
ATOM     16  C   UNL d   1      22.566 -18.946  -0.057  0.00  0.00     0.002 C 
ATOM     17  C   UNL d   1      24.060 -18.907  -0.147  0.00  0.00     0.025 C 
ENDBRANCH   9  12
ENDBRANCH   1   6
BRANCH   1  18
ATOM     18  C   UNL d   1      28.737 -16.159  -2.159  0.00  0.00     0.197 A 
ATOM     19  N   UNL d   1      29.673 -16.577  -2.998  0.00  0.00    -0.222 NA
ATOM     20  C   UNL d   1      29.313 -16.301  -4.330  0.00  0.00     0.076 A 
ATOM     21  C   UNL d   1      28.148 -15.575  -4.483  0.00  0.00     0.086 A 
ATOM     22  S   UNL d   1      27.444 -15.289  -2.946  0.00  0.00    -0.060 SA
BRANCH  20  23
ATOM     23  C   UNL d   1      30.116 -16.722  -5.486  0.00  0.00    -0.007 A 
ATOM     24  C   UNL d   1      30.404 -18.074  -5.707  0.00  0.00     0.017 A 
ATOM     25  C   UNL d   1      31.152 -18.484  -6.822  0.00  0.00     0.043 A 
ATOM     26  C   UNL d   1      31.606 -17.542  -7.731  0.00  0.00     0.116 A 
ATOM     27  F   UNL d   1      32.317 -17.933  -8.797  0.00  0.00    -0.206 F 
ATOM     28  C   UNL d   1      31.330 -16.198  -7.541  0.00  0.00     0.043 A 
ATOM     29  C   UNL d   1      30.591 -15.788  -6.421  0.00  0.00     0.017 A 
ENDBRANCH  20  23
ENDBRANCH   1  18
BRANCH   4  30
ATOM     30  C   UNL d   1      29.040 -14.063   2.372  0.00  0.00     0.086 C 
ATOM     31  C   UNL d   1      27.618 -13.657   2.466  0.00  0.00     0.025 C 
ATOM     32  C   UNL d   1      27.372 -12.629   3.517  0.00  0.00     0.002 C 
ATOM     33  C   UNL d   1      27.915 -13.075   4.865  0.00  0.00     0.000 C 
ATOM     34  C   UNL d   1      29.396 -13.368   4.785  0.00  0.00     0.002 C 
ATOM     35  C   UNL d   1      29.627 -14.450   3.743  0.00  0.00     0.025 C 
ENDBRANCH   4  30
TORSDOF 5
ENDMDL
MODEL 3
REMARK VINA RESULT:    -9.332      3.259      7.800
REMARK INTER + INTRA:         -12.540
REMARK INTER:                 -10.824
REMARK INTRA:                  -1.716
REMARK CONF_INDEPENDENT:        1.492
REMARK UNBOUND:                -1.716
REMARK  5 active torsions:
REMARK  status: ('A' for Active; 'I' for Inactive)
REMARK       I    between atoms: C_2  and  N_3 
REMARK       I    between atoms: C_2  and  N_10 
REMARK    1  A    between atoms: N_3  and  C_4 
REMARK    2  A    between atoms: N_10  and  N_11 
REMARK       I    between atoms: N_11  and  C_12 
REMARK    3  A    between atoms: N_11  and  C_21 
REMARK       I    between atoms: C_12  and  N_14 
REMARK    4  A    between atoms: N_14  and  C_15 
REMARK    5  A    between atoms: C_23  and  C_24 
ROOT
ATOM      1  N   UNL d   1      25.002 -16.688  -0.923  0.00  0.00    -0.176 N 
ATOM      2  C   UNL d   1      24.286 -17.728  -0.312  0.00  0.00     0.344 C 
ATOM      3  O   UNL d   1      24.632 -18.243   0.771  0.00  0.00    -0.245 OA
ATOM      4  N   UNL d   1      23.160 -18.163  -0.941  0.00  0.00    -0.337 N 
ATOM      5  H   UNL d   1      23.236 -17.981  -1.953  0.00  0.00     0.164 HD
ENDROOT
BRANCH   1   6
ATOM      6  N   UNL d   1      24.506 -15.867  -2.036  0.00  0.00    -0.239 N 
ATOM      7  C   UNL d   1      25.155 -15.245  -3.099  0.00  0.00     0.335 C 
ATOM      8  O   UNL d   1      24.502 -14.449  -3.797  0.00  0.00    -0.246 OA
ATOM      9  N   UNL d   1      26.498 -15.468  -3.292  0.00  0.00    -0.337 N 
ATOM     10  H   UNL d   1      26.934 -16.361  -3.037  0.00  0.00     0.164 HD
ATOM     11  H   UNL d   1      23.501 -15.671  -1.971  0.00  0.00     0.192 HD
BRANCH   9  12
ATOM     12  C   UNL d   1      27.499 -14.820  -4.104  0.00  0.00     0.086 C 
ATOM     13  C   UNL d   1      28.722 -15.675  -3.922  0.00  0.00     0.025 C 
ATOM     14  C   UNL d   1      29.848 -15.249  -4.798  0.00  0.00     0.002 C 
ATOM     15  C   UNL d   1      29.356 -15.208  -6.225  0.00  0.00     0.000 C 
ATOM     16  C   UNL d   1      28.177 -14.254  -6.382  0.00  0.00     0.002 C 
ATOM     17  C   UNL d   1      27.034 -14.659  -5.503  0.00  0.00     0.025 C 
ENDBRANCH   9  12
ENDBRANCH   1   6
BRANCH   1  18
ATOM     18  C   UNL d   1      26.244 -16.326  -0.302  0.00  0.00     0.197 A 
ATOM     19  N   UNL d   1      26.465 -15.386   0.605  0.00  0.00    -0.222 NA
ATOM     20  C   UNL d   1      27.828 -15.335   0.955  0.00  0.00     0.076 A 
ATOM     21  C   UNL d   1      28.650 -16.171   0.225  0.00  0.00     0.086 A 
ATOM     22  S   UNL d   1      27.706 -17.095  -0.869  0.00  0.00    -0.060 SA
BRANCH  20  23
ATOM     23  C   UNL d   1      28.361 -14.447   1.996  0.00  0.00    -0.007 A 
ATOM     24  C   UNL d   1      29.396 -13.547   1.712  0.00  0.00     0.017 A 
ATOM     25  C   UNL d   1      29.894 -12.680   2.698  0.00  0.00     0.043 A 
ATOM     26  C   UNL d   1      29.349 -12.699   3.971  0.00  0.00     0.116 A 
ATOM     27  F   UNL d   1      29.822 -11.870   4.911  0.00  0.00    -0.206 F 
ATOM     28  C   UNL d   1      28.320 -13.575   4.278  0.00  0.00     0.043 A 
ATOM     29  C   UNL d   1      27.830 -14.448   3.295  0.00  0.00     0.017 A 
ENDBRANCH  20  23
ENDBRANCH   1  18
BRANCH   4  30
ATOM     30  C   UNL d   1      22.039 -19.027  -0.489  0.00  0.00     0.086 C 
ATOM     31  C   UNL d   1      21.780 -18.599   0.906  0.00  0.00     0.025 C 
ATOM     32  C   UNL d   1      20.641 -19.325   1.538  0.00  0.00     0.002 C 
ATOM     33  C   UNL d   1      19.386 -19.234   0.685  0.00  0.00     0.000 C 
ATOM     34  C   UNL d   1      19.629 -19.789  -0.701  0.00  0.00     0.002 C 
ATOM     35  C   UNL d   1      20.762 -19.010  -1.350  0.00  0.00     0.025 C 
ENDBRANCH   4  30
TORSDOF 5
ENDMDL
MODEL 4
REMARK VINA RESULT:    -9.148      1.766      2.190
REMARK INTER + INTRA:         -12.152
REMARK INTER:                 -10.640
REMARK INTRA:                  -1.512
REMARK CONF_INDEPENDENT:        1.492
REMARK UNBOUND:                -1.512
REMARK  5 active torsions:
REMARK  status: ('A' for Active; 'I' for Inactive)
REMARK       I    between atoms: C_2  and  N_3 
REMARK       I    between atoms: C_2  and  N_10 
REMARK    1  A    between atoms: N_3  and  C_4 
REMARK    2  A    between atoms: N_10  and  N_11 
REMARK       I    between atoms: N_11  and  C_12 
REMARK    3  A    between atoms: N_11  and  C_21 
REMARK       I    between atoms: C_12  and  N_14 
REMARK    4  A    between atoms: N_14  and  C_15 
REMARK    5  A    between atoms: C_23  and  C_24 
ROOT
ATOM      1  N   UNL d   1      27.993 -14.845   0.673  0.00  0.00    -0.176 N 
ATOM      2  C   UNL d   1      28.404 -13.952   1.673  0.00  0.00     0.344 C 
ATOM      3  O   UNL d   1      28.326 -12.712   1.547  0.00  0.00    -0.245 OA
ATOM      4  N   UNL d   1      28.892 -14.487   2.826  0.00  0.00    -0.337 N 
ATOM      5  H   UNL d   1      29.286 -15.420   2.634  0.00  0.00     0.164 HD
ENDROOT
BRANCH   1   6
ATOM      6  N   UNL d   1      27.805 -16.290   0.864  0.00  0.00    -0.239 N 
ATOM      7  C   UNL d   1      26.829 -17.173   0.409  0.00  0.00     0.335 C 
ATOM      8  O   UNL d   1      26.815 -18.322   0.882  0.00  0.00    -0.246 OA
ATOM      9  N   UNL d   1      25.879 -16.727  -0.480  0.00  0.00    -0.337 N 
ATOM     10  H   UNL d   1      26.089 -15.990  -1.163  0.00  0.00     0.164 HD
ATOM     11  H   UNL d   1      28.492 -16.701   1.506  0.00  0.00     0.192 HD
BRANCH   9  12
ATOM     12  C   UNL d   1      24.629 -17.276  -0.945  0.00  0.00     0.086 C 
ATOM     13  C   UNL d   1      24.549 -18.617  -0.270  0.00  0.00     0.025 C 
ATOM     14  C   UNL d   1      23.249 -19.299  -0.514  0.00  0.00     0.002 C 
ATOM     15  C   UNL d   1      22.134 -18.363  -0.114  0.00  0.00     0.000 C 
ATOM     16  C   UNL d   1      22.197 -17.054  -0.894  0.00  0.00     0.002 C 
ATOM     17  C   UNL d   1      23.501 -16.353  -0.669  0.00  0.00     0.025 C 
ENDBRANCH   9  12
ENDBRANCH   1   6
BRANCH   1  18
ATOM     18  C   UNL d   1      27.591 -14.257  -0.573  0.00  0.00     0.197 A 
ATOM     19  N   UNL d   1      28.156 -14.392  -1.765  0.00  0.00    -0.222 NA
ATOM     20  C   UNL d   1      27.466 -13.642  -2.735  0.00  0.00     0.076 A 
ATOM     21  C   UNL d   1      26.443 -12.854  -2.247  0.00  0.00     0.086 A 
ATOM     22  S   UNL d   1      26.281 -13.103  -0.558  0.00  0.00    -0.060 SA
BRANCH  20  23
ATOM     23  C   UNL d   1      27.811 -13.660  -4.163  0.00  0.00    -0.007 A 
ATOM     24  C   UNL d   1      27.991 -12.466  -4.874  0.00  0.00     0.017 A 
ATOM     25  C   UNL d   1      28.343 -12.477  -6.233  0.00  0.00     0.043 A 
ATOM     26  C   UNL d   1      28.529 -13.684  -6.886  0.00  0.00     0.116 A 
ATOM     27  F   UNL d   1      28.868 -13.695  -8.182  0.00  0.00    -0.206 F 
ATOM     28  C   UNL d   1      28.364 -14.880  -6.206  0.00  0.00     0.043 A 
ATOM     29  C   UNL d   1      28.002 -14.868  -4.850  0.00  0.00     0.017 A 
ENDBRANCH  20  23
ENDBRANCH   1  18
BRANCH   4  30
ATOM     30  C   UNL d   1      29.168 -13.893   4.159  0.00  0.00     0.086 C 
ATOM     31  C   UNL d   1      27.833 -13.519   4.682  0.00  0.00     0.025 C 
ATOM     32  C   UNL d   1      27.885 -12.937   6.054  0.00  0.00     0.002 C 
ATOM     33  C   UNL d   1      28.624 -13.853   7.016  0.00  0.00     0.000 C 
ATOM     34  C   UNL d   1      30.031 -14.129   6.532  0.00  0.00     0.002 C 
ATOM     35  C   UNL d   1      29.960 -14.763   5.153  0.00  0.00     0.025 C 
ENDBRANCH   4  30
TORSDOF 5
ENDMDL
MODEL 5
REMARK VINA RESULT:    -9.087      3.855      7.566
REMARK INTER + INTRA:         -12.287
REMARK INTER:                 -10.578
REMARK INTRA:                  -1.709
REMARK CONF_INDEPENDENT:        1.492
REMARK UNBOUND:                -1.709
REMARK  5 active torsions:
REMARK  status: ('A' for Active; 'I' for Inactive)
REMARK       I    between atoms: C_2  and  N_3 
REMARK       I    between atoms: C_2  and  N_10 
REMARK    1  A    between atoms: N_3  and  C_4 
REMARK    2  A    between atoms: N_10  and  N_11 
REMARK       I    between atoms: N_11  and  C_12 
REMARK    3  A    between atoms: N_11  and  C_21 
REMARK       I    between atoms: C_12  and  N_14 
REMARK    4  A    between atoms: N_14  and  C_15 
REMARK    5  A    between atoms: C_23  and  C_24 
ROOT
ATOM      1  N   UNL d   1      24.950 -15.601  -1.301  0.00  0.00    -0.176 N 
ATOM      2  C   UNL d   1      25.913 -15.113  -0.406  0.00  0.00     0.344 C 
ATOM      3  O   UNL d   1      26.280 -15.746   0.605  0.00  0.00    -0.245 OA
ATOM      4  N   UNL d   1      26.466 -13.901  -0.686  0.00  0.00    -0.337 N 
ATOM      5  H   UNL d   1      25.807 -13.341  -1.245  0.00  0.00     0.164 HD
ENDROOT
BRANCH   1   6
ATOM      6  N   UNL d   1      24.680 -15.040  -2.633  0.00  0.00    -0.239 N 
ATOM      7  C   UNL d   1      25.510 -14.768  -3.717  0.00  0.00     0.335 C 
ATOM      8  O   UNL d   1      25.038 -14.113  -4.663  0.00  0.00    -0.246 OA
ATOM      9  N   UNL d   1      26.827 -15.160  -3.672  0.00  0.00    -0.337 N 
ATOM     10  H   UNL d   1      27.118 -15.999  -3.158  0.00  0.00     0.164 HD
ATOM     11  H   UNL d   1      23.706 -14.738  -2.748  0.00  0.00     0.192 HD
BRANCH   9  12
ATOM     12  C   UNL d   1      27.981 -14.835  -4.475  0.00  0.00     0.086 C 
ATOM     13  C   UNL d   1      28.949 -15.947  -4.185  0.00  0.00     0.025 C 
ATOM     14  C   UNL d   1      30.171 -15.872  -5.032  0.00  0.00     0.002 C 
ATOM     15  C   UNL d   1      29.748 -15.812  -6.480  0.00  0.00     0.000 C 
ATOM     16  C   UNL d   1      28.845 -14.613  -6.749  0.00  0.00     0.002 C 
ATOM     17  C   UNL d   1      27.612 -14.664  -5.902  0.00  0.00     0.025 C 
ENDBRANCH   9  12
ENDBRANCH   1   6
BRANCH   1  18
ATOM     18  C   UNL d   1      24.301 -16.825  -0.925  0.00  0.00     0.197 A 
ATOM     19  N   UNL d   1      23.006 -17.046  -0.746  0.00  0.00    -0.222 NA
ATOM     20  C   UNL d   1      22.773 -18.382  -0.367  0.00  0.00     0.076 A 
ATOM     21  C   UNL d   1      23.910 -19.137  -0.157  0.00  0.00     0.086 A 
ATOM     22  S   UNL d   1      25.299 -18.195  -0.506  0.00  0.00    -0.060 SA
BRANCH  20  23
ATOM     23  C   UNL d   1      21.429 -18.943  -0.178  0.00  0.00    -0.007 A 
ATOM     24  C   UNL d   1      20.573 -19.143  -1.268  0.00  0.00     0.017 A 
ATOM     25  C   UNL d   1      19.296 -19.700  -1.096  0.00  0.00     0.043 A 
ATOM     26  C   UNL d   1      18.872 -20.071   0.169  0.00  0.00     0.116 A 
ATOM     27  F   UNL d   1      17.655 -20.606   0.334  0.00  0.00    -0.206 F 
ATOM     28  C   UNL d   1      19.700 -19.891   1.265  0.00  0.00     0.043 A 
ATOM     29  C   UNL d   1      20.972 -19.325   1.094  0.00  0.00     0.017 A 
ENDBRANCH  20  23
ENDBRANCH   1  18
BRANCH   4  30
ATOM     30  C   UNL d   1      27.659 -13.203  -0.141  0.00  0.00     0.086 C 
ATOM     31  C   UNL d   1      27.380 -13.068   1.309  0.00  0.00     0.025 C 
ATOM     32  C   UNL d   1      28.494 -12.424   2.061  0.00  0.00     0.002 C 
ATOM     33  C   UNL d   1      29.815 -13.135   1.811  0.00  0.00     0.000 C 
ATOM     34  C   UNL d   1      30.150 -13.157   0.336  0.00  0.00     0.002 C 
ATOM     35  C   UNL d   1      29.027 -13.857  -0.412  0.00  0.00     0.025 C 
ENDBRANCH   4  30
TORSDOF 5
ENDMDL
MODEL 6
REMARK VINA RESULT:    -8.948      3.740      6.708
REMARK INTER + INTRA:         -12.144
REMARK INTER:                 -10.440
REMARK INTRA:                  -1.704
REMARK CONF_INDEPENDENT:        1.492
REMARK UNBOUND:                -1.704
REMARK  5 active torsions:
REMARK  status: ('A' for Active; 'I' for Inactive)
REMARK       I    between atoms: C_2  and  N_3 
REMARK       I    between atoms: C_2  and  N_10 
REMARK    1  A    between atoms: N_3  and  C_4 
REMARK    2  A    between atoms: N_10  and  N_11 
REMARK       I    between atoms: N_11  and  C_12 
REMARK    3  A    between atoms: N_11  and  C_21 
REMARK       I    between atoms: C_12  and  N_14 
REMARK    4  A    between atoms: N_14  and  C_15 
REMARK    5  A    between atoms: C_23  and  C_24 
ROOT
ATOM      1  N   UNL d   1      28.192 -15.544  -3.910  0.00  0.00    -0.176 N 
ATOM      2  C   UNL d   1      28.864 -15.957  -5.070  0.00  0.00     0.344 C 
ATOM      3  O   UNL d   1      28.695 -15.412  -6.180  0.00  0.00    -0.245 OA
ATOM      4  N   UNL d   1      29.742 -16.990  -4.947  0.00  0.00    -0.337 N 
ATOM      5  H   UNL d   1      29.469 -17.583  -4.150  0.00  0.00     0.164 HD
ENDROOT
BRANCH   1   6
ATOM      6  N   UNL d   1      28.544 -15.955  -2.544  0.00  0.00    -0.239 N 
ATOM      7  C   UNL d   1      27.770 -16.392  -1.473  0.00  0.00     0.335 C 
ATOM      8  O   UNL d   1      28.318 -16.496  -0.361  0.00  0.00    -0.246 OA
ATOM      9  N   UNL d   1      26.426 -16.615  -1.659  0.00  0.00    -0.337 N 
ATOM     10  H   UNL d   1      26.057 -16.932  -2.562  0.00  0.00     0.164 HD
ATOM     11  H   UNL d   1      29.541 -15.832  -2.334  0.00  0.00     0.192 HD
BRANCH   9  12
ATOM     12  C   UNL d   1      25.325 -16.820  -0.750  0.00  0.00     0.086 C 
ATOM     13  C   UNL d   1      24.173 -16.114  -1.410  0.00  0.00     0.025 C 
ATOM     14  C   UNL d   1      22.888 -16.325  -0.688  0.00  0.00     0.002 C 
ATOM     15  C   UNL d   1      22.666 -17.810  -0.530  0.00  0.00     0.000 C 
ATOM     16  C   UNL d   1      23.812 -18.469   0.230  0.00  0.00     0.002 C 
ATOM     17  C   UNL d   1      25.116 -18.263  -0.475  0.00  0.00     0.025 C 
ENDBRANCH   9  12
ENDBRANCH   1   6
BRANCH   1  18
ATOM     18  C   UNL d   1      27.189 -14.532  -4.088  0.00  0.00     0.197 A 
ATOM     19  N   UNL d   1      27.330 -13.216  -4.022  0.00  0.00    -0.222 NA
ATOM     20  C   UNL d   1      26.100 -12.568  -4.243  0.00  0.00     0.076 A 
ATOM     21  C   UNL d   1      25.011 -13.408  -4.368  0.00  0.00     0.086 A 
ATOM     22  S   UNL d   1      25.530 -15.040  -4.283  0.00  0.00    -0.060 SA
BRANCH  20  23
ATOM     23  C   UNL d   1      25.959 -11.108  -4.312  0.00  0.00    -0.007 A 
ATOM     24  C   UNL d   1      25.841 -10.454  -5.545  0.00  0.00     0.017 A 
ATOM     25  C   UNL d   1      25.683  -9.061  -5.615  0.00  0.00     0.043 A 
ATOM     26  C   UNL d   1      25.630  -8.314  -4.451  0.00  0.00     0.116 A 
ATOM     27  F   UNL d   1      25.476  -6.985  -4.517  0.00  0.00    -0.206 F 
ATOM     28  C   UNL d   1      25.737  -8.935  -3.217  0.00  0.00     0.043 A 
ATOM     29  C   UNL d   1      25.905 -10.326  -3.147  0.00  0.00     0.017 A 
ENDBRANCH  20  23
ENDBRANCH   1  18
BRANCH   4  30
ATOM     30  C   UNL d   1      30.793 -17.514  -5.857  0.00  0.00     0.086 C 
ATOM     31  C   UNL d   1      30.405 -18.925  -6.098  0.00  0.00     0.025 C 
ATOM     32  C   UNL d   1      31.321 -19.630  -7.039  0.00  0.00     0.002 C 
ATOM     33  C   UNL d   1      31.473 -18.862  -8.343  0.00  0.00     0.000 C 
ATOM     34  C   UNL d   1      31.988 -17.462  -8.093  0.00  0.00     0.002 C 
ATOM     35  C   UNL d   1      31.021 -16.741  -7.169  0.00  0.00     0.025 C 
ENDBRANCH   4  30
TORSDOF 5
ENDMDL
MODEL 7
REMARK VINA RESULT:    -8.791      3.028      7.353
REMARK INTER + INTRA:         -11.872
REMARK INTER:                 -10.283
REMARK INTRA:                  -1.589
REMARK CONF_INDEPENDENT:        1.492
REMARK UNBOUND:                -1.589
REMARK  5 active torsions:
REMARK  status: ('A' for Active; 'I' for Inactive)
REMARK       I    between atoms: C_2  and  N_3 
REMARK       I    between atoms: C_2  and  N_10 
REMARK    1  A    between atoms: N_3  and  C_4 
REMARK    2  A    between atoms: N_10  and  N_11 
REMARK       I    between atoms: N_11  and  C_12 
REMARK    3  A    between atoms: N_11  and  C_21 
REMARK       I    between atoms: C_12  and  N_14 
REMARK    4  A    between atoms: N_14  and  C_15 
REMARK    5  A    between atoms: C_23  and  C_24 
ROOT
ATOM      1  N   UNL d   1      28.157 -15.435   0.437  0.00  0.00    -0.176 N 
ATOM      2  C   UNL d   1      27.876 -14.593  -0.648  0.00  0.00     0.344 C 
ATOM      3  O   UNL d   1      28.275 -13.412  -0.710  0.00  0.00    -0.245 OA
ATOM      4  N   UNL d   1      27.146 -15.117  -1.671  0.00  0.00    -0.337 N 
ATOM      5  H   UNL d   1      26.555 -15.883  -1.317  0.00  0.00     0.164 HD
ENDROOT
BRANCH   1   6
ATOM      6  N   UNL d   1      27.955 -16.890   0.446  0.00  0.00    -0.239 N 
ATOM      7  C   UNL d   1      26.806 -17.673   0.367  0.00  0.00     0.335 C 
ATOM      8  O   UNL d   1      26.914 -18.892   0.588  0.00  0.00    -0.246 OA
ATOM      9  N   UNL d   1      25.594 -17.069   0.128  0.00  0.00    -0.337 N 
ATOM     10  H   UNL d   1      25.525 -16.216  -0.437  0.00  0.00     0.164 HD
ATOM     11  H   UNL d   1      28.823 -17.414   0.605  0.00  0.00     0.192 HD
BRANCH   9  12
ATOM     12  C   UNL d   1      24.229 -17.524   0.227  0.00  0.00     0.086 C 
ATOM     13  C   UNL d   1      23.463 -16.564  -0.640  0.00  0.00     0.025 C 
ATOM     14  C   UNL d   1      22.031 -16.946  -0.784  0.00  0.00     0.002 C 
ATOM     15  C   UNL d   1      21.963 -18.374  -1.270  0.00  0.00     0.000 C 
ATOM     16  C   UNL d   1      22.669 -19.325  -0.310  0.00  0.00     0.002 C 
ATOM     17  C   UNL d   1      24.110 -18.955  -0.145  0.00  0.00     0.025 C 
ENDBRANCH   9  12
ENDBRANCH   1   6
BRANCH   1  18
ATOM     18  C   UNL d   1      28.828 -14.827   1.552  0.00  0.00     0.197 A 
ATOM     19  N   UNL d   1      28.319 -14.476   2.724  0.00  0.00    -0.222 NA
ATOM     20  C   UNL d   1      29.304 -13.896   3.546  0.00  0.00     0.076 A 
ATOM     21  C   UNL d   1      30.534 -13.714   2.944  0.00  0.00     0.086 A 
ATOM     22  S   UNL d   1      30.493 -14.341   1.349  0.00  0.00    -0.060 SA
BRANCH  20  23
ATOM     23  C   UNL d   1      29.056 -13.484   4.933  0.00  0.00    -0.007 A 
ATOM     24  C   UNL d   1      28.200 -12.414   5.223  0.00  0.00     0.017 A 
ATOM     25  C   UNL d   1      27.942 -12.030   6.548  0.00  0.00     0.043 A 
ATOM     26  C   UNL d   1      28.530 -12.723   7.593  0.00  0.00     0.116 A 
ATOM     27  F   UNL d   1      28.281 -12.360   8.859  0.00  0.00    -0.206 F 
ATOM     28  C   UNL d   1      29.375 -13.790   7.336  0.00  0.00     0.043 A 
ATOM     29  C   UNL d   1      29.641 -14.167   6.011  0.00  0.00     0.017 A 
ENDBRANCH  20  23
ENDBRANCH   1  18
BRANCH   4  30
ATOM     30  C   UNL d   1      26.883 -14.638  -3.052  0.00  0.00     0.086 C 
ATOM     31  C   UNL d   1      25.462 -14.215  -3.033  0.00  0.00     0.025 C 
ATOM     32  C   UNL d   1      25.004 -13.649  -4.335  0.00  0.00     0.002 C 
ATOM     33  C   UNL d   1      25.915 -12.524  -4.799  0.00  0.00     0.000 C 
ATOM     34  C   UNL d   1      27.344 -13.001  -4.934  0.00  0.00     0.002 C 
ATOM     35  C   UNL d   1      27.812 -13.533  -3.589  0.00  0.00     0.025 C 
ENDBRANCH   4  30
TORSDOF 5
ENDMDL
MODEL 8
REMARK VINA RESULT:    -8.405      3.587      7.764
REMARK INTER + INTRA:         -12.562
REMARK INTER:                  -9.897
REMARK INTRA:                  -2.665
REMARK CONF_INDEPENDENT:        1.492
REMARK UNBOUND:                -2.665
REMARK  5 active torsions:
REMARK  status: ('A' for Active; 'I' for Inactive)
REMARK       I    between atoms: C_2  and  N_3 
REMARK       I    between atoms: C_2  and  N_10 
REMARK    1  A    between atoms: N_3  and  C_4 
REMARK    2  A    between atoms: N_10  and  N_11 
REMARK       I    between atoms: N_11  and  C_12 
REMARK    3  A    between atoms: N_11  and  C_21 
REMARK       I    between atoms: C_12  and  N_14 
REMARK    4  A    between atoms: N_14  and  C_15 
REMARK    5  A    between atoms: C_23  and  C_24 
ROOT
ATOM      1  N   UNL d   1      26.128 -11.531  -2.993  0.00  0.00    -0.176 N 
ATOM      2  C   UNL d   1      26.204 -10.157  -3.264  0.00  0.00     0.344 C 
ATOM      3  O   UNL d   1      27.093  -9.422  -2.787  0.00  0.00    -0.245 OA
ATOM      4  N   UNL d   1      25.264  -9.633  -4.097  0.00  0.00    -0.337 N 
ATOM      5  H   UNL d   1      24.408 -10.206  -4.057  0.00  0.00     0.164 HD
ENDROOT
BRANCH   1   6
ATOM      6  N   UNL d   1      25.287 -12.487  -3.727  0.00  0.00    -0.239 N 
ATOM      7  C   UNL d   1      25.015 -13.837  -3.526  0.00  0.00     0.335 C 
ATOM      8  O   UNL d   1      24.406 -14.450  -4.420  0.00  0.00    -0.246 OA
ATOM      9  N   UNL d   1      25.489 -14.459  -2.394  0.00  0.00    -0.337 N 
ATOM     10  H   UNL d   1      25.605 -13.948  -1.512  0.00  0.00     0.164 HD
ATOM     11  H   UNL d   1      24.881 -12.088  -4.581  0.00  0.00     0.192 HD
BRANCH   9  12
ATOM     12  C   UNL d   1      25.604 -15.843  -2.004  0.00  0.00     0.086 C 
ATOM     13  C   UNL d   1      26.677 -15.834  -0.951  0.00  0.00     0.025 C 
ATOM     14  C   UNL d   1      26.856 -17.167  -0.311  0.00  0.00     0.002 C 
ATOM     15  C   UNL d   1      25.516 -17.633   0.206  0.00  0.00     0.000 C 
ATOM     16  C   UNL d   1      24.484 -17.720  -0.913  0.00  0.00     0.002 C 
ATOM     17  C   UNL d   1      24.294 -16.391  -1.576  0.00  0.00     0.025 C 
ENDBRANCH   9  12
ENDBRANCH   1   6
BRANCH   1  18
ATOM     18  C   UNL d   1      27.058 -12.037  -2.024  0.00  0.00     0.197 A 
ATOM     19  N   UNL d   1      26.833 -12.357  -0.758  0.00  0.00    -0.222 NA
ATOM     20  C   UNL d   1      28.013 -12.806  -0.135  0.00  0.00     0.076 A 
ATOM     21  C   UNL d   1      29.153 -12.718  -0.910  0.00  0.00     0.086 A 
ATOM     22  S   UNL d   1      28.744 -12.136  -2.470  0.00  0.00    -0.060 SA
BRANCH  20  23
ATOM     23  C   UNL d   1      28.056 -13.307   1.244  0.00  0.00    -0.007 A 
ATOM     24  C   UNL d   1      29.195 -13.953   1.739  0.00  0.00     0.017 A 
ATOM     25  C   UNL d   1      29.250 -14.415   3.064  0.00  0.00     0.043 A 
ATOM     26  C   UNL d   1      28.168 -14.222   3.906  0.00  0.00     0.116 A 
ATOM     27  F   UNL d   1      28.221 -14.659   5.171  0.00  0.00    -0.206 F 
ATOM     28  C   UNL d   1      27.030 -13.580   3.445  0.00  0.00     0.043 A 
ATOM     29  C   UNL d   1      26.972 -13.128   2.118  0.00  0.00     0.017 A 
ENDBRANCH  20  23
ENDBRANCH   1  18
BRANCH   4  30
ATOM     30  C   UNL d   1      25.176  -8.328  -4.801  0.00  0.00     0.086 C 
ATOM     31  C   UNL d   1      23.961  -8.442  -5.644  0.00  0.00     0.025 C 
ATOM     32  C   UNL d   1      23.664  -7.198  -6.410  0.00  0.00     0.002 C 
ATOM     33  C   UNL d   1      23.595  -5.987  -5.494  0.00  0.00     0.000 C 
ATOM     34  C   UNL d   1      24.888  -5.809  -4.729  0.00  0.00     0.002 C 
ATOM     35  C   UNL d   1      25.155  -7.066  -3.918  0.00  0.00     0.025 C 
ENDBRANCH   4  30
TORSDOF 5
ENDMDL
MODEL 9
REMARK VINA RESULT:    -8.061      4.181      7.794
REMARK INTER + INTRA:         -12.479
REMARK INTER:                  -9.553
REMARK INTRA:                  -2.927
REMARK CONF_INDEPENDENT:        1.492
REMARK UNBOUND:                -2.927
REMARK  5 active torsions:
REMARK  status: ('A' for Active; 'I' for Inactive)
REMARK       I    between atoms: C_2  and  N_3 
REMARK       I    between atoms: C_2  and  N_10 
REMARK    1  A    between atoms: N_3  and  C_4 
REMARK    2  A    between atoms: N_10  and  N_11 
REMARK       I    between atoms: N_11  and  C_12 
REMARK    3  A    between atoms: N_11  and  C_21 
REMARK       I    between atoms: C_12  and  N_14 
REMARK    4  A    between atoms: N_14  and  C_15 
REMARK    5  A    between atoms: C_23  and  C_24 
ROOT
ATOM      1  N   UNL d   1      24.986 -17.044  -1.319  0.00  0.00    -0.176 N 
ATOM      2  C   UNL d   1      24.320 -18.140  -0.754  0.00  0.00     0.344 C 
ATOM      3  O   UNL d   1      24.873 -18.938   0.031  0.00  0.00    -0.245 OA
ATOM      4  N   UNL d   1      23.008 -18.309  -1.080  0.00  0.00    -0.337 N 
ATOM      5  H   UNL d   1      22.824 -17.886  -2.001  0.00  0.00     0.164 HD
ENDROOT
BRANCH   1   6
ATOM      6  N   UNL d   1      24.329 -15.932  -2.020  0.00  0.00    -0.239 N 
ATOM      7  C   UNL d   1      24.780 -15.047  -2.996  0.00  0.00     0.335 C 
ATOM      8  O   UNL d   1      24.060 -14.073  -3.279  0.00  0.00    -0.246 OA
ATOM      9  N   UNL d   1      26.024 -15.233  -3.551  0.00  0.00    -0.337 N 
ATOM     10  H   UNL d   1      26.427 -16.171  -3.658  0.00  0.00     0.164 HD
ATOM     11  H   UNL d   1      23.384 -15.741  -1.669  0.00  0.00     0.192 HD
BRANCH   9  12
ATOM     12  C   UNL d   1      26.873 -14.402  -4.369  0.00  0.00     0.086 C 
ATOM     13  C   UNL d   1      27.774 -13.719  -3.379  0.00  0.00     0.025 C 
ATOM     14  C   UNL d   1      28.833 -12.907  -4.040  0.00  0.00     0.002 C 
ATOM     15  C   UNL d   1      29.577 -13.790  -5.012  0.00  0.00     0.000 C 
ATOM     16  C   UNL d   1      28.639 -14.384  -6.057  0.00  0.00     0.002 C 
ATOM     17  C   UNL d   1      27.561 -15.200  -5.414  0.00  0.00     0.025 C 
ENDBRANCH   9  12
ENDBRANCH   1   6
BRANCH   1  18
ATOM     18  C   UNL d   1      26.393 -16.953  -1.052  0.00  0.00     0.197 A 
ATOM     19  N   UNL d   1      27.397 -16.985  -1.917  0.00  0.00    -0.222 NA
ATOM     20  C   UNL d   1      28.635 -16.879  -1.254  0.00  0.00     0.076 A 
ATOM     21  C   UNL d   1      28.561 -16.877   0.125  0.00  0.00     0.086 A 
ATOM     22  S   UNL d   1      26.918 -16.934   0.613  0.00  0.00    -0.060 SA
BRANCH  20  23
ATOM     23  C   UNL d   1      29.922 -16.803  -1.957  0.00  0.00    -0.007 A 
ATOM     24  C   UNL d   1      29.994 -16.972  -3.345  0.00  0.00     0.017 A 
ATOM     25  C   UNL d   1      31.218 -16.877  -4.025  0.00  0.00     0.043 A 
ATOM     26  C   UNL d   1      32.378 -16.600  -3.320  0.00  0.00     0.116 A 
ATOM     27  F   UNL d   1      33.546 -16.507  -3.969  0.00  0.00    -0.206 F 
ATOM     28  C   UNL d   1      32.335 -16.422  -1.947  0.00  0.00     0.043 A 
ATOM     29  C   UNL d   1      31.113 -16.526  -1.267  0.00  0.00     0.017 A 
ENDBRANCH  20  23
ENDBRANCH   1  18
BRANCH   4  30
ATOM     30  C   UNL d   1      21.941 -19.163  -0.498  0.00  0.00     0.086 C 
ATOM     31  C   UNL d   1      21.737 -18.623   0.867  0.00  0.00     0.025 C 
ATOM     32  C   UNL d   1      20.655 -19.325   1.616  0.00  0.00     0.002 C 
ATOM     33  C   UNL d   1      19.357 -19.346   0.824  0.00  0.00     0.000 C 
ATOM     34  C   UNL d   1      19.551 -20.012  -0.520  0.00  0.00     0.002 C 
ATOM     35  C   UNL d   1      20.624 -19.259  -1.290  0.00  0.00     0.025 C 
ENDBRANCH   4  30
TORSDOF 5
ENDMDL
