MODEL 1
REMARK VINA RESULT:    -9.132      0.000      0.000
REMARK INTER + INTRA:         -11.284
REMARK INTER:                 -10.325
REMARK INTRA:                  -0.959
REMARK CONF_INDEPENDENT:        1.193
REMARK UNBOUND:                -0.959
REMARK  4 active torsions:
REMARK  status: ('A' for Active; 'I' for Inactive)
REMARK    1  A    between atoms: C_2  and  C_12 
REMARK    2  A    between atoms: C_2  and  N_3 
REMARK       I    between atoms: N_3  and  C_4 
REMARK    3  A    between atoms: C_4  and  C_6 
REMARK       I    between atoms: C_12  and  N_14 
REMARK    4  A    between atoms: N_14  and  C_15 
ROOT
ATOM      1  C   UNL d   1      24.952 -16.955  -1.185  0.00  0.00     0.244 C 
ATOM      2  O   UNL d   1      24.202 -17.287  -2.110  0.00  0.00    -0.271 OA
ATOM      3  N   UNL d   1      25.905 -15.968  -1.307  0.00  0.00    -0.323 N 
ATOM      4  H   UNL d   1      26.644 -15.918  -0.610  0.00  0.00     0.169 HD
ENDROOT
BRANCH   1   5
ATOM      5  C   UNL d   1      24.864 -17.698   0.184  0.00  0.00     0.173 C 
ATOM      6  C   UNL d   1      26.087 -18.574   0.434  0.00  0.00     0.042 C 
BRANCH   5   7
ATOM      7  N   UNL d   1      23.589 -18.455   0.198  0.00  0.00    -0.344 N 
ATOM      8  C   UNL d   1      22.349 -17.963  -0.132  0.00  0.00     0.252 C 
ATOM      9  O   UNL d   1      22.117 -16.833  -0.571  0.00  0.00    -0.268 OA
ATOM     10  H   UNL d   1      23.656 -19.391   0.591  0.00  0.00     0.163 HD
BRANCH   8  11
ATOM     11  C   UNL d   1      21.181 -18.846   0.046  0.00  0.00     0.032 A 
ATOM     12  C   UNL d   1      20.340 -19.063  -1.055  0.00  0.00     0.017 A 
ATOM     13  C   UNL d   1      19.147 -19.764  -0.896  0.00  0.00     0.001 A 
ATOM     14  C   UNL d   1      18.818 -20.288   0.353  0.00  0.00     0.000 A 
ATOM     15  C   UNL d   1      19.652 -20.065   1.453  0.00  0.00     0.001 A 
ATOM     16  C   UNL d   1      20.830 -19.331   1.307  0.00  0.00     0.017 A 
ENDBRANCH   8  11
ENDBRANCH   5   7
ENDBRANCH   1   5
BRANCH   3  17
ATOM     17  C   UNL d   1      26.073 -15.139  -2.466  0.00  0.00     0.064 C 
ATOM     18  C   UNL d   1      24.874 -14.452  -2.834  0.00  0.00     0.032 C 
ATOM     19  C   UNL d   1      24.805 -13.739  -4.018  0.00  0.00     0.003 C 
ATOM     20  C   UNL d   1      25.894 -13.783  -4.864  0.00  0.00     0.013 C 
ATOM     21  C   UNL d   1      27.043 -14.527  -4.545  0.00  0.00    -0.008 C 
ATOM     22  C   UNL d   1      27.956 -14.762  -5.569  0.00  0.00    -0.002 C 
ATOM     23  C   UNL d   1      27.299 -15.084  -3.288  0.00  0.00     0.092 C 
ATOM     24  C   UNL d   1      28.985 -15.662  -5.398  0.00  0.00     0.062 C 
ATOM     25  C   UNL d   1      29.513 -15.503  -4.167  0.00  0.00     0.100 C 
ATOM     26  N   UNL d   1      28.656 -15.471  -3.109  0.00  0.00    -0.261 NA
ENDBRANCH   3  17
TORSDOF 4
ENDMDL
MODEL 2
REMARK VINA RESULT:    -9.021      0.918      2.252
REMARK INTER + INTRA:         -11.252
REMARK INTER:                 -10.214
REMARK INTRA:                  -1.038
REMARK CONF_INDEPENDENT:        1.193
REMARK UNBOUND:                -1.038
REMARK  4 active torsions:
REMARK  status: ('A' for Active; 'I' for Inactive)
REMARK    1  A    between atoms: C_2  and  C_12 
REMARK    2  A    between atoms: C_2  and  N_3 
REMARK       I    between atoms: N_3  and  C_4 
REMARK    3  A    between atoms: C_4  and  C_6 
REMARK       I    between atoms: C_12  and  N_14 
REMARK    4  A    between atoms: N_14  and  C_15 
ROOT
ATOM      1  C   UNL d   1      25.447 -17.174  -1.207  0.00  0.00     0.244 C 
ATOM      2  O   UNL d   1      24.646 -17.310  -2.138  0.00  0.00    -0.271 OA
ATOM      3  N   UNL d   1      26.692 -16.605  -1.363  0.00  0.00    -0.323 N 
ATOM      4  H   UNL d   1      27.386 -16.750  -0.634  0.00  0.00     0.169 HD
ENDROOT
BRANCH   1   5
ATOM      5  C   UNL d   1      25.073 -17.695   0.216  0.00  0.00     0.173 C 
ATOM      6  C   UNL d   1      26.195 -18.523   0.830  0.00  0.00     0.042 C 
BRANCH   5   7
ATOM      7  N   UNL d   1      23.795 -18.438   0.095  0.00  0.00    -0.344 N 
ATOM      8  C   UNL d   1      22.546 -17.886  -0.065  0.00  0.00     0.252 C 
ATOM      9  O   UNL d   1      22.305 -16.685  -0.216  0.00  0.00    -0.268 OA
ATOM     10  H   UNL d   1      23.871 -19.440   0.253  0.00  0.00     0.163 HD
BRANCH   8  11
ATOM     11  C   UNL d   1      21.382 -18.790  -0.060  0.00  0.00     0.032 A 
ATOM     12  C   UNL d   1      20.682 -18.978  -1.261  0.00  0.00     0.017 A 
ATOM     13  C   UNL d   1      19.491 -19.700  -1.271  0.00  0.00     0.001 A 
ATOM     14  C   UNL d   1      19.024 -20.273  -0.090  0.00  0.00     0.000 A 
ATOM     15  C   UNL d   1      19.715 -20.079   1.110  0.00  0.00     0.001 A 
ATOM     16  C   UNL d   1      20.890 -19.325   1.132  0.00  0.00     0.017 A 
ENDBRANCH   8  11
ENDBRANCH   5   7
ENDBRANCH   1   5
BRANCH   3  17
ATOM     17  C   UNL d   1      27.167 -16.011  -2.580  0.00  0.00     0.064 C 
ATOM     18  C   UNL d   1      28.542 -16.307  -2.840  0.00  0.00     0.032 C 
ATOM     19  C   UNL d   1      29.213 -15.686  -3.879  0.00  0.00     0.003 C 
ATOM     20  C   UNL d   1      28.540 -14.718  -4.595  0.00  0.00     0.013 C 
ATOM     21  C   UNL d   1      27.216 -14.363  -4.288  0.00  0.00    -0.008 C 
ATOM     22  C   UNL d   1      26.723 -13.188  -4.849  0.00  0.00    -0.002 C 
ATOM     23  C   UNL d   1      26.386 -15.082  -3.421  0.00  0.00     0.092 C 
ATOM     24  C   UNL d   1      25.524 -12.658  -4.423  0.00  0.00     0.062 C 
ATOM     25  C   UNL d   1      24.628 -13.655  -4.269  0.00  0.00     0.100 C 
ATOM     26  N   UNL d   1      25.011 -14.744  -3.547  0.00  0.00    -0.261 NA
ENDBRANCH   3  17
TORSDOF 4
ENDMDL
MODEL 3
REMARK VINA RESULT:    -8.380      3.202      8.486
REMARK INTER + INTRA:         -10.892
REMARK INTER:                  -9.574
REMARK INTRA:                  -1.319
REMARK CONF_INDEPENDENT:        1.193
REMARK UNBOUND:                -1.319
REMARK  4 active torsions:
REMARK  status: ('A' for Active; 'I' for Inactive)
REMARK    1  A    between atoms: C_2  and  C_12 
REMARK    2  A    between atoms: C_2  and  N_3 
REMARK       I    between atoms: N_3  and  C_4 
REMARK    3  A    between atoms: C_4  and  C_6 
REMARK       I    between atoms: C_12  and  N_14 
REMARK    4  A    between atoms: N_14  and  C_15 
ROOT
ATOM      1  C   UNL d   1      25.375 -14.841  -3.325  0.00  0.00     0.244 C 
ATOM      2  O   UNL d   1      24.380 -14.406  -2.737  0.00  0.00    -0.271 OA
ATOM      3  N   UNL d   1      26.201 -15.807  -2.792  0.00  0.00    -0.323 N 
ATOM      4  H   UNL d   1      27.123 -15.936  -3.201  0.00  0.00     0.169 HD
ENDROOT
BRANCH   1   5
ATOM      5  C   UNL d   1      25.763 -14.262  -4.722  0.00  0.00     0.173 C 
ATOM      6  C   UNL d   1      27.214 -14.564  -5.079  0.00  0.00     0.042 C 
BRANCH   5   7
ATOM      7  N   UNL d   1      25.455 -12.811  -4.701  0.00  0.00    -0.344 N 
ATOM      8  C   UNL d   1      26.147 -11.824  -5.363  0.00  0.00     0.252 C 
ATOM      9  O   UNL d   1      27.085 -12.004  -6.144  0.00  0.00    -0.268 OA
ATOM     10  H   UNL d   1      24.724 -12.543  -4.047  0.00  0.00     0.163 HD
BRANCH   8  11
ATOM     11  C   UNL d   1      25.749 -10.423  -5.133  0.00  0.00     0.032 A 
ATOM     12  C   UNL d   1      25.835  -9.916  -3.828  0.00  0.00     0.017 A 
ATOM     13  C   UNL d   1      25.330  -8.651  -3.535  0.00  0.00     0.001 A 
ATOM     14  C   UNL d   1      24.780  -7.877  -4.555  0.00  0.00     0.000 A 
ATOM     15  C   UNL d   1      24.685  -8.386  -5.853  0.00  0.00     0.001 A 
ATOM     16  C   UNL d   1      25.157  -9.667  -6.145  0.00  0.00     0.017 A 
ENDBRANCH   8  11
ENDBRANCH   5   7
ENDBRANCH   1   5
BRANCH   3  17
ATOM     17  C   UNL d   1      25.954 -16.496  -1.558  0.00  0.00     0.064 C 
ATOM     18  C   UNL d   1      27.156 -16.940  -0.922  0.00  0.00     0.032 C 
ATOM     19  C   UNL d   1      27.103 -17.762   0.190  0.00  0.00     0.003 C 
ATOM     20  C   UNL d   1      25.865 -18.204   0.609  0.00  0.00     0.013 C 
ATOM     21  C   UNL d   1      24.688 -17.839  -0.066  0.00  0.00    -0.008 C 
ATOM     22  C   UNL d   1      23.533 -18.559   0.230  0.00  0.00    -0.002 C 
ATOM     23  C   UNL d   1      24.614 -16.842  -1.043  0.00  0.00     0.092 C 
ATOM     24  C   UNL d   1      22.401 -18.416  -0.542  0.00  0.00     0.062 C 
ATOM     25  C   UNL d   1      22.220 -17.109  -0.825  0.00  0.00     0.100 C 
ATOM     26  N   UNL d   1      23.285 -16.414  -1.313  0.00  0.00    -0.261 NA
ENDBRANCH   3  17
TORSDOF 4
ENDMDL
MODEL 4
REMARK VINA RESULT:    -8.359      2.350      8.416
REMARK INTER + INTRA:         -11.420
REMARK INTER:                  -9.552
REMARK INTRA:                  -1.868
REMARK CONF_INDEPENDENT:        1.193
REMARK UNBOUND:                -1.868
REMARK  4 active torsions:
REMARK  status: ('A' for Active; 'I' for Inactive)
REMARK    1  A    between atoms: C_2  and  C_12 
REMARK    2  A    between atoms: C_2  and  N_3 
REMARK       I    between atoms: N_3  and  C_4 
REMARK    3  A    between atoms: C_4  and  C_6 
REMARK       I    between atoms: C_12  and  N_14 
REMARK    4  A    between atoms: N_14  and  C_15 
ROOT
ATOM      1  C   UNL d   1      26.110 -14.093  -2.447  0.00  0.00     0.244 C 
ATOM      2  O   UNL d   1      26.285 -13.562  -1.345  0.00  0.00    -0.271 OA
ATOM      3  N   UNL d   1      25.896 -15.445  -2.605  0.00  0.00    -0.323 N 
ATOM      4  H   UNL d   1      26.011 -15.850  -3.531  0.00  0.00     0.169 HD
ENDROOT
BRANCH   1   5
ATOM      5  C   UNL d   1      26.168 -13.223  -3.742  0.00  0.00     0.173 C 
ATOM      6  C   UNL d   1      24.870 -13.302  -4.537  0.00  0.00     0.042 C 
BRANCH   5   7
ATOM      7  N   UNL d   1      27.356 -13.657  -4.516  0.00  0.00    -0.344 N 
ATOM      8  C   UNL d   1      27.451 -14.788  -5.293  0.00  0.00     0.252 C 
ATOM      9  O   UNL d   1      26.531 -15.576  -5.531  0.00  0.00    -0.268 OA
ATOM     10  H   UNL d   1      28.193 -13.102  -4.354  0.00  0.00     0.163 HD
BRANCH   8  11
ATOM     11  C   UNL d   1      28.756 -15.104  -5.902  0.00  0.00     0.032 A 
ATOM     12  C   UNL d   1      29.451 -16.229  -5.433  0.00  0.00     0.017 A 
ATOM     13  C   UNL d   1      30.750 -16.479  -5.871  0.00  0.00     0.001 A 
ATOM     14  C   UNL d   1      31.335 -15.633  -6.810  0.00  0.00     0.000 A 
ATOM     15  C   UNL d   1      30.647 -14.506  -7.270  0.00  0.00     0.001 A 
ATOM     16  C   UNL d   1      29.359 -14.230  -6.808  0.00  0.00     0.017 A 
ENDBRANCH   8  11
ENDBRANCH   5   7
ENDBRANCH   1   5
BRANCH   3  17
ATOM     17  C   UNL d   1      25.743 -16.375  -1.523  0.00  0.00     0.064 C 
ATOM     18  C   UNL d   1      26.994 -16.818  -0.992  0.00  0.00     0.032 C 
ATOM     19  C   UNL d   1      27.043 -17.838  -0.057  0.00  0.00     0.003 C 
ATOM     20  C   UNL d   1      25.860 -18.464   0.278  0.00  0.00     0.013 C 
ATOM     21  C   UNL d   1      24.639 -18.088  -0.306  0.00  0.00    -0.008 C 
ATOM     22  C   UNL d   1      23.560 -18.955  -0.145  0.00  0.00    -0.002 C 
ATOM     23  C   UNL d   1      24.452 -16.935  -1.075  0.00  0.00     0.092 C 
ATOM     24  C   UNL d   1      22.401 -18.774  -0.867  0.00  0.00     0.062 C 
ATOM     25  C   UNL d   1      22.098 -17.459  -0.895  0.00  0.00     0.100 C 
ATOM     26  N   UNL d   1      23.083 -16.589  -1.248  0.00  0.00    -0.261 NA
ENDBRANCH   3  17
TORSDOF 4
ENDMDL
MODEL 5
REMARK VINA RESULT:    -7.747      2.849      5.701
REMARK INTER + INTRA:         -10.007
REMARK INTER:                  -8.940
REMARK INTRA:                  -1.067
REMARK CONF_INDEPENDENT:        1.193
REMARK UNBOUND:                -1.067
REMARK  4 active torsions:
REMARK  status: ('A' for Active; 'I' for Inactive)
REMARK    1  A    between atoms: C_2  and  C_12 
REMARK    2  A    between atoms: C_2  and  N_3 
REMARK       I    between atoms: N_3  and  C_4 
REMARK    3  A    between atoms: C_4  and  C_6 
REMARK       I    between atoms: C_12  and  N_14 
REMARK    4  A    between atoms: N_14  and  C_15 
ROOT
ATOM      1  C   UNL d   1      27.833 -15.084  -5.337  0.00  0.00     0.244 C 
ATOM      2  O   UNL d   1      27.502 -15.200  -6.522  0.00  0.00    -0.271 OA
ATOM      3  N   UNL d   1      29.019 -15.576  -4.836  0.00  0.00    -0.323 N 
ATOM      4  H   UNL d   1      29.117 -15.672  -3.828  0.00  0.00     0.169 HD
ENDROOT
BRANCH   1   5
ATOM      5  C   UNL d   1      26.868 -14.385  -4.330  0.00  0.00     0.173 C 
ATOM      6  C   UNL d   1      27.493 -13.137  -3.717  0.00  0.00     0.042 C 
BRANCH   5   7
ATOM      7  N   UNL d   1      26.470 -15.396  -3.322  0.00  0.00    -0.344 N 
ATOM      8  C   UNL d   1      25.281 -15.431  -2.631  0.00  0.00     0.252 C 
ATOM      9  O   UNL d   1      24.326 -14.669  -2.805  0.00  0.00    -0.268 OA
ATOM     10  H   UNL d   1      27.205 -16.050  -3.064  0.00  0.00     0.163 HD
BRANCH   8  11
ATOM     11  C   UNL d   1      25.114 -16.461  -1.589  0.00  0.00     0.032 A 
ATOM     12  C   UNL d   1      26.215 -16.763  -0.773  0.00  0.00     0.017 A 
ATOM     13  C   UNL d   1      26.150 -17.830   0.121  0.00  0.00     0.001 A 
ATOM     14  C   UNL d   1      24.971 -18.564   0.232  0.00  0.00     0.000 A 
ATOM     15  C   UNL d   1      23.877 -18.269  -0.587  0.00  0.00     0.001 A 
ATOM     16  C   UNL d   1      23.949 -17.225  -1.511  0.00  0.00     0.017 A 
ENDBRANCH   8  11
ENDBRANCH   5   7
ENDBRANCH   1   5
BRANCH   3  17
ATOM     17  C   UNL d   1      30.049 -16.179  -5.632  0.00  0.00     0.064 C 
ATOM     18  C   UNL d   1      30.635 -15.267  -6.564  0.00  0.00     0.032 C 
ATOM     19  C   UNL d   1      31.526 -15.713  -7.524  0.00  0.00     0.003 C 
ATOM     20  C   UNL d   1      31.765 -17.070  -7.602  0.00  0.00     0.013 C 
ATOM     21  C   UNL d   1      31.126 -17.980  -6.743  0.00  0.00    -0.008 C 
ATOM     22  C   UNL d   1      31.187 -19.329  -7.081  0.00  0.00    -0.002 C 
ATOM     23  C   UNL d   1      30.397 -17.615  -5.607  0.00  0.00     0.092 C 
ATOM     24  C   UNL d   1      30.405 -20.253  -6.422  0.00  0.00     0.062 C 
ATOM     25  C   UNL d   1      30.415 -19.979  -5.101  0.00  0.00     0.100 C 
ATOM     26  N   UNL d   1      30.158 -18.699  -4.718  0.00  0.00    -0.261 NA
ENDBRANCH   3  17
TORSDOF 4
ENDMDL
MODEL 6
REMARK VINA RESULT:    -7.626      5.438      6.901
REMARK INTER + INTRA:         -10.204
REMARK INTER:                  -8.819
REMARK INTRA:                  -1.385
REMARK CONF_INDEPENDENT:        1.193
REMARK UNBOUND:                -1.385
REMARK  4 active torsions:
REMARK  status: ('A' for Active; 'I' for Inactive)
REMARK    1  A    between atoms: C_2  and  C_12 
REMARK    2  A    between atoms: C_2  and  N_3 
REMARK       I    between atoms: N_3  and  C_4 
REMARK    3  A    between atoms: C_4  and  C_6 
REMARK       I    between atoms: C_12  and  N_14 
REMARK    4  A    between atoms: N_14  and  C_15 
ROOT
ATOM      1  C   UNL d   1      27.712 -14.698   1.728  0.00  0.00     0.244 C 
ATOM      2  O   UNL d   1      26.950 -13.762   1.464  0.00  0.00    -0.271 OA
ATOM      3  N   UNL d   1      28.545 -14.702   2.826  0.00  0.00    -0.323 N 
ATOM      4  H   UNL d   1      29.314 -15.369   2.849  0.00  0.00     0.169 HD
ENDROOT
BRANCH   1   5
ATOM      5  C   UNL d   1      27.784 -15.929   0.772  0.00  0.00     0.173 C 
ATOM      6  C   UNL d   1      28.651 -15.649  -0.449  0.00  0.00     0.042 C 
BRANCH   5   7
ATOM      7  N   UNL d   1      26.392 -16.306   0.428  0.00  0.00    -0.344 N 
ATOM      8  C   UNL d   1      25.964 -17.545   0.013  0.00  0.00     0.252 C 
ATOM      9  O   UNL d   1      26.663 -18.560  -0.059  0.00  0.00    -0.268 OA
ATOM     10  H   UNL d   1      25.736 -15.529   0.407  0.00  0.00     0.163 HD
BRANCH   8  11
ATOM     11  C   UNL d   1      24.553 -17.695  -0.385  0.00  0.00     0.032 A 
ATOM     12  C   UNL d   1      23.814 -16.534  -0.659  0.00  0.00     0.017 A 
ATOM     13  C   UNL d   1      22.443 -16.617  -0.890  0.00  0.00     0.001 A 
ATOM     14  C   UNL d   1      21.820 -17.863  -0.894  0.00  0.00     0.000 A 
ATOM     15  C   UNL d   1      22.553 -19.019  -0.612  0.00  0.00     0.001 A 
ATOM     16  C   UNL d   1      23.920 -18.939  -0.343  0.00  0.00     0.017 A 
ENDBRANCH   8  11
ENDBRANCH   5   7
ENDBRANCH   1   5
BRANCH   3  17
ATOM     17  C   UNL d   1      28.556 -13.690   3.842  0.00  0.00     0.064 C 
ATOM     18  C   UNL d   1      28.660 -14.230   5.162  0.00  0.00     0.032 C 
ATOM     19  C   UNL d   1      28.520 -13.416   6.272  0.00  0.00     0.003 C 
ATOM     20  C   UNL d   1      28.196 -12.091   6.064  0.00  0.00     0.013 C 
ATOM     21  C   UNL d   1      28.009 -11.574   4.771  0.00  0.00    -0.008 C 
ATOM     22  C   UNL d   1      27.397 -10.328   4.663  0.00  0.00    -0.002 C 
ATOM     23  C   UNL d   1      28.349 -12.248   3.594  0.00  0.00     0.092 C 
ATOM     24  C   UNL d   1      26.978  -9.857   3.438  0.00  0.00     0.062 C 
ATOM     25  C   UNL d   1      27.921 -10.128   2.512  0.00  0.00     0.100 C 
ATOM     26  N   UNL d   1      28.402 -11.400   2.453  0.00  0.00    -0.261 NA
ENDBRANCH   3  17
TORSDOF 4
ENDMDL
MODEL 7
REMARK VINA RESULT:    -7.473      2.425      8.359
REMARK INTER + INTRA:         -10.399
REMARK INTER:                  -8.666
REMARK INTRA:                  -1.733
REMARK CONF_INDEPENDENT:        1.193
REMARK UNBOUND:                -1.733
REMARK  4 active torsions:
REMARK  status: ('A' for Active; 'I' for Inactive)
REMARK    1  A    between atoms: C_2  and  C_12 
REMARK    2  A    between atoms: C_2  and  N_3 
REMARK       I    between atoms: N_3  and  C_4 
REMARK    3  A    between atoms: C_4  and  C_6 
REMARK       I    between atoms: C_12  and  N_14 
REMARK    4  A    between atoms: N_14  and  C_15 
ROOT
ATOM      1  C   UNL d   1      26.605 -15.404  -3.338  0.00  0.00     0.244 C 
ATOM      2  O   UNL d   1      25.403 -15.628  -3.520  0.00  0.00    -0.271 OA
ATOM      3  N   UNL d   1      27.280 -15.801  -2.204  0.00  0.00    -0.323 N 
ATOM      4  H   UNL d   1      28.182 -15.375  -2.003  0.00  0.00     0.169 HD
ENDROOT
BRANCH   1   5
ATOM      5  C   UNL d   1      27.412 -14.604  -4.407  0.00  0.00     0.173 C 
ATOM      6  C   UNL d   1      26.496 -13.822  -5.341  0.00  0.00     0.042 C 
BRANCH   5   7
ATOM      7  N   UNL d   1      28.287 -15.569  -5.116  0.00  0.00    -0.344 N 
ATOM      8  C   UNL d   1      29.295 -16.316  -4.555  0.00  0.00     0.252 C 
ATOM      9  O   UNL d   1      29.575 -16.359  -3.353  0.00  0.00    -0.268 OA
ATOM     10  H   UNL d   1      28.174 -15.579  -6.127  0.00  0.00     0.163 HD
BRANCH   8  11
ATOM     11  C   UNL d   1      30.126 -17.143  -5.449  0.00  0.00     0.032 A 
ATOM     12  C   UNL d   1      30.501 -16.607  -6.690  0.00  0.00     0.017 A 
ATOM     13  C   UNL d   1      31.155 -17.405  -7.626  0.00  0.00     0.001 A 
ATOM     14  C   UNL d   1      31.475 -18.722  -7.305  0.00  0.00     0.000 A 
ATOM     15  C   UNL d   1      31.093 -19.260  -6.073  0.00  0.00     0.001 A 
ATOM     16  C   UNL d   1      30.405 -18.477  -5.145  0.00  0.00     0.017 A 
ENDBRANCH   8  11
ENDBRANCH   5   7
ENDBRANCH   1   5
BRANCH   3  17
ATOM     17  C   UNL d   1      26.713 -16.603  -1.159  0.00  0.00     0.064 C 
ATOM     18  C   UNL d   1      27.678 -17.444  -0.520  0.00  0.00     0.032 C 
ATOM     19  C   UNL d   1      27.282 -18.402   0.396  0.00  0.00     0.003 C 
ATOM     20  C   UNL d   1      25.930 -18.575   0.607  0.00  0.00     0.013 C 
ATOM     21  C   UNL d   1      24.975 -17.809  -0.082  0.00  0.00    -0.008 C 
ATOM     22  C   UNL d   1      23.653 -18.247  -0.039  0.00  0.00    -0.002 C 
ATOM     23  C   UNL d   1      25.271 -16.675  -0.844  0.00  0.00     0.092 C 
ATOM     24  C   UNL d   1      22.702 -17.687  -0.864  0.00  0.00     0.062 C 
ATOM     25  C   UNL d   1      22.876 -16.350  -0.896  0.00  0.00     0.100 C 
ATOM     26  N   UNL d   1      24.130 -15.880  -1.139  0.00  0.00    -0.261 NA
ENDBRANCH   3  17
TORSDOF 4
ENDMDL
MODEL 8
REMARK VINA RESULT:    -7.255      3.064      5.333
REMARK INTER + INTRA:         -10.404
REMARK INTER:                  -8.448
REMARK INTRA:                  -1.956
REMARK CONF_INDEPENDENT:        1.193
REMARK UNBOUND:                -1.956
REMARK  4 active torsions:
REMARK  status: ('A' for Active; 'I' for Inactive)
REMARK    1  A    between atoms: C_2  and  C_12 
REMARK    2  A    between atoms: C_2  and  N_3 
REMARK       I    between atoms: N_3  and  C_4 
REMARK    3  A    between atoms: C_4  and  C_6 
REMARK       I    between atoms: C_12  and  N_14 
REMARK    4  A    between atoms: N_14  and  C_15 
ROOT
ATOM      1  C   UNL d   1      26.942 -14.840  -5.193  0.00  0.00     0.244 C 
ATOM      2  O   UNL d   1      26.655 -15.575  -6.144  0.00  0.00    -0.271 OA
ATOM      3  N   UNL d   1      28.237 -14.612  -4.783  0.00  0.00    -0.323 N 
ATOM      4  H   UNL d   1      28.391 -14.212  -3.860  0.00  0.00     0.169 HD
ENDROOT
BRANCH   1   5
ATOM      5  C   UNL d   1      25.802 -14.155  -4.375  0.00  0.00     0.173 C 
ATOM      6  C   UNL d   1      26.203 -12.763  -3.901  0.00  0.00     0.042 C 
BRANCH   5   7
ATOM      7  N   UNL d   1      25.440 -15.070  -3.267  0.00  0.00    -0.344 N 
ATOM      8  C   UNL d   1      26.298 -15.582  -2.322  0.00  0.00     0.252 C 
ATOM      9  O   UNL d   1      27.492 -15.292  -2.203  0.00  0.00    -0.268 OA
ATOM     10  H   UNL d   1      24.483 -15.413  -3.296  0.00  0.00     0.163 HD
BRANCH   8  11
ATOM     11  C   UNL d   1      25.765 -16.563  -1.359  0.00  0.00     0.032 A 
ATOM     12  C   UNL d   1      24.373 -16.711  -1.265  0.00  0.00     0.017 A 
ATOM     13  C   UNL d   1      23.822 -17.512  -0.267  0.00  0.00     0.001 A 
ATOM     14  C   UNL d   1      24.662 -18.201   0.605  0.00  0.00     0.000 A 
ATOM     15  C   UNL d   1      26.049 -18.047   0.518  0.00  0.00     0.001 A 
ATOM     16  C   UNL d   1      26.606 -17.217  -0.457  0.00  0.00     0.017 A 
ENDBRANCH   8  11
ENDBRANCH   5   7
ENDBRANCH   1   5
BRANCH   3  17
ATOM     17  C   UNL d   1      29.403 -15.102  -5.462  0.00  0.00     0.064 C 
ATOM     18  C   UNL d   1      29.870 -14.208  -6.475  0.00  0.00     0.032 C 
ATOM     19  C   UNL d   1      30.881 -14.588  -7.340  0.00  0.00     0.003 C 
ATOM     20  C   UNL d   1      31.360 -15.879  -7.246  0.00  0.00     0.013 C 
ATOM     21  C   UNL d   1      30.844 -16.788  -6.307  0.00  0.00    -0.008 C 
ATOM     22  C   UNL d   1      31.163 -18.133  -6.478  0.00  0.00    -0.002 C 
ATOM     23  C   UNL d   1      29.997 -16.437  -5.251  0.00  0.00     0.092 C 
ATOM     24  C   UNL d   1      30.520 -19.104  -5.741  0.00  0.00     0.062 C 
ATOM     25  C   UNL d   1      30.405 -18.687  -4.463  0.00  0.00     0.100 C 
ATOM     26  N   UNL d   1      29.903 -17.440  -4.247  0.00  0.00    -0.261 NA
ENDBRANCH   3  17
TORSDOF 4
ENDMDL
MODEL 9
REMARK VINA RESULT:    -7.195      4.810      6.445
REMARK INTER + INTRA:         -10.178
REMARK INTER:                  -8.389
REMARK INTRA:                  -1.789
REMARK CONF_INDEPENDENT:        1.193
REMARK UNBOUND:                -1.789
REMARK  4 active torsions:
REMARK  status: ('A' for Active; 'I' for Inactive)
REMARK    1  A    between atoms: C_2  and  C_12 
REMARK    2  A    between atoms: C_2  and  N_3 
REMARK       I    between atoms: N_3  and  C_4 
REMARK    3  A    between atoms: C_4  and  C_6 
REMARK       I    between atoms: C_12  and  N_14 
REMARK    4  A    between atoms: N_14  and  C_15 
ROOT
ATOM      1  C   UNL d   1      28.341 -15.118   0.325  0.00  0.00     0.244 C 
ATOM      2  O   UNL d   1      29.169 -14.237   0.068  0.00  0.00    -0.271 OA
ATOM      3  N   UNL d   1      27.528 -15.084   1.436  0.00  0.00    -0.323 N 
ATOM      4  H   UNL d   1      27.061 -15.942   1.721  0.00  0.00     0.169 HD
ENDROOT
BRANCH   1   5
ATOM      5  C   UNL d   1      28.215 -16.357  -0.615  0.00  0.00     0.173 C 
ATOM      6  C   UNL d   1      28.942 -16.142  -1.938  0.00  0.00     0.042 C 
BRANCH   5   7
ATOM      7  N   UNL d   1      26.770 -16.643  -0.781  0.00  0.00    -0.344 N 
ATOM      8  C   UNL d   1      25.995 -17.419   0.049  0.00  0.00     0.252 C 
ATOM      9  O   UNL d   1      26.368 -17.932   1.109  0.00  0.00    -0.268 OA
ATOM     10  H   UNL d   1      26.368 -16.307  -1.652  0.00  0.00     0.163 HD
BRANCH   8  11
ATOM     11  C   UNL d   1      24.597 -17.673  -0.343  0.00  0.00     0.032 A 
ATOM     12  C   UNL d   1      23.789 -16.572  -0.666  0.00  0.00     0.017 A 
ATOM     13  C   UNL d   1      22.426 -16.749  -0.895  0.00  0.00     0.001 A 
ATOM     14  C   UNL d   1      21.881 -18.030  -0.845  0.00  0.00     0.000 A 
ATOM     15  C   UNL d   1      22.683 -19.126  -0.513  0.00  0.00     0.001 A 
ATOM     16  C   UNL d   1      24.042 -18.950  -0.248  0.00  0.00     0.017 A 
ENDBRANCH   8  11
ENDBRANCH   5   7
ENDBRANCH   1   5
BRANCH   3  17
ATOM     17  C   UNL d   1      27.462 -13.990   2.363  0.00  0.00     0.064 C 
ATOM     18  C   UNL d   1      27.148 -12.747   1.730  0.00  0.00     0.032 C 
ATOM     19  C   UNL d   1      27.204 -11.560   2.440  0.00  0.00     0.003 C 
ATOM     20  C   UNL d   1      27.651 -11.608   3.744  0.00  0.00     0.013 C 
ATOM     21  C   UNL d   1      28.042 -12.817   4.343  0.00  0.00    -0.008 C 
ATOM     22  C   UNL d   1      28.755 -12.738   5.537  0.00  0.00    -0.002 C 
ATOM     23  C   UNL d   1      27.808 -14.083   3.796  0.00  0.00     0.092 C 
ATOM     24  C   UNL d   1      29.364 -13.855   6.066  0.00  0.00     0.062 C 
ATOM     25  C   UNL d   1      28.530 -14.910   5.950  0.00  0.00     0.100 C 
ATOM     26  N   UNL d   1      27.966 -15.141   4.733  0.00  0.00    -0.261 NA
ENDBRANCH   3  17
TORSDOF 4
ENDMDL
