MODEL 1
REMARK VINA RESULT:   -10.460      0.000      0.000
REMARK INTER + INTRA:         -15.711
REMARK INTER:                 -14.040
REMARK INTRA:                  -1.671
REMARK CONF_INDEPENDENT:        3.580
REMARK UNBOUND:                -1.671
REMARK  12 active torsions:
REMARK  status: ('A' for Active; 'I' for Inactive)
REMARK    1  A    between atoms: C_2  and  O_3 
REMARK    2  A    between atoms: O_3  and  C_4 
REMARK    3  A    between atoms: C_4  and  C_5 
REMARK    4  A    between atoms: C_5  and  O_6 
REMARK    5  A    between atoms: O_6  and  C_7 
REMARK    6  A    between atoms: C_10  and  C_11 
REMARK       I    between atoms: C_11  and  N_13 
REMARK    7  A    between atoms: N_13  and  C_14 
REMARK    8  A    between atoms: C_14  and  N_16 
REMARK    9  A    between atoms: N_16  and  N_17 
REMARK       I    between atoms: N_17  and  C_18 
REMARK   10  A    between atoms: C_18  and  C_20 
REMARK   11  A    between atoms: C_23  and  N_24 
REMARK       I    between atoms: N_24  and  C_25 
REMARK   12  A    between atoms: C_25  and  C_27 
ROOT
ATOM      1  N   UNL d   1      27.601 -15.915  -1.082  0.00  0.00    -0.264 N 
ATOM      2  C   UNL d   1      26.374 -15.556  -1.621  0.00  0.00     0.270 C 
ATOM      3  O   UNL d   1      26.203 -14.556  -2.321  0.00  0.00    -0.266 OA
ATOM      4  H   UNL d   1      27.725 -16.784  -0.559  0.00  0.00     0.190 HD
ENDROOT
BRANCH   1   5
ATOM      5  N   UNL d   1      28.817 -15.153  -1.286  0.00  0.00    -0.273 N 
ATOM      6  H   UNL d   1      28.770 -14.469  -2.038  0.00  0.00     0.189 HD
BRANCH   5   7
ATOM      7  C   UNL d   1      29.917 -15.405  -0.440  0.00  0.00     0.193 C 
ATOM      8  S   UNL d   1      31.398 -15.857  -1.116  0.00  0.00    -0.039 SA
BRANCH   7   9
ATOM      9  N   UNL d   1      29.671 -15.239   0.946  0.00  0.00    -0.298 N 
ATOM     10  C   UNL d   1      29.008 -14.143   1.563  0.00  0.00     0.257 C 
ATOM     11  O   UNL d   1      28.549 -13.187   0.940  0.00  0.00    -0.267 OA
ATOM     12  H   UNL d   1      30.025 -15.964   1.550  0.00  0.00     0.171 HD
BRANCH  10  13
ATOM     13  C   UNL d   1      28.848 -14.049   3.060  0.00  0.00     0.032 A 
ATOM     14  C   UNL d   1      29.929 -14.470   3.876  0.00  0.00     0.020 A 
ATOM     15  C   UNL d   1      29.816 -14.552   5.274  0.00  0.00     0.038 A 
ATOM     16  C   UNL d   1      28.636 -14.152   5.894  0.00  0.00     0.068 A 
ATOM     17  C   UNL d   1      27.599 -13.653   5.103  0.00  0.00     0.038 A 
ATOM     18  C   UNL d   1      27.693 -13.612   3.700  0.00  0.00     0.020 A 
BRANCH  16  19
ATOM     19  O   UNL d   1      28.600 -14.190   7.264  0.00  0.00    -0.349 OA
BRANCH  19  20
ATOM     20  C   UNL d   1      28.611 -12.905   7.902  0.00  0.00     0.201 C 
BRANCH  20  21
ATOM     21  C   UNL d   1      29.224 -13.026   9.293  0.00  0.00     0.194 C 
BRANCH  21  22
ATOM     22  O   UNL d   1      28.468 -13.956  10.077  0.00  0.00    -0.389 OA
BRANCH  22  23
ATOM     23  C   UNL d   1      27.766 -13.282  11.121  0.00  0.00     0.163 C 
ATOM     24  C   UNL d   1      28.650 -12.200  11.709  0.00  0.00     0.033 C 
ENDBRANCH  22  23
ENDBRANCH  21  22
ENDBRANCH  20  21
ENDBRANCH  19  20
ENDBRANCH  16  19
ENDBRANCH  10  13
ENDBRANCH   7   9
ENDBRANCH   5   7
ENDBRANCH   1   5
BRANCH   2  25
ATOM     25  C   UNL d   1      25.213 -16.449  -1.264  0.00  0.00     0.033 A 
ATOM     26  C   UNL d   1      23.870 -16.030  -1.293  0.00  0.00     0.019 A 
ATOM     27  C   UNL d   1      22.829 -16.889  -0.845  0.00  0.00     0.030 A 
ATOM     28  C   UNL d   1      23.118 -18.193  -0.407  0.00  0.00     0.035 A 
ATOM     29  C   UNL d   1      24.456 -18.578  -0.375  0.00  0.00     0.030 A 
ATOM     30  C   UNL d   1      25.487 -17.729  -0.786  0.00  0.00     0.019 A 
BRANCH  28  31
ATOM     31  N   UNL d   1      22.075 -19.089  -0.034  0.00  0.00    -0.323 N 
ATOM     32  C   UNL d   1      20.732 -18.970  -0.394  0.00  0.00     0.256 C 
ATOM     33  O   UNL d   1      20.254 -18.166  -1.196  0.00  0.00    -0.267 OA
ATOM     34  H   UNL d   1      22.327 -19.838   0.598  0.00  0.00     0.169 HD
BRANCH  32  35
ATOM     35  C   UNL d   1      19.746 -19.870   0.267  0.00  0.00     0.038 A 
ATOM     36  C   UNL d   1      18.743 -20.450  -0.537  0.00  0.00     0.017 A 
ATOM     37  C   UNL d   1      17.692 -21.167   0.043  0.00  0.00     0.001 A 
ATOM     38  C   UNL d   1      17.658 -21.348   1.422  0.00  0.00     0.001 A 
ATOM     39  C   UNL d   1      18.634 -20.758   2.226  0.00  0.00     0.007 A 
ATOM     40  C   UNL d   1      19.676 -20.002   1.665  0.00  0.00    -0.046 A 
ATOM     41  C   UNL d   1      20.649 -19.319   2.580  0.00  0.00     0.049 C 
ENDBRANCH  32  35
ENDBRANCH  28  31
ENDBRANCH   2  25
TORSDOF 12
ENDMDL
MODEL 2
REMARK VINA RESULT:   -10.287      2.005     11.002
REMARK INTER + INTRA:         -15.934
REMARK INTER:                 -13.867
REMARK INTRA:                  -2.068
REMARK CONF_INDEPENDENT:        3.580
REMARK UNBOUND:                -2.068
REMARK  12 active torsions:
REMARK  status: ('A' for Active; 'I' for Inactive)
REMARK    1  A    between atoms: C_2  and  O_3 
REMARK    2  A    between atoms: O_3  and  C_4 
REMARK    3  A    between atoms: C_4  and  C_5 
REMARK    4  A    between atoms: C_5  and  O_6 
REMARK    5  A    between atoms: O_6  and  C_7 
REMARK    6  A    between atoms: C_10  and  C_11 
REMARK       I    between atoms: C_11  and  N_13 
REMARK    7  A    between atoms: N_13  and  C_14 
REMARK    8  A    between atoms: C_14  and  N_16 
REMARK    9  A    between atoms: N_16  and  N_17 
REMARK       I    between atoms: N_17  and  C_18 
REMARK   10  A    between atoms: C_18  and  C_20 
REMARK   11  A    between atoms: C_23  and  N_24 
REMARK       I    between atoms: N_24  and  C_25 
REMARK   12  A    between atoms: C_25  and  C_27 
ROOT
ATOM      1  N   UNL d   1      28.729 -15.026   0.944  0.00  0.00    -0.264 N 
ATOM      2  C   UNL d   1      28.535 -13.885   1.710  0.00  0.00     0.270 C 
ATOM      3  O   UNL d   1      28.348 -12.765   1.229  0.00  0.00    -0.266 OA
ATOM      4  H   UNL d   1      28.818 -15.951   1.370  0.00  0.00     0.190 HD
ENDROOT
BRANCH   1   5
ATOM      5  N   UNL d   1      28.731 -15.025  -0.505  0.00  0.00    -0.273 N 
ATOM      6  H   UNL d   1      28.964 -14.131  -0.931  0.00  0.00     0.189 HD
BRANCH   5   7
ATOM      7  C   UNL d   1      28.437 -16.230  -1.178  0.00  0.00     0.193 C 
ATOM      8  S   UNL d   1      29.699 -17.141  -1.837  0.00  0.00    -0.039 SA
BRANCH   7   9
ATOM      9  N   UNL d   1      27.064 -16.580  -1.232  0.00  0.00    -0.298 N 
ATOM     10  C   UNL d   1      26.274 -17.074  -0.159  0.00  0.00     0.257 C 
ATOM     11  O   UNL d   1      26.706 -17.251   0.980  0.00  0.00    -0.267 OA
ATOM     12  H   UNL d   1      26.617 -16.488  -2.130  0.00  0.00     0.171 HD
BRANCH  10  13
ATOM     13  C   UNL d   1      24.829 -17.464  -0.347  0.00  0.00     0.032 A 
ATOM     14  C   UNL d   1      23.881 -16.432  -0.564  0.00  0.00     0.020 A 
ATOM     15  C   UNL d   1      22.500 -16.689  -0.605  0.00  0.00     0.038 A 
ATOM     16  C   UNL d   1      22.039 -17.997  -0.495  0.00  0.00     0.068 A 
ATOM     17  C   UNL d   1      22.973 -19.028  -0.369  0.00  0.00     0.038 A 
ATOM     18  C   UNL d   1      24.353 -18.770  -0.281  0.00  0.00     0.020 A 
BRANCH  16  19
ATOM     19  O   UNL d   1      20.689 -18.202  -0.607  0.00  0.00    -0.349 OA
BRANCH  19  20
ATOM     20  C   UNL d   1      20.312 -19.530  -0.997  0.00  0.00     0.201 C 
BRANCH  20  21
ATOM     21  C   UNL d   1      20.268 -20.435   0.231  0.00  0.00     0.194 C 
BRANCH  21  22
ATOM     22  O   UNL d   1      19.867 -19.677   1.376  0.00  0.00    -0.389 OA
BRANCH  22  23
ATOM     23  C   UNL d   1      18.501 -19.937   1.701  0.00  0.00     0.163 C 
ATOM     24  C   UNL d   1      18.102 -21.295   1.158  0.00  0.00     0.033 C 
ENDBRANCH  22  23
ENDBRANCH  21  22
ENDBRANCH  20  21
ENDBRANCH  19  20
ENDBRANCH  16  19
ENDBRANCH  10  13
ENDBRANCH   7   9
ENDBRANCH   5   7
ENDBRANCH   1   5
BRANCH   2  25
ATOM     25  C   UNL d   1      28.609 -14.076   3.203  0.00  0.00     0.033 A 
ATOM     26  C   UNL d   1      27.485 -14.058   4.048  0.00  0.00     0.019 A 
ATOM     27  C   UNL d   1      27.632 -14.140   5.460  0.00  0.00     0.030 A 
ATOM     28  C   UNL d   1      28.906 -14.289   6.038  0.00  0.00     0.035 A 
ATOM     29  C   UNL d   1      30.003 -14.291   5.180  0.00  0.00     0.030 A 
ATOM     30  C   UNL d   1      29.867 -14.180   3.794  0.00  0.00     0.019 A 
BRANCH  28  31
ATOM     31  N   UNL d   1      29.058 -14.455   7.444  0.00  0.00    -0.323 N 
ATOM     32  C   UNL d   1      30.013 -13.819   8.240  0.00  0.00     0.256 C 
ATOM     33  O   UNL d   1      30.778 -12.918   7.892  0.00  0.00    -0.267 OA
ATOM     34  H   UNL d   1      28.461 -15.141   7.886  0.00  0.00     0.169 HD
BRANCH  32  35
ATOM     35  C   UNL d   1      30.171 -14.277   9.648  0.00  0.00     0.038 A 
ATOM     36  C   UNL d   1      31.238 -15.151   9.940  0.00  0.00     0.017 A 
ATOM     37  C   UNL d   1      31.345 -15.748  11.199  0.00  0.00     0.001 A 
ATOM     38  C   UNL d   1      30.415 -15.446  12.189  0.00  0.00     0.001 A 
ATOM     39  C   UNL d   1      29.342 -14.600  11.901  0.00  0.00     0.007 A 
ATOM     40  C   UNL d   1      29.197 -14.020  10.630  0.00  0.00    -0.046 A 
ATOM     41  C   UNL d   1      27.981 -13.188  10.348  0.00  0.00     0.049 C 
ENDBRANCH  32  35
ENDBRANCH  28  31
ENDBRANCH   2  25
TORSDOF 12
ENDMDL
MODEL 3
REMARK VINA RESULT:    -9.885      1.711     10.831
REMARK INTER + INTRA:         -15.650
REMARK INTER:                 -13.465
REMARK INTRA:                  -2.185
REMARK CONF_INDEPENDENT:        3.580
REMARK UNBOUND:                -2.185
REMARK  12 active torsions:
REMARK  status: ('A' for Active; 'I' for Inactive)
REMARK    1  A    between atoms: C_2  and  O_3 
REMARK    2  A    between atoms: O_3  and  C_4 
REMARK    3  A    between atoms: C_4  and  C_5 
REMARK    4  A    between atoms: C_5  and  O_6 
REMARK    5  A    between atoms: O_6  and  C_7 
REMARK    6  A    between atoms: C_10  and  C_11 
REMARK       I    between atoms: C_11  and  N_13 
REMARK    7  A    between atoms: N_13  and  C_14 
REMARK    8  A    between atoms: C_14  and  N_16 
REMARK    9  A    between atoms: N_16  and  N_17 
REMARK       I    between atoms: N_17  and  C_18 
REMARK   10  A    between atoms: C_18  and  C_20 
REMARK   11  A    between atoms: C_23  and  N_24 
REMARK       I    between atoms: N_24  and  C_25 
REMARK   12  A    between atoms: C_25  and  C_27 
ROOT
ATOM      1  N   UNL d   1      29.137 -14.705   0.648  0.00  0.00    -0.264 N 
ATOM      2  C   UNL d   1      28.939 -13.530   1.359  0.00  0.00     0.270 C 
ATOM      3  O   UNL d   1      28.772 -12.431   0.827  0.00  0.00    -0.266 OA
ATOM      4  H   UNL d   1      29.209 -15.611   1.115  0.00  0.00     0.190 HD
ENDROOT
BRANCH   1   5
ATOM      5  N   UNL d   1      29.164 -14.767  -0.800  0.00  0.00    -0.273 N 
ATOM      6  H   UNL d   1      29.377 -13.886  -1.261  0.00  0.00     0.189 HD
BRANCH   5   7
ATOM      7  C   UNL d   1      28.921 -16.010  -1.424  0.00  0.00     0.193 C 
ATOM      8  S   UNL d   1      30.216 -16.880  -2.071  0.00  0.00    -0.039 SA
BRANCH   7   9
ATOM      9  N   UNL d   1      27.567 -16.429  -1.441  0.00  0.00    -0.298 N 
ATOM     10  C   UNL d   1      26.752 -16.706  -0.309  0.00  0.00     0.257 C 
ATOM     11  O   UNL d   1      27.142 -16.599   0.853  0.00  0.00    -0.267 OA
ATOM     12  H   UNL d   1      27.155 -16.564  -2.350  0.00  0.00     0.171 HD
BRANCH  10  13
ATOM     13  C   UNL d   1      25.334 -17.198  -0.450  0.00  0.00     0.032 A 
ATOM     14  C   UNL d   1      24.346 -16.277  -0.885  0.00  0.00     0.020 A 
ATOM     15  C   UNL d   1      22.981 -16.608  -0.907  0.00  0.00     0.038 A 
ATOM     16  C   UNL d   1      22.577 -17.891  -0.554  0.00  0.00     0.068 A 
ATOM     17  C   UNL d   1      23.553 -18.830  -0.209  0.00  0.00     0.038 A 
ATOM     18  C   UNL d   1      24.916 -18.489  -0.143  0.00  0.00     0.020 A 
BRANCH  16  19
ATOM     19  O   UNL d   1      21.242 -18.183  -0.655  0.00  0.00    -0.349 OA
BRANCH  19  20
ATOM     20  C   UNL d   1      20.909 -19.563  -0.447  0.00  0.00     0.201 C 
BRANCH  20  21
ATOM     21  C   UNL d   1      19.426 -19.691  -0.115  0.00  0.00     0.194 C 
BRANCH  21  22
ATOM     22  O   UNL d   1      19.210 -19.386   1.266  0.00  0.00    -0.389 OA
BRANCH  22  23
ATOM     23  C   UNL d   1      18.391 -20.380   1.882  0.00  0.00     0.163 C 
ATOM     24  C   UNL d   1      18.296 -21.590   0.973  0.00  0.00     0.033 C 
ENDBRANCH  22  23
ENDBRANCH  21  22
ENDBRANCH  20  21
ENDBRANCH  19  20
ENDBRANCH  16  19
ENDBRANCH  10  13
ENDBRANCH   7   9
ENDBRANCH   5   7
ENDBRANCH   1   5
BRANCH   2  25
ATOM     25  C   UNL d   1      28.985 -13.656   2.861  0.00  0.00     0.033 A 
ATOM     26  C   UNL d   1      30.071 -13.228   3.645  0.00  0.00     0.019 A 
ATOM     27  C   UNL d   1      30.097 -13.469   5.047  0.00  0.00     0.030 A 
ATOM     28  C   UNL d   1      29.013 -14.098   5.684  0.00  0.00     0.035 A 
ATOM     29  C   UNL d   1      27.956 -14.523   4.882  0.00  0.00     0.030 A 
ATOM     30  C   UNL d   1      27.938 -14.317   3.500  0.00  0.00     0.019 A 
BRANCH  28  31
ATOM     31  N   UNL d   1      28.992 -14.271   7.097  0.00  0.00    -0.323 N 
ATOM     32  C   UNL d   1      28.648 -13.293   8.032  0.00  0.00     0.256 C 
ATOM     33  O   UNL d   1      28.176 -12.180   7.792  0.00  0.00    -0.267 OA
ATOM     34  H   UNL d   1      29.317 -15.162   7.449  0.00  0.00     0.169 HD
BRANCH  32  35
ATOM     35  C   UNL d   1      28.895 -13.580   9.473  0.00  0.00     0.038 A 
ATOM     36  C   UNL d   1      27.993 -13.045  10.415  0.00  0.00     0.017 A 
ATOM     37  C   UNL d   1      28.258 -13.135  11.784  0.00  0.00     0.001 A 
ATOM     38  C   UNL d   1      29.400 -13.797  12.225  0.00  0.00     0.001 A 
ATOM     39  C   UNL d   1      30.309 -14.310  11.299  0.00  0.00     0.007 A 
ATOM     40  C   UNL d   1      30.079 -14.195   9.917  0.00  0.00    -0.046 A 
ATOM     41  C   UNL d   1      31.129 -14.687   8.966  0.00  0.00     0.049 C 
ENDBRANCH  32  35
ENDBRANCH  28  31
ENDBRANCH   2  25
TORSDOF 12
ENDMDL
MODEL 4
REMARK VINA RESULT:    -9.782      2.134     10.859
REMARK INTER + INTRA:         -15.756
REMARK INTER:                 -13.361
REMARK INTRA:                  -2.394
REMARK CONF_INDEPENDENT:        3.580
REMARK UNBOUND:                -2.394
REMARK  12 active torsions:
REMARK  status: ('A' for Active; 'I' for Inactive)
REMARK    1  A    between atoms: C_2  and  O_3 
REMARK    2  A    between atoms: O_3  and  C_4 
REMARK    3  A    between atoms: C_4  and  C_5 
REMARK    4  A    between atoms: C_5  and  O_6 
REMARK    5  A    between atoms: O_6  and  C_7 
REMARK    6  A    between atoms: C_10  and  C_11 
REMARK       I    between atoms: C_11  and  N_13 
REMARK    7  A    between atoms: N_13  and  C_14 
REMARK    8  A    between atoms: C_14  and  N_16 
REMARK    9  A    between atoms: N_16  and  N_17 
REMARK       I    between atoms: N_17  and  C_18 
REMARK   10  A    between atoms: C_18  and  C_20 
REMARK   11  A    between atoms: C_23  and  N_24 
REMARK       I    between atoms: N_24  and  C_25 
REMARK   12  A    between atoms: C_25  and  C_27 
ROOT
ATOM      1  N   UNL d   1      27.577 -13.302   0.617  0.00  0.00    -0.264 N 
ATOM      2  C   UNL d   1      27.259 -12.516   1.715  0.00  0.00     0.270 C 
ATOM      3  O   UNL d   1      26.684 -11.429   1.632  0.00  0.00    -0.266 OA
ATOM      4  H   UNL d   1      27.996 -14.228   0.722  0.00  0.00     0.190 HD
ENDROOT
BRANCH   1   5
ATOM      5  N   UNL d   1      27.263 -12.931  -0.748  0.00  0.00    -0.273 N 
ATOM      6  H   UNL d   1      27.185 -11.930  -0.911  0.00  0.00     0.189 HD
BRANCH   5   7
ATOM      7  C   UNL d   1      27.118 -13.957  -1.707  0.00  0.00     0.193 C 
ATOM      8  S   UNL d   1      28.232 -14.074  -2.972  0.00  0.00    -0.039 SA
BRANCH   7   9
ATOM      9  N   UNL d   1      26.018 -14.828  -1.505  0.00  0.00    -0.298 N 
ATOM     10  C   UNL d   1      25.895 -15.815  -0.490  0.00  0.00     0.257 C 
ATOM     11  O   UNL d   1      26.756 -16.024   0.364  0.00  0.00    -0.267 OA
ATOM     12  H   UNL d   1      25.262 -14.749  -2.166  0.00  0.00     0.171 HD
BRANCH  10  13
ATOM     13  C   UNL d   1      24.695 -16.725  -0.404  0.00  0.00     0.032 A 
ATOM     14  C   UNL d   1      24.914 -18.094  -0.106  0.00  0.00     0.020 A 
ATOM     15  C   UNL d   1      23.874 -19.038  -0.147  0.00  0.00     0.038 A 
ATOM     16  C   UNL d   1      22.576 -18.622  -0.426  0.00  0.00     0.068 A 
ATOM     17  C   UNL d   1      22.339 -17.261  -0.634  0.00  0.00     0.038 A 
ATOM     18  C   UNL d   1      23.385 -16.320  -0.637  0.00  0.00     0.020 A 
BRANCH  16  19
ATOM     19  O   UNL d   1      21.588 -19.570  -0.390  0.00  0.00    -0.349 OA
BRANCH  19  20
ATOM     20  C   UNL d   1      20.488 -19.328  -1.280  0.00  0.00     0.201 C 
BRANCH  20  21
ATOM     21  C   UNL d   1      19.176 -19.665  -0.580  0.00  0.00     0.194 C 
BRANCH  21  22
ATOM     22  O   UNL d   1      19.262 -19.317   0.806  0.00  0.00    -0.389 OA
BRANCH  22  23
ATOM     23  C   UNL d   1      19.146 -20.479   1.627  0.00  0.00     0.163 C 
ATOM     24  C   UNL d   1      18.251 -21.494   0.943  0.00  0.00     0.033 C 
ENDBRANCH  22  23
ENDBRANCH  21  22
ENDBRANCH  20  21
ENDBRANCH  19  20
ENDBRANCH  16  19
ENDBRANCH  10  13
ENDBRANCH   7   9
ENDBRANCH   5   7
ENDBRANCH   1   5
BRANCH   2  25
ATOM     25  C   UNL d   1      27.703 -13.047   3.054  0.00  0.00     0.033 A 
ATOM     26  C   UNL d   1      27.813 -14.418   3.351  0.00  0.00     0.019 A 
ATOM     27  C   UNL d   1      28.138 -14.855   4.664  0.00  0.00     0.030 A 
ATOM     28  C   UNL d   1      28.403 -13.923   5.683  0.00  0.00     0.035 A 
ATOM     29  C   UNL d   1      28.275 -12.573   5.366  0.00  0.00     0.030 A 
ATOM     30  C   UNL d   1      27.927 -12.137   4.085  0.00  0.00     0.019 A 
BRANCH  28  31
ATOM     31  N   UNL d   1      28.809 -14.349   6.980  0.00  0.00    -0.323 N 
ATOM     32  C   UNL d   1      28.794 -13.566   8.136  0.00  0.00     0.256 C 
ATOM     33  O   UNL d   1      28.304 -12.442   8.256  0.00  0.00    -0.267 OA
ATOM     34  H   UNL d   1      29.200 -15.279   7.049  0.00  0.00     0.169 HD
BRANCH  32  35
ATOM     35  C   UNL d   1      29.461 -14.102   9.355  0.00  0.00     0.038 A 
ATOM     36  C   UNL d   1      30.659 -14.825   9.186  0.00  0.00     0.017 A 
ATOM     37  C   UNL d   1      31.245 -15.495  10.264  0.00  0.00     0.001 A 
ATOM     38  C   UNL d   1      30.665 -15.412  11.527  0.00  0.00     0.001 A 
ATOM     39  C   UNL d   1      29.466 -14.718  11.698  0.00  0.00     0.007 A 
ATOM     40  C   UNL d   1      28.842 -14.071  10.618  0.00  0.00    -0.046 A 
ATOM     41  C   UNL d   1      27.514 -13.411  10.839  0.00  0.00     0.049 C 
ENDBRANCH  32  35
ENDBRANCH  28  31
ENDBRANCH   2  25
TORSDOF 12
ENDMDL
MODEL 5
REMARK VINA RESULT:    -9.495      2.408     10.909
REMARK INTER + INTRA:         -15.252
REMARK INTER:                 -13.074
REMARK INTRA:                  -2.178
REMARK CONF_INDEPENDENT:        3.580
REMARK UNBOUND:                -2.178
REMARK  12 active torsions:
REMARK  status: ('A' for Active; 'I' for Inactive)
REMARK    1  A    between atoms: C_2  and  O_3 
REMARK    2  A    between atoms: O_3  and  C_4 
REMARK    3  A    between atoms: C_4  and  C_5 
REMARK    4  A    between atoms: C_5  and  O_6 
REMARK    5  A    between atoms: O_6  and  C_7 
REMARK    6  A    between atoms: C_10  and  C_11 
REMARK       I    between atoms: C_11  and  N_13 
REMARK    7  A    between atoms: N_13  and  C_14 
REMARK    8  A    between atoms: C_14  and  N_16 
REMARK    9  A    between atoms: N_16  and  N_17 
REMARK       I    between atoms: N_17  and  C_18 
REMARK   10  A    between atoms: C_18  and  C_20 
REMARK   11  A    between atoms: C_23  and  N_24 
REMARK       I    between atoms: N_24  and  C_25 
REMARK   12  A    between atoms: C_25  and  C_27 
ROOT
ATOM      1  N   UNL d   1      28.403 -12.135   1.224  0.00  0.00    -0.264 N 
ATOM      2  C   UNL d   1      27.413 -12.684   2.027  0.00  0.00     0.270 C 
ATOM      3  O   UNL d   1      26.228 -12.755   1.696  0.00  0.00    -0.266 OA
ATOM      4  H   UNL d   1      29.387 -12.148   1.498  0.00  0.00     0.190 HD
ENDROOT
BRANCH   1   5
ATOM      5  N   UNL d   1      28.150 -11.590  -0.095  0.00  0.00    -0.273 N 
ATOM      6  H   UNL d   1      28.149 -10.574  -0.143  0.00  0.00     0.189 HD
BRANCH   5   7
ATOM      7  C   UNL d   1      27.954 -12.487  -1.166  0.00  0.00     0.193 C 
ATOM      8  S   UNL d   1      28.630 -12.137  -2.675  0.00  0.00    -0.039 SA
BRANCH   7   9
ATOM      9  N   UNL d   1      27.190 -13.642  -0.863  0.00  0.00    -0.298 N 
ATOM     10  C   UNL d   1      27.098 -14.826  -1.645  0.00  0.00     0.257 C 
ATOM     11  O   UNL d   1      27.701 -14.989  -2.705  0.00  0.00    -0.267 OA
ATOM     12  H   UNL d   1      26.642 -13.603  -0.019  0.00  0.00     0.171 HD
BRANCH  10  13
ATOM     13  C   UNL d   1      26.208 -15.976  -1.247  0.00  0.00     0.032 A 
ATOM     14  C   UNL d   1      25.035 -16.209  -2.010  0.00  0.00     0.020 A 
ATOM     15  C   UNL d   1      24.078 -17.165  -1.626  0.00  0.00     0.038 A 
ATOM     16  C   UNL d   1      24.305 -17.955  -0.504  0.00  0.00     0.068 A 
ATOM     17  C   UNL d   1      25.499 -17.791   0.201  0.00  0.00     0.038 A 
ATOM     18  C   UNL d   1      26.438 -16.805  -0.153  0.00  0.00     0.020 A 
BRANCH  16  19
ATOM     19  O   UNL d   1      23.372 -18.916  -0.210  0.00  0.00    -0.349 OA
BRANCH  19  20
ATOM     20  C   UNL d   1      22.081 -18.702  -0.799  0.00  0.00     0.201 C 
BRANCH  20  21
ATOM     21  C   UNL d   1      21.057 -19.622  -0.144  0.00  0.00     0.194 C 
BRANCH  21  22
ATOM     22  O   UNL d   1      20.080 -20.025  -1.108  0.00  0.00    -0.389 OA
BRANCH  22  23
ATOM     23  C   UNL d   1      18.780 -20.075  -0.520  0.00  0.00     0.163 C 
ATOM     24  C   UNL d   1      18.881 -20.646   0.881  0.00  0.00     0.033 C 
ENDBRANCH  22  23
ENDBRANCH  21  22
ENDBRANCH  20  21
ENDBRANCH  19  20
ENDBRANCH  16  19
ENDBRANCH  10  13
ENDBRANCH   7   9
ENDBRANCH   5   7
ENDBRANCH   1   5
BRANCH   2  25
ATOM     25  C   UNL d   1      27.860 -13.162   3.385  0.00  0.00     0.033 A 
ATOM     26  C   UNL d   1      28.345 -14.459   3.633  0.00  0.00     0.019 A 
ATOM     27  C   UNL d   1      28.653 -14.881   4.956  0.00  0.00     0.030 A 
ATOM     28  C   UNL d   1      28.522 -13.993   6.038  0.00  0.00     0.035 A 
ATOM     29  C   UNL d   1      28.027 -12.720   5.767  0.00  0.00     0.030 A 
ATOM     30  C   UNL d   1      27.695 -12.308   4.473  0.00  0.00     0.019 A 
BRANCH  28  31
ATOM     31  N   UNL d   1      28.905 -14.379   7.354  0.00  0.00    -0.323 N 
ATOM     32  C   UNL d   1      29.617 -13.590   8.260  0.00  0.00     0.256 C 
ATOM     33  O   UNL d   1      29.906 -12.400   8.129  0.00  0.00    -0.267 OA
ATOM     34  H   UNL d   1      28.694 -15.330   7.626  0.00  0.00     0.169 HD
BRANCH  32  35
ATOM     35  C   UNL d   1      30.122 -14.233   9.505  0.00  0.00     0.038 A 
ATOM     36  C   UNL d   1      31.406 -14.815   9.471  0.00  0.00     0.017 A 
ATOM     37  C   UNL d   1      31.871 -15.576  10.547  0.00  0.00     0.001 A 
ATOM     38  C   UNL d   1      31.079 -15.726  11.681  0.00  0.00     0.001 A 
ATOM     39  C   UNL d   1      29.798 -15.172  11.714  0.00  0.00     0.007 A 
ATOM     40  C   UNL d   1      29.298 -14.436  10.626  0.00  0.00    -0.046 A 
ATOM     41  C   UNL d   1      27.885 -13.936  10.679  0.00  0.00     0.049 C 
ENDBRANCH  32  35
ENDBRANCH  28  31
ENDBRANCH   2  25
TORSDOF 12
ENDMDL
MODEL 6
REMARK VINA RESULT:    -9.394      1.765     10.731
REMARK INTER + INTRA:         -15.200
REMARK INTER:                 -12.974
REMARK INTRA:                  -2.226
REMARK CONF_INDEPENDENT:        3.580
REMARK UNBOUND:                -2.226
REMARK  12 active torsions:
REMARK  status: ('A' for Active; 'I' for Inactive)
REMARK    1  A    between atoms: C_2  and  O_3 
REMARK    2  A    between atoms: O_3  and  C_4 
REMARK    3  A    between atoms: C_4  and  C_5 
REMARK    4  A    between atoms: C_5  and  O_6 
REMARK    5  A    between atoms: O_6  and  C_7 
REMARK    6  A    between atoms: C_10  and  C_11 
REMARK       I    between atoms: C_11  and  N_13 
REMARK    7  A    between atoms: N_13  and  C_14 
REMARK    8  A    between atoms: C_14  and  N_16 
REMARK    9  A    between atoms: N_16  and  N_17 
REMARK       I    between atoms: N_17  and  C_18 
REMARK   10  A    between atoms: C_18  and  C_20 
REMARK   11  A    between atoms: C_23  and  N_24 
REMARK       I    between atoms: N_24  and  C_25 
REMARK   12  A    between atoms: C_25  and  C_27 
ROOT
ATOM      1  N   UNL d   1      29.701 -13.984   0.759  0.00  0.00    -0.264 N 
ATOM      2  C   UNL d   1      28.533 -13.856   1.497  0.00  0.00     0.270 C 
ATOM      3  O   UNL d   1      27.430 -13.631   0.993  0.00  0.00    -0.266 OA
ATOM      4  H   UNL d   1      30.590 -14.234   1.199  0.00  0.00     0.190 HD
ENDROOT
BRANCH   1   5
ATOM      5  N   UNL d   1      29.751 -13.871  -0.684  0.00  0.00    -0.273 N 
ATOM      6  H   UNL d   1      30.193 -13.023  -1.031  0.00  0.00     0.189 HD
BRANCH   5   7
ATOM      7  C   UNL d   1      29.217 -14.922  -1.459  0.00  0.00     0.193 C 
ATOM      8  S   UNL d   1      30.050 -15.447  -2.833  0.00  0.00    -0.039 SA
BRANCH   7   9
ATOM      9  N   UNL d   1      27.994 -15.464  -0.991  0.00  0.00    -0.298 N 
ATOM     10  C   UNL d   1      26.917 -15.939  -1.790  0.00  0.00     0.257 C 
ATOM     11  O   UNL d   1      26.932 -15.941  -3.020  0.00  0.00    -0.267 OA
ATOM     12  H   UNL d   1      27.873 -15.491   0.008  0.00  0.00     0.171 HD
BRANCH  10  13
ATOM     13  C   UNL d   1      25.637 -16.449  -1.179  0.00  0.00     0.032 A 
ATOM     14  C   UNL d   1      25.715 -17.534  -0.270  0.00  0.00     0.020 A 
ATOM     15  C   UNL d   1      24.565 -18.165   0.235  0.00  0.00     0.038 A 
ATOM     16  C   UNL d   1      23.307 -17.681  -0.110  0.00  0.00     0.068 A 
ATOM     17  C   UNL d   1      23.224 -16.557  -0.935  0.00  0.00     0.038 A 
ATOM     18  C   UNL d   1      24.372 -15.952  -1.478  0.00  0.00     0.020 A 
BRANCH  16  19
ATOM     19  O   UNL d   1      22.219 -18.290   0.460  0.00  0.00    -0.349 OA
BRANCH  19  20
ATOM     20  C   UNL d   1      21.739 -19.445  -0.243  0.00  0.00     0.201 C 
BRANCH  20  21
ATOM     21  C   UNL d   1      20.666 -19.030  -1.244  0.00  0.00     0.194 C 
BRANCH  21  22
ATOM     22  O   UNL d   1      19.438 -19.703  -0.946  0.00  0.00    -0.389 OA
BRANCH  22  23
ATOM     23  C   UNL d   1      19.577 -20.514   0.220  0.00  0.00     0.163 C 
ATOM     24  C   UNL d   1      18.979 -19.793   1.412  0.00  0.00     0.033 C 
ENDBRANCH  22  23
ENDBRANCH  21  22
ENDBRANCH  20  21
ENDBRANCH  19  20
ENDBRANCH  16  19
ENDBRANCH  10  13
ENDBRANCH   7   9
ENDBRANCH   5   7
ENDBRANCH   1   5
BRANCH   2  25
ATOM     25  C   UNL d   1      28.685 -13.963   2.993  0.00  0.00     0.033 A 
ATOM     26  C   UNL d   1      29.926 -13.931   3.654  0.00  0.00     0.019 A 
ATOM     27  C   UNL d   1      30.009 -14.140   5.058  0.00  0.00     0.030 A 
ATOM     28  C   UNL d   1      28.845 -14.337   5.821  0.00  0.00     0.035 A 
ATOM     29  C   UNL d   1      27.630 -14.377   5.141  0.00  0.00     0.030 A 
ATOM     30  C   UNL d   1      27.544 -14.202   3.757  0.00  0.00     0.019 A 
BRANCH  28  31
ATOM     31  N   UNL d   1      28.910 -14.465   7.238  0.00  0.00    -0.323 N 
ATOM     32  C   UNL d   1      29.604 -13.616   8.102  0.00  0.00     0.256 C 
ATOM     33  O   UNL d   1      30.149 -12.552   7.806  0.00  0.00    -0.267 OA
ATOM     34  H   UNL d   1      28.464 -15.280   7.639  0.00  0.00     0.169 HD
BRANCH  32  35
ATOM     35  C   UNL d   1      29.746 -14.028   9.527  0.00  0.00     0.038 A 
ATOM     36  C   UNL d   1      30.674 -15.044   9.829  0.00  0.00     0.017 A 
ATOM     37  C   UNL d   1      30.738 -15.592  11.113  0.00  0.00     0.001 A 
ATOM     38  C   UNL d   1      29.908 -15.100  12.116  0.00  0.00     0.001 A 
ATOM     39  C   UNL d   1      28.971 -14.109  11.820  0.00  0.00     0.007 A 
ATOM     40  C   UNL d   1      28.865 -13.574  10.525  0.00  0.00    -0.046 A 
ATOM     41  C   UNL d   1      27.785 -12.574  10.241  0.00  0.00     0.049 C 
ENDBRANCH  32  35
ENDBRANCH  28  31
ENDBRANCH   2  25
TORSDOF 12
ENDMDL
MODEL 7
REMARK VINA RESULT:    -9.386      5.743     11.743
REMARK INTER + INTRA:         -14.905
REMARK INTER:                 -12.966
REMARK INTRA:                  -1.939
REMARK CONF_INDEPENDENT:        3.580
REMARK UNBOUND:                -1.939
REMARK  12 active torsions:
REMARK  status: ('A' for Active; 'I' for Inactive)
REMARK    1  A    between atoms: C_2  and  O_3 
REMARK    2  A    between atoms: O_3  and  C_4 
REMARK    3  A    between atoms: C_4  and  C_5 
REMARK    4  A    between atoms: C_5  and  O_6 
REMARK    5  A    between atoms: O_6  and  C_7 
REMARK    6  A    between atoms: C_10  and  C_11 
REMARK       I    between atoms: C_11  and  N_13 
REMARK    7  A    between atoms: N_13  and  C_14 
REMARK    8  A    between atoms: C_14  and  N_16 
REMARK    9  A    between atoms: N_16  and  N_17 
REMARK       I    between atoms: N_17  and  C_18 
REMARK   10  A    between atoms: C_18  and  C_20 
REMARK   11  A    between atoms: C_23  and  N_24 
REMARK       I    between atoms: N_24  and  C_25 
REMARK   12  A    between atoms: C_25  and  C_27 
ROOT
ATOM      1  N   UNL d   1      30.592 -18.151  -0.508  0.00  0.00    -0.264 N 
ATOM      2  C   UNL d   1      31.883 -18.659  -0.491  0.00  0.00     0.270 C 
ATOM      3  O   UNL d   1      32.670 -18.551  -1.435  0.00  0.00    -0.266 OA
ATOM      4  H   UNL d   1      29.985 -18.200   0.313  0.00  0.00     0.190 HD
ENDROOT
BRANCH   1   5
ATOM      5  N   UNL d   1      30.029 -17.437  -1.636  0.00  0.00    -0.273 N 
ATOM      6  H   UNL d   1      30.155 -17.893  -2.536  0.00  0.00     0.189 HD
BRANCH   5   7
ATOM      7  C   UNL d   1      29.358 -16.219  -1.392  0.00  0.00     0.193 C 
ATOM      8  S   UNL d   1      30.251 -14.789  -1.278  0.00  0.00    -0.039 SA
BRANCH   7   9
ATOM      9  N   UNL d   1      27.949 -16.313  -1.271  0.00  0.00    -0.298 N 
ATOM     10  C   UNL d   1      27.225 -17.294  -0.540  0.00  0.00     0.257 C 
ATOM     11  O   UNL d   1      27.761 -18.198   0.101  0.00  0.00    -0.267 OA
ATOM     12  H   UNL d   1      27.413 -15.625  -1.776  0.00  0.00     0.171 HD
BRANCH  10  13
ATOM     13  C   UNL d   1      25.718 -17.326  -0.525  0.00  0.00     0.032 A 
ATOM     14  C   UNL d   1      25.078 -18.534  -0.147  0.00  0.00     0.020 A 
ATOM     15  C   UNL d   1      23.685 -18.697  -0.242  0.00  0.00     0.038 A 
ATOM     16  C   UNL d   1      22.893 -17.632  -0.658  0.00  0.00     0.068 A 
ATOM     17  C   UNL d   1      23.509 -16.412  -0.948  0.00  0.00     0.038 A 
ATOM     18  C   UNL d   1      24.906 -16.258  -0.896  0.00  0.00     0.020 A 
BRANCH  16  19
ATOM     19  O   UNL d   1      21.536 -17.823  -0.672  0.00  0.00    -0.349 OA
BRANCH  19  20
ATOM     20  C   UNL d   1      21.090 -19.026  -0.029  0.00  0.00     0.201 C 
BRANCH  20  21
ATOM     21  C   UNL d   1      19.653 -19.327  -0.440  0.00  0.00     0.194 C 
BRANCH  21  22
ATOM     22  O   UNL d   1      19.443 -20.742  -0.466  0.00  0.00    -0.389 OA
BRANCH  22  23
ATOM     23  C   UNL d   1      18.592 -21.147   0.606  0.00  0.00     0.163 C 
ATOM     24  C   UNL d   1      18.782 -20.211   1.783  0.00  0.00     0.033 C 
ENDBRANCH  22  23
ENDBRANCH  21  22
ENDBRANCH  20  21
ENDBRANCH  19  20
ENDBRANCH  16  19
ENDBRANCH  10  13
ENDBRANCH   7   9
ENDBRANCH   5   7
ENDBRANCH   1   5
BRANCH   2  25
ATOM     25  C   UNL d   1      32.278 -19.410   0.754  0.00  0.00     0.033 A 
ATOM     26  C   UNL d   1      32.162 -20.805   0.892  0.00  0.00     0.019 A 
ATOM     27  C   UNL d   1      32.455 -21.442   2.129  0.00  0.00     0.030 A 
ATOM     28  C   UNL d   1      32.913 -20.693   3.228  0.00  0.00     0.035 A 
ATOM     29  C   UNL d   1      33.006 -19.313   3.069  0.00  0.00     0.030 A 
ATOM     30  C   UNL d   1      32.691 -18.677   1.865  0.00  0.00     0.019 A 
BRANCH  28  31
ATOM     31  N   UNL d   1      33.287 -21.330   4.445  0.00  0.00    -0.323 N 
ATOM     32  C   UNL d   1      34.392 -20.999   5.231  0.00  0.00     0.256 C 
ATOM     33  O   UNL d   1      35.135 -20.028   5.083  0.00  0.00    -0.267 OA
ATOM     34  H   UNL d   1      32.735 -22.130   4.725  0.00  0.00     0.169 HD
BRANCH  32  35
ATOM     35  C   UNL d   1      34.756 -21.912   6.351  0.00  0.00     0.038 A 
ATOM     36  C   UNL d   1      34.532 -23.292   6.174  0.00  0.00     0.017 A 
ATOM     37  C   UNL d   1      34.693 -24.182   7.239  0.00  0.00     0.001 A 
ATOM     38  C   UNL d   1      35.122 -23.710   8.476  0.00  0.00     0.001 A 
ATOM     39  C   UNL d   1      35.324 -22.342   8.666  0.00  0.00     0.007 A 
ATOM     40  C   UNL d   1      35.130 -21.427   7.617  0.00  0.00    -0.046 A 
ATOM     41  C   UNL d   1      35.278 -19.962   7.898  0.00  0.00     0.049 C 
ENDBRANCH  32  35
ENDBRANCH  28  31
ENDBRANCH   2  25
TORSDOF 12
ENDMDL
MODEL 8
REMARK VINA RESULT:    -8.858      1.344      2.030
REMARK INTER + INTRA:         -14.872
REMARK INTER:                 -12.437
REMARK INTRA:                  -2.435
REMARK CONF_INDEPENDENT:        3.580
REMARK UNBOUND:                -2.435
REMARK  12 active torsions:
REMARK  status: ('A' for Active; 'I' for Inactive)
REMARK    1  A    between atoms: C_2  and  O_3 
REMARK    2  A    between atoms: O_3  and  C_4 
REMARK    3  A    between atoms: C_4  and  C_5 
REMARK    4  A    between atoms: C_5  and  O_6 
REMARK    5  A    between atoms: O_6  and  C_7 
REMARK    6  A    between atoms: C_10  and  C_11 
REMARK       I    between atoms: C_11  and  N_13 
REMARK    7  A    between atoms: N_13  and  C_14 
REMARK    8  A    between atoms: C_14  and  N_16 
REMARK    9  A    between atoms: N_16  and  N_17 
REMARK       I    between atoms: N_17  and  C_18 
REMARK   10  A    between atoms: C_18  and  C_20 
REMARK   11  A    between atoms: C_23  and  N_24 
REMARK       I    between atoms: N_24  and  C_25 
REMARK   12  A    between atoms: C_25  and  C_27 
ROOT
ATOM      1  N   UNL d   1      26.967 -14.919  -0.477  0.00  0.00    -0.264 N 
ATOM      2  C   UNL d   1      26.837 -16.032  -1.297  0.00  0.00     0.270 C 
ATOM      3  O   UNL d   1      27.620 -16.300  -2.211  0.00  0.00    -0.266 OA
ATOM      4  H   UNL d   1      26.339 -14.758   0.313  0.00  0.00     0.190 HD
ENDROOT
BRANCH   1   5
ATOM      5  N   UNL d   1      28.040 -13.954  -0.605  0.00  0.00    -0.273 N 
ATOM      6  H   UNL d   1      27.804 -13.122  -1.140  0.00  0.00     0.189 HD
BRANCH   5   7
ATOM      7  C   UNL d   1      29.273 -14.234   0.022  0.00  0.00     0.193 C 
ATOM      8  S   UNL d   1      30.642 -14.514  -0.929  0.00  0.00    -0.039 SA
BRANCH   7   9
ATOM      9  N   UNL d   1      29.249 -14.245   1.439  0.00  0.00    -0.298 N 
ATOM     10  C   UNL d   1      28.150 -13.893   2.269  0.00  0.00     0.257 C 
ATOM     11  O   UNL d   1      27.055 -13.536   1.835  0.00  0.00    -0.267 OA
ATOM     12  H   UNL d   1      30.107 -14.507   1.896  0.00  0.00     0.171 HD
BRANCH  10  13
ATOM     13  C   UNL d   1      28.256 -13.892   3.774  0.00  0.00     0.032 A 
ATOM     14  C   UNL d   1      27.609 -12.853   4.489  0.00  0.00     0.020 A 
ATOM     15  C   UNL d   1      27.773 -12.692   5.876  0.00  0.00     0.038 A 
ATOM     16  C   UNL d   1      28.539 -13.608   6.589  0.00  0.00     0.068 A 
ATOM     17  C   UNL d   1      29.107 -14.685   5.904  0.00  0.00     0.038 A 
ATOM     18  C   UNL d   1      28.982 -14.823   4.510  0.00  0.00     0.020 A 
BRANCH  16  19
ATOM     19  O   UNL d   1      28.615 -13.445   7.948  0.00  0.00    -0.349 OA
BRANCH  19  20
ATOM     20  C   UNL d   1      28.208 -12.153   8.423  0.00  0.00     0.201 C 
BRANCH  20  21
ATOM     21  C   UNL d   1      29.436 -11.279   8.653  0.00  0.00     0.194 C 
BRANCH  21  22
ATOM     22  O   UNL d   1      30.469 -11.641   7.731  0.00  0.00    -0.389 OA
BRANCH  22  23
ATOM     23  C   UNL d   1      30.341 -10.905   6.514  0.00  0.00     0.163 C 
ATOM     24  C   UNL d   1      31.181 -11.561   5.436  0.00  0.00     0.033 C 
ENDBRANCH  22  23
ENDBRANCH  21  22
ENDBRANCH  20  21
ENDBRANCH  19  20
ENDBRANCH  16  19
ENDBRANCH  10  13
ENDBRANCH   7   9
ENDBRANCH   5   7
ENDBRANCH   1   5
BRANCH   2  25
ATOM     25  C   UNL d   1      25.632 -16.900  -1.040  0.00  0.00     0.033 A 
ATOM     26  C   UNL d   1      24.569 -17.046  -1.949  0.00  0.00     0.019 A 
ATOM     27  C   UNL d   1      23.413 -17.799  -1.604  0.00  0.00     0.030 A 
ATOM     28  C   UNL d   1      23.330 -18.452  -0.362  0.00  0.00     0.035 A 
ATOM     29  C   UNL d   1      24.390 -18.281   0.525  0.00  0.00     0.030 A 
ATOM     30  C   UNL d   1      25.516 -17.518   0.204  0.00  0.00     0.019 A 
BRANCH  28  31
ATOM     31  N   UNL d   1      22.214 -19.275  -0.039  0.00  0.00    -0.323 N 
ATOM     32  C   UNL d   1      20.874 -18.955  -0.265  0.00  0.00     0.256 C 
ATOM     33  O   UNL d   1      20.446 -17.989  -0.899  0.00  0.00    -0.267 OA
ATOM     34  H   UNL d   1      22.414 -20.136   0.454  0.00  0.00     0.169 HD
BRANCH  32  35
ATOM     35  C   UNL d   1      19.831 -19.832   0.337  0.00  0.00     0.038 A 
ATOM     36  C   UNL d   1      18.847 -20.366  -0.519  0.00  0.00     0.017 A 
ATOM     37  C   UNL d   1      17.749 -21.057   0.002  0.00  0.00     0.001 A 
ATOM     38  C   UNL d   1      17.648 -21.259   1.375  0.00  0.00     0.001 A 
ATOM     39  C   UNL d   1      18.606 -20.715   2.230  0.00  0.00     0.007 A 
ATOM     40  C   UNL d   1      19.696 -19.984   1.728  0.00  0.00    -0.046 A 
ATOM     41  C   UNL d   1      20.649 -19.349   2.696  0.00  0.00     0.049 C 
ENDBRANCH  32  35
ENDBRANCH  28  31
ENDBRANCH   2  25
TORSDOF 12
ENDMDL
MODEL 9
REMARK VINA RESULT:    -8.538      5.854      8.247
REMARK INTER + INTRA:         -14.253
REMARK INTER:                 -12.118
REMARK INTRA:                  -2.135
REMARK CONF_INDEPENDENT:        3.580
REMARK UNBOUND:                -2.135
REMARK  12 active torsions:
REMARK  status: ('A' for Active; 'I' for Inactive)
REMARK    1  A    between atoms: C_2  and  O_3 
REMARK    2  A    between atoms: O_3  and  C_4 
REMARK    3  A    between atoms: C_4  and  C_5 
REMARK    4  A    between atoms: C_5  and  O_6 
REMARK    5  A    between atoms: O_6  and  C_7 
REMARK    6  A    between atoms: C_10  and  C_11 
REMARK       I    between atoms: C_11  and  N_13 
REMARK    7  A    between atoms: N_13  and  C_14 
REMARK    8  A    between atoms: C_14  and  N_16 
REMARK    9  A    between atoms: N_16  and  N_17 
REMARK       I    between atoms: N_17  and  C_18 
REMARK   10  A    between atoms: C_18  and  C_20 
REMARK   11  A    between atoms: C_23  and  N_24 
REMARK       I    between atoms: N_24  and  C_25 
REMARK   12  A    between atoms: C_25  and  C_27 
ROOT
ATOM      1  N   UNL d   1      25.979 -14.578  -2.852  0.00  0.00    -0.264 N 
ATOM      2  C   UNL d   1      26.270 -15.539  -1.894  0.00  0.00     0.270 C 
ATOM      3  O   UNL d   1      27.395 -15.711  -1.420  0.00  0.00    -0.266 OA
ATOM      4  H   UNL d   1      25.025 -14.416  -3.179  0.00  0.00     0.190 HD
ENDROOT
BRANCH   1   5
ATOM      5  N   UNL d   1      26.968 -13.669  -3.396  0.00  0.00    -0.273 N 
ATOM      6  H   UNL d   1      27.021 -12.767  -2.930  0.00  0.00     0.189 HD
BRANCH   5   7
ATOM      7  C   UNL d   1      27.760 -14.109  -4.478  0.00  0.00     0.193 C 
ATOM      8  S   UNL d   1      27.808 -13.192  -5.898  0.00  0.00    -0.039 SA
BRANCH   7   9
ATOM      9  N   UNL d   1      28.474 -15.314  -4.262  0.00  0.00    -0.298 N 
ATOM     10  C   UNL d   1      29.360 -15.949  -5.175  0.00  0.00     0.257 C 
ATOM     11  O   UNL d   1      29.623 -15.502  -6.290  0.00  0.00    -0.267 OA
ATOM     12  H   UNL d   1      28.314 -15.773  -3.380  0.00  0.00     0.171 HD
BRANCH  10  13
ATOM     13  C   UNL d   1      30.026 -17.263  -4.855  0.00  0.00     0.032 A 
ATOM     14  C   UNL d   1      30.580 -17.434  -3.560  0.00  0.00     0.020 A 
ATOM     15  C   UNL d   1      31.342 -18.566  -3.222  0.00  0.00     0.038 A 
ATOM     16  C   UNL d   1      31.514 -19.584  -4.155  0.00  0.00     0.068 A 
ATOM     17  C   UNL d   1      30.898 -19.462  -5.402  0.00  0.00     0.038 A 
ATOM     18  C   UNL d   1      30.172 -18.311  -5.759  0.00  0.00     0.020 A 
BRANCH  16  19
ATOM     19  O   UNL d   1      32.211 -20.695  -3.754  0.00  0.00    -0.349 OA
BRANCH  19  20
ATOM     20  C   UNL d   1      31.626 -21.945  -4.147  0.00  0.00     0.201 C 
BRANCH  20  21
ATOM     21  C   UNL d   1      30.403 -22.235  -3.283  0.00  0.00     0.194 C 
BRANCH  21  22
ATOM     22  O   UNL d   1      29.651 -23.312  -3.853  0.00  0.00    -0.389 OA
BRANCH  22  23
ATOM     23  C   UNL d   1      29.208 -24.211  -2.837  0.00  0.00     0.163 C 
ATOM     24  C   UNL d   1      29.915 -25.543  -2.997  0.00  0.00     0.033 C 
ENDBRANCH  22  23
ENDBRANCH  21  22
ENDBRANCH  20  21
ENDBRANCH  19  20
ENDBRANCH  16  19
ENDBRANCH  10  13
ENDBRANCH   7   9
ENDBRANCH   5   7
ENDBRANCH   1   5
BRANCH   2  25
ATOM     25  C   UNL d   1      25.120 -16.421  -1.479  0.00  0.00     0.033 A 
ATOM     26  C   UNL d   1      23.801 -15.959  -1.322  0.00  0.00     0.019 A 
ATOM     27  C   UNL d   1      22.781 -16.819  -0.828  0.00  0.00     0.030 A 
ATOM     28  C   UNL d   1      23.063 -18.165  -0.532  0.00  0.00     0.035 A 
ATOM     29  C   UNL d   1      24.379 -18.593  -0.684  0.00  0.00     0.030 A 
ATOM     30  C   UNL d   1      25.392 -17.745  -1.140  0.00  0.00     0.019 A 
BRANCH  28  31
ATOM     31  N   UNL d   1      22.033 -19.055  -0.116  0.00  0.00    -0.323 N 
ATOM     32  C   UNL d   1      20.682 -18.953  -0.453  0.00  0.00     0.256 C 
ATOM     33  O   UNL d   1      20.185 -18.173  -1.267  0.00  0.00    -0.267 OA
ATOM     34  H   UNL d   1      22.301 -19.786   0.531  0.00  0.00     0.169 HD
BRANCH  32  35
ATOM     35  C   UNL d   1      19.713 -19.840   0.250  0.00  0.00     0.038 A 
ATOM     36  C   UNL d   1      18.700 -20.448  -0.519  0.00  0.00     0.017 A 
ATOM     37  C   UNL d   1      17.665 -21.154   0.099  0.00  0.00     0.001 A 
ATOM     38  C   UNL d   1      17.656 -21.297   1.483  0.00  0.00     0.001 A 
ATOM     39  C   UNL d   1      18.642 -20.680   2.253  0.00  0.00     0.007 A 
ATOM     40  C   UNL d   1      19.670 -19.933   1.652  0.00  0.00    -0.046 A 
ATOM     41  C   UNL d   1      20.654 -19.220   2.530  0.00  0.00     0.049 C 
ENDBRANCH  32  35
ENDBRANCH  28  31
ENDBRANCH   2  25
TORSDOF 12
ENDMDL
