MODEL 1
REMARK VINA RESULT:    -7.961      0.000      0.000
REMARK INTER + INTRA:         -11.736
REMARK INTER:                  -9.751
REMARK INTRA:                  -1.985
REMARK CONF_INDEPENDENT:        1.790
REMARK UNBOUND:                -1.985
REMARK  6 active torsions:
REMARK  status: ('A' for Active; 'I' for Inactive)
REMARK    1  A    between atoms: C_9  and  O_10 
REMARK    2  A    between atoms: C_12  and  O_13 
REMARK    3  A    between atoms: C_16  and  C_17 
REMARK    4  A    between atoms: N_18  and  N_19 
REMARK       I    between atoms: N_19  and  C_20 
REMARK       I    between atoms: C_20  and  N_21 
REMARK    5  A    between atoms: C_23  and  O_24 
REMARK    6  A    between atoms: C_27  and  C_28 
ROOT
ATOM      1  C   UNL d   1      25.548 -14.717  -1.086  0.00  0.00     0.019 C 
ATOM      2  C   UNL d   1      26.168 -15.965  -1.902  0.00  0.00    -0.005 C 
ATOM      3  C   UNL d   1      25.531 -15.950  -3.291  0.00  0.00     0.013 C 
ATOM      4  C   UNL d   1      25.702 -14.619  -4.006  0.00  0.00     0.007 C 
ATOM      5  C   UNL d   1      27.172 -14.217  -4.217  0.00  0.00     0.009 C 
ATOM      6  C   UNL d   1      27.997 -14.433  -2.738  0.00  0.00     0.026 C 
ATOM      7  C   UNL d   1      28.073 -13.213  -1.872  0.00  0.00     0.011 C 
ATOM      8  C   UNL d   1      27.316 -11.980  -2.271  0.00  0.00     0.039 C 
ATOM      9  C   UNL d   1      26.806 -11.741  -3.680  0.00  0.00     0.073 C 
ATOM     10  C   UNL d   1      26.968 -10.195  -3.870  0.00  0.00     0.070 C 
ATOM     11  C   UNL d   1      26.530  -9.799  -5.255  0.00  0.00     0.121 C 
ATOM     12  C   UNL d   1      27.049 -10.231  -6.593  0.00  0.00     0.033 C 
ATOM     13  C   UNL d   1      26.860 -12.033  -6.417  0.00  0.00     0.021 C 
ATOM     14  C   UNL d   1      27.404 -12.672  -4.833  0.00  0.00     0.031 C 
ATOM     15  C   UNL d   1      27.664 -15.731  -1.782  0.00  0.00     0.070 C 
ATOM     16  C   UNL d   1      27.535 -16.133  -0.064  0.00  0.00     0.040 C 
ATOM     17  C   UNL d   1      27.190 -17.601  -0.211  0.00  0.00     0.013 C 
ATOM     18  C   UNL d   1      26.056 -17.435  -1.273  0.00  0.00     0.028 C 
ENDROOT
BRANCH  14  19
ATOM     19  C   UNL d   1      28.924 -12.542  -5.029  0.00  0.00     0.124 C 
ATOM     20  N   UNL d   1      29.526 -13.491  -5.662  0.00  0.00    -0.186 NA
BRANCH  20  21
ATOM     21  N   UNL d   1      30.871 -13.513  -5.734  0.00  0.00    -0.230 N 
ATOM     22  C   UNL d   1      31.515 -13.734  -6.929  0.00  0.00     0.334 C 
ATOM     23  N   UNL d   1      30.733 -13.927  -8.020  0.00  0.00    -0.351 N 
ATOM     24  O   UNL d   1      32.739 -13.771  -7.023  0.00  0.00    -0.246 OA
ATOM     25  H   UNL d   1      29.735 -13.875  -7.953  0.00  0.00     0.160 HD
ATOM     26  H   UNL d   1      31.162 -14.077  -8.920  0.00  0.00     0.160 HD
ATOM     27  H   UNL d   1      31.453 -13.444  -4.907  0.00  0.00     0.194 HD
ENDBRANCH  20  21
ENDBRANCH  14  19
BRANCH   9  28
ATOM     28  O   UNL d   1      25.386 -11.959  -3.686  0.00  0.00    -0.389 OA
ATOM     29  H   UNL d   1      25.036 -11.836  -4.578  0.00  0.00     0.210 HD
ENDBRANCH   9  28
BRANCH  11  30
ATOM     30  O   UNL d   1      25.155 -10.146  -5.408  0.00  0.00    -0.395 OA
ATOM     31  H   UNL d   1      24.782 -10.364  -4.546  0.00  0.00     0.210 HD
ENDBRANCH  11  30
BRANCH  15  32
ATOM     32  O   UNL d   1      28.451 -16.776  -2.394  0.00  0.00    -0.389 OA
ATOM     33  H   UNL d   1      29.090 -17.125  -1.750  0.00  0.00     0.210 HD
ENDBRANCH  15  32
BRANCH  18  34
ATOM     34  C   UNL d   1      24.664 -17.627  -0.762  0.00  0.00    -0.045 A 
ATOM     35  C   UNL d   1      23.505 -17.478  -1.406  0.00  0.00     0.087 A 
ATOM     36  C   UNL d   1      22.478 -18.034  -0.563  0.00  0.00     0.283 A 
ATOM     37  O   UNL d   1      21.288 -18.148  -0.915  0.00  0.00    -0.260 OA
ATOM     38  O   UNL d   1      23.009 -18.417   0.615  0.00  0.00    -0.314 OA
ATOM     39  C   UNL d   1      24.424 -18.203   0.572  0.00  0.00     0.213 A 
ENDBRANCH  18  34
TORSDOF 6
ENDMDL
MODEL 2
REMARK VINA RESULT:    -7.643      1.728      2.092
REMARK INTER + INTRA:         -11.529
REMARK INTER:                  -9.433
REMARK INTRA:                  -2.096
REMARK CONF_INDEPENDENT:        1.790
REMARK UNBOUND:                -2.096
REMARK  6 active torsions:
REMARK  status: ('A' for Active; 'I' for Inactive)
REMARK    1  A    between atoms: C_9  and  O_10 
REMARK    2  A    between atoms: C_12  and  O_13 
REMARK    3  A    between atoms: C_16  and  C_17 
REMARK    4  A    between atoms: N_18  and  N_19 
REMARK       I    between atoms: N_19  and  C_20 
REMARK       I    between atoms: C_20  and  N_21 
REMARK    5  A    between atoms: C_23  and  O_24 
REMARK    6  A    between atoms: C_27  and  C_28 
ROOT
ATOM      1  C   UNL d   1      26.321 -13.732  -1.529  0.00  0.00     0.019 C 
ATOM      2  C   UNL d   1      26.393 -14.797  -2.740  0.00  0.00    -0.005 C 
ATOM      3  C   UNL d   1      25.179 -14.538  -3.633  0.00  0.00     0.013 C 
ATOM      4  C   UNL d   1      25.090 -13.095  -4.104  0.00  0.00     0.007 C 
ATOM      5  C   UNL d   1      26.312 -12.635  -4.918  0.00  0.00     0.009 C 
ATOM      6  C   UNL d   1      27.718 -13.105  -4.071  0.00  0.00     0.026 C 
ATOM      7  C   UNL d   1      28.281 -12.064  -3.152  0.00  0.00     0.011 C 
ATOM      8  C   UNL d   1      27.517 -10.793  -2.926  0.00  0.00     0.039 C 
ATOM      9  C   UNL d   1      26.422 -10.307  -3.858  0.00  0.00     0.073 C 
ATOM     10  C   UNL d   1      26.587  -8.750  -3.836  0.00  0.00     0.070 C 
ATOM     11  C   UNL d   1      25.579  -8.114  -4.755  0.00  0.00     0.121 C 
ATOM     12  C   UNL d   1      25.373  -8.282  -6.230  0.00  0.00     0.033 C 
ATOM     13  C   UNL d   1      25.159 -10.089  -6.295  0.00  0.00     0.021 C 
ATOM     14  C   UNL d   1      26.338 -11.000  -5.297  0.00  0.00     0.031 C 
ATOM     15  C   UNL d   1      27.781 -14.563  -3.309  0.00  0.00     0.070 C 
ATOM     16  C   UNL d   1      28.448 -15.276  -1.834  0.00  0.00     0.040 C 
ATOM     17  C   UNL d   1      27.969 -16.698  -2.046  0.00  0.00     0.013 C 
ATOM     18  C   UNL d   1      26.484 -16.359  -2.395  0.00  0.00     0.028 C 
ENDROOT
BRANCH  14  19
ATOM     19  C   UNL d   1      27.591 -10.808  -6.167  0.00  0.00     0.124 C 
ATOM     20  N   UNL d   1      27.606 -11.379  -7.323  0.00  0.00    -0.186 NA
BRANCH  20  21
ATOM     21  N   UNL d   1      28.729 -11.379  -8.068  0.00  0.00    -0.230 N 
ATOM     22  C   UNL d   1      29.399 -12.547  -8.343  0.00  0.00     0.334 C 
ATOM     23  N   UNL d   1      28.878 -13.689  -7.831  0.00  0.00    -0.351 N 
ATOM     24  O   UNL d   1      30.431 -12.575  -9.010  0.00  0.00    -0.246 OA
ATOM     25  H   UNL d   1      28.024 -13.674  -7.306  0.00  0.00     0.160 HD
ATOM     26  H   UNL d   1      29.327 -14.571  -8.020  0.00  0.00     0.160 HD
ATOM     27  H   UNL d   1      29.159 -10.518  -8.387  0.00  0.00     0.194 HD
ENDBRANCH  20  21
ENDBRANCH  14  19
BRANCH   9  28
ATOM     28  O   UNL d   1      25.155 -10.545  -3.224  0.00  0.00    -0.389 OA
ATOM     29  H   UNL d   1      24.450 -10.545  -3.885  0.00  0.00     0.210 HD
ENDBRANCH   9  28
BRANCH  11  30
ATOM     30  O   UNL d   1      24.272  -8.451  -4.292  0.00  0.00    -0.395 OA
ATOM     31  H   UNL d   1      24.291  -8.563  -3.334  0.00  0.00     0.210 HD
ENDBRANCH  11  30
BRANCH  15  32
ATOM     32  O   UNL d   1      28.110 -15.463  -4.389  0.00  0.00    -0.389 OA
ATOM     33  H   UNL d   1      28.708 -15.020  -5.015  0.00  0.00     0.210 HD
ENDBRANCH  15  32
BRANCH  18  34
ATOM     34  C   UNL d   1      25.487 -16.667  -1.323  0.00  0.00    -0.045 A 
ATOM     35  C   UNL d   1      24.162 -16.509  -1.339  0.00  0.00     0.087 A 
ATOM     36  C   UNL d   1      23.640 -17.194  -0.185  0.00  0.00     0.283 A 
ATOM     37  O   UNL d   1      22.422 -17.328   0.042  0.00  0.00    -0.260 OA
ATOM     38  O   UNL d   1      24.655 -17.669   0.564  0.00  0.00    -0.314 OA
ATOM     39  C   UNL d   1      25.889 -17.386  -0.103  0.00  0.00     0.213 A 
ENDBRANCH  18  34
TORSDOF 6
ENDMDL
MODEL 3
REMARK VINA RESULT:    -7.625     10.454     13.169
REMARK INTER + INTRA:         -11.423
REMARK INTER:                  -9.414
REMARK INTRA:                  -2.008
REMARK CONF_INDEPENDENT:        1.790
REMARK UNBOUND:                -2.008
REMARK  6 active torsions:
REMARK  status: ('A' for Active; 'I' for Inactive)
REMARK    1  A    between atoms: C_9  and  O_10 
REMARK    2  A    between atoms: C_12  and  O_13 
REMARK    3  A    between atoms: C_16  and  C_17 
REMARK    4  A    between atoms: N_18  and  N_19 
REMARK       I    between atoms: N_19  and  C_20 
REMARK       I    between atoms: C_20  and  N_21 
REMARK    5  A    between atoms: C_23  and  O_24 
REMARK    6  A    between atoms: C_27  and  C_28 
ROOT
ATOM      1  C   UNL d   1      27.506 -12.334   6.260  0.00  0.00     0.019 C 
ATOM      2  C   UNL d   1      28.809 -12.386   5.306  0.00  0.00    -0.005 C 
ATOM      3  C   UNL d   1      29.712 -11.225   5.723  0.00  0.00     0.013 C 
ATOM      4  C   UNL d   1      30.049 -11.240   7.205  0.00  0.00     0.007 C 
ATOM      5  C   UNL d   1      30.778 -12.518   7.658  0.00  0.00     0.009 C 
ATOM      6  C   UNL d   1      29.934 -13.860   7.024  0.00  0.00     0.026 C 
ATOM      7  C   UNL d   1      28.905 -14.450   7.940  0.00  0.00     0.011 C 
ATOM      8  C   UNL d   1      28.586 -13.756   9.232  0.00  0.00     0.039 C 
ATOM      9  C   UNL d   1      29.503 -12.729   9.869  0.00  0.00     0.073 C 
ATOM     10  C   UNL d   1      29.331 -12.987  11.403  0.00  0.00     0.070 C 
ATOM     11  C   UNL d   1      30.219 -12.054  12.183  0.00  0.00     0.121 C 
ATOM     12  C   UNL d   1      31.709 -11.894  12.163  0.00  0.00     0.033 C 
ATOM     13  C   UNL d   1      31.948 -11.574  10.387  0.00  0.00     0.021 C 
ATOM     14  C   UNL d   1      31.002 -12.657   9.316  0.00  0.00     0.031 C 
ATOM     15  C   UNL d   1      29.309 -13.806   5.503  0.00  0.00     0.070 C 
ATOM     16  C   UNL d   1      27.886 -14.373   4.617  0.00  0.00     0.040 C 
ATOM     17  C   UNL d   1      28.245 -13.817   3.254  0.00  0.00     0.013 C 
ATOM     18  C   UNL d   1      28.608 -12.369   3.717  0.00  0.00     0.028 C 
ENDROOT
BRANCH  14  19
ATOM     19  C   UNL d   1      31.810 -13.951   9.505  0.00  0.00     0.124 C 
ATOM     20  N   UNL d   1      31.506 -14.703  10.507  0.00  0.00    -0.186 NA
BRANCH  20  21
ATOM     21  N   UNL d   1      32.271 -15.768  10.817  0.00  0.00    -0.230 N 
ATOM     22  C   UNL d   1      33.480 -15.612  11.454  0.00  0.00     0.334 C 
ATOM     23  N   UNL d   1      33.859 -14.345  11.750  0.00  0.00    -0.351 N 
ATOM     24  O   UNL d   1      34.203 -16.564  11.738  0.00  0.00    -0.246 OA
ATOM     25  H   UNL d   1      33.262 -13.568  11.541  0.00  0.00     0.160 HD
ATOM     26  H   UNL d   1      34.730 -14.185  12.230  0.00  0.00     0.160 HD
ATOM     27  H   UNL d   1      32.022 -16.707  10.529  0.00  0.00     0.194 HD
ENDBRANCH  20  21
ENDBRANCH  14  19
BRANCH   9  28
ATOM     28  O   UNL d   1      28.935 -11.427   9.655  0.00  0.00    -0.389 OA
ATOM     29  H   UNL d   1      29.280 -10.804  10.308  0.00  0.00     0.210 HD
ENDBRANCH   9  28
BRANCH  11  30
ATOM     30  O   UNL d   1      29.831 -10.713  11.890  0.00  0.00    -0.395 OA
ATOM     31  H   UNL d   1      28.905 -10.700  11.620  0.00  0.00     0.210 HD
ENDBRANCH  11  30
BRANCH  15  32
ATOM     32  O   UNL d   1      30.458 -14.120   4.685  0.00  0.00    -0.389 OA
ATOM     33  H   UNL d   1      31.224 -13.601   4.982  0.00  0.00     0.210 HD
ENDBRANCH  15  32
BRANCH  18  34
ATOM     34  C   UNL d   1      27.602 -11.316   3.377  0.00  0.00    -0.045 A 
ATOM     35  C   UNL d   1      27.489 -10.076   3.859  0.00  0.00     0.087 A 
ATOM     36  C   UNL d   1      26.538  -9.384   3.027  0.00  0.00     0.283 A 
ATOM     37  O   UNL d   1      26.280  -8.171   3.143  0.00  0.00    -0.260 OA
ATOM     38  O   UNL d   1      26.015 -10.236   2.123  0.00  0.00    -0.314 OA
ATOM     39  C   UNL d   1      26.655 -11.508   2.266  0.00  0.00     0.213 A 
ENDBRANCH  18  34
TORSDOF 6
ENDMDL
MODEL 4
REMARK VINA RESULT:    -7.189      1.327      1.504
REMARK INTER + INTRA:         -11.490
REMARK INTER:                  -8.979
REMARK INTRA:                  -2.511
REMARK CONF_INDEPENDENT:        1.790
REMARK UNBOUND:                -2.511
REMARK  6 active torsions:
REMARK  status: ('A' for Active; 'I' for Inactive)
REMARK    1  A    between atoms: C_9  and  O_10 
REMARK    2  A    between atoms: C_12  and  O_13 
REMARK    3  A    between atoms: C_16  and  C_17 
REMARK    4  A    between atoms: N_18  and  N_19 
REMARK       I    between atoms: N_19  and  C_20 
REMARK       I    between atoms: C_20  and  N_21 
REMARK    5  A    between atoms: C_23  and  O_24 
REMARK    6  A    between atoms: C_27  and  C_28 
ROOT
ATOM      1  C   UNL d   1      25.155 -15.143  -0.950  0.00  0.00     0.019 C 
ATOM      2  C   UNL d   1      25.957 -16.339  -1.682  0.00  0.00    -0.005 C 
ATOM      3  C   UNL d   1      25.531 -16.325  -3.150  0.00  0.00     0.013 C 
ATOM      4  C   UNL d   1      25.733 -14.971  -3.812  0.00  0.00     0.007 C 
ATOM      5  C   UNL d   1      27.194 -14.489  -3.796  0.00  0.00     0.009 C 
ATOM      6  C   UNL d   1      27.802 -14.695  -2.214  0.00  0.00     0.026 C 
ATOM      7  C   UNL d   1      27.683 -13.493  -1.329  0.00  0.00     0.011 C 
ATOM      8  C   UNL d   1      26.927 -12.292  -1.817  0.00  0.00     0.039 C 
ATOM      9  C   UNL d   1      26.618 -12.047  -3.283  0.00  0.00     0.073 C 
ATOM     10  C   UNL d   1      26.721 -10.492  -3.424  0.00  0.00     0.070 C 
ATOM     11  C   UNL d   1      26.472 -10.088  -4.852  0.00  0.00     0.121 C 
ATOM     12  C   UNL d   1      27.205 -10.461  -6.104  0.00  0.00     0.033 C 
ATOM     13  C   UNL d   1      27.091 -12.274  -5.986  0.00  0.00     0.021 C 
ATOM     14  C   UNL d   1      27.430 -12.920  -4.348  0.00  0.00     0.031 C 
ATOM     15  C   UNL d   1      27.403 -16.030  -1.338  0.00  0.00     0.070 C 
ATOM     16  C   UNL d   1      27.045 -16.477   0.336  0.00  0.00     0.040 C 
ATOM     17  C   UNL d   1      26.805 -17.957   0.117  0.00  0.00     0.013 C 
ATOM     18  C   UNL d   1      25.834 -17.826  -1.099  0.00  0.00     0.028 C 
ENDROOT
BRANCH  14  19
ATOM     19  C   UNL d   1      28.952 -12.707  -4.314  0.00  0.00     0.124 C 
ATOM     20  N   UNL d   1      29.702 -13.752  -4.402  0.00  0.00    -0.186 NA
BRANCH  20  21
ATOM     21  N   UNL d   1      31.034 -13.651  -4.226  0.00  0.00    -0.230 N 
ATOM     22  C   UNL d   1      31.700 -14.476  -3.351  0.00  0.00     0.334 C 
ATOM     23  N   UNL d   1      30.954 -15.388  -2.679  0.00  0.00    -0.351 N 
ATOM     24  O   UNL d   1      32.911 -14.399  -3.162  0.00  0.00    -0.246 OA
ATOM     25  H   UNL d   1      29.969 -15.470  -2.847  0.00  0.00     0.160 HD
ATOM     26  H   UNL d   1      31.401 -16.024  -2.039  0.00  0.00     0.160 HD
ATOM     27  H   UNL d   1      31.579 -12.921  -4.672  0.00  0.00     0.194 HD
ENDBRANCH  20  21
ENDBRANCH  14  19
BRANCH   9  28
ATOM     28  O   UNL d   1      25.228 -12.339  -3.503  0.00  0.00    -0.389 OA
ATOM     29  H   UNL d   1      24.788 -11.574  -3.896  0.00  0.00     0.210 HD
ENDBRANCH   9  28
BRANCH  11  30
ATOM     30  O   UNL d   1      25.155 -10.501  -5.214  0.00  0.00    -0.395 OA
ATOM     31  H   UNL d   1      25.147 -11.456  -5.353  0.00  0.00     0.210 HD
ENDBRANCH  11  30
BRANCH  15  32
ATOM     32  O   UNL d   1      28.328 -17.019  -1.841  0.00  0.00    -0.389 OA
ATOM     33  H   UNL d   1      28.851 -17.383  -1.107  0.00  0.00     0.210 HD
ENDBRANCH  15  32
BRANCH  18  34
ATOM     34  C   UNL d   1      24.393 -18.102  -0.803  0.00  0.00    -0.045 A 
ATOM     35  C   UNL d   1      23.412 -18.432  -1.645  0.00  0.00     0.087 A 
ATOM     36  C   UNL d   1      22.289 -18.847  -0.843  0.00  0.00     0.283 A 
ATOM     37  O   UNL d   1      21.241 -19.318  -1.322  0.00  0.00    -0.260 OA
ATOM     38  O   UNL d   1      22.568 -18.667   0.463  0.00  0.00    -0.314 OA
ATOM     39  C   UNL d   1      23.915 -18.200   0.586  0.00  0.00     0.213 A 
ENDBRANCH  18  34
TORSDOF 6
ENDMDL
MODEL 5
REMARK VINA RESULT:    -7.140      5.116      8.326
REMARK INTER + INTRA:         -11.291
REMARK INTER:                  -8.930
REMARK INTRA:                  -2.362
REMARK CONF_INDEPENDENT:        1.790
REMARK UNBOUND:                -2.362
REMARK  6 active torsions:
REMARK  status: ('A' for Active; 'I' for Inactive)
REMARK    1  A    between atoms: C_9  and  O_10 
REMARK    2  A    between atoms: C_12  and  O_13 
REMARK    3  A    between atoms: C_16  and  C_17 
REMARK    4  A    between atoms: N_18  and  N_19 
REMARK       I    between atoms: N_19  and  C_20 
REMARK       I    between atoms: C_20  and  N_21 
REMARK    5  A    between atoms: C_23  and  O_24 
REMARK    6  A    between atoms: C_27  and  C_28 
ROOT
ATOM      1  C   UNL d   1      28.830 -13.365  -1.168  0.00  0.00     0.019 C 
ATOM      2  C   UNL d   1      27.418 -12.587  -1.255  0.00  0.00    -0.005 C 
ATOM      3  C   UNL d   1      26.403 -13.420  -0.470  0.00  0.00     0.013 C 
ATOM      4  C   UNL d   1      26.847 -13.705   0.955  0.00  0.00     0.007 C 
ATOM      5  C   UNL d   1      27.082 -12.435   1.793  0.00  0.00     0.009 C 
ATOM      6  C   UNL d   1      28.032 -11.359   0.868  0.00  0.00     0.026 C 
ATOM      7  C   UNL d   1      29.508 -11.457   1.103  0.00  0.00     0.011 C 
ATOM      8  C   UNL d   1      30.043 -12.553   1.977  0.00  0.00     0.039 C 
ATOM      9  C   UNL d   1      29.181 -13.323   2.960  0.00  0.00     0.073 C 
ATOM     10  C   UNL d   1      30.147 -13.588   4.164  0.00  0.00     0.070 C 
ATOM     11  C   UNL d   1      29.417 -14.324   5.255  0.00  0.00     0.121 C 
ATOM     12  C   UNL d   1      28.204 -13.933   6.042  0.00  0.00     0.033 C 
ATOM     13  C   UNL d   1      27.045 -13.632   4.670  0.00  0.00     0.021 C 
ATOM     14  C   UNL d   1      27.751 -12.700   3.310  0.00  0.00     0.031 C 
ATOM     15  C   UNL d   1      27.770 -11.200  -0.749  0.00  0.00     0.070 C 
ATOM     16  C   UNL d   1      28.691 -10.949  -2.238  0.00  0.00     0.040 C 
ATOM     17  C   UNL d   1      27.530 -10.933  -3.211  0.00  0.00     0.013 C 
ATOM     18  C   UNL d   1      26.818 -12.225  -2.696  0.00  0.00     0.028 C 
ENDROOT
BRANCH  14  19
ATOM     19  C   UNL d   1      27.809 -11.313   3.972  0.00  0.00     0.124 C 
ATOM     20  N   UNL d   1      26.859 -10.485   3.701  0.00  0.00    -0.186 NA
BRANCH  20  21
ATOM     21  N   UNL d   1      26.929  -9.207   4.124  0.00  0.00    -0.230 N 
ATOM     22  C   UNL d   1      26.961  -8.164   3.229  0.00  0.00     0.334 C 
ATOM     23  N   UNL d   1      26.921  -8.483   1.913  0.00  0.00    -0.351 N 
ATOM     24  O   UNL d   1      27.037  -6.990   3.586  0.00  0.00    -0.246 OA
ATOM     25  H   UNL d   1      26.837  -9.437   1.617  0.00  0.00     0.160 HD
ATOM     26  H   UNL d   1      26.928  -7.750   1.221  0.00  0.00     0.160 HD
ATOM     27  H   UNL d   1      27.034  -8.973   5.105  0.00  0.00     0.194 HD
ENDBRANCH  20  21
ENDBRANCH  14  19
BRANCH   9  28
ATOM     28  O   UNL d   1      28.926 -14.625   2.409  0.00  0.00    -0.389 OA
ATOM     29  H   UNL d   1      29.607 -15.246   2.698  0.00  0.00     0.210 HD
ENDBRANCH   9  28
BRANCH  11  30
ATOM     30  O   UNL d   1      28.970 -15.575   4.733  0.00  0.00    -0.395 OA
ATOM     31  H   UNL d   1      29.552 -15.847   4.014  0.00  0.00     0.210 HD
ENDBRANCH  11  30
BRANCH  15  32
ATOM     32  O   UNL d   1      26.655 -10.281  -0.793  0.00  0.00    -0.389 OA
ATOM     33  H   UNL d   1      26.929  -9.453  -1.222  0.00  0.00     0.210 HD
ENDBRANCH  15  32
BRANCH  18  34
ATOM     34  C   UNL d   1      26.949 -13.425  -3.579  0.00  0.00    -0.045 A 
ATOM     35  C   UNL d   1      26.012 -14.299  -3.950  0.00  0.00     0.087 A 
ATOM     36  C   UNL d   1      26.577 -15.103  -5.004  0.00  0.00     0.283 A 
ATOM     37  O   UNL d   1      25.926 -15.950  -5.645  0.00  0.00    -0.260 OA
ATOM     38  O   UNL d   1      27.871 -14.775  -5.186  0.00  0.00    -0.314 OA
ATOM     39  C   UNL d   1      28.197 -13.687  -4.314  0.00  0.00     0.213 A 
ENDBRANCH  18  34
TORSDOF 6
ENDMDL
MODEL 6
REMARK VINA RESULT:    -7.131      9.346     11.598
REMARK INTER + INTRA:         -10.956
REMARK INTER:                  -8.921
REMARK INTRA:                  -2.035
REMARK CONF_INDEPENDENT:        1.790
REMARK UNBOUND:                -2.035
REMARK  6 active torsions:
REMARK  status: ('A' for Active; 'I' for Inactive)
REMARK    1  A    between atoms: C_9  and  O_10 
REMARK    2  A    between atoms: C_12  and  O_13 
REMARK    3  A    between atoms: C_16  and  C_17 
REMARK    4  A    between atoms: N_18  and  N_19 
REMARK       I    between atoms: N_19  and  C_20 
REMARK       I    between atoms: C_20  and  N_21 
REMARK    5  A    between atoms: C_23  and  O_24 
REMARK    6  A    between atoms: C_27  and  C_28 
ROOT
ATOM      1  C   UNL d   1      29.245 -14.416   8.530  0.00  0.00     0.019 C 
ATOM      2  C   UNL d   1      30.042 -13.085   8.982  0.00  0.00    -0.005 C 
ATOM      3  C   UNL d   1      31.290 -12.995   8.103  0.00  0.00     0.013 C 
ATOM      4  C   UNL d   1      30.970 -13.030   6.617  0.00  0.00     0.007 C 
ATOM      5  C   UNL d   1      30.052 -11.885   6.156  0.00  0.00     0.009 C 
ATOM      6  C   UNL d   1      28.740 -11.788   7.245  0.00  0.00     0.026 C 
ATOM      7  C   UNL d   1      27.523 -12.562   6.840  0.00  0.00     0.011 C 
ATOM      8  C   UNL d   1      27.588 -13.459   5.639  0.00  0.00     0.039 C 
ATOM      9  C   UNL d   1      28.661 -13.338   4.572  0.00  0.00     0.073 C 
ATOM     10  C   UNL d   1      27.903 -13.694   3.249  0.00  0.00     0.070 C 
ATOM     11  C   UNL d   1      28.838 -13.583   2.075  0.00  0.00     0.121 C 
ATOM     12  C   UNL d   1      29.613 -12.406   1.564  0.00  0.00     0.033 C 
ATOM     13  C   UNL d   1      30.526 -11.971   3.078  0.00  0.00     0.021 C 
ATOM     14  C   UNL d   1      29.525 -11.994   4.565  0.00  0.00     0.031 C 
ATOM     15  C   UNL d   1      28.983 -12.004   8.859  0.00  0.00     0.070 C 
ATOM     16  C   UNL d   1      28.164 -12.723  10.253  0.00  0.00     0.040 C 
ATOM     17  C   UNL d   1      29.204 -12.397  11.306  0.00  0.00     0.013 C 
ATOM     18  C   UNL d   1      30.453 -12.912  10.521  0.00  0.00     0.028 C 
ENDROOT
BRANCH  14  19
ATOM     19  C   UNL d   1      28.707 -10.715   4.325  0.00  0.00     0.124 C 
ATOM     20  N   UNL d   1      27.426 -10.794   4.454  0.00  0.00    -0.186 NA
BRANCH  20  21
ATOM     21  N   UNL d   1      26.642  -9.754   4.110  0.00  0.00    -0.230 N 
ATOM     22  C   UNL d   1      26.338  -9.498   2.794  0.00  0.00     0.334 C 
ATOM     23  N   UNL d   1      26.864 -10.337   1.869  0.00  0.00    -0.351 N 
ATOM     24  O   UNL d   1      25.635  -8.551   2.450  0.00  0.00    -0.246 OA
ATOM     25  H   UNL d   1      27.419 -11.124   2.145  0.00  0.00     0.160 HD
ATOM     26  H   UNL d   1      26.656 -10.197   0.893  0.00  0.00     0.160 HD
ATOM     27  H   UNL d   1      26.310  -9.084   4.795  0.00  0.00     0.194 HD
ENDBRANCH  20  21
ENDBRANCH  14  19
BRANCH   9  28
ATOM     28  O   UNL d   1      29.596 -14.414   4.753  0.00  0.00    -0.389 OA
ATOM     29  H   UNL d   1      29.356 -15.159   4.187  0.00  0.00     0.210 HD
ENDBRANCH   9  28
BRANCH  11  30
ATOM     30  O   UNL d   1      29.908 -14.509   2.263  0.00  0.00    -0.395 OA
ATOM     31  H   UNL d   1      29.589 -15.267   2.767  0.00  0.00     0.210 HD
ENDBRANCH  11  30
BRANCH  15  32
ATOM     32  O   UNL d   1      29.450 -10.704   9.279  0.00  0.00    -0.389 OA
ATOM     33  H   UNL d   1      28.858 -10.347   9.962  0.00  0.00     0.210 HD
ENDBRANCH  15  32
BRANCH  18  34
ATOM     34  C   UNL d   1      31.029 -14.204  11.006  0.00  0.00    -0.045 A 
ATOM     35  C   UNL d   1      30.426 -15.197  11.663  0.00  0.00     0.087 A 
ATOM     36  C   UNL d   1      31.333 -16.316  11.664  0.00  0.00     0.283 A 
ATOM     37  O   UNL d   1      31.035 -17.441  12.108  0.00  0.00    -0.260 OA
ATOM     38  O   UNL d   1      32.504 -15.956  11.102  0.00  0.00    -0.314 OA
ATOM     39  C   UNL d   1      32.394 -14.608  10.634  0.00  0.00     0.213 A 
ENDBRANCH  18  34
TORSDOF 6
ENDMDL
MODEL 7
REMARK VINA RESULT:    -7.112      1.632      1.787
REMARK INTER + INTRA:         -11.008
REMARK INTER:                  -8.902
REMARK INTRA:                  -2.106
REMARK CONF_INDEPENDENT:        1.790
REMARK UNBOUND:                -2.106
REMARK  6 active torsions:
REMARK  status: ('A' for Active; 'I' for Inactive)
REMARK    1  A    between atoms: C_9  and  O_10 
REMARK    2  A    between atoms: C_12  and  O_13 
REMARK    3  A    between atoms: C_16  and  C_17 
REMARK    4  A    between atoms: N_18  and  N_19 
REMARK       I    between atoms: N_19  and  C_20 
REMARK       I    between atoms: C_20  and  N_21 
REMARK    5  A    between atoms: C_23  and  O_24 
REMARK    6  A    between atoms: C_27  and  C_28 
ROOT
ATOM      1  C   UNL d   1      25.904 -14.382  -1.200  0.00  0.00     0.019 C 
ATOM      2  C   UNL d   1      26.391 -15.570  -2.179  0.00  0.00    -0.005 C 
ATOM      3  C   UNL d   1      25.534 -15.483  -3.443  0.00  0.00     0.013 C 
ATOM      4  C   UNL d   1      25.577 -14.110  -4.094  0.00  0.00     0.007 C 
ATOM      5  C   UNL d   1      26.991 -13.673  -4.518  0.00  0.00     0.009 C 
ATOM      6  C   UNL d   1      28.048 -13.961  -3.209  0.00  0.00     0.026 C 
ATOM      7  C   UNL d   1      28.257 -12.793  -2.295  0.00  0.00     0.011 C 
ATOM      8  C   UNL d   1      27.436 -11.551  -2.489  0.00  0.00     0.039 C 
ATOM      9  C   UNL d   1      26.701 -11.238  -3.779  0.00  0.00     0.073 C 
ATOM     10  C   UNL d   1      26.820  -9.682  -3.899  0.00  0.00     0.070 C 
ATOM     11  C   UNL d   1      26.159  -9.213  -5.168  0.00  0.00     0.121 C 
ATOM     12  C   UNL d   1      26.454  -9.557  -6.596  0.00  0.00     0.033 C 
ATOM     13  C   UNL d   1      26.308 -11.369  -6.501  0.00  0.00     0.021 C 
ATOM     14  C   UNL d   1      27.109 -12.091  -5.069  0.00  0.00     0.031 C 
ATOM     15  C   UNL d   1      27.884 -15.319  -2.291  0.00  0.00     0.070 C 
ATOM     16  C   UNL d   1      28.041 -15.822  -0.603  0.00  0.00     0.040 C 
ATOM     17  C   UNL d   1      27.686 -17.285  -0.780  0.00  0.00     0.013 C 
ATOM     18  C   UNL d   1      26.393 -17.075  -1.631  0.00  0.00     0.028 C 
ENDROOT
BRANCH  14  19
ATOM     19  C   UNL d   1      28.574 -11.925  -5.502  0.00  0.00     0.124 C 
ATOM     20  N   UNL d   1      29.287 -11.055  -4.871  0.00  0.00    -0.186 NA
BRANCH  20  21
ATOM     21  N   UNL d   1      30.528 -10.753  -5.299  0.00  0.00    -0.230 N 
ATOM     22  C   UNL d   1      30.855  -9.473  -5.683  0.00  0.00     0.334 C 
ATOM     23  N   UNL d   1      29.874  -8.541  -5.611  0.00  0.00    -0.351 N 
ATOM     24  O   UNL d   1      31.975  -9.171  -6.088  0.00  0.00    -0.246 OA
ATOM     25  H   UNL d   1      28.965  -8.777  -5.261  0.00  0.00     0.160 HD
ATOM     26  H   UNL d   1      30.072  -7.587  -5.869  0.00  0.00     0.160 HD
ATOM     27  H   UNL d   1      31.240 -11.464  -5.423  0.00  0.00     0.194 HD
ENDBRANCH  20  21
ENDBRANCH  14  19
BRANCH   9  28
ATOM     28  O   UNL d   1      25.301 -11.479  -3.566  0.00  0.00    -0.389 OA
ATOM     29  H   UNL d   1      24.850 -11.578  -4.415  0.00  0.00     0.210 HD
ENDBRANCH   9  28
BRANCH  11  30
ATOM     30  O   UNL d   1      24.779  -9.572  -5.116  0.00  0.00    -0.395 OA
ATOM     31  H   UNL d   1      24.633 -10.177  -4.378  0.00  0.00     0.210 HD
ENDBRANCH  11  30
BRANCH  15  32
ATOM     32  O   UNL d   1      28.568 -16.313  -3.085  0.00  0.00    -0.389 OA
ATOM     33  H   UNL d   1      29.348 -16.637  -2.605  0.00  0.00     0.210 HD
ENDBRANCH  15  32
BRANCH  18  34
ATOM     34  C   UNL d   1      25.104 -17.320  -0.912  0.00  0.00    -0.045 A 
ATOM     35  C   UNL d   1      23.861 -17.019  -1.292  0.00  0.00     0.087 A 
ATOM     36  C   UNL d   1      22.967 -17.693  -0.386  0.00  0.00     0.283 A 
ATOM     37  O   UNL d   1      21.729 -17.704  -0.524  0.00  0.00    -0.260 OA
ATOM     38  O   UNL d   1      23.674 -18.306   0.584  0.00  0.00    -0.314 OA
ATOM     39  C   UNL d   1      25.069 -18.130   0.317  0.00  0.00     0.213 A 
ENDBRANCH  18  34
TORSDOF 6
ENDMDL
MODEL 8
REMARK VINA RESULT:    -6.969      8.748     11.563
REMARK INTER + INTRA:         -10.712
REMARK INTER:                  -8.758
REMARK INTRA:                  -1.954
REMARK CONF_INDEPENDENT:        1.790
REMARK UNBOUND:                -1.954
REMARK  6 active torsions:
REMARK  status: ('A' for Active; 'I' for Inactive)
REMARK    1  A    between atoms: C_9  and  O_10 
REMARK    2  A    between atoms: C_12  and  O_13 
REMARK    3  A    between atoms: C_16  and  C_17 
REMARK    4  A    between atoms: N_18  and  N_19 
REMARK       I    between atoms: N_19  and  C_20 
REMARK       I    between atoms: C_20  and  N_21 
REMARK    5  A    between atoms: C_23  and  O_24 
REMARK    6  A    between atoms: C_27  and  C_28 
ROOT
ATOM      1  C   UNL d   1      29.706 -13.276   3.602  0.00  0.00     0.019 C 
ATOM      2  C   UNL d   1      28.170 -12.781   3.665  0.00  0.00    -0.005 C 
ATOM      3  C   UNL d   1      27.404 -13.813   4.493  0.00  0.00     0.013 C 
ATOM      4  C   UNL d   1      28.019 -14.044   5.864  0.00  0.00     0.007 C 
ATOM      5  C   UNL d   1      28.084 -12.776   6.733  0.00  0.00     0.009 C 
ATOM      6  C   UNL d   1      28.728 -11.514   5.780  0.00  0.00     0.026 C 
ATOM      7  C   UNL d   1      30.211 -11.333   5.888  0.00  0.00     0.011 C 
ATOM      8  C   UNL d   1      31.018 -12.329   6.668  0.00  0.00     0.039 C 
ATOM      9  C   UNL d   1      30.408 -13.276   7.685  0.00  0.00     0.073 C 
ATOM     10  C   UNL d   1      31.509 -13.382   8.793  0.00  0.00     0.070 C 
ATOM     11  C   UNL d   1      31.031 -14.272   9.908  0.00  0.00     0.121 C 
ATOM     12  C   UNL d   1      29.840 -14.141  10.808  0.00  0.00     0.033 C 
ATOM     13  C   UNL d   1      28.528 -14.032   9.550  0.00  0.00     0.021 C 
ATOM     14  C   UNL d   1      28.923 -12.947   8.178  0.00  0.00     0.031 C 
ATOM     15  C   UNL d   1      28.298 -11.366   4.198  0.00  0.00     0.070 C 
ATOM     16  C   UNL d   1      29.020 -10.905   2.650  0.00  0.00     0.040 C 
ATOM     17  C   UNL d   1      27.795 -11.086   1.777  0.00  0.00     0.013 C 
ATOM     18  C   UNL d   1      27.388 -12.503   2.294  0.00  0.00     0.028 C 
ENDROOT
BRANCH  14  19
ATOM     19  C   UNL d   1      28.776 -11.593   8.890  0.00  0.00     0.124 C 
ATOM     20  N   UNL d   1      29.668 -10.693   8.649  0.00  0.00    -0.186 NA
BRANCH  20  21
ATOM     21  N   UNL d   1      29.684  -9.544   9.354  0.00  0.00    -0.230 N 
ATOM     22  C   UNL d   1      30.070  -8.360   8.772  0.00  0.00     0.334 C 
ATOM     23  N   UNL d   1      30.432  -8.407   7.466  0.00  0.00    -0.351 N 
ATOM     24  O   UNL d   1      30.106  -7.300   9.393  0.00  0.00    -0.246 OA
ATOM     25  H   UNL d   1      30.383  -9.264   6.950  0.00  0.00     0.160 HD
ATOM     26  H   UNL d   1      30.708  -7.560   6.994  0.00  0.00     0.160 HD
ATOM     27  H   UNL d   1      29.485  -9.523  10.347  0.00  0.00     0.194 HD
ENDBRANCH  20  21
ENDBRANCH  14  19
BRANCH   9  28
ATOM     28  O   UNL d   1      30.354 -14.588   7.102  0.00  0.00    -0.389 OA
ATOM     29  H   UNL d   1      30.980 -15.173   7.547  0.00  0.00     0.210 HD
ENDBRANCH   9  28
BRANCH  11  30
ATOM     30  O   UNL d   1      30.783 -15.572   9.372  0.00  0.00    -0.395 OA
ATOM     31  H   UNL d   1      30.082 -15.516   8.712  0.00  0.00     0.210 HD
ENDBRANCH  11  30
BRANCH  15  32
ATOM     32  O   UNL d   1      27.031 -10.677   4.285  0.00  0.00    -0.389 OA
ATOM     33  H   UNL d   1      26.859 -10.421   5.206  0.00  0.00     0.210 HD
ENDBRANCH  15  32
BRANCH  18  34
ATOM     34  C   UNL d   1      27.663 -13.633   1.353  0.00  0.00    -0.045 A 
ATOM     35  C   UNL d   1      27.780 -14.935   1.617  0.00  0.00     0.087 A 
ATOM     36  C   UNL d   1      27.778 -15.625   0.352  0.00  0.00     0.283 A 
ATOM     37  O   UNL d   1      27.769 -16.866   0.247  0.00  0.00    -0.260 OA
ATOM     38  O   UNL d   1      27.762 -14.731  -0.657  0.00  0.00    -0.314 OA
ATOM     39  C   UNL d   1      27.674 -13.415  -0.103  0.00  0.00     0.213 A 
ENDBRANCH  18  34
TORSDOF 6
ENDMDL
MODEL 9
REMARK VINA RESULT:    -6.599      8.030     10.524
REMARK INTER + INTRA:         -10.483
REMARK INTER:                  -8.389
REMARK INTRA:                  -2.095
REMARK CONF_INDEPENDENT:        1.790
REMARK UNBOUND:                -2.095
REMARK  6 active torsions:
REMARK  status: ('A' for Active; 'I' for Inactive)
REMARK    1  A    between atoms: C_9  and  O_10 
REMARK    2  A    between atoms: C_12  and  O_13 
REMARK    3  A    between atoms: C_16  and  C_17 
REMARK    4  A    between atoms: N_18  and  N_19 
REMARK       I    between atoms: N_19  and  C_20 
REMARK       I    between atoms: C_20  and  N_21 
REMARK    5  A    between atoms: C_23  and  O_24 
REMARK    6  A    between atoms: C_27  and  C_28 
ROOT
ATOM      1  C   UNL d   1      29.732 -14.023   6.818  0.00  0.00     0.019 C 
ATOM      2  C   UNL d   1      29.999 -12.431   6.881  0.00  0.00    -0.005 C 
ATOM      3  C   UNL d   1      31.103 -12.125   5.868  0.00  0.00     0.013 C 
ATOM      4  C   UNL d   1      30.777 -12.626   4.470  0.00  0.00     0.007 C 
ATOM      5  C   UNL d   1      29.491 -12.020   3.882  0.00  0.00     0.009 C 
ATOM      6  C   UNL d   1      28.266 -12.128   5.066  0.00  0.00     0.026 C 
ATOM      7  C   UNL d   1      27.405 -13.351   4.977  0.00  0.00     0.011 C 
ATOM      8  C   UNL d   1      27.761 -14.430   3.996  0.00  0.00     0.039 C 
ATOM      9  C   UNL d   1      28.685 -14.203   2.814  0.00  0.00     0.073 C 
ATOM     10  C   UNL d   1      28.073 -15.107   1.692  0.00  0.00     0.070 C 
ATOM     11  C   UNL d   1      28.870 -14.963   0.423  0.00  0.00     0.121 C 
ATOM     12  C   UNL d   1      29.146 -13.750  -0.412  0.00  0.00     0.033 C 
ATOM     13  C   UNL d   1      29.879 -12.673   0.860  0.00  0.00     0.021 C 
ATOM     14  C   UNL d   1      28.997 -12.685   2.421  0.00  0.00     0.031 C 
ATOM     15  C   UNL d   1      28.615 -11.851   6.651  0.00  0.00     0.070 C 
ATOM     16  C   UNL d   1      28.155 -12.453   8.250  0.00  0.00     0.040 C 
ATOM     17  C   UNL d   1      29.032 -11.541   9.084  0.00  0.00     0.013 C 
ATOM     18  C   UNL d   1      30.361 -11.761   8.291  0.00  0.00     0.028 C 
ENDROOT
BRANCH  14  19
ATOM     19  C   UNL d   1      27.761 -11.870   2.007  0.00  0.00     0.124 C 
ATOM     20  N   UNL d   1      27.916 -10.603   1.825  0.00  0.00    -0.186 NA
BRANCH  20  21
ATOM     21  N   UNL d   1      26.848  -9.810   1.611  0.00  0.00    -0.230 N 
ATOM     22  C   UNL d   1      26.140  -9.274   2.661  0.00  0.00     0.334 C 
ATOM     23  N   UNL d   1      26.567  -9.582   3.910  0.00  0.00    -0.351 N 
ATOM     24  O   UNL d   1      25.155  -8.558   2.496  0.00  0.00    -0.246 OA
ATOM     25  H   UNL d   1      27.382 -10.147   4.050  0.00  0.00     0.160 HD
ATOM     26  H   UNL d   1      26.087  -9.199   4.710  0.00  0.00     0.160 HD
ATOM     27  H   UNL d   1      26.484  -9.641   0.680  0.00  0.00     0.194 HD
ENDBRANCH  20  21
ENDBRANCH  14  19
BRANCH   9  28
ATOM     28  O   UNL d   1      29.953 -14.807   3.114  0.00  0.00    -0.389 OA
ATOM     29  H   UNL d   1      30.096 -15.575   2.544  0.00  0.00     0.210 HD
ENDBRANCH   9  28
BRANCH  11  30
ATOM     30  O   UNL d   1      30.209 -15.383   0.682  0.00  0.00    -0.395 OA
ATOM     31  H   UNL d   1      30.202 -16.072   1.357  0.00  0.00     0.210 HD
ENDBRANCH  11  30
BRANCH  15  32
ATOM     32  O   UNL d   1      28.585 -10.409   6.727  0.00  0.00    -0.389 OA
ATOM     33  H   UNL d   1      27.681 -10.091   6.567  0.00  0.00     0.210 HD
ENDBRANCH  15  32
BRANCH  18  34
ATOM     34  C   UNL d   1      31.382 -12.614   8.974  0.00  0.00    -0.045 A 
ATOM     35  C   UNL d   1      31.220 -13.783   9.596  0.00  0.00     0.087 A 
ATOM     36  C   UNL d   1      32.534 -14.316   9.846  0.00  0.00     0.283 A 
ATOM     37  O   UNL d   1      32.736 -15.449  10.323  0.00  0.00    -0.260 OA
ATOM     38  O   UNL d   1      33.470 -13.423   9.467  0.00  0.00    -0.314 OA
ATOM     39  C   UNL d   1      32.816 -12.294   8.878  0.00  0.00     0.213 A 
ENDBRANCH  18  34
TORSDOF 6
ENDMDL
