MODEL 1
REMARK VINA RESULT:    -7.843      0.000      0.000
REMARK INTER + INTRA:         -11.804
REMARK INTER:                  -9.931
REMARK INTRA:                  -1.873
REMARK CONF_INDEPENDENT:        2.088
REMARK UNBOUND:                -1.873
REMARK  7 active torsions:
REMARK  status: ('A' for Active; 'I' for Inactive)
REMARK    1  A    between atoms: C_2  and  C_18 
REMARK    2  A    between atoms: N_3  and  N_4 
REMARK       I    between atoms: N_4  and  C_5 
REMARK    3  A    between atoms: C_5  and  C_7 
REMARK    4  A    between atoms: C_7  and  O_8 
REMARK    5  A    between atoms: O_8  and  C_9 
REMARK    6  A    between atoms: C_12  and  C_13 
REMARK    7  A    between atoms: C_22  and  O_23 
ROOT
ATOM      1  N   UNL d   1      27.693 -16.529  -2.025  0.00  0.00    -0.245 N 
ATOM      2  C   UNL d   1      28.045 -17.037  -0.778  0.00  0.00     0.261 C 
ATOM      3  O   UNL d   1      29.167 -17.487  -0.520  0.00  0.00    -0.269 OA
ATOM      4  H   UNL d   1      26.728 -16.296  -2.211  0.00  0.00     0.192 HD
ENDROOT
BRANCH   1   5
ATOM      5  N   UNL d   1      28.627 -16.446  -3.042  0.00  0.00    -0.176 NA
ATOM      6  C   UNL d   1      28.545 -15.531  -3.973  0.00  0.00     0.061 C 
ATOM      7  C   UNL d   1      29.562 -15.575  -5.105  0.00  0.00     0.073 C 
BRANCH   6   8
ATOM      8  C   UNL d   1      27.521 -14.447  -4.027  0.00  0.00    -0.008 C 
ATOM      9  C   UNL d   1      27.866 -13.177  -3.554  0.00  0.00     0.013 C 
ATOM     10  C   UNL d   1      26.872 -12.268  -3.211  0.00  0.00     0.004 C 
ATOM     11  C   UNL d   1      25.543 -12.550  -3.518  0.00  0.00     0.036 C 
ATOM     12  C   UNL d   1      25.221 -13.760  -4.129  0.00  0.00     0.066 C 
ATOM     13  C   UNL d   1      26.197 -14.721  -4.379  0.00  0.00     0.050 C 
BRANCH  12  14
ATOM     14  O   UNL d   1      23.932 -14.073  -4.444  0.00  0.00    -0.361 OA
ATOM     15  H   UNL d   1      23.756 -13.809  -5.363  0.00  0.00     0.217 HD
ENDBRANCH  12  14
ENDBRANCH   6   8
ENDBRANCH   1   5
BRANCH   2  16
ATOM     16  C   UNL d   1      26.914 -16.976   0.275  0.00  0.00     0.280 C 
BRANCH  16  17
ATOM     17  O   UNL d   1      25.766 -16.393  -0.346  0.00  0.00    -0.342 OA
BRANCH  17  18
ATOM     18  C   UNL d   1      24.594 -17.086  -0.288  0.00  0.00     0.069 A 
ATOM     19  C   UNL d   1      24.702 -18.474  -0.386  0.00  0.00     0.037 A 
ATOM     20  C   UNL d   1      23.559 -19.276  -0.445  0.00  0.00     0.010 A 
ATOM     21  C   UNL d   1      22.283 -18.706  -0.327  0.00  0.00    -0.055 A 
ATOM     22  C   UNL d   1      22.195 -17.305  -0.294  0.00  0.00     0.010 A 
ATOM     23  C   UNL d   1      23.337 -16.498  -0.279  0.00  0.00     0.037 A 
BRANCH  21  24
ATOM     24  C   UNL d   1      21.063 -19.609  -0.177  0.00  0.00     0.010 C 
ATOM     25  C   UNL d   1      20.388 -19.360   1.182  0.00  0.00     0.015 C 
ATOM     26  C   UNL d   1      20.017 -19.398  -1.278  0.00  0.00     0.015 C 
ENDBRANCH  21  24
ENDBRANCH  17  18
ENDBRANCH  16  17
ENDBRANCH   2  16
TORSDOF 7
ENDMDL
MODEL 2
REMARK VINA RESULT:    -7.812      1.966      2.435
REMARK INTER + INTRA:         -11.319
REMARK INTER:                  -9.900
REMARK INTRA:                  -1.418
REMARK CONF_INDEPENDENT:        2.088
REMARK UNBOUND:                -1.418
REMARK  7 active torsions:
REMARK  status: ('A' for Active; 'I' for Inactive)
REMARK    1  A    between atoms: C_2  and  C_18 
REMARK    2  A    between atoms: N_3  and  N_4 
REMARK       I    between atoms: N_4  and  C_5 
REMARK    3  A    between atoms: C_5  and  C_7 
REMARK    4  A    between atoms: C_7  and  O_8 
REMARK    5  A    between atoms: O_8  and  C_9 
REMARK    6  A    between atoms: C_12  and  C_13 
REMARK    7  A    between atoms: C_22  and  O_23 
ROOT
ATOM      1  N   UNL d   1      26.741 -14.320  -0.267  0.00  0.00    -0.245 N 
ATOM      2  C   UNL d   1      27.158 -15.388   0.522  0.00  0.00     0.261 C 
ATOM      3  O   UNL d   1      27.948 -15.267   1.465  0.00  0.00    -0.269 OA
ATOM      4  H   UNL d   1      26.199 -14.501  -1.100  0.00  0.00     0.192 HD
ENDROOT
BRANCH   1   5
ATOM      5  N   UNL d   1      27.154 -13.031   0.015  0.00  0.00    -0.176 NA
ATOM      6  C   UNL d   1      27.208 -12.112  -0.914  0.00  0.00     0.061 C 
ATOM      7  C   UNL d   1      27.765 -10.747  -0.532  0.00  0.00     0.073 C 
BRANCH   6   8
ATOM      8  C   UNL d   1      26.781 -12.293  -2.332  0.00  0.00    -0.008 C 
ATOM      9  C   UNL d   1      27.150 -11.325  -3.271  0.00  0.00     0.013 C 
ATOM     10  C   UNL d   1      26.465 -11.228  -4.476  0.00  0.00     0.004 C 
ATOM     11  C   UNL d   1      25.544 -12.212  -4.828  0.00  0.00     0.036 C 
ATOM     12  C   UNL d   1      25.290 -13.261  -3.948  0.00  0.00     0.066 C 
ATOM     13  C   UNL d   1      25.892 -13.309  -2.694  0.00  0.00     0.050 C 
BRANCH  12  14
ATOM     14  O   UNL d   1      24.395 -14.242  -4.256  0.00  0.00    -0.361 OA
ATOM     15  H   UNL d   1      23.885 -13.973  -5.039  0.00  0.00     0.217 HD
ENDBRANCH  12  14
ENDBRANCH   6   8
ENDBRANCH   1   5
BRANCH   2  16
ATOM     16  C   UNL d   1      26.536 -16.748   0.131  0.00  0.00     0.280 C 
BRANCH  16  17
ATOM     17  O   UNL d   1      25.518 -16.503  -0.842  0.00  0.00    -0.342 OA
BRANCH  17  18
ATOM     18  C   UNL d   1      24.339 -17.172  -0.710  0.00  0.00     0.069 A 
ATOM     19  C   UNL d   1      24.440 -18.549  -0.504  0.00  0.00     0.037 A 
ATOM     20  C   UNL d   1      23.295 -19.349  -0.460  0.00  0.00     0.010 A 
ATOM     21  C   UNL d   1      22.020 -18.773  -0.543  0.00  0.00    -0.055 A 
ATOM     22  C   UNL d   1      21.943 -17.397  -0.814  0.00  0.00     0.010 A 
ATOM     23  C   UNL d   1      23.089 -16.601  -0.902  0.00  0.00     0.037 A 
BRANCH  21  24
ATOM     24  C   UNL d   1      20.785 -19.627  -0.278  0.00  0.00     0.010 C 
ATOM     25  C   UNL d   1      20.278 -19.391   1.155  0.00  0.00     0.015 C 
ATOM     26  C   UNL d   1      19.633 -19.340  -1.248  0.00  0.00     0.015 C 
ENDBRANCH  21  24
ENDBRANCH  17  18
ENDBRANCH  16  17
ENDBRANCH   2  16
TORSDOF 7
ENDMDL
MODEL 3
REMARK VINA RESULT:    -7.590      1.470      2.375
REMARK INTER + INTRA:         -12.184
REMARK INTER:                  -9.678
REMARK INTRA:                  -2.506
REMARK CONF_INDEPENDENT:        2.088
REMARK UNBOUND:                -2.506
REMARK  7 active torsions:
REMARK  status: ('A' for Active; 'I' for Inactive)
REMARK    1  A    between atoms: C_2  and  C_18 
REMARK    2  A    between atoms: N_3  and  N_4 
REMARK       I    between atoms: N_4  and  C_5 
REMARK    3  A    between atoms: C_5  and  C_7 
REMARK    4  A    between atoms: C_7  and  O_8 
REMARK    5  A    between atoms: O_8  and  C_9 
REMARK    6  A    between atoms: C_12  and  C_13 
REMARK    7  A    between atoms: C_22  and  O_23 
ROOT
ATOM      1  N   UNL d   1      29.248 -16.107  -3.224  0.00  0.00    -0.245 N 
ATOM      2  C   UNL d   1      29.813 -17.261  -2.690  0.00  0.00     0.261 C 
ATOM      3  O   UNL d   1      30.377 -18.121  -3.375  0.00  0.00    -0.269 OA
ATOM      4  H   UNL d   1      28.690 -15.508  -2.632  0.00  0.00     0.192 HD
ENDROOT
BRANCH   1   5
ATOM      5  N   UNL d   1      29.350 -15.832  -4.575  0.00  0.00    -0.176 NA
ATOM      6  C   UNL d   1      28.538 -14.995  -5.166  0.00  0.00     0.061 C 
ATOM      7  C   UNL d   1      28.664 -14.826  -6.675  0.00  0.00     0.073 C 
BRANCH   6   8
ATOM      8  C   UNL d   1      27.479 -14.196  -4.484  0.00  0.00    -0.008 C 
ATOM      9  C   UNL d   1      27.845 -13.379  -3.409  0.00  0.00     0.013 C 
ATOM     10  C   UNL d   1      26.883 -12.942  -2.507  0.00  0.00     0.004 C 
ATOM     11  C   UNL d   1      25.534 -13.157  -2.779  0.00  0.00     0.036 C 
ATOM     12  C   UNL d   1      25.167 -13.844  -3.934  0.00  0.00     0.066 C 
ATOM     13  C   UNL d   1      26.127 -14.377  -4.789  0.00  0.00     0.050 C 
BRANCH  12  14
ATOM     14  O   UNL d   1      23.857 -14.075  -4.233  0.00  0.00    -0.361 OA
ATOM     15  H   UNL d   1      23.501 -13.309  -4.714  0.00  0.00     0.217 HD
ENDBRANCH  12  14
ENDBRANCH   6   8
ENDBRANCH   1   5
BRANCH   2  16
ATOM     16  C   UNL d   1      29.691 -17.375  -1.153  0.00  0.00     0.280 C 
BRANCH  16  17
ATOM     17  O   UNL d   1      28.800 -16.352  -0.704  0.00  0.00    -0.342 OA
BRANCH  17  18
ATOM     18  C   UNL d   1      27.469 -16.640  -0.669  0.00  0.00     0.069 A 
ATOM     19  C   UNL d   1      27.086 -17.636   0.231  0.00  0.00     0.037 A 
ATOM     20  C   UNL d   1      25.764 -18.087   0.276  0.00  0.00     0.010 A 
ATOM     21  C   UNL d   1      24.781 -17.490  -0.526  0.00  0.00    -0.055 A 
ATOM     22  C   UNL d   1      25.199 -16.536  -1.468  0.00  0.00     0.010 A 
ATOM     23  C   UNL d   1      26.530 -16.115  -1.545  0.00  0.00     0.037 A 
BRANCH  21  24
ATOM     24  C   UNL d   1      23.313 -17.842  -0.311  0.00  0.00     0.010 C 
ATOM     25  C   UNL d   1      22.435 -16.598  -0.529  0.00  0.00     0.015 C 
ATOM     26  C   UNL d   1      22.814 -18.950  -1.247  0.00  0.00     0.015 C 
ENDBRANCH  21  24
ENDBRANCH  17  18
ENDBRANCH  16  17
ENDBRANCH   2  16
TORSDOF 7
ENDMDL
MODEL 4
REMARK VINA RESULT:    -7.534      2.118      3.229
REMARK INTER + INTRA:         -11.371
REMARK INTER:                  -9.622
REMARK INTRA:                  -1.748
REMARK CONF_INDEPENDENT:        2.088
REMARK UNBOUND:                -1.748
REMARK  7 active torsions:
REMARK  status: ('A' for Active; 'I' for Inactive)
REMARK    1  A    between atoms: C_2  and  C_18 
REMARK    2  A    between atoms: N_3  and  N_4 
REMARK       I    between atoms: N_4  and  C_5 
REMARK    3  A    between atoms: C_5  and  C_7 
REMARK    4  A    between atoms: C_7  and  O_8 
REMARK    5  A    between atoms: O_8  and  C_9 
REMARK    6  A    between atoms: C_12  and  C_13 
REMARK    7  A    between atoms: C_22  and  O_23 
ROOT
ATOM      1  N   UNL d   1      24.956 -16.075  -0.551  0.00  0.00    -0.245 N 
ATOM      2  C   UNL d   1      25.295 -17.368  -0.938  0.00  0.00     0.261 C 
ATOM      3  O   UNL d   1      26.445 -17.817  -0.870  0.00  0.00    -0.269 OA
ATOM      4  H   UNL d   1      24.030 -15.724  -0.750  0.00  0.00     0.192 HD
ENDROOT
BRANCH   1   5
ATOM      5  N   UNL d   1      25.904 -15.232   0.001  0.00  0.00    -0.176 NA
ATOM      6  C   UNL d   1      26.591 -14.399  -0.736  0.00  0.00     0.061 C 
ATOM      7  C   UNL d   1      27.679 -13.578  -0.056  0.00  0.00     0.073 C 
BRANCH   6   8
ATOM      8  C   UNL d   1      26.408 -14.193  -2.202  0.00  0.00    -0.008 C 
ATOM      9  C   UNL d   1      25.304 -13.454  -2.641  0.00  0.00     0.013 C 
ATOM     10  C   UNL d   1      24.868 -13.569  -3.955  0.00  0.00     0.004 C 
ATOM     11  C   UNL d   1      25.641 -14.266  -4.880  0.00  0.00     0.036 C 
ATOM     12  C   UNL d   1      26.823 -14.877  -4.467  0.00  0.00     0.066 C 
ATOM     13  C   UNL d   1      27.212 -14.858  -3.131  0.00  0.00     0.050 C 
BRANCH  12  14
ATOM     14  O   UNL d   1      27.605 -15.570  -5.343  0.00  0.00    -0.361 OA
ATOM     15  H   UNL d   1      27.921 -14.965  -6.034  0.00  0.00     0.217 HD
ENDBRANCH  12  14
ENDBRANCH   6   8
ENDBRANCH   1   5
BRANCH   2  16
ATOM     16  C   UNL d   1      24.104 -18.210  -1.449  0.00  0.00     0.280 C 
BRANCH  16  17
ATOM     17  O   UNL d   1      22.899 -17.587  -1.001  0.00  0.00    -0.342 OA
BRANCH  17  18
ATOM     18  C   UNL d   1      21.939 -18.383  -0.452  0.00  0.00     0.069 A 
ATOM     19  C   UNL d   1      21.004 -18.912  -1.342  0.00  0.00     0.037 A 
ATOM     20  C   UNL d   1      19.916 -19.655  -0.876  0.00  0.00     0.010 A 
ATOM     21  C   UNL d   1      19.787 -19.949   0.489  0.00  0.00    -0.055 A 
ATOM     22  C   UNL d   1      20.702 -19.354   1.373  0.00  0.00     0.010 A 
ATOM     23  C   UNL d   1      21.767 -18.574   0.912  0.00  0.00     0.037 A 
BRANCH  21  24
ATOM     24  C   UNL d   1      18.721 -20.935   0.952  0.00  0.00     0.010 C 
ATOM     25  C   UNL d   1      18.031 -20.408   2.221  0.00  0.00     0.015 C 
ATOM     26  C   UNL d   1      17.642 -21.199  -0.105  0.00  0.00     0.015 C 
ENDBRANCH  21  24
ENDBRANCH  17  18
ENDBRANCH  16  17
ENDBRANCH   2  16
TORSDOF 7
ENDMDL
MODEL 5
REMARK VINA RESULT:    -7.176      4.951      7.551
REMARK INTER + INTRA:         -10.943
REMARK INTER:                  -9.264
REMARK INTRA:                  -1.678
REMARK CONF_INDEPENDENT:        2.088
REMARK UNBOUND:                -1.678
REMARK  7 active torsions:
REMARK  status: ('A' for Active; 'I' for Inactive)
REMARK    1  A    between atoms: C_2  and  C_18 
REMARK    2  A    between atoms: N_3  and  N_4 
REMARK       I    between atoms: N_4  and  C_5 
REMARK    3  A    between atoms: C_5  and  C_7 
REMARK    4  A    between atoms: C_7  and  O_8 
REMARK    5  A    between atoms: O_8  and  C_9 
REMARK    6  A    between atoms: C_12  and  C_13 
REMARK    7  A    between atoms: C_22  and  O_23 
ROOT
ATOM      1  N   UNL d   1      26.949 -14.148   0.035  0.00  0.00    -0.245 N 
ATOM      2  C   UNL d   1      28.229 -14.651   0.246  0.00  0.00     0.261 C 
ATOM      3  O   UNL d   1      28.945 -15.088  -0.662  0.00  0.00    -0.269 OA
ATOM      4  H   UNL d   1      26.365 -13.927   0.829  0.00  0.00     0.192 HD
ENDROOT
BRANCH   1   5
ATOM      5  N   UNL d   1      26.430 -14.053  -1.243  0.00  0.00    -0.176 NA
ATOM      6  C   UNL d   1      25.606 -14.952  -1.716  0.00  0.00     0.061 C 
ATOM      7  C   UNL d   1      25.161 -14.816  -3.166  0.00  0.00     0.073 C 
BRANCH   6   8
ATOM      8  C   UNL d   1      25.072 -16.117  -0.952  0.00  0.00    -0.008 C 
ATOM      9  C   UNL d   1      25.972 -17.084  -0.491  0.00  0.00     0.013 C 
ATOM     10  C   UNL d   1      25.517 -18.350  -0.143  0.00  0.00     0.004 C 
ATOM     11  C   UNL d   1      24.148 -18.594  -0.070  0.00  0.00     0.036 C 
ATOM     12  C   UNL d   1      23.250 -17.577  -0.387  0.00  0.00     0.066 C 
ATOM     13  C   UNL d   1      23.697 -16.339  -0.839  0.00  0.00     0.050 C 
BRANCH  12  14
ATOM     14  O   UNL d   1      21.903 -17.779  -0.329  0.00  0.00    -0.361 OA
ATOM     15  H   UNL d   1      21.627 -17.819   0.602  0.00  0.00     0.217 HD
ENDBRANCH  12  14
ENDBRANCH   6   8
ENDBRANCH   1   5
BRANCH   2  16
ATOM     16  C   UNL d   1      28.695 -14.604   1.719  0.00  0.00     0.280 C 
BRANCH  16  17
ATOM     17  O   UNL d   1      27.620 -14.083   2.505  0.00  0.00    -0.342 OA
BRANCH  17  18
ATOM     18  C   UNL d   1      27.842 -13.892   3.835  0.00  0.00     0.069 A 
ATOM     19  C   UNL d   1      27.769 -12.571   4.281  0.00  0.00     0.037 A 
ATOM     20  C   UNL d   1      28.082 -12.246   5.603  0.00  0.00     0.010 A 
ATOM     21  C   UNL d   1      28.398 -13.251   6.528  0.00  0.00    -0.055 A 
ATOM     22  C   UNL d   1      28.529 -14.564   6.044  0.00  0.00     0.010 A 
ATOM     23  C   UNL d   1      28.258 -14.885   4.711  0.00  0.00     0.037 A 
BRANCH  21  24
ATOM     24  C   UNL d   1      28.525 -12.905   8.007  0.00  0.00     0.010 C 
ATOM     25  C   UNL d   1      29.153 -14.083   8.772  0.00  0.00     0.015 C 
ATOM     26  C   UNL d   1      29.379 -11.658   8.264  0.00  0.00     0.015 C 
ENDBRANCH  21  24
ENDBRANCH  17  18
ENDBRANCH  16  17
ENDBRANCH   2  16
TORSDOF 7
ENDMDL
MODEL 6
REMARK VINA RESULT:    -7.075      3.949      6.024
REMARK INTER + INTRA:         -11.037
REMARK INTER:                  -9.163
REMARK INTRA:                  -1.874
REMARK CONF_INDEPENDENT:        2.088
REMARK UNBOUND:                -1.874
REMARK  7 active torsions:
REMARK  status: ('A' for Active; 'I' for Inactive)
REMARK    1  A    between atoms: C_2  and  C_18 
REMARK    2  A    between atoms: N_3  and  N_4 
REMARK       I    between atoms: N_4  and  C_5 
REMARK    3  A    between atoms: C_5  and  C_7 
REMARK    4  A    between atoms: C_7  and  O_8 
REMARK    5  A    between atoms: O_8  and  C_9 
REMARK    6  A    between atoms: C_12  and  C_13 
REMARK    7  A    between atoms: C_22  and  O_23 
ROOT
ATOM      1  N   UNL d   1      30.627 -15.593   0.854  0.00  0.00    -0.245 N 
ATOM      2  C   UNL d   1      30.434 -15.560  -0.523  0.00  0.00     0.261 C 
ATOM      3  O   UNL d   1      30.920 -14.692  -1.257  0.00  0.00    -0.269 OA
ATOM      4  H   UNL d   1      30.100 -16.248   1.414  0.00  0.00     0.192 HD
ENDROOT
BRANCH   1   5
ATOM      5  N   UNL d   1      31.446 -14.667   1.474  0.00  0.00    -0.176 NA
ATOM      6  C   UNL d   1      31.068 -14.033   2.554  0.00  0.00     0.061 C 
ATOM      7  C   UNL d   1      31.996 -12.963   3.113  0.00  0.00     0.073 C 
BRANCH   6   8
ATOM      8  C   UNL d   1      29.786 -14.263   3.283  0.00  0.00    -0.008 C 
ATOM      9  C   UNL d   1      28.583 -14.056   2.600  0.00  0.00     0.013 C 
ATOM     10  C   UNL d   1      27.404 -13.863   3.311  0.00  0.00     0.004 C 
ATOM     11  C   UNL d   1      27.388 -14.066   4.688  0.00  0.00     0.036 C 
ATOM     12  C   UNL d   1      28.564 -14.421   5.345  0.00  0.00     0.066 C 
ATOM     13  C   UNL d   1      29.771 -14.513   4.657  0.00  0.00     0.050 C 
BRANCH  12  14
ATOM     14  O   UNL d   1      28.588 -14.627   6.692  0.00  0.00    -0.361 OA
ATOM     15  H   UNL d   1      28.715 -15.575   6.867  0.00  0.00     0.217 HD
ENDBRANCH  12  14
ENDBRANCH   6   8
ENDBRANCH   1   5
BRANCH   2  16
ATOM     16  C   UNL d   1      29.567 -16.717  -1.071  0.00  0.00     0.280 C 
BRANCH  16  17
ATOM     17  O   UNL d   1      28.793 -17.238   0.012  0.00  0.00    -0.342 OA
BRANCH  17  18
ATOM     18  C   UNL d   1      27.455 -17.404  -0.186  0.00  0.00     0.069 A 
ATOM     19  C   UNL d   1      26.864 -16.537  -1.106  0.00  0.00     0.037 A 
ATOM     20  C   UNL d   1      25.482 -16.548  -1.310  0.00  0.00     0.010 A 
ATOM     21  C   UNL d   1      24.672 -17.484  -0.651  0.00  0.00    -0.055 A 
ATOM     22  C   UNL d   1      25.278 -18.303   0.317  0.00  0.00     0.010 A 
ATOM     23  C   UNL d   1      26.655 -18.264   0.553  0.00  0.00     0.037 A 
BRANCH  21  24
ATOM     24  C   UNL d   1      23.206 -17.624  -1.043  0.00  0.00     0.010 C 
ATOM     25  C   UNL d   1      22.640 -18.949  -0.504  0.00  0.00     0.015 C 
ATOM     26  C   UNL d   1      22.328 -16.481  -0.519  0.00  0.00     0.015 C 
ENDBRANCH  21  24
ENDBRANCH  17  18
ENDBRANCH  16  17
ENDBRANCH   2  16
TORSDOF 7
ENDMDL
MODEL 7
REMARK VINA RESULT:    -6.977      1.559      2.550
REMARK INTER + INTRA:         -11.362
REMARK INTER:                  -9.065
REMARK INTRA:                  -2.297
REMARK CONF_INDEPENDENT:        2.088
REMARK UNBOUND:                -2.297
REMARK  7 active torsions:
REMARK  status: ('A' for Active; 'I' for Inactive)
REMARK    1  A    between atoms: C_2  and  C_18 
REMARK    2  A    between atoms: N_3  and  N_4 
REMARK       I    between atoms: N_4  and  C_5 
REMARK    3  A    between atoms: C_5  and  C_7 
REMARK    4  A    between atoms: C_7  and  O_8 
REMARK    5  A    between atoms: O_8  and  C_9 
REMARK    6  A    between atoms: C_12  and  C_13 
REMARK    7  A    between atoms: C_22  and  O_23 
ROOT
ATOM      1  N   UNL d   1      29.238 -16.028  -2.600  0.00  0.00    -0.245 N 
ATOM      2  C   UNL d   1      29.816 -17.070  -1.881  0.00  0.00     0.261 C 
ATOM      3  O   UNL d   1      30.549 -17.923  -2.394  0.00  0.00    -0.269 OA
ATOM      4  H   UNL d   1      28.548 -15.440  -2.154  0.00  0.00     0.192 HD
ENDROOT
BRANCH   1   5
ATOM      5  N   UNL d   1      29.515 -15.858  -3.944  0.00  0.00    -0.176 NA
ATOM      6  C   UNL d   1      28.701 -15.206  -4.734  0.00  0.00     0.061 C 
ATOM      7  C   UNL d   1      29.040 -15.153  -6.217  0.00  0.00     0.073 C 
BRANCH   6   8
ATOM      8  C   UNL d   1      27.450 -14.518  -4.302  0.00  0.00    -0.008 C 
ATOM      9  C   UNL d   1      26.466 -15.267  -3.649  0.00  0.00     0.013 C 
ATOM     10  C   UNL d   1      25.159 -14.797  -3.589  0.00  0.00     0.004 C 
ATOM     11  C   UNL d   1      24.872 -13.501  -4.007  0.00  0.00     0.036 C 
ATOM     12  C   UNL d   1      25.892 -12.703  -4.521  0.00  0.00     0.066 C 
ATOM     13  C   UNL d   1      27.182 -13.201  -4.683  0.00  0.00     0.050 C 
BRANCH  12  14
ATOM     14  O   UNL d   1      25.650 -11.429  -4.942  0.00  0.00    -0.361 OA
ATOM     15  H   UNL d   1      24.794 -11.404  -5.403  0.00  0.00     0.217 HD
ENDBRANCH  12  14
ENDBRANCH   6   8
ENDBRANCH   1   5
BRANCH   2  16
ATOM     16  C   UNL d   1      29.479 -17.065  -0.373  0.00  0.00     0.280 C 
BRANCH  16  17
ATOM     17  O   UNL d   1      28.401 -16.149  -0.165  0.00  0.00    -0.342 OA
BRANCH  17  18
ATOM     18  C   UNL d   1      27.131 -16.626  -0.283  0.00  0.00     0.069 A 
ATOM     19  C   UNL d   1      26.139 -15.670  -0.504  0.00  0.00     0.037 A 
ATOM     20  C   UNL d   1      24.790 -16.034  -0.535  0.00  0.00     0.010 A 
ATOM     21  C   UNL d   1      24.414 -17.380  -0.424  0.00  0.00    -0.055 A 
ATOM     22  C   UNL d   1      25.421 -18.317  -0.139  0.00  0.00     0.010 A 
ATOM     23  C   UNL d   1      26.767 -17.947  -0.064  0.00  0.00     0.037 A 
BRANCH  21  24
ATOM     24  C   UNL d   1      22.965 -17.784  -0.675  0.00  0.00     0.010 C 
ATOM     25  C   UNL d   1      22.909 -18.950  -1.676  0.00  0.00     0.015 C 
ATOM     26  C   UNL d   1      22.228 -18.210   0.600  0.00  0.00     0.015 C 
ENDBRANCH  21  24
ENDBRANCH  17  18
ENDBRANCH  16  17
ENDBRANCH   2  16
TORSDOF 7
ENDMDL
MODEL 8
REMARK VINA RESULT:    -6.851      2.273      7.353
REMARK INTER + INTRA:         -11.225
REMARK INTER:                  -8.939
REMARK INTRA:                  -2.286
REMARK CONF_INDEPENDENT:        2.088
REMARK UNBOUND:                -2.286
REMARK  7 active torsions:
REMARK  status: ('A' for Active; 'I' for Inactive)
REMARK    1  A    between atoms: C_2  and  C_18 
REMARK    2  A    between atoms: N_3  and  N_4 
REMARK       I    between atoms: N_4  and  C_5 
REMARK    3  A    between atoms: C_5  and  C_7 
REMARK    4  A    between atoms: C_7  and  O_8 
REMARK    5  A    between atoms: O_8  and  C_9 
REMARK    6  A    between atoms: C_12  and  C_13 
REMARK    7  A    between atoms: C_22  and  O_23 
ROOT
ATOM      1  N   UNL d   1      25.971 -15.576  -3.441  0.00  0.00    -0.245 N 
ATOM      2  C   UNL d   1      25.665 -14.484  -4.248  0.00  0.00     0.261 C 
ATOM      3  O   UNL d   1      24.512 -14.076  -4.429  0.00  0.00    -0.269 OA
ATOM      4  H   UNL d   1      26.913 -15.940  -3.435  0.00  0.00     0.192 HD
ENDROOT
BRANCH   1   5
ATOM      5  N   UNL d   1      24.979 -16.233  -2.736  0.00  0.00    -0.176 NA
ATOM      6  C   UNL d   1      25.182 -16.680  -1.524  0.00  0.00     0.061 C 
ATOM      7  C   UNL d   1      24.064 -17.474  -0.862  0.00  0.00     0.073 C 
BRANCH   6   8
ATOM      8  C   UNL d   1      26.433 -16.488  -0.734  0.00  0.00    -0.008 C 
ATOM      9  C   UNL d   1      26.582 -15.311   0.007  0.00  0.00     0.013 C 
ATOM     10  C   UNL d   1      27.845 -14.903   0.419  0.00  0.00     0.004 C 
ATOM     11  C   UNL d   1      28.932 -15.759   0.262  0.00  0.00     0.036 C 
ATOM     12  C   UNL d   1      28.747 -17.000  -0.345  0.00  0.00     0.066 C 
ATOM     13  C   UNL d   1      27.507 -17.372  -0.857  0.00  0.00     0.050 C 
BRANCH  12  14
ATOM     14  O   UNL d   1      29.787 -17.865  -0.518  0.00  0.00    -0.361 OA
ATOM     15  H   UNL d   1      30.071 -18.198   0.350  0.00  0.00     0.217 HD
ENDBRANCH  12  14
ENDBRANCH   6   8
ENDBRANCH   1   5
BRANCH   2  16
ATOM     16  C   UNL d   1      26.895 -13.807  -4.893  0.00  0.00     0.280 C 
BRANCH  16  17
ATOM     17  O   UNL d   1      28.061 -14.255  -4.197  0.00  0.00    -0.342 OA
BRANCH  17  18
ATOM     18  C   UNL d   1      28.786 -15.263  -4.757  0.00  0.00     0.069 A 
ATOM     19  C   UNL d   1      29.206 -16.268  -3.884  0.00  0.00     0.037 A 
ATOM     20  C   UNL d   1      30.043 -17.295  -4.328  0.00  0.00     0.010 A 
ATOM     21  C   UNL d   1      30.412 -17.378  -5.678  0.00  0.00    -0.055 A 
ATOM     22  C   UNL d   1      30.031 -16.324  -6.525  0.00  0.00     0.010 A 
ATOM     23  C   UNL d   1      29.229 -15.272  -6.071  0.00  0.00     0.037 A 
BRANCH  21  24
ATOM     24  C   UNL d   1      31.144 -18.615  -6.187  0.00  0.00     0.010 C 
ATOM     25  C   UNL d   1      30.527 -19.882  -5.571  0.00  0.00     0.015 C 
ATOM     26  C   UNL d   1      31.104 -18.756  -7.713  0.00  0.00     0.015 C 
ENDBRANCH  21  24
ENDBRANCH  17  18
ENDBRANCH  16  17
ENDBRANCH   2  16
TORSDOF 7
ENDMDL
MODEL 9
REMARK VINA RESULT:    -6.804      1.952      3.125
REMARK INTER + INTRA:         -11.351
REMARK INTER:                  -8.892
REMARK INTRA:                  -2.459
REMARK CONF_INDEPENDENT:        2.088
REMARK UNBOUND:                -2.459
REMARK  7 active torsions:
REMARK  status: ('A' for Active; 'I' for Inactive)
REMARK    1  A    between atoms: C_2  and  C_18 
REMARK    2  A    between atoms: N_3  and  N_4 
REMARK       I    between atoms: N_4  and  C_5 
REMARK    3  A    between atoms: C_5  and  C_7 
REMARK    4  A    between atoms: C_7  and  O_8 
REMARK    5  A    between atoms: O_8  and  C_9 
REMARK    6  A    between atoms: C_12  and  C_13 
REMARK    7  A    between atoms: C_22  and  O_23 
ROOT
ATOM      1  N   UNL d   1      29.119 -13.771  -1.142  0.00  0.00    -0.245 N 
ATOM      2  C   UNL d   1      28.990 -13.905   0.237  0.00  0.00     0.261 C 
ATOM      3  O   UNL d   1      28.795 -12.950   0.997  0.00  0.00    -0.269 OA
ATOM      4  H   UNL d   1      29.405 -14.568  -1.693  0.00  0.00     0.192 HD
ENDROOT
BRANCH   1   5
ATOM      5  N   UNL d   1      28.967 -12.538  -1.748  0.00  0.00    -0.176 NA
ATOM      6  C   UNL d   1      28.206 -12.382  -2.800  0.00  0.00     0.061 C 
ATOM      7  C   UNL d   1      28.175 -11.009  -3.458  0.00  0.00     0.073 C 
BRANCH   6   8
ATOM      8  C   UNL d   1      27.370 -13.448  -3.424  0.00  0.00    -0.008 C 
ATOM      9  C   UNL d   1      28.007 -14.451  -4.163  0.00  0.00     0.013 C 
ATOM     10  C   UNL d   1      27.283 -15.210  -5.074  0.00  0.00     0.004 C 
ATOM     11  C   UNL d   1      25.895 -15.105  -5.111  0.00  0.00     0.036 C 
ATOM     12  C   UNL d   1      25.251 -14.207  -4.262  0.00  0.00     0.066 C 
ATOM     13  C   UNL d   1      25.975 -13.367  -3.422  0.00  0.00     0.050 C 
BRANCH  12  14
ATOM     14  O   UNL d   1      23.894 -14.075  -4.271  0.00  0.00    -0.361 OA
ATOM     15  H   UNL d   1      23.649 -13.346  -4.866  0.00  0.00     0.217 HD
ENDBRANCH  12  14
ENDBRANCH   6   8
ENDBRANCH   1   5
BRANCH   2  16
ATOM     16  C   UNL d   1      29.096 -15.361   0.747  0.00  0.00     0.280 C 
BRANCH  16  17
ATOM     17  O   UNL d   1      28.794 -16.233  -0.345  0.00  0.00    -0.342 OA
BRANCH  17  18
ATOM     18  C   UNL d   1      27.485 -16.536  -0.572  0.00  0.00     0.069 A 
ATOM     19  C   UNL d   1      26.887 -17.387   0.358  0.00  0.00     0.037 A 
ATOM     20  C   UNL d   1      25.582 -17.848   0.167  0.00  0.00     0.010 A 
ATOM     21  C   UNL d   1      24.821 -17.401  -0.923  0.00  0.00    -0.055 A 
ATOM     22  C   UNL d   1      25.463 -16.596  -1.879  0.00  0.00     0.010 A 
ATOM     23  C   UNL d   1      26.783 -16.169  -1.711  0.00  0.00     0.037 A 
BRANCH  21  24
ATOM     24  C   UNL d   1      23.337 -17.741  -0.999  0.00  0.00     0.010 C 
ATOM     25  C   UNL d   1      23.038 -18.986  -0.146  0.00  0.00     0.015 C 
ATOM     26  C   UNL d   1      22.431 -16.602  -0.519  0.00  0.00     0.015 C 
ENDBRANCH  21  24
ENDBRANCH  17  18
ENDBRANCH  16  17
ENDBRANCH   2  16
TORSDOF 7
ENDMDL
