MODEL 1
REMARK VINA RESULT:    -9.006      0.000      0.000
REMARK INTER + INTRA:         -11.258
REMARK INTER:                 -10.498
REMARK INTRA:                  -0.760
REMARK CONF_INDEPENDENT:        1.492
REMARK UNBOUND:                -0.760
REMARK  5 active torsions:
REMARK  status: ('A' for Active; 'I' for Inactive)
REMARK       I    between atoms: N_1  and  C_2 
REMARK    1  A    between atoms: C_2  and  C_4 
REMARK    2  A    between atoms: C_7  and  C_8 
REMARK       I    between atoms: C_8  and  N_10 
REMARK    3  A    between atoms: N_10  and  C_11 
REMARK    4  A    between atoms: C_15  and  O_16 
REMARK    5  A    between atoms: O_16  and  C_17 
ROOT
ATOM      1  C   UNL d   1      22.847 -17.698  -0.458  0.00  0.00     0.256 C 
ATOM      2  O   UNL d   1      22.728 -16.557  -0.901  0.00  0.00    -0.267 OA
ATOM      3  N   UNL d   1      24.071 -18.297  -0.176  0.00  0.00    -0.323 N 
ATOM      4  H   UNL d   1      24.127 -19.286   0.006  0.00  0.00     0.169 HD
ENDROOT
BRANCH   3   5
ATOM      5  C   UNL d   1      25.303 -17.625  -0.328  0.00  0.00     0.037 A 
ATOM      6  C   UNL d   1      26.450 -18.125   0.288  0.00  0.00     0.029 A 
ATOM      7  C   UNL d   1      27.664 -17.439   0.171  0.00  0.00     0.005 A 
ATOM      8  C   UNL d   1      27.733 -16.251  -0.563  0.00  0.00     0.037 A 
ATOM      9  C   UNL d   1      26.580 -15.733  -1.158  0.00  0.00     0.078 A 
ATOM     10  C   UNL d   1      25.382 -16.442  -1.056  0.00  0.00     0.066 A 
BRANCH   9  11
ATOM     11  O   UNL d   1      26.714 -14.547  -1.848  0.00  0.00    -0.311 OA
BRANCH  11  12
ATOM     12  C   UNL d   1      27.156 -14.576  -3.153  0.00  0.00     0.076 A 
ATOM     13  C   UNL d   1      26.260 -15.037  -4.116  0.00  0.00     0.037 A 
ATOM     14  C   UNL d   1      26.677 -15.183  -5.440  0.00  0.00     0.003 A 
ATOM     15  C   UNL d   1      27.960 -14.787  -5.819  0.00  0.00     0.000 A 
ATOM     16  C   UNL d   1      28.851 -14.303  -4.863  0.00  0.00     0.003 A 
ATOM     17  C   UNL d   1      28.463 -14.237  -3.525  0.00  0.00     0.037 A 
ENDBRANCH  11  12
ENDBRANCH   9  11
ENDBRANCH   3   5
BRANCH   1  18
ATOM     18  C   UNL d   1      21.596 -18.495  -0.238  0.00  0.00     0.032 A 
ATOM     19  C   UNL d   1      21.340 -18.953   1.068  0.00  0.00     0.018 A 
ATOM     20  C   UNL d   1      20.277 -19.824   1.333  0.00  0.00     0.018 A 
ATOM     21  C   UNL d   1      19.411 -20.199   0.304  0.00  0.00     0.031 A 
ATOM     22  C   UNL d   1      19.616 -19.704  -0.987  0.00  0.00     0.018 A 
ATOM     23  C   UNL d   1      20.705 -18.857  -1.257  0.00  0.00     0.018 A 
BRANCH  21  24
ATOM     24  C   UNL d   1      18.242 -21.047   0.634  0.00  0.00     0.249 C 
ATOM     25  N   UNL d   1      17.283 -21.200  -0.324  0.00  0.00    -0.366 N 
ATOM     26  H   UNL d   1      16.531 -21.848  -0.118  0.00  0.00     0.159 HD
ATOM     27  H   UNL d   1      17.390 -20.883  -1.277  0.00  0.00     0.159 HD
ATOM     28  O   UNL d   1      18.151 -21.606   1.725  0.00  0.00    -0.268 OA
ENDBRANCH  21  24
ENDBRANCH   1  18
TORSDOF 5
ENDMDL
MODEL 2
REMARK VINA RESULT:    -8.914      1.078      1.681
REMARK INTER + INTRA:         -11.364
REMARK INTER:                 -10.405
REMARK INTRA:                  -0.959
REMARK CONF_INDEPENDENT:        1.492
REMARK UNBOUND:                -0.959
REMARK  5 active torsions:
REMARK  status: ('A' for Active; 'I' for Inactive)
REMARK       I    between atoms: N_1  and  C_2 
REMARK    1  A    between atoms: C_2  and  C_4 
REMARK    2  A    between atoms: C_7  and  C_8 
REMARK       I    between atoms: C_8  and  N_10 
REMARK    3  A    between atoms: N_10  and  C_11 
REMARK    4  A    between atoms: C_15  and  O_16 
REMARK    5  A    between atoms: O_16  and  C_17 
ROOT
ATOM      1  C   UNL d   1      22.879 -17.750  -0.486  0.00  0.00     0.256 C 
ATOM      2  O   UNL d   1      22.784 -16.589  -0.880  0.00  0.00    -0.267 OA
ATOM      3  N   UNL d   1      24.091 -18.398  -0.269  0.00  0.00    -0.323 N 
ATOM      4  H   UNL d   1      24.120 -19.395  -0.128  0.00  0.00     0.169 HD
ENDROOT
BRANCH   3   5
ATOM      5  C   UNL d   1      25.339 -17.761  -0.437  0.00  0.00     0.037 A 
ATOM      6  C   UNL d   1      26.249 -17.722   0.618  0.00  0.00     0.029 A 
ATOM      7  C   UNL d   1      27.470 -17.055   0.467  0.00  0.00     0.005 A 
ATOM      8  C   UNL d   1      27.784 -16.427  -0.742  0.00  0.00     0.037 A 
ATOM      9  C   UNL d   1      26.862 -16.441  -1.793  0.00  0.00     0.078 A 
ATOM     10  C   UNL d   1      25.660 -17.133  -1.637  0.00  0.00     0.066 A 
BRANCH   9  11
ATOM     11  O   UNL d   1      27.226 -15.784  -2.949  0.00  0.00    -0.311 OA
BRANCH  11  12
ATOM     12  C   UNL d   1      26.669 -14.554  -3.226  0.00  0.00     0.076 A 
ATOM     13  C   UNL d   1      27.089 -13.478  -2.446  0.00  0.00     0.037 A 
ATOM     14  C   UNL d   1      26.493 -12.227  -2.611  0.00  0.00     0.003 A 
ATOM     15  C   UNL d   1      25.540 -12.030  -3.612  0.00  0.00     0.000 A 
ATOM     16  C   UNL d   1      25.136 -13.098  -4.409  0.00  0.00     0.003 A 
ATOM     17  C   UNL d   1      25.669 -14.369  -4.189  0.00  0.00     0.037 A 
ENDBRANCH  11  12
ENDBRANCH   9  11
ENDBRANCH   3   5
BRANCH   1  18
ATOM     18  C   UNL d   1      21.609 -18.515  -0.254  0.00  0.00     0.032 A 
ATOM     19  C   UNL d   1      21.345 -18.950   1.057  0.00  0.00     0.018 A 
ATOM     20  C   UNL d   1      20.262 -19.793   1.335  0.00  0.00     0.018 A 
ATOM     21  C   UNL d   1      19.387 -20.161   0.311  0.00  0.00     0.031 A 
ATOM     22  C   UNL d   1      19.602 -19.687  -0.987  0.00  0.00     0.018 A 
ATOM     23  C   UNL d   1      20.709 -18.869  -1.269  0.00  0.00     0.018 A 
BRANCH  21  24
ATOM     24  C   UNL d   1      18.199 -20.978   0.653  0.00  0.00     0.249 C 
ATOM     25  N   UNL d   1      17.282 -21.200  -0.332  0.00  0.00    -0.366 N 
ATOM     26  H   UNL d   1      16.517 -21.828  -0.110  0.00  0.00     0.159 HD
ATOM     27  H   UNL d   1      17.432 -20.957  -1.301  0.00  0.00     0.159 HD
ATOM     28  O   UNL d   1      18.057 -21.451   1.778  0.00  0.00    -0.268 OA
ENDBRANCH  21  24
ENDBRANCH   1  18
TORSDOF 5
ENDMDL
MODEL 3
REMARK VINA RESULT:    -8.841      1.537      2.108
REMARK INTER + INTRA:         -11.236
REMARK INTER:                 -10.332
REMARK INTRA:                  -0.904
REMARK CONF_INDEPENDENT:        1.492
REMARK UNBOUND:                -0.904
REMARK  5 active torsions:
REMARK  status: ('A' for Active; 'I' for Inactive)
REMARK       I    between atoms: N_1  and  C_2 
REMARK    1  A    between atoms: C_2  and  C_4 
REMARK    2  A    between atoms: C_7  and  C_8 
REMARK       I    between atoms: C_8  and  N_10 
REMARK    3  A    between atoms: N_10  and  C_11 
REMARK    4  A    between atoms: C_15  and  O_16 
REMARK    5  A    between atoms: O_16  and  C_17 
ROOT
ATOM      1  C   UNL d   1      22.641 -17.545  -0.693  0.00  0.00     0.256 C 
ATOM      2  O   UNL d   1      22.327 -16.366  -0.849  0.00  0.00    -0.267 OA
ATOM      3  N   UNL d   1      23.924 -18.041  -0.903  0.00  0.00    -0.323 N 
ATOM      4  H   UNL d   1      24.089 -19.033  -0.943  0.00  0.00     0.169 HD
ENDROOT
BRANCH   3   5
ATOM      5  C   UNL d   1      25.010 -17.218  -1.272  0.00  0.00     0.037 A 
ATOM      6  C   UNL d   1      25.993 -16.900  -0.337  0.00  0.00     0.029 A 
ATOM      7  C   UNL d   1      27.048 -16.051  -0.690  0.00  0.00     0.005 A 
ATOM      8  C   UNL d   1      27.123 -15.521  -1.982  0.00  0.00     0.037 A 
ATOM      9  C   UNL d   1      26.125 -15.817  -2.913  0.00  0.00     0.078 A 
ATOM     10  C   UNL d   1      25.092 -16.686  -2.555  0.00  0.00     0.066 A 
BRANCH   9  11
ATOM     11  O   UNL d   1      26.248 -15.243  -4.161  0.00  0.00    -0.311 OA
BRANCH  11  12
ATOM     12  C   UNL d   1      26.244 -13.869  -4.272  0.00  0.00     0.076 A 
ATOM     13  C   UNL d   1      27.086 -13.309  -5.231  0.00  0.00     0.037 A 
ATOM     14  C   UNL d   1      27.202 -11.921  -5.328  0.00  0.00     0.003 A 
ATOM     15  C   UNL d   1      26.414 -11.094  -4.527  0.00  0.00     0.000 A 
ATOM     16  C   UNL d   1      25.554 -11.651  -3.584  0.00  0.00     0.003 A 
ATOM     17  C   UNL d   1      25.500 -13.037  -3.427  0.00  0.00     0.037 A 
ENDBRANCH  11  12
ENDBRANCH   9  11
ENDBRANCH   3   5
BRANCH   1  18
ATOM     18  C   UNL d   1      21.565 -18.505  -0.278  0.00  0.00     0.032 A 
ATOM     19  C   UNL d   1      20.660 -18.932  -1.268  0.00  0.00     0.018 A 
ATOM     20  C   UNL d   1      19.542 -19.707  -0.940  0.00  0.00     0.018 A 
ATOM     21  C   UNL d   1      19.348 -20.125   0.378  0.00  0.00     0.031 A 
ATOM     22  C   UNL d   1      20.272 -19.760   1.362  0.00  0.00     0.018 A 
ATOM     23  C   UNL d   1      21.375 -18.953   1.036  0.00  0.00     0.018 A 
BRANCH  21  24
ATOM     24  C   UNL d   1      18.207 -21.022   0.678  0.00  0.00     0.249 C 
ATOM     25  N   UNL d   1      17.279 -21.211  -0.302  0.00  0.00    -0.366 N 
ATOM     26  H   UNL d   1      16.549 -21.890  -0.116  0.00  0.00     0.159 HD
ATOM     27  H   UNL d   1      17.395 -20.887  -1.252  0.00  0.00     0.159 HD
ATOM     28  O   UNL d   1      18.114 -21.587   1.766  0.00  0.00    -0.268 OA
ENDBRANCH  21  24
ENDBRANCH   1  18
TORSDOF 5
ENDMDL
MODEL 4
REMARK VINA RESULT:    -8.340      3.534      5.527
REMARK INTER + INTRA:         -10.730
REMARK INTER:                  -9.832
REMARK INTRA:                  -0.898
REMARK CONF_INDEPENDENT:        1.492
REMARK UNBOUND:                -0.898
REMARK  5 active torsions:
REMARK  status: ('A' for Active; 'I' for Inactive)
REMARK       I    between atoms: N_1  and  C_2 
REMARK    1  A    between atoms: C_2  and  C_4 
REMARK    2  A    between atoms: C_7  and  C_8 
REMARK       I    between atoms: C_8  and  N_10 
REMARK    3  A    between atoms: N_10  and  C_11 
REMARK    4  A    between atoms: C_15  and  O_16 
REMARK    5  A    between atoms: O_16  and  C_17 
ROOT
ATOM      1  C   UNL d   1      25.485 -16.508  -0.491  0.00  0.00     0.256 C 
ATOM      2  O   UNL d   1      25.457 -15.312  -0.777  0.00  0.00    -0.267 OA
ATOM      3  N   UNL d   1      26.628 -17.178  -0.067  0.00  0.00    -0.323 N 
ATOM      4  H   UNL d   1      26.647 -18.184  -0.025  0.00  0.00     0.169 HD
ENDROOT
BRANCH   3   5
ATOM      5  C   UNL d   1      27.867 -16.529   0.124  0.00  0.00     0.037 A 
ATOM      6  C   UNL d   1      29.008 -17.002  -0.523  0.00  0.00     0.029 A 
ATOM      7  C   UNL d   1      30.245 -16.384  -0.303  0.00  0.00     0.005 A 
ATOM      8  C   UNL d   1      30.342 -15.292   0.564  0.00  0.00     0.037 A 
ATOM      9  C   UNL d   1      29.205 -14.833   1.234  0.00  0.00     0.078 A 
ATOM     10  C   UNL d   1      27.973 -15.441   0.985  0.00  0.00     0.066 A 
BRANCH   9  11
ATOM     11  O   UNL d   1      29.375 -13.766   2.091  0.00  0.00    -0.311 OA
BRANCH  11  12
ATOM     12  C   UNL d   1      29.130 -13.939   3.436  0.00  0.00     0.076 A 
ATOM     13  C   UNL d   1      27.846 -13.642   3.889  0.00  0.00     0.037 A 
ATOM     14  C   UNL d   1      27.560 -13.703   5.254  0.00  0.00     0.003 A 
ATOM     15  C   UNL d   1      28.530 -14.143   6.156  0.00  0.00     0.000 A 
ATOM     16  C   UNL d   1      29.808 -14.463   5.703  0.00  0.00     0.003 A 
ATOM     17  C   UNL d   1      30.120 -14.321   4.350  0.00  0.00     0.037 A 
ENDBRANCH  11  12
ENDBRANCH   9  11
ENDBRANCH   3   5
BRANCH   1  18
ATOM     18  C   UNL d   1      24.213 -17.291  -0.638  0.00  0.00     0.032 A 
ATOM     19  C   UNL d   1      23.033 -16.568  -0.890  0.00  0.00     0.018 A 
ATOM     20  C   UNL d   1      21.785 -17.202  -0.895  0.00  0.00     0.018 A 
ATOM     21  C   UNL d   1      21.705 -18.584  -0.713  0.00  0.00     0.031 A 
ATOM     22  C   UNL d   1      22.876 -19.325  -0.523  0.00  0.00     0.018 A 
ATOM     23  C   UNL d   1      24.125 -18.681  -0.484  0.00  0.00     0.018 A 
BRANCH  21  24
ATOM     24  C   UNL d   1      20.380 -19.239  -0.816  0.00  0.00     0.249 C 
ATOM     25  N   UNL d   1      19.283 -18.434  -0.895  0.00  0.00    -0.366 N 
ATOM     26  H   UNL d   1      18.391 -18.891  -1.048  0.00  0.00     0.159 HD
ATOM     27  H   UNL d   1      19.332 -17.432  -1.021  0.00  0.00     0.159 HD
ATOM     28  O   UNL d   1      20.279 -20.464  -0.847  0.00  0.00    -0.268 OA
ENDBRANCH  21  24
ENDBRANCH   1  18
TORSDOF 5
ENDMDL
MODEL 5
REMARK VINA RESULT:    -8.298      3.458      5.512
REMARK INTER + INTRA:         -10.669
REMARK INTER:                  -9.790
REMARK INTRA:                  -0.879
REMARK CONF_INDEPENDENT:        1.492
REMARK UNBOUND:                -0.879
REMARK  5 active torsions:
REMARK  status: ('A' for Active; 'I' for Inactive)
REMARK       I    between atoms: N_1  and  C_2 
REMARK    1  A    between atoms: C_2  and  C_4 
REMARK    2  A    between atoms: C_7  and  C_8 
REMARK       I    between atoms: C_8  and  N_10 
REMARK    3  A    between atoms: N_10  and  C_11 
REMARK    4  A    between atoms: C_15  and  O_16 
REMARK    5  A    between atoms: O_16  and  C_17 
ROOT
ATOM      1  C   UNL d   1      25.524 -16.442  -0.692  0.00  0.00     0.256 C 
ATOM      2  O   UNL d   1      25.542 -15.389  -1.327  0.00  0.00    -0.267 OA
ATOM      3  N   UNL d   1      26.635 -16.978  -0.048  0.00  0.00    -0.323 N 
ATOM      4  H   UNL d   1      26.620 -17.924   0.297  0.00  0.00     0.169 HD
ENDROOT
BRANCH   3   5
ATOM      5  C   UNL d   1      27.889 -16.331  -0.021  0.00  0.00     0.037 A 
ATOM      6  C   UNL d   1      28.878 -16.690  -0.935  0.00  0.00     0.029 A 
ATOM      7  C   UNL d   1      30.136 -16.078  -0.883  0.00  0.00     0.005 A 
ATOM      8  C   UNL d   1      30.405 -15.103   0.083  0.00  0.00     0.037 A 
ATOM      9  C   UNL d   1      29.424 -14.761   1.017  0.00  0.00     0.078 A 
ATOM     10  C   UNL d   1      28.166 -15.360   0.937  0.00  0.00     0.066 A 
BRANCH   9  11
ATOM     11  O   UNL d   1      29.763 -13.808   1.955  0.00  0.00    -0.311 OA
BRANCH  11  12
ATOM     12  C   UNL d   1      29.282 -13.931   3.241  0.00  0.00     0.076 A 
ATOM     13  C   UNL d   1      30.154 -14.451   4.196  0.00  0.00     0.037 A 
ATOM     14  C   UNL d   1      29.699 -14.692   5.494  0.00  0.00     0.003 A 
ATOM     15  C   UNL d   1      28.400 -14.334   5.859  0.00  0.00     0.000 A 
ATOM     16  C   UNL d   1      27.534 -13.792   4.912  0.00  0.00     0.003 A 
ATOM     17  C   UNL d   1      27.961 -13.630   3.594  0.00  0.00     0.037 A 
ENDBRANCH  11  12
ENDBRANCH   9  11
ENDBRANCH   3   5
BRANCH   1  18
ATOM     18  C   UNL d   1      24.233 -17.203  -0.639  0.00  0.00     0.032 A 
ATOM     19  C   UNL d   1      24.307 -18.592  -0.422  0.00  0.00     0.018 A 
ATOM     20  C   UNL d   1      23.165 -19.398  -0.503  0.00  0.00     0.018 A 
ATOM     21  C   UNL d   1      21.918 -18.816  -0.738  0.00  0.00     0.031 A 
ATOM     22  C   UNL d   1      21.820 -17.430  -0.894  0.00  0.00     0.018 A 
ATOM     23  C   UNL d   1      22.972 -16.627  -0.846  0.00  0.00     0.018 A 
BRANCH  21  24
ATOM     24  C   UNL d   1      20.717 -19.683  -0.727  0.00  0.00     0.249 C 
ATOM     25  N   UNL d   1      20.498 -20.444   0.383  0.00  0.00    -0.366 N 
ATOM     26  H   UNL d   1      19.631 -20.969   0.414  0.00  0.00     0.159 HD
ATOM     27  H   UNL d   1      21.027 -20.350   1.239  0.00  0.00     0.159 HD
ATOM     28  O   UNL d   1      19.938 -19.700  -1.678  0.00  0.00    -0.268 OA
ENDBRANCH  21  24
ENDBRANCH   1  18
TORSDOF 5
ENDMDL
MODEL 6
REMARK VINA RESULT:    -8.228      5.920      9.323
REMARK INTER + INTRA:         -10.618
REMARK INTER:                  -9.719
REMARK INTRA:                  -0.899
REMARK CONF_INDEPENDENT:        1.492
REMARK UNBOUND:                -0.899
REMARK  5 active torsions:
REMARK  status: ('A' for Active; 'I' for Inactive)
REMARK       I    between atoms: N_1  and  C_2 
REMARK    1  A    between atoms: C_2  and  C_4 
REMARK    2  A    between atoms: C_7  and  C_8 
REMARK       I    between atoms: C_8  and  N_10 
REMARK    3  A    between atoms: N_10  and  C_11 
REMARK    4  A    between atoms: C_15  and  O_16 
REMARK    5  A    between atoms: O_16  and  C_17 
ROOT
ATOM      1  C   UNL d   1      27.783 -13.453   3.372  0.00  0.00     0.256 C 
ATOM      2  O   UNL d   1      26.965 -12.717   2.821  0.00  0.00    -0.267 OA
ATOM      3  N   UNL d   1      28.373 -14.552   2.757  0.00  0.00    -0.323 N 
ATOM      4  H   UNL d   1      28.888 -15.227   3.300  0.00  0.00     0.169 HD
ENDROOT
BRANCH   3   5
ATOM      5  C   UNL d   1      28.123 -14.902   1.413  0.00  0.00     0.037 A 
ATOM      6  C   UNL d   1      28.562 -14.070   0.383  0.00  0.00     0.029 A 
ATOM      7  C   UNL d   1      28.279 -14.394  -0.949  0.00  0.00     0.005 A 
ATOM      8  C   UNL d   1      27.559 -15.553  -1.253  0.00  0.00     0.037 A 
ATOM      9  C   UNL d   1      27.095 -16.374  -0.223  0.00  0.00     0.078 A 
ATOM     10  C   UNL d   1      27.407 -16.053   1.100  0.00  0.00     0.066 A 
BRANCH   9  11
ATOM     11  O   UNL d   1      26.372 -17.489  -0.592  0.00  0.00    -0.311 OA
BRANCH  11  12
ATOM     12  C   UNL d   1      24.996 -17.442  -0.547  0.00  0.00     0.076 A 
ATOM     13  C   UNL d   1      24.334 -18.610  -0.169  0.00  0.00     0.037 A 
ATOM     14  C   UNL d   1      22.939 -18.658  -0.197  0.00  0.00     0.003 A 
ATOM     15  C   UNL d   1      22.204 -17.516  -0.518  0.00  0.00     0.000 A 
ATOM     16  C   UNL d   1      22.863 -16.340  -0.873  0.00  0.00     0.003 A 
ATOM     17  C   UNL d   1      24.257 -16.315  -0.928  0.00  0.00     0.037 A 
ENDBRANCH  11  12
ENDBRANCH   9  11
ENDBRANCH   3   5
BRANCH   1  18
ATOM     18  C   UNL d   1      28.137 -13.158   4.799  0.00  0.00     0.032 A 
ATOM     19  C   UNL d   1      28.687 -14.206   5.560  0.00  0.00     0.018 A 
ATOM     20  C   UNL d   1      28.909 -14.061   6.935  0.00  0.00     0.018 A 
ATOM     21  C   UNL d   1      28.646 -12.840   7.558  0.00  0.00     0.031 A 
ATOM     22  C   UNL d   1      28.157 -11.770   6.802  0.00  0.00     0.018 A 
ATOM     23  C   UNL d   1      27.902 -11.929   5.429  0.00  0.00     0.018 A 
BRANCH  21  24
ATOM     24  C   UNL d   1      28.978 -12.689   8.994  0.00  0.00     0.249 C 
ATOM     25  N   UNL d   1      28.693 -11.495   9.585  0.00  0.00    -0.366 N 
ATOM     26  H   UNL d   1      28.848 -11.432  10.585  0.00  0.00     0.159 HD
ATOM     27  H   UNL d   1      28.153 -10.766   9.141  0.00  0.00     0.159 HD
ATOM     28  O   UNL d   1      29.476 -13.616   9.630  0.00  0.00    -0.268 OA
ENDBRANCH  21  24
ENDBRANCH   1  18
TORSDOF 5
ENDMDL
MODEL 7
REMARK VINA RESULT:    -8.081      2.187      3.827
REMARK INTER + INTRA:         -10.454
REMARK INTER:                  -9.572
REMARK INTRA:                  -0.882
REMARK CONF_INDEPENDENT:        1.492
REMARK UNBOUND:                -0.882
REMARK  5 active torsions:
REMARK  status: ('A' for Active; 'I' for Inactive)
REMARK       I    between atoms: N_1  and  C_2 
REMARK    1  A    between atoms: C_2  and  C_4 
REMARK    2  A    between atoms: C_7  and  C_8 
REMARK       I    between atoms: C_8  and  N_10 
REMARK    3  A    between atoms: N_10  and  C_11 
REMARK    4  A    between atoms: C_15  and  O_16 
REMARK    5  A    between atoms: O_16  and  C_17 
ROOT
ATOM      1  C   UNL d   1      22.692 -17.562  -0.347  0.00  0.00     0.256 C 
ATOM      2  O   UNL d   1      22.367 -16.377  -0.385  0.00  0.00    -0.267 OA
ATOM      3  N   UNL d   1      23.977 -18.023  -0.622  0.00  0.00    -0.323 N 
ATOM      4  H   UNL d   1      24.150 -19.005  -0.760  0.00  0.00     0.169 HD
ENDROOT
BRANCH   3   5
ATOM      5  C   UNL d   1      25.050 -17.158  -0.926  0.00  0.00     0.037 A 
ATOM      6  C   UNL d   1      25.173 -16.624  -2.207  0.00  0.00     0.029 A 
ATOM      7  C   UNL d   1      26.259 -15.798  -2.522  0.00  0.00     0.005 A 
ATOM      8  C   UNL d   1      27.223 -15.505  -1.553  0.00  0.00     0.037 A 
ATOM      9  C   UNL d   1      27.117 -16.061  -0.276  0.00  0.00     0.078 A 
ATOM     10  C   UNL d   1      26.015 -16.861   0.032  0.00  0.00     0.066 A 
BRANCH   9  11
ATOM     11  O   UNL d   1      28.114 -15.748   0.624  0.00  0.00    -0.311 OA
BRANCH  11  12
ATOM     12  C   UNL d   1      27.936 -14.683   1.480  0.00  0.00     0.076 A 
ATOM     13  C   UNL d   1      26.933 -13.771   1.156  0.00  0.00     0.037 A 
ATOM     14  C   UNL d   1      26.766 -12.619   1.928  0.00  0.00     0.003 A 
ATOM     15  C   UNL d   1      27.543 -12.421   3.070  0.00  0.00     0.000 A 
ATOM     16  C   UNL d   1      28.531 -13.343   3.409  0.00  0.00     0.003 A 
ATOM     17  C   UNL d   1      28.756 -14.451   2.592  0.00  0.00     0.037 A 
ENDBRANCH  11  12
ENDBRANCH   9  11
ENDBRANCH   3   5
BRANCH   1  18
ATOM     18  C   UNL d   1      21.631 -18.568  -0.012  0.00  0.00     0.032 A 
ATOM     19  C   UNL d   1      20.893 -19.111  -1.080  0.00  0.00     0.018 A 
ATOM     20  C   UNL d   1      19.790 -19.941  -0.847  0.00  0.00     0.018 A 
ATOM     21  C   UNL d   1      19.448 -20.295   0.459  0.00  0.00     0.031 A 
ATOM     22  C   UNL d   1      20.210 -19.812   1.528  0.00  0.00     0.018 A 
ATOM     23  C   UNL d   1      21.296 -18.951   1.293  0.00  0.00     0.018 A 
BRANCH  21  24
ATOM     24  C   UNL d   1      18.334 -21.249   0.669  0.00  0.00     0.249 C 
ATOM     25  N   UNL d   1      17.319 -21.243  -0.242  0.00  0.00    -0.366 N 
ATOM     26  H   UNL d   1      16.605 -21.955  -0.135  0.00  0.00     0.159 HD
ATOM     27  H   UNL d   1      17.350 -20.728  -1.111  0.00  0.00     0.159 HD
ATOM     28  O   UNL d   1      18.337 -22.028   1.620  0.00  0.00    -0.268 OA
ENDBRANCH  21  24
ENDBRANCH   1  18
TORSDOF 5
ENDMDL
MODEL 8
REMARK VINA RESULT:    -7.533      2.774      3.693
REMARK INTER + INTRA:          -9.864
REMARK INTER:                  -9.025
REMARK INTRA:                  -0.839
REMARK CONF_INDEPENDENT:        1.492
REMARK UNBOUND:                -0.839
REMARK  5 active torsions:
REMARK  status: ('A' for Active; 'I' for Inactive)
REMARK       I    between atoms: N_1  and  C_2 
REMARK    1  A    between atoms: C_2  and  C_4 
REMARK    2  A    between atoms: C_7  and  C_8 
REMARK       I    between atoms: C_8  and  N_10 
REMARK    3  A    between atoms: N_10  and  C_11 
REMARK    4  A    between atoms: C_15  and  O_16 
REMARK    5  A    between atoms: O_16  and  C_17 
ROOT
ATOM      1  C   UNL d   1      25.584 -16.511  -1.177  0.00  0.00     0.256 C 
ATOM      2  O   UNL d   1      25.542 -15.386  -1.672  0.00  0.00    -0.267 OA
ATOM      3  N   UNL d   1      26.765 -17.188  -0.888  0.00  0.00    -0.323 N 
ATOM      4  H   UNL d   1      26.750 -18.169  -0.660  0.00  0.00     0.169 HD
ENDROOT
BRANCH   3   5
ATOM      5  C   UNL d   1      28.040 -16.620  -1.093  0.00  0.00     0.037 A 
ATOM      6  C   UNL d   1      28.816 -16.238   0.000  0.00  0.00     0.029 A 
ATOM      7  C   UNL d   1      30.065 -15.637  -0.202  0.00  0.00     0.005 A 
ATOM      8  C   UNL d   1      30.539 -15.420  -1.499  0.00  0.00     0.037 A 
ATOM      9  C   UNL d   1      29.752 -15.778  -2.596  0.00  0.00     0.078 A 
ATOM     10  C   UNL d   1      28.521 -16.400  -2.380  0.00  0.00     0.066 A 
BRANCH   9  11
ATOM     11  O   UNL d   1      30.270 -15.515  -3.847  0.00  0.00    -0.311 OA
BRANCH  11  12
ATOM     12  C   UNL d   1      30.436 -16.555  -4.736  0.00  0.00     0.076 A 
ATOM     13  C   UNL d   1      30.544 -17.837  -4.200  0.00  0.00     0.037 A 
ATOM     14  C   UNL d   1      30.811 -18.921  -5.039  0.00  0.00     0.003 A 
ATOM     15  C   UNL d   1      30.884 -18.737  -6.420  0.00  0.00     0.000 A 
ATOM     16  C   UNL d   1      30.753 -17.460  -6.962  0.00  0.00     0.003 A 
ATOM     17  C   UNL d   1      30.571 -16.364  -6.117  0.00  0.00     0.037 A 
ENDBRANCH  11  12
ENDBRANCH   9  11
ENDBRANCH   3   5
BRANCH   1  18
ATOM     18  C   UNL d   1      24.280 -17.200  -0.898  0.00  0.00     0.032 A 
ATOM     19  C   UNL d   1      24.324 -18.575  -0.601  0.00  0.00     0.018 A 
ATOM     20  C   UNL d   1      23.149 -19.324  -0.473  0.00  0.00     0.018 A 
ATOM     21  C   UNL d   1      21.907 -18.695  -0.575  0.00  0.00     0.031 A 
ATOM     22  C   UNL d   1      21.848 -17.317  -0.809  0.00  0.00     0.018 A 
ATOM     23  C   UNL d   1      23.030 -16.573  -0.972  0.00  0.00     0.018 A 
BRANCH  21  24
ATOM     24  C   UNL d   1      20.683 -19.496  -0.343  0.00  0.00     0.249 C 
ATOM     25  N   UNL d   1      20.475 -19.980   0.914  0.00  0.00    -0.366 N 
ATOM     26  H   UNL d   1      19.595 -20.455   1.081  0.00  0.00     0.159 HD
ATOM     27  H   UNL d   1      21.030 -19.713   1.715  0.00  0.00     0.159 HD
ATOM     28  O   UNL d   1      19.878 -19.700  -1.250  0.00  0.00    -0.268 OA
ENDBRANCH  21  24
ENDBRANCH   1  18
TORSDOF 5
ENDMDL
MODEL 9
REMARK VINA RESULT:    -7.031      2.096      3.136
REMARK INTER + INTRA:          -9.456
REMARK INTER:                  -8.523
REMARK INTRA:                  -0.933
REMARK CONF_INDEPENDENT:        1.492
REMARK UNBOUND:                -0.933
REMARK  5 active torsions:
REMARK  status: ('A' for Active; 'I' for Inactive)
REMARK       I    between atoms: N_1  and  C_2 
REMARK    1  A    between atoms: C_2  and  C_4 
REMARK    2  A    between atoms: C_7  and  C_8 
REMARK       I    between atoms: C_8  and  N_10 
REMARK    3  A    between atoms: N_10  and  C_11 
REMARK    4  A    between atoms: C_15  and  O_16 
REMARK    5  A    between atoms: O_16  and  C_17 
ROOT
ATOM      1  C   UNL d   1      25.755 -16.458  -0.580  0.00  0.00     0.256 C 
ATOM      2  O   UNL d   1      25.765 -15.268  -0.271  0.00  0.00    -0.267 OA
ATOM      3  N   UNL d   1      26.881 -17.159  -1.002  0.00  0.00    -0.323 N 
ATOM      4  H   UNL d   1      26.790 -18.071  -1.419  0.00  0.00     0.169 HD
ENDROOT
BRANCH   3   5
ATOM      5  C   UNL d   1      28.164 -16.574  -1.069  0.00  0.00     0.037 A 
ATOM      6  C   UNL d   1      29.139 -16.925  -0.136  0.00  0.00     0.029 A 
ATOM      7  C   UNL d   1      30.399 -16.317  -0.175  0.00  0.00     0.005 A 
ATOM      8  C   UNL d   1      30.686 -15.357  -1.150  0.00  0.00     0.037 A 
ATOM      9  C   UNL d   1      29.702 -14.984  -2.070  0.00  0.00     0.078 A 
ATOM     10  C   UNL d   1      28.459 -15.618  -2.035  0.00  0.00     0.066 A 
BRANCH   9  11
ATOM     11  O   UNL d   1      30.045 -14.016  -2.990  0.00  0.00    -0.311 OA
BRANCH  11  12
ATOM     12  C   UNL d   1      29.723 -14.206  -4.317  0.00  0.00     0.076 A 
ATOM     13  C   UNL d   1      28.502 -13.693  -4.752  0.00  0.00     0.037 A 
ATOM     14  C   UNL d   1      28.073 -13.937  -6.058  0.00  0.00     0.003 A 
ATOM     15  C   UNL d   1      28.901 -14.617  -6.954  0.00  0.00     0.000 A 
ATOM     16  C   UNL d   1      30.132 -15.110  -6.527  0.00  0.00     0.003 A 
ATOM     17  C   UNL d   1      30.525 -14.941  -5.199  0.00  0.00     0.037 A 
ENDBRANCH  11  12
ENDBRANCH   9  11
ENDBRANCH   3   5
BRANCH   1  18
ATOM     18  C   UNL d   1      24.443 -17.184  -0.525  0.00  0.00     0.032 A 
ATOM     19  C   UNL d   1      24.475 -18.558  -0.223  0.00  0.00     0.018 A 
ATOM     20  C   UNL d   1      23.316 -19.340  -0.296  0.00  0.00     0.018 A 
ATOM     21  C   UNL d   1      22.092 -18.745  -0.606  0.00  0.00     0.031 A 
ATOM     22  C   UNL d   1      22.035 -17.368  -0.847  0.00  0.00     0.018 A 
ATOM     23  C   UNL d   1      23.206 -16.591  -0.808  0.00  0.00     0.018 A 
BRANCH  21  24
ATOM     24  C   UNL d   1      20.870 -19.581  -0.583  0.00  0.00     0.249 C 
ATOM     25  N   UNL d   1      20.545 -20.193   0.592  0.00  0.00    -0.366 N 
ATOM     26  H   UNL d   1      19.664 -20.693   0.618  0.00  0.00     0.159 HD
ATOM     27  H   UNL d   1      21.010 -20.002   1.468  0.00  0.00     0.159 HD
ATOM     28  O   UNL d   1      20.165 -19.701  -1.584  0.00  0.00    -0.268 OA
ENDBRANCH  21  24
ENDBRANCH   1  18
TORSDOF 5
ENDMDL
