MODEL 1
REMARK VINA RESULT:   -27.797      0.000      0.000
REMARK INTER + INTRA:         -29.688
REMARK INTER:                 -28.990
REMARK INTRA:                  -0.698
REMARK CONF_INDEPENDENT:        1.193
REMARK UNBOUND:                -0.698
REMARK  4 active torsions:
REMARK  status: ('A' for Active; 'I' for Inactive)
REMARK    1  A    between atoms: C_6  and  C_7 
REMARK       I    between atoms: C_7  and  N_9 
REMARK    2  A    between atoms: N_9  and  N_10 
REMARK       I    between atoms: N_10  and  C_11 
REMARK       I    between atoms: C_11  and  N_13 
REMARK    3  A    between atoms: N_13  and  C_14 
REMARK    4  A    between atoms: C_14  and  C_16 
ROOT
ATOM      1  N   UNL d   1      25.503 -14.677  -1.868  0.00  0.00    -0.249 N 
ATOM      2  C   UNL d   1      25.303 -16.048  -1.770  0.00  0.00     0.335 C 
ATOM      3  O   UNL d   1      25.868 -16.838  -2.526  0.00  0.00    -0.246 OA
ATOM      4  N   UNL d   1      24.461 -16.434  -0.751  0.00  0.00    -0.334 N 
ATOM      5  H   UNL d   1      25.038 -13.973  -1.304  0.00  0.00     0.192 HD
ATOM      6  H   UNL d   1      24.020 -15.697  -0.232  0.00  0.00     0.165 HD
ENDROOT
BRANCH   1   7
ATOM      7  N   UNL d   1      26.403 -14.197  -2.867  0.00  0.00    -0.262 N 
ATOM      8  C   UNL d   1      26.186 -14.457  -4.218  0.00  0.00     0.270 C 
ATOM      9  O   UNL d   1      25.216 -15.112  -4.604  0.00  0.00    -0.266 OA
ATOM     10  H   UNL d   1      27.185 -13.665  -2.499  0.00  0.00     0.190 HD
BRANCH   8  11
ATOM     11  C   UNL d   1      27.185 -13.914  -5.223  0.00  0.00     0.034 A 
ATOM     12  C   UNL d   1      27.027 -12.606  -5.726  0.00  0.00     0.017 A 
ATOM     13  C   UNL d   1      27.925 -12.076  -6.667  0.00  0.00     0.002 A 
ATOM     14  C   UNL d   1      29.001 -12.837  -7.117  0.00  0.00     0.007 A 
ATOM     15  C   UNL d   1      29.187 -14.133  -6.626  0.00  0.00    -0.061 A 
ATOM     16  C   UNL d   1      30.350 -14.965  -7.082  0.00  0.00     0.048 C 
ATOM     17  C   UNL d   1      28.278 -14.661  -5.686  0.00  0.00     0.024 A 
ENDBRANCH   8  11
ENDBRANCH   1   7
BRANCH   4  18
ATOM     18  C   UNL d   1      24.135 -17.848  -0.436  0.00  0.00     0.115 C 
ATOM     19  C   UNL d   1      24.615 -18.200   0.982  0.00  0.00     0.037 C 
BRANCH  18  20
ATOM     20  C   UNL d   1      22.644 -18.217  -0.559  0.00  0.00    -0.033 A 
ATOM     21  C   UNL d   1      21.720 -17.304  -1.112  0.00  0.00     0.028 A 
ATOM     22  C   UNL d   1      20.386 -17.674  -1.268  0.00  0.00     0.116 A 
ATOM     23  N   UNL d   1      19.895 -18.871  -0.895  0.00  0.00    -0.273 NA
ATOM     24  C   UNL d   1      20.774 -19.729  -0.346  0.00  0.00     0.116 A 
ATOM     25  C   UNL d   1      22.126 -19.455  -0.165  0.00  0.00     0.028 A 
ENDBRANCH  18  20
ENDBRANCH   4  18
TORSDOF 4
ENDMDL
MODEL 2
REMARK VINA RESULT:   -27.536      2.068      2.977
REMARK INTER + INTRA:         -30.123
REMARK INTER:                 -28.730
REMARK INTRA:                  -1.394
REMARK CONF_INDEPENDENT:        1.193
REMARK UNBOUND:                -1.394
REMARK  4 active torsions:
REMARK  status: ('A' for Active; 'I' for Inactive)
REMARK    1  A    between atoms: C_6  and  C_7 
REMARK       I    between atoms: C_7  and  N_9 
REMARK    2  A    between atoms: N_9  and  N_10 
REMARK       I    between atoms: N_10  and  C_11 
REMARK       I    between atoms: C_11  and  N_13 
REMARK    3  A    between atoms: N_13  and  C_14 
REMARK    4  A    between atoms: C_14  and  C_16 
ROOT
ATOM      1  N   UNL d   1      25.536 -15.822  -2.861  0.00  0.00    -0.249 N 
ATOM      2  C   UNL d   1      24.880 -16.354  -1.757  0.00  0.00     0.335 C 
ATOM      3  O   UNL d   1      24.275 -15.637  -0.960  0.00  0.00    -0.246 OA
ATOM      4  N   UNL d   1      24.940 -17.726  -1.659  0.00  0.00    -0.334 N 
ATOM      5  H   UNL d   1      26.085 -16.352  -3.530  0.00  0.00     0.192 HD
ATOM      6  H   UNL d   1      25.504 -18.198  -2.342  0.00  0.00     0.165 HD
ENDROOT
BRANCH   1   7
ATOM      7  N   UNL d   1      25.479 -14.410  -3.063  0.00  0.00    -0.262 N 
ATOM      8  C   UNL d   1      25.995 -13.825  -4.217  0.00  0.00     0.270 C 
ATOM      9  O   UNL d   1      26.523 -14.499  -5.105  0.00  0.00    -0.266 OA
ATOM     10  H   UNL d   1      25.036 -13.900  -2.304  0.00  0.00     0.190 HD
BRANCH   8  11
ATOM     11  C   UNL d   1      25.898 -12.318  -4.362  0.00  0.00     0.034 A 
ATOM     12  C   UNL d   1      25.673 -11.754  -5.635  0.00  0.00     0.017 A 
ATOM     13  C   UNL d   1      25.592 -10.362  -5.809  0.00  0.00     0.002 A 
ATOM     14  C   UNL d   1      25.725  -9.509  -4.716  0.00  0.00     0.007 A 
ATOM     15  C   UNL d   1      25.938 -10.043  -3.442  0.00  0.00    -0.061 A 
ATOM     16  C   UNL d   1      26.065  -9.144  -2.246  0.00  0.00     0.048 C 
ATOM     17  C   UNL d   1      26.025 -11.441  -3.276  0.00  0.00     0.024 A 
ENDBRANCH   8  11
ENDBRANCH   1   7
BRANCH   4  18
ATOM     18  C   UNL d   1      24.279 -18.510  -0.586  0.00  0.00     0.115 C 
ATOM     19  C   UNL d   1      24.696 -17.977   0.795  0.00  0.00     0.037 C 
BRANCH  18  20
ATOM     20  C   UNL d   1      22.741 -18.547  -0.657  0.00  0.00    -0.033 A 
ATOM     21  C   UNL d   1      22.016 -17.444  -1.159  0.00  0.00     0.028 A 
ATOM     22  C   UNL d   1      20.629 -17.516  -1.270  0.00  0.00     0.116 A 
ATOM     23  N   UNL d   1      19.905 -18.588  -0.896  0.00  0.00    -0.273 NA
ATOM     24  C   UNL d   1      20.597 -19.627  -0.395  0.00  0.00     0.116 A 
ATOM     25  C   UNL d   1      21.982 -19.654  -0.263  0.00  0.00     0.028 A 
ENDBRANCH  18  20
ENDBRANCH   4  18
TORSDOF 4
ENDMDL
MODEL 3
REMARK VINA RESULT:   -27.317      2.033      2.779
REMARK INTER + INTRA:         -29.933
REMARK INTER:                 -28.510
REMARK INTRA:                  -1.422
REMARK CONF_INDEPENDENT:        1.193
REMARK UNBOUND:                -1.422
REMARK  4 active torsions:
REMARK  status: ('A' for Active; 'I' for Inactive)
REMARK    1  A    between atoms: C_6  and  C_7 
REMARK       I    between atoms: C_7  and  N_9 
REMARK    2  A    between atoms: N_9  and  N_10 
REMARK       I    between atoms: N_10  and  C_11 
REMARK       I    between atoms: C_11  and  N_13 
REMARK    3  A    between atoms: N_13  and  C_14 
REMARK    4  A    between atoms: C_14  and  C_16 
ROOT
ATOM      1  N   UNL d   1      25.543 -15.856  -2.848  0.00  0.00    -0.249 N 
ATOM      2  C   UNL d   1      24.908 -16.388  -1.732  0.00  0.00     0.335 C 
ATOM      3  O   UNL d   1      24.388 -15.665  -0.882  0.00  0.00    -0.246 OA
ATOM      4  N   UNL d   1      24.883 -17.763  -1.686  0.00  0.00    -0.334 N 
ATOM      5  H   UNL d   1      26.025 -16.393  -3.562  0.00  0.00     0.192 HD
ATOM      6  H   UNL d   1      25.383 -18.244  -2.412  0.00  0.00     0.165 HD
ENDROOT
BRANCH   1   7
ATOM      7  N   UNL d   1      25.567 -14.437  -2.997  0.00  0.00    -0.262 N 
ATOM      8  C   UNL d   1      26.132 -13.839  -4.121  0.00  0.00     0.270 C 
ATOM      9  O   UNL d   1      26.636 -14.508  -5.026  0.00  0.00    -0.266 OA
ATOM     10  H   UNL d   1      25.142 -13.932  -2.226  0.00  0.00     0.190 HD
BRANCH   8  11
ATOM     11  C   UNL d   1      26.122 -12.325  -4.211  0.00  0.00     0.034 A 
ATOM     12  C   UNL d   1      26.313 -11.556  -3.045  0.00  0.00     0.017 A 
ATOM     13  C   UNL d   1      26.296 -10.152  -3.089  0.00  0.00     0.002 A 
ATOM     14  C   UNL d   1      26.096  -9.490  -4.297  0.00  0.00     0.007 A 
ATOM     15  C   UNL d   1      25.914 -10.228  -5.470  0.00  0.00    -0.061 A 
ATOM     16  C   UNL d   1      25.717  -9.536  -6.787  0.00  0.00     0.048 C 
ATOM     17  C   UNL d   1      25.927 -11.637  -5.418  0.00  0.00     0.024 A 
ENDBRANCH   8  11
ENDBRANCH   1   7
BRANCH   4  18
ATOM     18  C   UNL d   1      24.225 -18.545  -0.609  0.00  0.00     0.115 C 
ATOM     19  C   UNL d   1      24.643 -18.007   0.769  0.00  0.00     0.037 C 
BRANCH  18  20
ATOM     20  C   UNL d   1      22.687 -18.586  -0.679  0.00  0.00    -0.033 A 
ATOM     21  C   UNL d   1      21.959 -17.476  -1.160  0.00  0.00     0.028 A 
ATOM     22  C   UNL d   1      20.571 -17.549  -1.270  0.00  0.00     0.116 A 
ATOM     23  N   UNL d   1      19.851 -18.629  -0.914  0.00  0.00    -0.273 NA
ATOM     24  C   UNL d   1      20.547 -19.675  -0.432  0.00  0.00     0.116 A 
ATOM     25  C   UNL d   1      21.931 -19.701  -0.302  0.00  0.00     0.028 A 
ENDBRANCH  18  20
ENDBRANCH   4  18
TORSDOF 4
ENDMDL
MODEL 4
REMARK VINA RESULT:   -27.065      1.150      2.014
REMARK INTER + INTRA:         -29.730
REMARK INTER:                 -28.258
REMARK INTRA:                  -1.472
REMARK CONF_INDEPENDENT:        1.193
REMARK UNBOUND:                -1.472
REMARK  4 active torsions:
REMARK  status: ('A' for Active; 'I' for Inactive)
REMARK    1  A    between atoms: C_6  and  C_7 
REMARK       I    between atoms: C_7  and  N_9 
REMARK    2  A    between atoms: N_9  and  N_10 
REMARK       I    between atoms: N_10  and  C_11 
REMARK       I    between atoms: C_11  and  N_13 
REMARK    3  A    between atoms: N_13  and  C_14 
REMARK    4  A    between atoms: C_14  and  C_16 
ROOT
ATOM      1  N   UNL d   1      25.274 -14.863  -2.224  0.00  0.00    -0.249 N 
ATOM      2  C   UNL d   1      24.998 -16.217  -2.079  0.00  0.00     0.335 C 
ATOM      3  O   UNL d   1      25.235 -17.023  -2.978  0.00  0.00    -0.246 OA
ATOM      4  N   UNL d   1      24.479 -16.569  -0.853  0.00  0.00    -0.334 N 
ATOM      5  H   UNL d   1      25.066 -14.143  -1.539  0.00  0.00     0.192 HD
ATOM      6  H   UNL d   1      24.283 -15.817  -0.218  0.00  0.00     0.165 HD
ENDROOT
BRANCH   1   7
ATOM      7  N   UNL d   1      25.862 -14.423  -3.448  0.00  0.00    -0.262 N 
ATOM      8  C   UNL d   1      26.124 -13.074  -3.679  0.00  0.00     0.270 C 
ATOM      9  O   UNL d   1      25.856 -12.210  -2.841  0.00  0.00    -0.266 OA
ATOM     10  H   UNL d   1      26.062 -15.171  -4.105  0.00  0.00     0.190 HD
BRANCH   8  11
ATOM     11  C   UNL d   1      26.750 -12.681  -5.003  0.00  0.00     0.034 A 
ATOM     12  C   UNL d   1      27.635 -13.570  -5.647  0.00  0.00     0.017 A 
ATOM     13  C   UNL d   1      28.244 -13.233  -6.868  0.00  0.00     0.002 A 
ATOM     14  C   UNL d   1      27.975 -12.008  -7.472  0.00  0.00     0.007 A 
ATOM     15  C   UNL d   1      27.093 -11.112  -6.860  0.00  0.00    -0.061 A 
ATOM     16  C   UNL d   1      26.772  -9.794  -7.502  0.00  0.00     0.048 C 
ATOM     17  C   UNL d   1      26.490 -11.455  -5.631  0.00  0.00     0.024 A 
ENDBRANCH   8  11
ENDBRANCH   1   7
BRANCH   4  18
ATOM     18  C   UNL d   1      24.146 -17.962  -0.463  0.00  0.00     0.115 C 
ATOM     19  C   UNL d   1      24.614 -18.238   0.975  0.00  0.00     0.037 C 
BRANCH  18  20
ATOM     20  C   UNL d   1      22.655 -18.334  -0.577  0.00  0.00    -0.033 A 
ATOM     21  C   UNL d   1      21.725 -17.421  -1.122  0.00  0.00     0.028 A 
ATOM     22  C   UNL d   1      20.391 -17.794  -1.270  0.00  0.00     0.116 A 
ATOM     23  N   UNL d   1      19.904 -18.991  -0.895  0.00  0.00    -0.273 NA
ATOM     24  C   UNL d   1      20.789 -19.849  -0.354  0.00  0.00     0.116 A 
ATOM     25  C   UNL d   1      22.141 -19.573  -0.182  0.00  0.00     0.028 A 
ENDBRANCH  18  20
ENDBRANCH   4  18
TORSDOF 4
ENDMDL
MODEL 5
REMARK VINA RESULT:   -26.525      1.561      1.850
REMARK INTER + INTRA:         -28.457
REMARK INTER:                 -27.718
REMARK INTRA:                  -0.739
REMARK CONF_INDEPENDENT:        1.193
REMARK UNBOUND:                -0.739
REMARK  4 active torsions:
REMARK  status: ('A' for Active; 'I' for Inactive)
REMARK    1  A    between atoms: C_6  and  C_7 
REMARK       I    between atoms: C_7  and  N_9 
REMARK    2  A    between atoms: N_9  and  N_10 
REMARK       I    between atoms: N_10  and  C_11 
REMARK       I    between atoms: C_11  and  N_13 
REMARK    3  A    between atoms: N_13  and  C_14 
REMARK    4  A    between atoms: C_14  and  C_16 
ROOT
ATOM      1  N   UNL d   1      25.966 -15.349  -2.307  0.00  0.00    -0.249 N 
ATOM      2  C   UNL d   1      25.794 -16.616  -1.764  0.00  0.00     0.335 C 
ATOM      3  O   UNL d   1      26.739 -17.393  -1.629  0.00  0.00    -0.246 OA
ATOM      4  N   UNL d   1      24.506 -16.902  -1.370  0.00  0.00    -0.334 N 
ATOM      5  H   UNL d   1      25.224 -14.679  -2.483  0.00  0.00     0.192 HD
ATOM      6  H   UNL d   1      23.811 -16.208  -1.577  0.00  0.00     0.165 HD
ENDROOT
BRANCH   1   7
ATOM      7  N   UNL d   1      27.281 -14.955  -2.695  0.00  0.00    -0.262 N 
ATOM      8  C   UNL d   1      27.726 -15.116  -4.005  0.00  0.00     0.270 C 
ATOM      9  O   UNL d   1      27.007 -15.608  -4.878  0.00  0.00    -0.266 OA
ATOM     10  H   UNL d   1      27.834 -14.557  -1.942  0.00  0.00     0.190 HD
BRANCH   8  11
ATOM     11  C   UNL d   1      29.138 -14.674  -4.344  0.00  0.00     0.034 A 
ATOM     12  C   UNL d   1      29.846 -13.854  -3.442  0.00  0.00     0.017 A 
ATOM     13  C   UNL d   1      31.150 -13.415  -3.729  0.00  0.00     0.002 A 
ATOM     14  C   UNL d   1      31.772 -13.792  -4.917  0.00  0.00     0.007 A 
ATOM     15  C   UNL d   1      31.096 -14.613  -5.823  0.00  0.00    -0.061 A 
ATOM     16  C   UNL d   1      31.754 -15.049  -7.100  0.00  0.00     0.048 C 
ATOM     17  C   UNL d   1      29.785 -15.045  -5.531  0.00  0.00     0.024 A 
ENDBRANCH   8  11
ENDBRANCH   1   7
BRANCH   4  18
ATOM     18  C   UNL d   1      24.099 -18.178  -0.729  0.00  0.00     0.115 C 
ATOM     19  C   UNL d   1      24.590 -18.222   0.727  0.00  0.00     0.037 C 
BRANCH  18  20
ATOM     20  C   UNL d   1      22.586 -18.465  -0.750  0.00  0.00    -0.033 A 
ATOM     21  C   UNL d   1      21.673 -17.487  -1.201  0.00  0.00     0.028 A 
ATOM     22  C   UNL d   1      20.313 -17.783  -1.267  0.00  0.00     0.116 A 
ATOM     23  N   UNL d   1      19.788 -18.965  -0.894  0.00  0.00    -0.273 NA
ATOM     24  C   UNL d   1      20.658 -19.885  -0.441  0.00  0.00     0.116 A 
ATOM     25  C   UNL d   1      22.032 -19.688  -0.356  0.00  0.00     0.028 A 
ENDBRANCH  18  20
ENDBRANCH   4  18
TORSDOF 4
ENDMDL
MODEL 6
REMARK VINA RESULT:   -25.894      3.157      3.837
REMARK INTER + INTRA:         -28.353
REMARK INTER:                 -27.087
REMARK INTRA:                  -1.265
REMARK CONF_INDEPENDENT:        1.193
REMARK UNBOUND:                -1.265
REMARK  4 active torsions:
REMARK  status: ('A' for Active; 'I' for Inactive)
REMARK    1  A    between atoms: C_6  and  C_7 
REMARK       I    between atoms: C_7  and  N_9 
REMARK    2  A    between atoms: N_9  and  N_10 
REMARK       I    between atoms: N_10  and  C_11 
REMARK       I    between atoms: C_11  and  N_13 
REMARK    3  A    between atoms: N_13  and  C_14 
REMARK    4  A    between atoms: C_14  and  C_16 
ROOT
ATOM      1  N   UNL d   1      25.569 -15.249  -2.047  0.00  0.00    -0.249 N 
ATOM      2  C   UNL d   1      25.072 -16.126  -1.091  0.00  0.00     0.335 C 
ATOM      3  O   UNL d   1      24.942 -15.789   0.086  0.00  0.00    -0.246 OA
ATOM      4  N   UNL d   1      24.715 -17.363  -1.576  0.00  0.00    -0.334 N 
ATOM      5  H   UNL d   1      25.739 -15.476  -3.021  0.00  0.00     0.192 HD
ATOM      6  H   UNL d   1      24.914 -17.537  -2.545  0.00  0.00     0.165 HD
ENDROOT
BRANCH   1   7
ATOM      7  N   UNL d   1      25.916 -13.927  -1.634  0.00  0.00    -0.262 N 
ATOM      8  C   UNL d   1      26.473 -13.015  -2.527  0.00  0.00     0.270 C 
ATOM      9  O   UNL d   1      26.693 -13.312  -3.703  0.00  0.00    -0.266 OA
ATOM     10  H   UNL d   1      25.717 -13.732  -0.657  0.00  0.00     0.190 HD
BRANCH   8  11
ATOM     11  C   UNL d   1      26.816 -11.628  -2.016  0.00  0.00     0.034 A 
ATOM     12  C   UNL d   1      26.536 -10.502  -2.817  0.00  0.00     0.017 A 
ATOM     13  C   UNL d   1      26.852  -9.204  -2.382  0.00  0.00     0.002 A 
ATOM     14  C   UNL d   1      27.445  -9.005  -1.137  0.00  0.00     0.007 A 
ATOM     15  C   UNL d   1      27.722 -10.104  -0.319  0.00  0.00    -0.061 A 
ATOM     16  C   UNL d   1      28.342  -9.913   1.035  0.00  0.00     0.048 C 
ATOM     17  C   UNL d   1      27.408 -11.405  -0.765  0.00  0.00     0.024 A 
ENDBRANCH   8  11
ENDBRANCH   1   7
BRANCH   4  18
ATOM     18  C   UNL d   1      24.125 -18.442  -0.744  0.00  0.00     0.115 C 
ATOM     19  C   UNL d   1      24.598 -18.308   0.713  0.00  0.00     0.037 C 
BRANCH  18  20
ATOM     20  C   UNL d   1      22.586 -18.512  -0.761  0.00  0.00    -0.033 A 
ATOM     21  C   UNL d   1      21.821 -17.414  -1.211  0.00  0.00     0.028 A 
ATOM     22  C   UNL d   1      20.432 -17.514  -1.272  0.00  0.00     0.116 A 
ATOM     23  N   UNL d   1      19.745 -18.609  -0.897  0.00  0.00    -0.273 NA
ATOM     24  C   UNL d   1      20.477 -19.644  -0.446  0.00  0.00     0.116 A 
ATOM     25  C   UNL d   1      21.866 -19.643  -0.364  0.00  0.00     0.028 A 
ENDBRANCH  18  20
ENDBRANCH   4  18
TORSDOF 4
ENDMDL
MODEL 7
REMARK VINA RESULT:   -25.432      2.065      2.184
REMARK INTER + INTRA:         -27.586
REMARK INTER:                 -26.625
REMARK INTRA:                  -0.961
REMARK CONF_INDEPENDENT:        1.193
REMARK UNBOUND:                -0.961
REMARK  4 active torsions:
REMARK  status: ('A' for Active; 'I' for Inactive)
REMARK    1  A    between atoms: C_6  and  C_7 
REMARK       I    between atoms: C_7  and  N_9 
REMARK    2  A    between atoms: N_9  and  N_10 
REMARK       I    between atoms: N_10  and  C_11 
REMARK       I    between atoms: C_11  and  N_13 
REMARK    3  A    between atoms: N_13  and  C_14 
REMARK    4  A    between atoms: C_14  and  C_16 
ROOT
ATOM      1  N   UNL d   1      25.931 -16.101  -3.019  0.00  0.00    -0.249 N 
ATOM      2  C   UNL d   1      25.549 -16.603  -1.782  0.00  0.00     0.335 C 
ATOM      3  O   UNL d   1      25.932 -16.089  -0.732  0.00  0.00    -0.246 OA
ATOM      4  N   UNL d   1      24.694 -17.681  -1.839  0.00  0.00    -0.334 N 
ATOM      5  H   UNL d   1      25.684 -16.502  -3.919  0.00  0.00     0.192 HD
ATOM      6  H   UNL d   1      24.491 -18.043  -2.753  0.00  0.00     0.165 HD
ENDROOT
BRANCH   1   7
ATOM      7  N   UNL d   1      26.777 -14.952  -3.048  0.00  0.00    -0.262 N 
ATOM      8  C   UNL d   1      27.399 -14.542  -4.225  0.00  0.00     0.270 C 
ATOM      9  O   UNL d   1      27.249 -15.156  -5.284  0.00  0.00    -0.266 OA
ATOM     10  H   UNL d   1      26.869 -14.482  -2.152  0.00  0.00     0.190 HD
BRANCH   8  11
ATOM     11  C   UNL d   1      28.284 -13.311  -4.179  0.00  0.00     0.034 A 
ATOM     12  C   UNL d   1      27.807 -12.091  -4.701  0.00  0.00     0.017 A 
ATOM     13  C   UNL d   1      28.605 -10.933  -4.687  0.00  0.00     0.002 A 
ATOM     14  C   UNL d   1      29.887 -10.971  -4.146  0.00  0.00     0.007 A 
ATOM     15  C   UNL d   1      30.379 -12.165  -3.611  0.00  0.00    -0.061 A 
ATOM     16  C   UNL d   1      31.750 -12.224  -3.004  0.00  0.00     0.048 C 
ATOM     17  C   UNL d   1      29.576 -13.324  -3.634  0.00  0.00     0.024 A 
ENDBRANCH   8  11
ENDBRANCH   1   7
BRANCH   4  18
ATOM     18  C   UNL d   1      24.126 -18.353  -0.643  0.00  0.00     0.115 C 
ATOM     19  C   UNL d   1      24.328 -17.477   0.604  0.00  0.00     0.037 C 
BRANCH  18  20
ATOM     20  C   UNL d   1      22.635 -18.726  -0.750  0.00  0.00    -0.033 A 
ATOM     21  C   UNL d   1      21.806 -18.711   0.393  0.00  0.00     0.028 A 
ATOM     22  C   UNL d   1      20.448 -18.996   0.270  0.00  0.00     0.116 A 
ATOM     23  N   UNL d   1      19.856 -19.319  -0.895  0.00  0.00    -0.273 NA
ATOM     24  C   UNL d   1      20.654 -19.356  -1.977  0.00  0.00     0.116 A 
ATOM     25  C   UNL d   1      22.015 -19.071  -1.955  0.00  0.00     0.028 A 
ENDBRANCH  18  20
ENDBRANCH   4  18
TORSDOF 4
ENDMDL
MODEL 8
REMARK VINA RESULT:   -24.911      4.628      5.217
REMARK INTER + INTRA:         -27.485
REMARK INTER:                 -26.104
REMARK INTRA:                  -1.381
REMARK CONF_INDEPENDENT:        1.193
REMARK UNBOUND:                -1.381
REMARK  4 active torsions:
REMARK  status: ('A' for Active; 'I' for Inactive)
REMARK    1  A    between atoms: C_6  and  C_7 
REMARK       I    between atoms: C_7  and  N_9 
REMARK    2  A    between atoms: N_9  and  N_10 
REMARK       I    between atoms: N_10  and  C_11 
REMARK       I    between atoms: C_11  and  N_13 
REMARK    3  A    between atoms: N_13  and  C_14 
REMARK    4  A    between atoms: C_14  and  C_16 
ROOT
ATOM      1  N   UNL d   1      25.895 -14.726   0.395  0.00  0.00    -0.249 N 
ATOM      2  C   UNL d   1      25.785 -15.958  -0.238  0.00  0.00     0.335 C 
ATOM      3  O   UNL d   1      26.769 -16.534  -0.701  0.00  0.00    -0.246 OA
ATOM      4  N   UNL d   1      24.511 -16.478  -0.268  0.00  0.00    -0.334 N 
ATOM      5  H   UNL d   1      25.120 -14.182   0.760  0.00  0.00     0.192 HD
ATOM      6  H   UNL d   1      23.782 -15.893   0.099  0.00  0.00     0.165 HD
ENDROOT
BRANCH   1   7
ATOM      7  N   UNL d   1      27.192 -14.142   0.513  0.00  0.00    -0.262 N 
ATOM      8  C   UNL d   1      27.398 -12.989   1.267  0.00  0.00     0.270 C 
ATOM      9  O   UNL d   1      26.473 -12.426   1.857  0.00  0.00    -0.266 OA
ATOM     10  H   UNL d   1      27.919 -14.641   0.009  0.00  0.00     0.190 HD
BRANCH   8  11
ATOM     11  C   UNL d   1      28.804 -12.425   1.346  0.00  0.00     0.034 A 
ATOM     12  C   UNL d   1      29.076 -11.151   0.807  0.00  0.00     0.017 A 
ATOM     13  C   UNL d   1      30.369 -10.604   0.852  0.00  0.00     0.002 A 
ATOM     14  C   UNL d   1      31.412 -11.314   1.441  0.00  0.00     0.007 A 
ATOM     15  C   UNL d   1      31.168 -12.574   1.992  0.00  0.00    -0.061 A 
ATOM     16  C   UNL d   1      32.272 -13.350   2.651  0.00  0.00     0.048 C 
ATOM     17  C   UNL d   1      29.868 -13.120   1.939  0.00  0.00     0.024 A 
ENDBRANCH   8  11
ENDBRANCH   1   7
BRANCH   4  18
ATOM     18  C   UNL d   1      24.166 -17.796  -0.856  0.00  0.00     0.115 C 
ATOM     19  C   UNL d   1      24.949 -18.915  -0.149  0.00  0.00     0.037 C 
BRANCH  18  20
ATOM     20  C   UNL d   1      22.667 -18.150  -0.832  0.00  0.00    -0.033 A 
ATOM     21  C   UNL d   1      21.699 -17.209  -1.245  0.00  0.00     0.028 A 
ATOM     22  C   UNL d   1      20.352 -17.565  -1.271  0.00  0.00     0.116 A 
ATOM     23  N   UNL d   1      19.891 -18.772  -0.895  0.00  0.00    -0.273 NA
ATOM     24  C   UNL d   1      20.814 -19.657  -0.479  0.00  0.00     0.116 A 
ATOM     25  C   UNL d   1      22.181 -19.400  -0.434  0.00  0.00     0.028 A 
ENDBRANCH  18  20
ENDBRANCH   4  18
TORSDOF 4
ENDMDL
