MODEL 1
REMARK VINA RESULT:    -7.960      0.000      0.000
REMARK INTER + INTRA:         -11.053
REMARK INTER:                 -10.048
REMARK INTRA:                  -1.005
REMARK CONF_INDEPENDENT:        2.088
REMARK UNBOUND:                -1.005
REMARK  7 active torsions:
REMARK  status: ('A' for Active; 'I' for Inactive)
REMARK    1  A    between atoms: C_2  and  C_3 
REMARK       I    between atoms: C_3  and  N_5 
REMARK    2  A    between atoms: N_5  and  C_6 
REMARK    3  A    between atoms: C_6  and  N_8 
REMARK    4  A    between atoms: N_8  and  N_9 
REMARK       I    between atoms: N_9  and  C_10 
REMARK    5  A    between atoms: C_10  and  C_12 
REMARK    6  A    between atoms: C_12  and  O_13 
REMARK    7  A    between atoms: O_13  and  C_14 
ROOT
ATOM      1  N   UNL d   1      23.347 -16.646  -0.650  0.00  0.00    -0.266 N 
ATOM      2  C   UNL d   1      24.718 -16.868  -0.648  0.00  0.00     0.260 C 
ATOM      3  O   UNL d   1      25.204 -17.791   0.013  0.00  0.00    -0.269 OA
ATOM      4  H   UNL d   1      22.898 -15.897  -1.179  0.00  0.00     0.190 HD
ENDROOT
BRANCH   1   5
ATOM      5  N   UNL d   1      22.430 -17.496   0.117  0.00  0.00    -0.273 N 
ATOM      6  H   UNL d   1      22.088 -17.075   0.980  0.00  0.00     0.189 HD
BRANCH   5   7
ATOM      7  C   UNL d   1      22.111 -18.771  -0.381  0.00  0.00     0.193 C 
ATOM      8  S   UNL d   1      22.905 -19.321  -1.771  0.00  0.00    -0.039 SA
BRANCH   7   9
ATOM      9  N   UNL d   1      21.129 -19.498   0.343  0.00  0.00    -0.303 N 
ATOM     10  C   UNL d   1      19.886 -19.924  -0.165  0.00  0.00     0.223 C 
ATOM     11  O   UNL d   1      19.518 -19.700  -1.324  0.00  0.00    -0.273 OA
ATOM     12  H   UNL d   1      21.330 -19.736   1.306  0.00  0.00     0.171 HD
BRANCH  10  13
ATOM     13  C   UNL d   1      18.926 -20.704   0.742  0.00  0.00     0.099 C 
ATOM     14  C   UNL d   1      19.201 -20.332   2.217  0.00  0.00     0.014 C 
ENDBRANCH  10  13
ENDBRANCH   7   9
ENDBRANCH   5   7
ENDBRANCH   1   5
BRANCH   2  15
ATOM     15  C   UNL d   1      25.576 -15.883  -1.510  0.00  0.00     0.280 C 
BRANCH  15  16
ATOM     16  O   UNL d   1      24.784 -15.283  -2.549  0.00  0.00    -0.342 OA
BRANCH  16  17
ATOM     17  C   UNL d   1      25.417 -14.426  -3.416  0.00  0.00     0.070 A 
ATOM     18  C   UNL d   1      25.244 -13.044  -3.413  0.00  0.00     0.043 A 
ATOM     19  C   UNL d   1      25.961 -12.226  -4.304  0.00  0.00    -0.059 A 
ATOM     20  C   UNL d   1      25.743 -10.740  -4.305  0.00  0.00     0.048 C 
ATOM     21  C   UNL d   1      26.875 -12.805  -5.196  0.00  0.00     0.013 A 
ATOM     22  C   UNL d   1      27.085 -14.190  -5.194  0.00  0.00    -0.059 A 
ATOM     23  C   UNL d   1      28.059 -14.825  -6.146  0.00  0.00     0.048 C 
ATOM     24  C   UNL d   1      26.363 -14.986  -4.286  0.00  0.00     0.043 A 
ENDBRANCH  16  17
ENDBRANCH  15  16
ENDBRANCH   2  15
TORSDOF 7
ENDMDL
MODEL 2
REMARK VINA RESULT:    -7.750      0.238      1.893
REMARK INTER + INTRA:         -10.923
REMARK INTER:                  -9.838
REMARK INTRA:                  -1.085
REMARK CONF_INDEPENDENT:        2.088
REMARK UNBOUND:                -1.085
REMARK  7 active torsions:
REMARK  status: ('A' for Active; 'I' for Inactive)
REMARK    1  A    between atoms: C_2  and  C_3 
REMARK       I    between atoms: C_3  and  N_5 
REMARK    2  A    between atoms: N_5  and  C_6 
REMARK    3  A    between atoms: C_6  and  N_8 
REMARK    4  A    between atoms: N_8  and  N_9 
REMARK       I    between atoms: N_9  and  C_10 
REMARK    5  A    between atoms: C_10  and  C_12 
REMARK    6  A    between atoms: C_12  and  O_13 
REMARK    7  A    between atoms: O_13  and  C_14 
ROOT
ATOM      1  N   UNL d   1      23.450 -16.696  -0.514  0.00  0.00    -0.266 N 
ATOM      2  C   UNL d   1      24.804 -17.008  -0.523  0.00  0.00     0.260 C 
ATOM      3  O   UNL d   1      25.224 -18.000   0.082  0.00  0.00    -0.269 OA
ATOM      4  H   UNL d   1      23.055 -15.888  -0.998  0.00  0.00     0.190 HD
ENDROOT
BRANCH   1   5
ATOM      5  N   UNL d   1      22.474 -17.527   0.197  0.00  0.00    -0.273 N 
ATOM      6  H   UNL d   1      22.129 -17.122   1.066  0.00  0.00     0.189 HD
BRANCH   5   7
ATOM      7  C   UNL d   1      22.110 -18.769  -0.355  0.00  0.00     0.193 C 
ATOM      8  S   UNL d   1      22.909 -19.301  -1.749  0.00  0.00    -0.039 SA
BRANCH   7   9
ATOM      9  N   UNL d   1      21.083 -19.477   0.322  0.00  0.00    -0.303 N 
ATOM     10  C   UNL d   1      19.870 -19.907  -0.252  0.00  0.00     0.223 C 
ATOM     11  O   UNL d   1      19.574 -19.703  -1.435  0.00  0.00    -0.273 OA
ATOM     12  H   UNL d   1      21.223 -19.697   1.299  0.00  0.00     0.171 HD
BRANCH  10  13
ATOM     13  C   UNL d   1      18.853 -20.665   0.610  0.00  0.00     0.099 C 
ATOM     14  C   UNL d   1      18.959 -20.179   2.073  0.00  0.00     0.014 C 
ENDBRANCH  10  13
ENDBRANCH   7   9
ENDBRANCH   5   7
ENDBRANCH   1   5
BRANCH   2  15
ATOM     15  C   UNL d   1      25.730 -16.032  -1.321  0.00  0.00     0.280 C 
BRANCH  15  16
ATOM     16  O   UNL d   1      24.955 -15.109  -2.105  0.00  0.00    -0.342 OA
BRANCH  16  17
ATOM     17  C   UNL d   1      25.610 -14.394  -3.076  0.00  0.00     0.070 A 
ATOM     18  C   UNL d   1      26.380 -14.971  -4.084  0.00  0.00     0.043 A 
ATOM     19  C   UNL d   1      26.987 -14.176  -5.073  0.00  0.00    -0.059 A 
ATOM     20  C   UNL d   1      27.835 -14.812  -6.137  0.00  0.00     0.048 C 
ATOM     21  C   UNL d   1      26.804 -12.785  -5.054  0.00  0.00     0.013 A 
ATOM     22  C   UNL d   1      26.010 -12.190  -4.066  0.00  0.00    -0.059 A 
ATOM     23  C   UNL d   1      25.807 -10.701  -4.032  0.00  0.00     0.048 C 
ATOM     24  C   UNL d   1      25.405 -13.008  -3.094  0.00  0.00     0.043 A 
ENDBRANCH  16  17
ENDBRANCH  15  16
ENDBRANCH   2  15
TORSDOF 7
ENDMDL
MODEL 3
REMARK VINA RESULT:    -7.437      1.887      2.230
REMARK INTER + INTRA:         -11.240
REMARK INTER:                  -9.525
REMARK INTRA:                  -1.714
REMARK CONF_INDEPENDENT:        2.088
REMARK UNBOUND:                -1.714
REMARK  7 active torsions:
REMARK  status: ('A' for Active; 'I' for Inactive)
REMARK    1  A    between atoms: C_2  and  C_3 
REMARK       I    between atoms: C_3  and  N_5 
REMARK    2  A    between atoms: N_5  and  C_6 
REMARK    3  A    between atoms: C_6  and  N_8 
REMARK    4  A    between atoms: N_8  and  N_9 
REMARK       I    between atoms: N_9  and  C_10 
REMARK    5  A    between atoms: C_10  and  C_12 
REMARK    6  A    between atoms: C_12  and  O_13 
REMARK    7  A    between atoms: O_13  and  C_14 
ROOT
ATOM      1  N   UNL d   1      25.510 -17.562  -0.412  0.00  0.00    -0.266 N 
ATOM      2  C   UNL d   1      26.780 -17.884   0.049  0.00  0.00     0.260 C 
ATOM      3  O   UNL d   1      27.024 -19.016   0.479  0.00  0.00    -0.269 OA
ATOM      4  H   UNL d   1      25.260 -16.642  -0.776  0.00  0.00     0.190 HD
ENDROOT
BRANCH   1   5
ATOM      5  N   UNL d   1      24.421 -18.544  -0.415  0.00  0.00    -0.273 N 
ATOM      6  H   UNL d   1      24.729 -19.515  -0.423  0.00  0.00     0.189 HD
BRANCH   5   7
ATOM      7  C   UNL d   1      23.092 -18.083  -0.409  0.00  0.00     0.193 C 
ATOM      8  S   UNL d   1      22.803 -16.443  -0.713  0.00  0.00    -0.039 SA
BRANCH   7   9
ATOM      9  N   UNL d   1      22.093 -19.055  -0.143  0.00  0.00    -0.303 N 
ATOM     10  C   UNL d   1      20.734 -18.951  -0.499  0.00  0.00     0.223 C 
ATOM     11  O   UNL d   1      20.266 -17.976  -1.096  0.00  0.00    -0.273 OA
ATOM     12  H   UNL d   1      22.370 -19.898   0.344  0.00  0.00     0.171 HD
BRANCH  10  13
ATOM     13  C   UNL d   1      19.770 -20.089  -0.141  0.00  0.00     0.099 C 
ATOM     14  C   UNL d   1      19.385 -19.982   1.351  0.00  0.00     0.014 C 
ENDBRANCH  10  13
ENDBRANCH   7   9
ENDBRANCH   5   7
ENDBRANCH   1   5
BRANCH   2  15
ATOM     15  C   UNL d   1      27.844 -16.738  -0.005  0.00  0.00     0.280 C 
BRANCH  15  16
ATOM     16  O   UNL d   1      27.235 -15.485  -0.361  0.00  0.00    -0.342 OA
BRANCH  16  17
ATOM     17  C   UNL d   1      26.979 -15.258  -1.691  0.00  0.00     0.070 A 
ATOM     18  C   UNL d   1      25.840 -14.612  -2.167  0.00  0.00     0.043 A 
ATOM     19  C   UNL d   1      25.667 -14.377  -3.543  0.00  0.00    -0.059 A 
ATOM     20  C   UNL d   1      24.422 -13.702  -4.042  0.00  0.00     0.048 C 
ATOM     21  C   UNL d   1      26.660 -14.783  -4.447  0.00  0.00     0.013 A 
ATOM     22  C   UNL d   1      27.825 -15.408  -3.984  0.00  0.00    -0.059 A 
ATOM     23  C   UNL d   1      28.896 -15.851  -4.941  0.00  0.00     0.048 C 
ATOM     24  C   UNL d   1      27.979 -15.623  -2.602  0.00  0.00     0.043 A 
ENDBRANCH  16  17
ENDBRANCH  15  16
ENDBRANCH   2  15
TORSDOF 7
ENDMDL
MODEL 4
REMARK VINA RESULT:    -7.299      1.613      1.812
REMARK INTER + INTRA:         -10.527
REMARK INTER:                  -9.387
REMARK INTRA:                  -1.139
REMARK CONF_INDEPENDENT:        2.088
REMARK UNBOUND:                -1.139
REMARK  7 active torsions:
REMARK  status: ('A' for Active; 'I' for Inactive)
REMARK    1  A    between atoms: C_2  and  C_3 
REMARK       I    between atoms: C_3  and  N_5 
REMARK    2  A    between atoms: N_5  and  C_6 
REMARK    3  A    between atoms: C_6  and  N_8 
REMARK    4  A    between atoms: N_8  and  N_9 
REMARK       I    between atoms: N_9  and  C_10 
REMARK    5  A    between atoms: C_10  and  C_12 
REMARK    6  A    between atoms: C_12  and  O_13 
REMARK    7  A    between atoms: O_13  and  C_14 
ROOT
ATOM      1  N   UNL d   1      24.927 -17.813  -0.709  0.00  0.00    -0.266 N 
ATOM      2  C   UNL d   1      26.128 -17.824  -0.012  0.00  0.00     0.260 C 
ATOM      3  O   UNL d   1      26.307 -18.615   0.919  0.00  0.00    -0.269 OA
ATOM      4  H   UNL d   1      24.731 -17.178  -1.485  0.00  0.00     0.190 HD
ENDROOT
BRANCH   1   5
ATOM      5  N   UNL d   1      23.837 -18.736  -0.377  0.00  0.00    -0.273 N 
ATOM      6  H   UNL d   1      24.133 -19.697  -0.212  0.00  0.00     0.189 HD
BRANCH   5   7
ATOM      7  C   UNL d   1      22.522 -18.239  -0.318  0.00  0.00     0.193 C 
ATOM      8  S   UNL d   1      22.222 -16.673  -0.885  0.00  0.00    -0.039 SA
BRANCH   7   9
ATOM      9  N   UNL d   1      21.546 -19.115   0.224  0.00  0.00    -0.303 N 
ATOM     10  C   UNL d   1      20.528 -19.759  -0.507  0.00  0.00     0.223 C 
ATOM     11  O   UNL d   1      20.382 -19.620  -1.726  0.00  0.00    -0.273 OA
ATOM     12  H   UNL d   1      21.575 -19.300   1.219  0.00  0.00     0.171 HD
BRANCH  10  13
ATOM     13  C   UNL d   1      19.542 -20.681   0.222  0.00  0.00     0.099 C 
ATOM     14  C   UNL d   1      19.280 -20.130   1.641  0.00  0.00     0.014 C 
ENDBRANCH  10  13
ENDBRANCH   7   9
ENDBRANCH   5   7
ENDBRANCH   1   5
BRANCH   2  15
ATOM     15  C   UNL d   1      27.202 -16.783  -0.473  0.00  0.00     0.280 C 
BRANCH  15  16
ATOM     16  O   UNL d   1      26.715 -15.439  -0.323  0.00  0.00    -0.342 OA
BRANCH  16  17
ATOM     17  C   UNL d   1      26.498 -14.710  -1.466  0.00  0.00     0.070 A 
ATOM     18  C   UNL d   1      26.525 -13.319  -1.522  0.00  0.00     0.043 A 
ATOM     19  C   UNL d   1      26.336 -12.642  -2.740  0.00  0.00    -0.059 A 
ATOM     20  C   UNL d   1      26.344 -11.141  -2.779  0.00  0.00     0.048 C 
ATOM     21  C   UNL d   1      26.132 -13.376  -3.918  0.00  0.00     0.013 A 
ATOM     22  C   UNL d   1      26.130 -14.777  -3.887  0.00  0.00    -0.059 A 
ATOM     23  C   UNL d   1      25.910 -15.577  -5.140  0.00  0.00     0.048 C 
ATOM     24  C   UNL d   1      26.332 -15.431  -2.657  0.00  0.00     0.043 A 
ENDBRANCH  16  17
ENDBRANCH  15  16
ENDBRANCH   2  15
TORSDOF 7
ENDMDL
MODEL 5
REMARK VINA RESULT:    -7.299      1.903      2.826
REMARK INTER + INTRA:         -11.066
REMARK INTER:                  -9.387
REMARK INTRA:                  -1.679
REMARK CONF_INDEPENDENT:        2.088
REMARK UNBOUND:                -1.679
REMARK  7 active torsions:
REMARK  status: ('A' for Active; 'I' for Inactive)
REMARK    1  A    between atoms: C_2  and  C_3 
REMARK       I    between atoms: C_3  and  N_5 
REMARK    2  A    between atoms: N_5  and  C_6 
REMARK    3  A    between atoms: C_6  and  N_8 
REMARK    4  A    between atoms: N_8  and  N_9 
REMARK       I    between atoms: N_9  and  C_10 
REMARK    5  A    between atoms: C_10  and  C_12 
REMARK    6  A    between atoms: C_12  and  O_13 
REMARK    7  A    between atoms: O_13  and  C_14 
ROOT
ATOM      1  N   UNL d   1      25.481 -17.347   0.234  0.00  0.00    -0.266 N 
ATOM      2  C   UNL d   1      26.777 -17.846   0.253  0.00  0.00     0.260 C 
ATOM      3  O   UNL d   1      26.989 -19.033   0.523  0.00  0.00    -0.269 OA
ATOM      4  H   UNL d   1      25.255 -16.375   0.018  0.00  0.00     0.190 HD
ENDROOT
BRANCH   1   5
ATOM      5  N   UNL d   1      24.323 -18.200   0.522  0.00  0.00    -0.273 N 
ATOM      6  H   UNL d   1      24.502 -18.938   1.202  0.00  0.00     0.189 HD
BRANCH   5   7
ATOM      7  C   UNL d   1      23.110 -17.942  -0.140  0.00  0.00     0.193 C 
ATOM      8  S   UNL d   1      22.906 -16.446  -0.904  0.00  0.00    -0.039 SA
BRANCH   7   9
ATOM      9  N   UNL d   1      22.145 -18.983  -0.106  0.00  0.00    -0.303 N 
ATOM     10  C   UNL d   1      20.805 -18.871  -0.529  0.00  0.00     0.223 C 
ATOM     11  O   UNL d   1      20.326 -17.827  -0.984  0.00  0.00    -0.273 OA
ATOM     12  H   UNL d   1      22.433 -19.885   0.250  0.00  0.00     0.171 HD
BRANCH  10  13
ATOM     13  C   UNL d   1      19.878 -20.089  -0.431  0.00  0.00     0.099 C 
ATOM     14  C   UNL d   1      19.167 -20.081   0.941  0.00  0.00     0.014 C 
ENDBRANCH  10  13
ENDBRANCH   7   9
ENDBRANCH   5   7
ENDBRANCH   1   5
BRANCH   2  15
ATOM     15  C   UNL d   1      27.914 -16.822  -0.072  0.00  0.00     0.280 C 
BRANCH  15  16
ATOM     16  O   UNL d   1      27.369 -15.543  -0.438  0.00  0.00    -0.342 OA
BRANCH  16  17
ATOM     17  C   UNL d   1      27.207 -15.282  -1.776  0.00  0.00     0.070 A 
ATOM     18  C   UNL d   1      28.142 -15.612  -2.754  0.00  0.00     0.043 A 
ATOM     19  C   UNL d   1      27.887 -15.352  -4.112  0.00  0.00    -0.059 A 
ATOM     20  C   UNL d   1      28.917 -15.691  -5.152  0.00  0.00     0.048 C 
ATOM     21  C   UNL d   1      26.670 -14.766  -4.491  0.00  0.00     0.013 A 
ATOM     22  C   UNL d   1      25.705 -14.453  -3.524  0.00  0.00    -0.059 A 
ATOM     23  C   UNL d   1      24.398 -13.822  -3.914  0.00  0.00     0.048 C 
ATOM     24  C   UNL d   1      25.980 -14.733  -2.173  0.00  0.00     0.043 A 
ENDBRANCH  16  17
ENDBRANCH  15  16
ENDBRANCH   2  15
TORSDOF 7
ENDMDL
MODEL 6
REMARK VINA RESULT:    -7.198      3.833      4.898
REMARK INTER + INTRA:         -10.789
REMARK INTER:                  -9.286
REMARK INTRA:                  -1.502
REMARK CONF_INDEPENDENT:        2.088
REMARK UNBOUND:                -1.502
REMARK  7 active torsions:
REMARK  status: ('A' for Active; 'I' for Inactive)
REMARK    1  A    between atoms: C_2  and  C_3 
REMARK       I    between atoms: C_3  and  N_5 
REMARK    2  A    between atoms: N_5  and  C_6 
REMARK    3  A    between atoms: C_6  and  N_8 
REMARK    4  A    between atoms: N_8  and  N_9 
REMARK       I    between atoms: N_9  and  C_10 
REMARK    5  A    between atoms: C_10  and  C_12 
REMARK    6  A    between atoms: C_12  and  O_13 
REMARK    7  A    between atoms: O_13  and  C_14 
ROOT
ATOM      1  N   UNL d   1      25.480 -17.454  -0.201  0.00  0.00    -0.266 N 
ATOM      2  C   UNL d   1      26.767 -17.765   0.219  0.00  0.00     0.260 C 
ATOM      3  O   UNL d   1      27.051 -18.913   0.576  0.00  0.00    -0.269 OA
ATOM      4  H   UNL d   1      25.196 -16.521  -0.505  0.00  0.00     0.190 HD
ENDROOT
BRANCH   1   5
ATOM      5  N   UNL d   1      24.420 -18.466  -0.245  0.00  0.00    -0.273 N 
ATOM      6  H   UNL d   1      24.755 -19.428  -0.235  0.00  0.00     0.189 HD
BRANCH   5   7
ATOM      7  C   UNL d   1      23.080 -18.042  -0.297  0.00  0.00     0.193 C 
ATOM      8  S   UNL d   1      22.759 -16.398  -0.539  0.00  0.00    -0.039 SA
BRANCH   7   9
ATOM      9  N   UNL d   1      22.096 -19.054  -0.139  0.00  0.00    -0.303 N 
ATOM     10  C   UNL d   1      20.744 -18.947  -0.519  0.00  0.00     0.223 C 
ATOM     11  O   UNL d   1      20.268 -17.934  -1.043  0.00  0.00    -0.273 OA
ATOM     12  H   UNL d   1      22.381 -19.929   0.282  0.00  0.00     0.171 HD
BRANCH  10  13
ATOM     13  C   UNL d   1      19.797 -20.131  -0.282  0.00  0.00     0.099 C 
ATOM     14  C   UNL d   1      19.306 -20.108   1.183  0.00  0.00     0.014 C 
ENDBRANCH  10  13
ENDBRANCH   7   9
ENDBRANCH   5   7
ENDBRANCH   1   5
BRANCH   2  15
ATOM     15  C   UNL d   1      27.796 -16.586   0.216  0.00  0.00     0.280 C 
BRANCH  15  16
ATOM     16  O   UNL d   1      27.130 -15.320   0.079  0.00  0.00    -0.342 OA
BRANCH  16  17
ATOM     17  C   UNL d   1      27.285 -14.408   1.093  0.00  0.00     0.070 A 
ATOM     18  C   UNL d   1      26.896 -13.072   1.008  0.00  0.00     0.043 A 
ATOM     19  C   UNL d   1      27.047 -12.206   2.106  0.00  0.00    -0.059 A 
ATOM     20  C   UNL d   1      26.647 -10.763   1.989  0.00  0.00     0.048 C 
ATOM     21  C   UNL d   1      27.580 -12.695   3.308  0.00  0.00     0.013 A 
ATOM     22  C   UNL d   1      27.950 -14.041   3.422  0.00  0.00    -0.059 A 
ATOM     23  C   UNL d   1      28.525 -14.579   4.702  0.00  0.00     0.048 C 
ATOM     24  C   UNL d   1      27.779 -14.890   2.312  0.00  0.00     0.043 A 
ENDBRANCH  16  17
ENDBRANCH  15  16
ENDBRANCH   2  15
TORSDOF 7
ENDMDL
MODEL 7
REMARK VINA RESULT:    -6.462      2.155      3.641
REMARK INTER + INTRA:         -10.615
REMARK INTER:                  -8.550
REMARK INTRA:                  -2.065
REMARK CONF_INDEPENDENT:        2.088
REMARK UNBOUND:                -2.065
REMARK  7 active torsions:
REMARK  status: ('A' for Active; 'I' for Inactive)
REMARK    1  A    between atoms: C_2  and  C_3 
REMARK       I    between atoms: C_3  and  N_5 
REMARK    2  A    between atoms: N_5  and  C_6 
REMARK    3  A    between atoms: C_6  and  N_8 
REMARK    4  A    between atoms: N_8  and  N_9 
REMARK       I    between atoms: N_9  and  C_10 
REMARK    5  A    between atoms: C_10  and  C_12 
REMARK    6  A    between atoms: C_12  and  O_13 
REMARK    7  A    between atoms: O_13  and  C_14 
ROOT
ATOM      1  N   UNL d   1      25.085 -16.318  -1.973  0.00  0.00    -0.266 N 
ATOM      2  C   UNL d   1      24.955 -15.121  -2.666  0.00  0.00     0.260 C 
ATOM      3  O   UNL d   1      23.854 -14.571  -2.768  0.00  0.00    -0.269 OA
ATOM      4  H   UNL d   1      25.972 -16.811  -1.862  0.00  0.00     0.190 HD
ENDROOT
BRANCH   1   5
ATOM      5  N   UNL d   1      23.935 -16.966  -1.335  0.00  0.00    -0.273 N 
ATOM      6  H   UNL d   1      23.029 -16.610  -1.637  0.00  0.00     0.189 HD
BRANCH   5   7
ATOM      7  C   UNL d   1      24.167 -17.984  -0.393  0.00  0.00     0.193 C 
ATOM      8  S   UNL d   1      25.678 -18.057   0.365  0.00  0.00    -0.039 SA
BRANCH   7   9
ATOM      9  N   UNL d   1      23.089 -18.878  -0.159  0.00  0.00    -0.303 N 
ATOM     10  C   UNL d   1      21.731 -18.608  -0.422  0.00  0.00     0.223 C 
ATOM     11  O   UNL d   1      21.335 -17.538  -0.896  0.00  0.00    -0.273 OA
ATOM     12  H   UNL d   1      23.303 -19.787   0.230  0.00  0.00     0.171 HD
BRANCH  10  13
ATOM     13  C   UNL d   1      20.676 -19.678  -0.114  0.00  0.00     0.099 C 
ATOM     14  C   UNL d   1      19.361 -19.325  -0.846  0.00  0.00     0.014 C 
ENDBRANCH  10  13
ENDBRANCH   7   9
ENDBRANCH   5   7
ENDBRANCH   1   5
BRANCH   2  15
ATOM     15  C   UNL d   1      26.265 -14.545  -3.298  0.00  0.00     0.280 C 
BRANCH  15  16
ATOM     16  O   UNL d   1      27.285 -15.555  -3.383  0.00  0.00    -0.342 OA
BRANCH  16  17
ATOM     17  C   UNL d   1      28.174 -15.473  -4.426  0.00  0.00     0.070 A 
ATOM     18  C   UNL d   1      29.222 -16.369  -4.630  0.00  0.00     0.043 A 
ATOM     19  C   UNL d   1      30.067 -16.247  -5.747  0.00  0.00    -0.059 A 
ATOM     20  C   UNL d   1      31.208 -17.205  -5.938  0.00  0.00     0.048 C 
ATOM     21  C   UNL d   1      29.845 -15.221  -6.677  0.00  0.00     0.013 A 
ATOM     22  C   UNL d   1      28.779 -14.328  -6.505  0.00  0.00    -0.059 A 
ATOM     23  C   UNL d   1      28.530 -13.222  -7.491  0.00  0.00     0.048 C 
ATOM     24  C   UNL d   1      27.941 -14.478  -5.384  0.00  0.00     0.043 A 
ENDBRANCH  16  17
ENDBRANCH  15  16
ENDBRANCH   2  15
TORSDOF 7
ENDMDL
MODEL 8
REMARK VINA RESULT:    -5.984      4.259      8.286
REMARK INTER + INTRA:         -10.441
REMARK INTER:                  -8.072
REMARK INTRA:                  -2.369
REMARK CONF_INDEPENDENT:        2.088
REMARK UNBOUND:                -2.369
REMARK  7 active torsions:
REMARK  status: ('A' for Active; 'I' for Inactive)
REMARK    1  A    between atoms: C_2  and  C_3 
REMARK       I    between atoms: C_3  and  N_5 
REMARK    2  A    between atoms: N_5  and  C_6 
REMARK    3  A    between atoms: C_6  and  N_8 
REMARK    4  A    between atoms: N_8  and  N_9 
REMARK       I    between atoms: N_9  and  C_10 
REMARK    5  A    between atoms: C_10  and  C_12 
REMARK    6  A    between atoms: C_12  and  O_13 
REMARK    7  A    between atoms: O_13  and  C_14 
ROOT
ATOM      1  N   UNL d   1      27.739 -15.534  -3.663  0.00  0.00    -0.266 N 
ATOM      2  C   UNL d   1      26.625 -15.200  -4.424  0.00  0.00     0.260 C 
ATOM      3  O   UNL d   1      26.655 -15.293  -5.655  0.00  0.00    -0.269 OA
ATOM      4  H   UNL d   1      27.763 -15.474  -2.644  0.00  0.00     0.190 HD
ENDROOT
BRANCH   1   5
ATOM      5  N   UNL d   1      28.978 -16.014  -4.283  0.00  0.00    -0.273 N 
ATOM      6  H   UNL d   1      29.209 -15.562  -5.167  0.00  0.00     0.189 HD
BRANCH   5   7
ATOM      7  C   UNL d   1      29.717 -17.019  -3.634  0.00  0.00     0.193 C 
ATOM      8  S   UNL d   1      29.875 -16.948  -1.950  0.00  0.00    -0.039 SA
BRANCH   7   9
ATOM      9  N   UNL d   1      30.275 -18.023  -4.467  0.00  0.00    -0.303 N 
ATOM     10  C   UNL d   1      30.405 -17.945  -5.868  0.00  0.00     0.223 C 
ATOM     11  O   UNL d   1      30.036 -16.966  -6.526  0.00  0.00    -0.273 OA
ATOM     12  H   UNL d   1      30.611 -18.871  -4.028  0.00  0.00     0.171 HD
BRANCH  10  13
ATOM     13  C   UNL d   1      31.032 -19.116  -6.635  0.00  0.00     0.099 C 
ATOM     14  C   UNL d   1      30.770 -20.430  -5.865  0.00  0.00     0.014 C 
ENDBRANCH  10  13
ENDBRANCH   7   9
ENDBRANCH   5   7
ENDBRANCH   1   5
BRANCH   2  15
ATOM     15  C   UNL d   1      25.373 -14.702  -3.629  0.00  0.00     0.280 C 
BRANCH  15  16
ATOM     16  O   UNL d   1      25.616 -14.728  -2.213  0.00  0.00    -0.342 OA
BRANCH  16  17
ATOM     17  C   UNL d   1      25.363 -15.901  -1.546  0.00  0.00     0.070 A 
ATOM     18  C   UNL d   1      26.322 -16.616  -0.833  0.00  0.00     0.043 A 
ATOM     19  C   UNL d   1      25.978 -17.789  -0.138  0.00  0.00    -0.059 A 
ATOM     20  C   UNL d   1      27.030 -18.562   0.606  0.00  0.00     0.048 C 
ATOM     21  C   UNL d   1      24.649 -18.239  -0.149  0.00  0.00     0.013 A 
ATOM     22  C   UNL d   1      23.665 -17.518  -0.837  0.00  0.00    -0.059 A 
ATOM     23  C   UNL d   1      22.238 -17.988  -0.861  0.00  0.00     0.048 C 
ATOM     24  C   UNL d   1      24.032 -16.341  -1.516  0.00  0.00     0.043 A 
ENDBRANCH  16  17
ENDBRANCH  15  16
ENDBRANCH   2  15
TORSDOF 7
ENDMDL
MODEL 9
REMARK VINA RESULT:    -5.939      2.818      4.111
REMARK INTER + INTRA:         -10.483
REMARK INTER:                  -8.027
REMARK INTRA:                  -2.456
REMARK CONF_INDEPENDENT:        2.088
REMARK UNBOUND:                -2.456
REMARK  7 active torsions:
REMARK  status: ('A' for Active; 'I' for Inactive)
REMARK    1  A    between atoms: C_2  and  C_3 
REMARK       I    between atoms: C_3  and  N_5 
REMARK    2  A    between atoms: N_5  and  C_6 
REMARK    3  A    between atoms: C_6  and  N_8 
REMARK    4  A    between atoms: N_8  and  N_9 
REMARK       I    between atoms: N_9  and  C_10 
REMARK    5  A    between atoms: C_10  and  C_12 
REMARK    6  A    between atoms: C_12  and  O_13 
REMARK    7  A    between atoms: O_13  and  C_14 
ROOT
ATOM      1  N   UNL d   1      25.050 -16.495  -2.064  0.00  0.00    -0.266 N 
ATOM      2  C   UNL d   1      24.967 -15.284  -2.740  0.00  0.00     0.260 C 
ATOM      3  O   UNL d   1      23.906 -14.654  -2.771  0.00  0.00    -0.269 OA
ATOM      4  H   UNL d   1      25.903 -17.053  -2.011  0.00  0.00     0.190 HD
ENDROOT
BRANCH   1   5
ATOM      5  N   UNL d   1      23.896 -17.063  -1.360  0.00  0.00    -0.273 N 
ATOM      6  H   UNL d   1      22.999 -16.662  -1.629  0.00  0.00     0.189 HD
BRANCH   5   7
ATOM      7  C   UNL d   1      24.114 -18.075  -0.408  0.00  0.00     0.193 C 
ATOM      8  S   UNL d   1      25.625 -18.164   0.348  0.00  0.00    -0.039 SA
BRANCH   7   9
ATOM      9  N   UNL d   1      23.022 -18.948  -0.162  0.00  0.00    -0.303 N 
ATOM     10  C   UNL d   1      21.667 -18.657  -0.418  0.00  0.00     0.223 C 
ATOM     11  O   UNL d   1      21.287 -17.583  -0.896  0.00  0.00    -0.273 OA
ATOM     12  H   UNL d   1      23.223 -19.859   0.230  0.00  0.00     0.171 HD
BRANCH  10  13
ATOM     13  C   UNL d   1      20.595 -19.706  -0.098  0.00  0.00     0.099 C 
ATOM     14  C   UNL d   1      19.278 -19.325  -0.809  0.00  0.00     0.014 C 
ENDBRANCH  10  13
ENDBRANCH   7   9
ENDBRANCH   5   7
ENDBRANCH   1   5
BRANCH   2  15
ATOM     15  C   UNL d   1      26.276 -14.800  -3.448  0.00  0.00     0.280 C 
BRANCH  15  16
ATOM     16  O   UNL d   1      27.316 -15.788  -3.343  0.00  0.00    -0.342 OA
BRANCH  16  17
ATOM     17  C   UNL d   1      27.996 -15.870  -2.153  0.00  0.00     0.070 A 
ATOM     18  C   UNL d   1      27.593 -15.237  -0.979  0.00  0.00     0.043 A 
ATOM     19  C   UNL d   1      28.318 -15.403   0.214  0.00  0.00    -0.059 A 
ATOM     20  C   UNL d   1      27.886 -14.693   1.465  0.00  0.00     0.048 C 
ATOM     21  C   UNL d   1      29.453 -16.228   0.229  0.00  0.00     0.013 A 
ATOM     22  C   UNL d   1      29.857 -16.895  -0.935  0.00  0.00    -0.059 A 
ATOM     23  C   UNL d   1      31.071 -17.781  -0.936  0.00  0.00     0.048 C 
ATOM     24  C   UNL d   1      29.108 -16.722  -2.114  0.00  0.00     0.043 A 
ENDBRANCH  16  17
ENDBRANCH  15  16
ENDBRANCH   2  15
TORSDOF 7
ENDMDL
