MODEL 1
REMARK VINA RESULT:    -7.441      0.000      0.000
REMARK INTER + INTRA:          -9.058
REMARK INTER:                  -8.634
REMARK INTRA:                  -0.424
REMARK CONF_INDEPENDENT:        1.193
REMARK UNBOUND:                -0.424
REMARK  4 active torsions:
REMARK  status: ('A' for Active; 'I' for Inactive)
REMARK    1  A    between atoms: C_2  and  C_3 
REMARK    2  A    between atoms: C_3  and  O_4 
REMARK    3  A    between atoms: O_4  and  N_5 
REMARK       I    between atoms: N_5  and  C_6 
REMARK       I    between atoms: C_6  and  N_8 
REMARK    4  A    between atoms: N_8  and  C_9 
ROOT
ATOM      1  N   UNL d   1      20.112 -18.947  -0.256  0.00  0.00    -0.216 N 
ATOM      2  C   UNL d   1      21.391 -18.746  -0.738  0.00  0.00     0.344 C 
ATOM      3  O   UNL d   1      21.818 -19.322  -1.741  0.00  0.00    -0.245 OA
ATOM      4  N   UNL d   1      22.153 -17.856   0.025  0.00  0.00    -0.307 N 
ATOM      5  H   UNL d   1      19.716 -18.498   0.556  0.00  0.00     0.199 HD
ATOM      6  H   UNL d   1      21.858 -17.672   0.973  0.00  0.00     0.170 HD
ENDROOT
BRANCH   4   7
ATOM      7  C   UNL d   1      23.501 -17.544  -0.309  0.00  0.00     0.036 A 
ATOM      8  C   UNL d   1      24.556 -18.291   0.229  0.00  0.00     0.031 A 
ATOM      9  C   UNL d   1      25.888 -17.978  -0.062  0.00  0.00     0.026 A 
ATOM     10  C   UNL d   1      26.180 -16.898  -0.885  0.00  0.00     0.034 A 
ATOM     11 CL   UNL d   1      27.821 -16.482  -1.196  0.00  0.00    -0.084 Cl
ATOM     12  C   UNL d   1      25.145 -16.154  -1.452  0.00  0.00     0.026 A 
ATOM     13  C   UNL d   1      23.805 -16.491  -1.185  0.00  0.00     0.031 A 
ENDBRANCH   4   7
BRANCH   1  14
ATOM     14  O   UNL d   1      19.309 -19.865  -1.001  0.00  0.00    -0.273 OA
BRANCH  14  15
ATOM     15  C   UNL d   1      18.402 -20.566  -0.144  0.00  0.00     0.228 C 
BRANCH  15  16
ATOM     16  C   UNL d   1      19.115 -21.091   1.073  0.00  0.00    -0.009 C 
ATOM     17  C   UNL d   1      19.129 -20.441   2.250  0.00  0.00     0.009 C 
ENDBRANCH  15  16
ENDBRANCH  14  15
ENDBRANCH   1  14
TORSDOF 4
ENDMDL
MODEL 2
REMARK VINA RESULT:    -7.427      0.100      1.248
REMARK INTER + INTRA:          -9.045
REMARK INTER:                  -8.620
REMARK INTRA:                  -0.425
REMARK CONF_INDEPENDENT:        1.193
REMARK UNBOUND:                -0.425
REMARK  4 active torsions:
REMARK  status: ('A' for Active; 'I' for Inactive)
REMARK    1  A    between atoms: C_2  and  C_3 
REMARK    2  A    between atoms: C_3  and  O_4 
REMARK    3  A    between atoms: O_4  and  N_5 
REMARK       I    between atoms: N_5  and  C_6 
REMARK       I    between atoms: C_6  and  N_8 
REMARK    4  A    between atoms: N_8  and  C_9 
ROOT
ATOM      1  N   UNL d   1      20.130 -18.950  -0.252  0.00  0.00    -0.216 N 
ATOM      2  C   UNL d   1      21.411 -18.739  -0.724  0.00  0.00     0.344 C 
ATOM      3  O   UNL d   1      21.856 -19.324  -1.714  0.00  0.00    -0.245 OA
ATOM      4  N   UNL d   1      22.154 -17.829   0.033  0.00  0.00    -0.307 N 
ATOM      5  H   UNL d   1      19.720 -18.494   0.548  0.00  0.00     0.199 HD
ATOM      6  H   UNL d   1      21.847 -17.635   0.975  0.00  0.00     0.170 HD
ENDROOT
BRANCH   4   7
ATOM      7  C   UNL d   1      23.501 -17.504  -0.291  0.00  0.00     0.036 A 
ATOM      8  C   UNL d   1      23.786 -16.436  -1.151  0.00  0.00     0.031 A 
ATOM      9  C   UNL d   1      25.101 -16.123  -1.507  0.00  0.00     0.026 A 
ATOM     10  C   UNL d   1      26.151 -16.889  -1.017  0.00  0.00     0.034 A 
ATOM     11 CL   UNL d   1      27.764 -16.534  -1.501  0.00  0.00    -0.084 Cl
ATOM     12  C   UNL d   1      25.894 -17.942  -0.139  0.00  0.00     0.026 A 
ATOM     13  C   UNL d   1      24.572 -18.235   0.245  0.00  0.00     0.031 A 
ENDBRANCH   4   7
BRANCH   1  14
ATOM     14  O   UNL d   1      19.347 -19.889  -0.992  0.00  0.00    -0.273 OA
BRANCH  14  15
ATOM     15  C   UNL d   1      18.401 -20.549  -0.144  0.00  0.00     0.228 C 
BRANCH  15  16
ATOM     16  C   UNL d   1      19.079 -21.105   1.079  0.00  0.00    -0.009 C 
ATOM     17  C   UNL d   1      19.131 -20.446   2.250  0.00  0.00     0.009 C 
ENDBRANCH  15  16
ENDBRANCH  14  15
ENDBRANCH   1  14
TORSDOF 4
ENDMDL
MODEL 3
REMARK VINA RESULT:    -7.161      1.192      1.330
REMARK INTER + INTRA:          -8.614
REMARK INTER:                  -8.354
REMARK INTRA:                  -0.259
REMARK CONF_INDEPENDENT:        1.193
REMARK UNBOUND:                -0.259
REMARK  4 active torsions:
REMARK  status: ('A' for Active; 'I' for Inactive)
REMARK    1  A    between atoms: C_2  and  C_3 
REMARK    2  A    between atoms: C_3  and  O_4 
REMARK    3  A    between atoms: O_4  and  N_5 
REMARK       I    between atoms: N_5  and  C_6 
REMARK       I    between atoms: C_6  and  N_8 
REMARK    4  A    between atoms: N_8  and  C_9 
ROOT
ATOM      1  N   UNL d   1      21.229 -19.333   0.109  0.00  0.00    -0.216 N 
ATOM      2  C   UNL d   1      22.226 -18.465  -0.292  0.00  0.00     0.344 C 
ATOM      3  O   UNL d   1      21.987 -17.416  -0.895  0.00  0.00    -0.245 OA
ATOM      4  N   UNL d   1      23.518 -18.896   0.025  0.00  0.00    -0.307 N 
ATOM      5  H   UNL d   1      21.374 -20.198   0.607  0.00  0.00     0.199 HD
ATOM      6  H   UNL d   1      23.653 -19.875   0.230  0.00  0.00     0.170 HD
ENDROOT
BRANCH   4   7
ATOM      7  C   UNL d   1      24.671 -18.140  -0.329  0.00  0.00     0.036 A 
ATOM      8  C   UNL d   1      25.827 -18.200   0.459  0.00  0.00     0.031 A 
ATOM      9  C   UNL d   1      26.958 -17.440   0.145  0.00  0.00     0.026 A 
ATOM     10  C   UNL d   1      26.939 -16.594  -0.958  0.00  0.00     0.034 A 
ATOM     11 CL   UNL d   1      28.313 -15.619  -1.309  0.00  0.00    -0.084 Cl
ATOM     12  C   UNL d   1      25.807 -16.537  -1.771  0.00  0.00     0.026 A 
ATOM     13  C   UNL d   1      24.681 -17.328  -1.473  0.00  0.00     0.031 A 
ENDBRANCH   4   7
BRANCH   1  14
ATOM     14  O   UNL d   1      19.896 -18.933  -0.215  0.00  0.00    -0.273 OA
BRANCH  14  15
ATOM     15  C   UNL d   1      19.064 -20.072  -0.459  0.00  0.00     0.228 C 
BRANCH  15  16
ATOM     16  C   UNL d   1      18.749 -20.788   0.827  0.00  0.00    -0.009 C 
ATOM     17  C   UNL d   1      17.670 -21.575   0.981  0.00  0.00     0.009 C 
ENDBRANCH  15  16
ENDBRANCH  14  15
ENDBRANCH   1  14
TORSDOF 4
ENDMDL
MODEL 4
REMARK VINA RESULT:    -6.367      1.454      1.539
REMARK INTER + INTRA:          -8.014
REMARK INTER:                  -7.560
REMARK INTRA:                  -0.454
REMARK CONF_INDEPENDENT:        1.193
REMARK UNBOUND:                -0.454
REMARK  4 active torsions:
REMARK  status: ('A' for Active; 'I' for Inactive)
REMARK    1  A    between atoms: C_2  and  C_3 
REMARK    2  A    between atoms: C_3  and  O_4 
REMARK    3  A    between atoms: O_4  and  N_5 
REMARK       I    between atoms: N_5  and  C_6 
REMARK       I    between atoms: C_6  and  N_8 
REMARK    4  A    between atoms: N_8  and  C_9 
ROOT
ATOM      1  N   UNL d   1      21.290 -18.854  -1.270  0.00  0.00    -0.216 N 
ATOM      2  C   UNL d   1      22.334 -18.064  -0.829  0.00  0.00     0.344 C 
ATOM      3  O   UNL d   1      22.154 -17.043  -0.162  0.00  0.00    -0.245 OA
ATOM      4  N   UNL d   1      23.596 -18.513  -1.229  0.00  0.00    -0.307 N 
ATOM      5  H   UNL d   1      21.385 -19.698  -1.814  0.00  0.00     0.199 HD
ATOM      6  H   UNL d   1      23.646 -19.154  -2.008  0.00  0.00     0.170 HD
ENDROOT
BRANCH   4   7
ATOM      7  C   UNL d   1      24.787 -17.814  -0.885  0.00  0.00     0.036 A 
ATOM      8  C   UNL d   1      25.540 -18.201   0.230  0.00  0.00     0.031 A 
ATOM      9  C   UNL d   1      26.694 -17.506   0.602  0.00  0.00     0.026 A 
ATOM     10  C   UNL d   1      27.101 -16.399  -0.132  0.00  0.00     0.034 A 
ATOM     11 CL   UNL d   1      28.491 -15.512   0.362  0.00  0.00    -0.084 Cl
ATOM     12  C   UNL d   1      26.381 -16.009  -1.261  0.00  0.00     0.026 A 
ATOM     13  C   UNL d   1      25.238 -16.731  -1.654  0.00  0.00     0.031 A 
ENDBRANCH   4   7
BRANCH   1  14
ATOM     14  O   UNL d   1      19.983 -18.414  -0.896  0.00  0.00    -0.273 OA
BRANCH  14  15
ATOM     15  C   UNL d   1      19.158 -19.521  -0.517  0.00  0.00     0.228 C 
BRANCH  15  16
ATOM     16  C   UNL d   1      19.800 -20.309   0.594  0.00  0.00    -0.009 C 
ATOM     17  C   UNL d   1      19.552 -20.075   1.894  0.00  0.00     0.009 C 
ENDBRANCH  15  16
ENDBRANCH  14  15
ENDBRANCH   1  14
TORSDOF 4
ENDMDL
MODEL 5
REMARK VINA RESULT:    -6.118      3.386      6.545
REMARK INTER + INTRA:          -7.612
REMARK INTER:                  -7.311
REMARK INTRA:                  -0.301
REMARK CONF_INDEPENDENT:        1.193
REMARK UNBOUND:                -0.301
REMARK  4 active torsions:
REMARK  status: ('A' for Active; 'I' for Inactive)
REMARK    1  A    between atoms: C_2  and  C_3 
REMARK    2  A    between atoms: C_3  and  O_4 
REMARK    3  A    between atoms: O_4  and  N_5 
REMARK       I    between atoms: N_5  and  C_6 
REMARK       I    between atoms: C_6  and  N_8 
REMARK    4  A    between atoms: N_8  and  C_9 
ROOT
ATOM      1  N   UNL d   1      24.020 -17.088  -0.777  0.00  0.00    -0.216 N 
ATOM      2  C   UNL d   1      23.029 -18.051  -0.778  0.00  0.00     0.344 C 
ATOM      3  O   UNL d   1      22.920 -18.885  -1.680  0.00  0.00    -0.245 OA
ATOM      4  N   UNL d   1      22.159 -17.973   0.313  0.00  0.00    -0.307 N 
ATOM      5  H   UNL d   1      24.153 -16.388  -0.062  0.00  0.00     0.199 HD
ATOM      6  H   UNL d   1      22.119 -17.105   0.826  0.00  0.00     0.170 HD
ENDROOT
BRANCH   4   7
ATOM      7  C   UNL d   1      21.065 -18.871   0.467  0.00  0.00     0.036 A 
ATOM      8  C   UNL d   1      20.360 -19.328  -0.654  0.00  0.00     0.031 A 
ATOM      9  C   UNL d   1      19.263 -20.184  -0.520  0.00  0.00     0.026 A 
ATOM     10  C   UNL d   1      18.845 -20.581   0.745  0.00  0.00     0.034 A 
ATOM     11 CL   UNL d   1      17.460 -21.589   0.908  0.00  0.00    -0.084 Cl
ATOM     12  C   UNL d   1      19.546 -20.157   1.874  0.00  0.00     0.026 A 
ATOM     13  C   UNL d   1      20.671 -19.322   1.735  0.00  0.00     0.031 A 
ENDBRANCH   4   7
BRANCH   1  14
ATOM     14  O   UNL d   1      24.918 -17.125  -1.888  0.00  0.00    -0.273 OA
BRANCH  14  15
ATOM     15  C   UNL d   1      26.230 -16.704  -1.501  0.00  0.00     0.228 C 
BRANCH  15  16
ATOM     16  C   UNL d   1      26.539 -17.146  -0.095  0.00  0.00    -0.009 C 
ATOM     17  C   UNL d   1      26.324 -18.398   0.342  0.00  0.00     0.009 C 
ENDBRANCH  15  16
ENDBRANCH  14  15
ENDBRANCH   1  14
TORSDOF 4
ENDMDL
MODEL 6
REMARK VINA RESULT:    -5.503      5.395      7.915
REMARK INTER + INTRA:          -7.146
REMARK INTER:                  -6.696
REMARK INTRA:                  -0.450
REMARK CONF_INDEPENDENT:        1.193
REMARK UNBOUND:                -0.450
REMARK  4 active torsions:
REMARK  status: ('A' for Active; 'I' for Inactive)
REMARK    1  A    between atoms: C_2  and  C_3 
REMARK    2  A    between atoms: C_3  and  O_4 
REMARK    3  A    between atoms: O_4  and  N_5 
REMARK       I    between atoms: N_5  and  C_6 
REMARK       I    between atoms: C_6  and  N_8 
REMARK    4  A    between atoms: N_8  and  C_9 
ROOT
ATOM      1  N   UNL d   1      29.232 -14.829   1.766  0.00  0.00    -0.216 N 
ATOM      2  C   UNL d   1      27.964 -15.111   1.296  0.00  0.00     0.344 C 
ATOM      3  O   UNL d   1      27.038 -14.301   1.366  0.00  0.00    -0.245 OA
ATOM      4  N   UNL d   1      27.827 -16.397   0.763  0.00  0.00    -0.307 N 
ATOM      5  H   UNL d   1      30.022 -15.456   1.727  0.00  0.00     0.199 HD
ATOM      6  H   UNL d   1      28.517 -17.090   1.015  0.00  0.00     0.170 HD
ENDROOT
BRANCH   4   7
ATOM      7  C   UNL d   1      26.587 -16.870   0.250  0.00  0.00     0.036 A 
ATOM      8  C   UNL d   1      25.815 -16.064  -0.596  0.00  0.00     0.031 A 
ATOM      9  C   UNL d   1      24.579 -16.499  -1.082  0.00  0.00     0.026 A 
ATOM     10  C   UNL d   1      24.090 -17.746  -0.713  0.00  0.00     0.034 A 
ATOM     11 CL   UNL d   1      22.543 -18.255  -1.269  0.00  0.00    -0.084 Cl
ATOM     12  C   UNL d   1      24.852 -18.576   0.109  0.00  0.00     0.026 A 
ATOM     13  C   UNL d   1      26.112 -18.150   0.571  0.00  0.00     0.031 A 
ENDBRANCH   4   7
BRANCH   1  14
ATOM     14  O   UNL d   1      29.404 -13.530   2.335  0.00  0.00    -0.273 OA
BRANCH  14  15
ATOM     15  C   UNL d   1      29.492 -13.603   3.762  0.00  0.00     0.228 C 
BRANCH  15  16
ATOM     16  C   UNL d   1      28.207 -14.121   4.350  0.00  0.00    -0.009 C 
ATOM     17  C   UNL d   1      28.157 -15.166   5.193  0.00  0.00     0.009 C 
ENDBRANCH  15  16
ENDBRANCH  14  15
ENDBRANCH   1  14
TORSDOF 4
ENDMDL
MODEL 7
REMARK VINA RESULT:    -5.407      3.746      6.825
REMARK INTER + INTRA:          -7.022
REMARK INTER:                  -6.601
REMARK INTRA:                  -0.421
REMARK CONF_INDEPENDENT:        1.193
REMARK UNBOUND:                -0.421
REMARK  4 active torsions:
REMARK  status: ('A' for Active; 'I' for Inactive)
REMARK    1  A    between atoms: C_2  and  C_3 
REMARK    2  A    between atoms: C_3  and  O_4 
REMARK    3  A    between atoms: O_4  and  N_5 
REMARK       I    between atoms: N_5  and  C_6 
REMARK       I    between atoms: C_6  and  N_8 
REMARK    4  A    between atoms: N_8  and  C_9 
ROOT
ATOM      1  N   UNL d   1      24.723 -16.444  -1.830  0.00  0.00    -0.216 N 
ATOM      2  C   UNL d   1      23.538 -16.789  -1.209  0.00  0.00     0.344 C 
ATOM      3  O   UNL d   1      22.876 -15.982  -0.553  0.00  0.00    -0.245 OA
ATOM      4  N   UNL d   1      23.179 -18.130  -1.374  0.00  0.00    -0.307 N 
ATOM      5  H   UNL d   1      25.297 -17.064  -2.380  0.00  0.00     0.199 HD
ATOM      6  H   UNL d   1      23.899 -18.783  -1.647  0.00  0.00     0.170 HD
ENDROOT
BRANCH   4   7
ATOM      7  C   UNL d   1      22.000 -18.670  -0.787  0.00  0.00     0.036 A 
ATOM      8  C   UNL d   1      21.881 -18.767   0.605  0.00  0.00     0.031 A 
ATOM      9  C   UNL d   1      20.745 -19.325   1.198  0.00  0.00     0.026 A 
ATOM     10  C   UNL d   1      19.715 -19.809   0.400  0.00  0.00     0.034 A 
ATOM     11 CL   UNL d   1      18.343 -20.545   1.133  0.00  0.00    -0.084 Cl
ATOM     12  C   UNL d   1      19.800 -19.700  -0.988  0.00  0.00     0.026 A 
ATOM     13  C   UNL d   1      20.931 -19.109  -1.582  0.00  0.00     0.031 A 
ENDBRANCH   4   7
BRANCH   1  14
ATOM     14  O   UNL d   1      25.131 -15.084  -1.667  0.00  0.00    -0.273 OA
BRANCH  14  15
ATOM     15  C   UNL d   1      25.023 -14.365  -2.900  0.00  0.00     0.228 C 
BRANCH  15  16
ATOM     16  C   UNL d   1      26.119 -14.768  -3.850  0.00  0.00    -0.009 C 
ATOM     17  C   UNL d   1      25.905 -15.542  -4.928  0.00  0.00     0.009 C 
ENDBRANCH  15  16
ENDBRANCH  14  15
ENDBRANCH   1  14
TORSDOF 4
ENDMDL
MODEL 8
REMARK VINA RESULT:    -5.262      4.172      7.116
REMARK INTER + INTRA:          -6.940
REMARK INTER:                  -6.455
REMARK INTRA:                  -0.485
REMARK CONF_INDEPENDENT:        1.193
REMARK UNBOUND:                -0.485
REMARK  4 active torsions:
REMARK  status: ('A' for Active; 'I' for Inactive)
REMARK    1  A    between atoms: C_2  and  C_3 
REMARK    2  A    between atoms: C_3  and  O_4 
REMARK    3  A    between atoms: O_4  and  N_5 
REMARK       I    between atoms: N_5  and  C_6 
REMARK       I    between atoms: C_6  and  N_8 
REMARK    4  A    between atoms: N_8  and  C_9 
ROOT
ATOM      1  N   UNL d   1      27.337 -15.445  -2.081  0.00  0.00    -0.216 N 
ATOM      2  C   UNL d   1      26.080 -16.016  -2.138  0.00  0.00     0.344 C 
ATOM      3  O   UNL d   1      25.374 -15.962  -3.147  0.00  0.00    -0.245 OA
ATOM      4  N   UNL d   1      25.679 -16.630  -0.947  0.00  0.00    -0.307 N 
ATOM      5  H   UNL d   1      27.952 -15.466  -1.282  0.00  0.00     0.199 HD
ATOM      6  H   UNL d   1      26.158 -16.372  -0.097  0.00  0.00     0.170 HD
ENDROOT
BRANCH   4   7
ATOM      7  C   UNL d   1      24.406 -17.252  -0.814  0.00  0.00     0.036 A 
ATOM      8  C   UNL d   1      24.312 -18.618  -0.520  0.00  0.00     0.031 A 
ATOM      9  C   UNL d   1      23.071 -19.253  -0.417  0.00  0.00     0.026 A 
ATOM     10  C   UNL d   1      21.903 -18.528  -0.625  0.00  0.00     0.034 A 
ATOM     11 CL   UNL d   1      20.380 -19.325  -0.553  0.00  0.00    -0.084 Cl
ATOM     12  C   UNL d   1      21.972 -17.161  -0.894  0.00  0.00     0.026 A 
ATOM     13  C   UNL d   1      23.221 -16.516  -0.964  0.00  0.00     0.031 A 
ENDBRANCH   4   7
BRANCH   1  14
ATOM     14  O   UNL d   1      27.772 -14.791  -3.275  0.00  0.00    -0.273 OA
BRANCH  14  15
ATOM     15  C   UNL d   1      27.269 -13.453  -3.339  0.00  0.00     0.228 C 
BRANCH  15  16
ATOM     16  C   UNL d   1      26.277 -13.309  -4.462  0.00  0.00    -0.009 C 
ATOM     17  C   UNL d   1      24.947 -13.329  -4.269  0.00  0.00     0.009 C 
ENDBRANCH  15  16
ENDBRANCH  14  15
ENDBRANCH   1  14
TORSDOF 4
ENDMDL
MODEL 9
REMARK VINA RESULT:    -5.162      3.087      4.400
REMARK INTER + INTRA:          -6.799
REMARK INTER:                  -6.355
REMARK INTRA:                  -0.444
REMARK CONF_INDEPENDENT:        1.193
REMARK UNBOUND:                -0.444
REMARK  4 active torsions:
REMARK  status: ('A' for Active; 'I' for Inactive)
REMARK    1  A    between atoms: C_2  and  C_3 
REMARK    2  A    between atoms: C_3  and  O_4 
REMARK    3  A    between atoms: O_4  and  N_5 
REMARK       I    between atoms: N_5  and  C_6 
REMARK       I    between atoms: C_6  and  N_8 
REMARK    4  A    between atoms: N_8  and  C_9 
ROOT
ATOM      1  N   UNL d   1      24.718 -18.063  -0.063  0.00  0.00    -0.216 N 
ATOM      2  C   UNL d   1      24.595 -16.961  -0.886  0.00  0.00     0.344 C 
ATOM      3  O   UNL d   1      23.504 -16.449  -1.147  0.00  0.00    -0.245 OA
ATOM      4  N   UNL d   1      25.808 -16.502  -1.409  0.00  0.00    -0.307 N 
ATOM      5  H   UNL d   1      25.586 -18.514   0.184  0.00  0.00     0.199 HD
ATOM      6  H   UNL d   1      26.594 -17.135  -1.406  0.00  0.00     0.170 HD
ENDROOT
BRANCH   4   7
ATOM      7  C   UNL d   1      25.872 -15.389  -2.294  0.00  0.00     0.036 A 
ATOM      8  C   UNL d   1      26.274 -14.132  -1.824  0.00  0.00     0.031 A 
ATOM      9  C   UNL d   1      26.312 -13.021  -2.671  0.00  0.00     0.026 A 
ATOM     10  C   UNL d   1      25.930 -13.151  -4.001  0.00  0.00     0.034 A 
ATOM     11 CL   UNL d   1      25.925 -11.768  -5.026  0.00  0.00    -0.084 Cl
ATOM     12  C   UNL d   1      25.549 -14.398  -4.497  0.00  0.00     0.026 A 
ATOM     13  C   UNL d   1      25.544 -15.523  -3.651  0.00  0.00     0.031 A 
ENDBRANCH   4   7
BRANCH   1  14
ATOM     14  O   UNL d   1      23.496 -18.571   0.475  0.00  0.00    -0.273 OA
BRANCH  14  15
ATOM     15  C   UNL d   1      22.745 -19.266  -0.525  0.00  0.00     0.228 C 
BRANCH  15  16
ATOM     16  C   UNL d   1      21.379 -18.653  -0.689  0.00  0.00    -0.009 C 
ATOM     17  C   UNL d   1      20.281 -19.377  -0.965  0.00  0.00     0.009 C 
ENDBRANCH  15  16
ENDBRANCH  14  15
ENDBRANCH   1  14
TORSDOF 4
ENDMDL
