MODEL 1
REMARK VINA RESULT:   -12.677      0.000      0.000
REMARK INTER + INTRA:         -15.278
REMARK INTER:                 -14.168
REMARK INTRA:                  -1.110
REMARK CONF_INDEPENDENT:        1.492
REMARK UNBOUND:                -1.110
REMARK  5 active torsions:
REMARK  status: ('A' for Active; 'I' for Inactive)
REMARK       I    between atoms: C_2  and  N_3 
REMARK    1  A    between atoms: C_2  and  C_28 
REMARK    2  A    between atoms: N_3  and  C_4 
REMARK    3  A    between atoms: C_8  and  C_9 
REMARK    4  A    between atoms: C_13  and  N_14 
REMARK       I    between atoms: N_14  and  C_15 
REMARK    5  A    between atoms: C_15  and  C_17 
ROOT
ATOM      1  C   UNL d   1      26.404 -15.552  -2.875  0.00  0.00     0.139 C 
ATOM      2  N   UNL d   1      25.104 -15.661  -2.676  0.00  0.00    -0.228 NA
ATOM      3  C   UNL d   1      24.901 -16.564  -1.693  0.00  0.00     0.088 C 
ATOM      4  C   UNL d   1      23.666 -17.078  -1.275  0.00  0.00     0.063 C 
ATOM      5  C   UNL d   1      23.569 -17.858  -0.126  0.00  0.00     0.037 C 
ATOM      6  C   UNL d   1      24.760 -18.145   0.552  0.00  0.00     0.032 C 
ATOM      7  C   UNL d   1      26.046 -17.705   0.094  0.00  0.00     0.034 C 
ATOM      8  C   UNL d   1      26.091 -16.950  -1.103  0.00  0.00     0.063 C 
ATOM      9  N   UNL d   1      27.040 -16.473  -2.029  0.00  0.00    -0.338 N 
ATOM     10  H   UNL d   1      27.942 -16.893  -2.213  0.00  0.00     0.167 HD
ENDROOT
BRANCH   1  11
ATOM     11  C   UNL d   1      26.873 -14.607  -3.933  0.00  0.00     0.012 A 
ATOM     12  C   UNL d   1      27.829 -14.809  -4.930  0.00  0.00     0.015 A 
ATOM     13  C   UNL d   1      28.021 -13.827  -5.939  0.00  0.00     0.003 A 
ATOM     14  C   UNL d   1      27.292 -12.620  -5.956  0.00  0.00     0.029 A 
ATOM     15  C   UNL d   1      26.341 -12.389  -4.971  0.00  0.00     0.035 A 
ATOM     16  C   UNL d   1      26.156 -13.377  -3.994  0.00  0.00     0.044 A 
BRANCH  15  17
ATOM     17  N   UNL d   1      25.539 -11.210  -4.980  0.00  0.00    -0.327 N 
ATOM     18  C   UNL d   1      25.881 -10.076  -4.245  0.00  0.00     0.226 C 
ATOM     19  O   UNL d   1      26.929  -9.958  -3.624  0.00  0.00    -0.273 OA
ATOM     20  H   UNL d   1      24.780 -11.161  -5.647  0.00  0.00     0.169 HD
BRANCH  18  21
ATOM     21  C   UNL d   1      24.889  -8.903  -4.292  0.00  0.00     0.078 C 
ATOM     22  C   UNL d   1      25.618  -7.618  -3.853  0.00  0.00     0.014 C 
ATOM     23  C   UNL d   1      24.777  -6.358  -4.057  0.00  0.00     0.001 C 
ATOM     24  C   UNL d   1      24.297  -6.228  -5.498  0.00  0.00     0.000 C 
ATOM     25  C   UNL d   1      23.537  -7.478  -5.925  0.00  0.00     0.001 C 
ATOM     26  C   UNL d   1      24.379  -8.740  -5.738  0.00  0.00     0.014 C 
ENDBRANCH  18  21
ENDBRANCH  15  17
ENDBRANCH   1  11
BRANCH   5  27
ATOM     27  N   UNL d   1      22.260 -18.261   0.281  0.00  0.00    -0.327 N 
ATOM     28  C   UNL d   1      21.328 -18.942  -0.494  0.00  0.00     0.226 C 
ATOM     29  O   UNL d   1      21.540 -19.325  -1.632  0.00  0.00    -0.273 OA
ATOM     30  H   UNL d   1      22.030 -18.068   1.248  0.00  0.00     0.169 HD
BRANCH  28  31
ATOM     31  C   UNL d   1      19.977 -19.293   0.188  0.00  0.00     0.078 C 
ATOM     32  C   UNL d   1      19.192 -20.402  -0.520  0.00  0.00     0.014 C 
ATOM     33  C   UNL d   1      17.960 -20.853   0.268  0.00  0.00     0.001 C 
ATOM     34  C   UNL d   1      18.316 -21.285   1.684  0.00  0.00     0.000 C 
ATOM     35  C   UNL d   1      19.036 -20.166   2.419  0.00  0.00     0.001 C 
ATOM     36  C   UNL d   1      20.272 -19.710   1.651  0.00  0.00     0.014 C 
ENDBRANCH  28  31
ENDBRANCH   5  27
TORSDOF 5
ENDMDL
MODEL 2
REMARK VINA RESULT:   -12.593      3.005      5.907
REMARK INTER + INTRA:         -15.149
REMARK INTER:                 -14.085
REMARK INTRA:                  -1.065
REMARK CONF_INDEPENDENT:        1.492
REMARK UNBOUND:                -1.065
REMARK  5 active torsions:
REMARK  status: ('A' for Active; 'I' for Inactive)
REMARK       I    between atoms: C_2  and  N_3 
REMARK    1  A    between atoms: C_2  and  C_28 
REMARK    2  A    between atoms: N_3  and  C_4 
REMARK    3  A    between atoms: C_8  and  C_9 
REMARK    4  A    between atoms: C_13  and  N_14 
REMARK       I    between atoms: N_14  and  C_15 
REMARK    5  A    between atoms: C_15  and  C_17 
ROOT
ATOM      1  C   UNL d   1      26.148 -15.457  -2.979  0.00  0.00     0.139 C 
ATOM      2  N   UNL d   1      24.857 -15.615  -2.756  0.00  0.00    -0.228 NA
ATOM      3  C   UNL d   1      24.707 -16.501  -1.749  0.00  0.00     0.088 C 
ATOM      4  C   UNL d   1      23.500 -17.055  -1.299  0.00  0.00     0.063 C 
ATOM      5  C   UNL d   1      23.454 -17.810  -0.131  0.00  0.00     0.037 C 
ATOM      6  C   UNL d   1      24.666 -18.031   0.534  0.00  0.00     0.032 C 
ATOM      7  C   UNL d   1      25.924 -17.550   0.046  0.00  0.00     0.034 C 
ATOM      8  C   UNL d   1      25.921 -16.823  -1.170  0.00  0.00     0.063 C 
ATOM      9  N   UNL d   1      26.835 -16.330  -2.122  0.00  0.00    -0.338 N 
ATOM     10  H   UNL d   1      27.750 -16.716  -2.310  0.00  0.00     0.167 HD
ENDROOT
BRANCH   1  11
ATOM     11  C   UNL d   1      26.562 -14.519  -4.067  0.00  0.00     0.012 A 
ATOM     12  C   UNL d   1      26.278 -13.161  -4.210  0.00  0.00     0.015 A 
ATOM     13  C   UNL d   1      26.897 -12.411  -5.247  0.00  0.00     0.003 A 
ATOM     14  C   UNL d   1      27.781 -13.004  -6.172  0.00  0.00     0.029 A 
ATOM     15  C   UNL d   1      28.074 -14.357  -6.059  0.00  0.00     0.035 A 
ATOM     16  C   UNL d   1      27.464 -15.074  -5.020  0.00  0.00     0.044 A 
BRANCH  15  17
ATOM     17  N   UNL d   1      29.005 -14.987  -6.936  0.00  0.00    -0.327 N 
ATOM     18  C   UNL d   1      29.904 -15.955  -6.490  0.00  0.00     0.226 C 
ATOM     19  O   UNL d   1      29.902 -16.413  -5.355  0.00  0.00    -0.273 OA
ATOM     20  H   UNL d   1      28.907 -14.819  -7.928  0.00  0.00     0.169 HD
BRANCH  18  21
ATOM     21  C   UNL d   1      30.897 -16.500  -7.528  0.00  0.00     0.078 C 
ATOM     22  C   UNL d   1      32.292 -15.914  -7.236  0.00  0.00     0.014 C 
ATOM     23  C   UNL d   1      33.393 -16.548  -8.086  0.00  0.00     0.001 C 
ATOM     24  C   UNL d   1      33.415 -18.065  -7.939  0.00  0.00     0.000 C 
ATOM     25  C   UNL d   1      32.049 -18.656  -8.269  0.00  0.00     0.001 C 
ATOM     26  C   UNL d   1      30.946 -18.036  -7.411  0.00  0.00     0.014 C 
ENDBRANCH  18  21
ENDBRANCH  15  17
ENDBRANCH   1  11
BRANCH   5  27
ATOM     27  N   UNL d   1      22.168 -18.256   0.307  0.00  0.00    -0.327 N 
ATOM     28  C   UNL d   1      21.233 -18.950  -0.453  0.00  0.00     0.226 C 
ATOM     29  O   UNL d   1      21.422 -19.306  -1.605  0.00  0.00    -0.273 OA
ATOM     30  H   UNL d   1      21.962 -18.088   1.283  0.00  0.00     0.169 HD
BRANCH  28  31
ATOM     31  C   UNL d   1      19.912 -19.350   0.261  0.00  0.00     0.078 C 
ATOM     32  C   UNL d   1      19.064 -20.359  -0.520  0.00  0.00     0.014 C 
ATOM     33  C   UNL d   1      17.866 -20.873   0.282  0.00  0.00     0.001 C 
ATOM     34  C   UNL d   1      18.288 -21.467   1.619  0.00  0.00     0.000 C 
ATOM     35  C   UNL d   1      19.073 -20.450   2.431  0.00  0.00     0.001 C 
ATOM     36  C   UNL d   1      20.277 -19.934   1.649  0.00  0.00     0.014 C 
ENDBRANCH  28  31
ENDBRANCH   5  27
TORSDOF 5
ENDMDL
MODEL 3
REMARK VINA RESULT:   -12.070      3.082      5.959
REMARK INTER + INTRA:         -14.551
REMARK INTER:                 -13.562
REMARK INTRA:                  -0.989
REMARK CONF_INDEPENDENT:        1.492
REMARK UNBOUND:                -0.989
REMARK  5 active torsions:
REMARK  status: ('A' for Active; 'I' for Inactive)
REMARK       I    between atoms: C_2  and  N_3 
REMARK    1  A    between atoms: C_2  and  C_28 
REMARK    2  A    between atoms: N_3  and  C_4 
REMARK    3  A    between atoms: C_8  and  C_9 
REMARK    4  A    between atoms: C_13  and  N_14 
REMARK       I    between atoms: N_14  and  C_15 
REMARK    5  A    between atoms: C_15  and  C_17 
ROOT
ATOM      1  C   UNL d   1      26.443 -15.321  -3.093  0.00  0.00     0.139 C 
ATOM      2  N   UNL d   1      25.264 -15.906  -3.000  0.00  0.00    -0.228 NA
ATOM      3  C   UNL d   1      25.255 -16.665  -1.883  0.00  0.00     0.088 C 
ATOM      4  C   UNL d   1      24.250 -17.560  -1.491  0.00  0.00     0.063 C 
ATOM      5  C   UNL d   1      24.266 -18.142  -0.227  0.00  0.00     0.037 C 
ATOM      6  C   UNL d   1      25.350 -17.833   0.604  0.00  0.00     0.032 C 
ATOM      7  C   UNL d   1      26.435 -16.990   0.192  0.00  0.00     0.034 C 
ATOM      8  C   UNL d   1      26.390 -16.459  -1.120  0.00  0.00     0.063 C 
ATOM      9  N   UNL d   1      27.230 -15.783  -2.027  0.00  0.00    -0.338 N 
ATOM     10  H   UNL d   1      28.240 -15.833  -2.039  0.00  0.00     0.167 HD
ENDROOT
BRANCH   1  11
ATOM     11  C   UNL d   1      26.691 -14.429  -4.267  0.00  0.00     0.012 A 
ATOM     12  C   UNL d   1      26.187 -13.154  -4.523  0.00  0.00     0.015 A 
ATOM     13  C   UNL d   1      26.670 -12.409  -5.633  0.00  0.00     0.003 A 
ATOM     14  C   UNL d   1      27.635 -12.930  -6.519  0.00  0.00     0.029 A 
ATOM     15  C   UNL d   1      28.147 -14.200  -6.294  0.00  0.00     0.035 A 
ATOM     16  C   UNL d   1      27.669 -14.912  -5.184  0.00  0.00     0.044 A 
BRANCH  15  17
ATOM     17  N   UNL d   1      29.166 -14.746  -7.129  0.00  0.00    -0.327 N 
ATOM     18  C   UNL d   1      30.104 -15.660  -6.653  0.00  0.00     0.226 C 
ATOM     19  O   UNL d   1      30.074 -16.142  -5.528  0.00  0.00    -0.273 OA
ATOM     20  H   UNL d   1      29.110 -14.563  -8.122  0.00  0.00     0.169 HD
BRANCH  18  21
ATOM     21  C   UNL d   1      31.188 -16.112  -7.645  0.00  0.00     0.078 C 
ATOM     22  C   UNL d   1      32.561 -15.644  -7.127  0.00  0.00     0.014 C 
ATOM     23  C   UNL d   1      33.727 -16.216  -7.934  0.00  0.00     0.001 C 
ATOM     24  C   UNL d   1      33.675 -17.738  -7.998  0.00  0.00     0.000 C 
ATOM     25  C   UNL d   1      32.334 -18.207  -8.551  0.00  0.00     0.001 C 
ATOM     26  C   UNL d   1      31.166 -17.650  -7.737  0.00  0.00     0.014 C 
ENDBRANCH  18  21
ENDBRANCH  15  17
ENDBRANCH   1  11
BRANCH   5  27
ATOM     27  N   UNL d   1      23.154 -18.967   0.126  0.00  0.00    -0.327 N 
ATOM     28  C   UNL d   1      21.813 -18.691  -0.114  0.00  0.00     0.226 C 
ATOM     29  O   UNL d   1      21.418 -17.701  -0.708  0.00  0.00    -0.273 OA
ATOM     30  H   UNL d   1      23.392 -19.859   0.541  0.00  0.00     0.169 HD
BRANCH  28  31
ATOM     31  C   UNL d   1      20.786 -19.764   0.342  0.00  0.00     0.078 C 
ATOM     32  C   UNL d   1      20.399 -19.667   1.822  0.00  0.00     0.014 C 
ATOM     33  C   UNL d   1      19.257 -20.613   2.200  0.00  0.00     0.001 C 
ATOM     34  C   UNL d   1      18.030 -20.404   1.323  0.00  0.00     0.000 C 
ATOM     35  C   UNL d   1      18.390 -20.566  -0.146  0.00  0.00     0.001 C 
ATOM     36  C   UNL d   1      19.521 -19.623  -0.542  0.00  0.00     0.014 C 
ENDBRANCH  28  31
ENDBRANCH   5  27
TORSDOF 5
ENDMDL
MODEL 4
REMARK VINA RESULT:   -11.827      5.170      7.650
REMARK INTER + INTRA:         -14.329
REMARK INTER:                 -13.319
REMARK INTRA:                  -1.011
REMARK CONF_INDEPENDENT:        1.492
REMARK UNBOUND:                -1.011
REMARK  5 active torsions:
REMARK  status: ('A' for Active; 'I' for Inactive)
REMARK       I    between atoms: C_2  and  N_3 
REMARK    1  A    between atoms: C_2  and  C_28 
REMARK    2  A    between atoms: N_3  and  C_4 
REMARK    3  A    between atoms: C_8  and  C_9 
REMARK    4  A    between atoms: C_13  and  N_14 
REMARK       I    between atoms: N_14  and  C_15 
REMARK    5  A    between atoms: C_15  and  C_17 
ROOT
ATOM      1  C   UNL d   1      27.726 -15.432  -0.163  0.00  0.00     0.139 C 
ATOM      2  N   UNL d   1      27.022 -16.277   0.567  0.00  0.00    -0.228 NA
ATOM      3  C   UNL d   1      25.948 -16.665  -0.154  0.00  0.00     0.088 C 
ATOM      4  C   UNL d   1      24.875 -17.442   0.303  0.00  0.00     0.063 C 
ATOM      5  C   UNL d   1      23.922 -17.935  -0.585  0.00  0.00     0.037 C 
ATOM      6  C   UNL d   1      24.059 -17.577  -1.931  0.00  0.00     0.032 C 
ATOM      7  C   UNL d   1      25.098 -16.711  -2.408  0.00  0.00     0.034 C 
ATOM      8  C   UNL d   1      26.015 -16.203  -1.456  0.00  0.00     0.063 C 
ATOM      9  N   UNL d   1      27.030 -15.230  -1.365  0.00  0.00    -0.338 N 
ATOM     10  H   UNL d   1      27.093 -14.394  -1.931  0.00  0.00     0.167 HD
ENDROOT
BRANCH   1  11
ATOM     11  C   UNL d   1      28.968 -14.856   0.436  0.00  0.00     0.012 A 
ATOM     12  C   UNL d   1      30.070 -14.288  -0.204  0.00  0.00     0.015 A 
ATOM     13  C   UNL d   1      31.088 -13.657   0.560  0.00  0.00     0.003 A 
ATOM     14  C   UNL d   1      31.043 -13.607   1.969  0.00  0.00     0.029 A 
ATOM     15  C   UNL d   1      29.962 -14.172   2.633  0.00  0.00     0.035 A 
ATOM     16  C   UNL d   1      28.961 -14.776   1.858  0.00  0.00     0.044 A 
BRANCH  15  17
ATOM     17  N   UNL d   1      29.844 -14.096   4.051  0.00  0.00    -0.327 N 
ATOM     18  C   UNL d   1      28.610 -14.157   4.696  0.00  0.00     0.226 C 
ATOM     19  O   UNL d   1      27.552 -14.381   4.122  0.00  0.00    -0.273 OA
ATOM     20  H   UNL d   1      30.694 -14.137   4.598  0.00  0.00     0.169 HD
BRANCH  18  21
ATOM     21  C   UNL d   1      28.624 -13.992   6.224  0.00  0.00     0.078 C 
ATOM     22  C   UNL d   1      30.026 -14.357   6.750  0.00  0.00     0.014 C 
ATOM     23  C   UNL d   1      30.208 -14.033   8.233  0.00  0.00     0.001 C 
ATOM     24  C   UNL d   1      29.894 -12.573   8.533  0.00  0.00     0.000 C 
ATOM     25  C   UNL d   1      28.491 -12.216   8.055  0.00  0.00     0.001 C 
ATOM     26  C   UNL d   1      28.309 -12.523   6.569  0.00  0.00     0.014 C 
ENDBRANCH  18  21
ENDBRANCH  15  17
ENDBRANCH   1  11
BRANCH   5  27
ATOM     27  N   UNL d   1      22.916 -18.797  -0.049  0.00  0.00    -0.327 N 
ATOM     28  C   UNL d   1      21.543 -18.673  -0.229  0.00  0.00     0.226 C 
ATOM     29  O   UNL d   1      21.022 -17.812  -0.919  0.00  0.00    -0.273 OA
ATOM     30  H   UNL d   1      23.262 -19.600   0.462  0.00  0.00     0.169 HD
BRANCH  28  31
ATOM     31  C   UNL d   1      20.651 -19.758   0.436  0.00  0.00     0.078 C 
ATOM     32  C   UNL d   1      20.342 -19.491   1.913  0.00  0.00     0.014 C 
ATOM     33  C   UNL d   1      19.319 -20.471   2.492  0.00  0.00     0.001 C 
ATOM     34  C   UNL d   1      18.030 -20.492   1.683  0.00  0.00     0.000 C 
ATOM     35  C   UNL d   1      18.318 -20.824   0.227  0.00  0.00     0.001 C 
ATOM     36  C   UNL d   1      19.330 -19.850  -0.368  0.00  0.00     0.014 C 
ENDBRANCH  28  31
ENDBRANCH   5  27
TORSDOF 5
ENDMDL
MODEL 5
REMARK VINA RESULT:   -11.627      4.930      7.276
REMARK INTER + INTRA:         -14.047
REMARK INTER:                 -13.119
REMARK INTRA:                  -0.928
REMARK CONF_INDEPENDENT:        1.492
REMARK UNBOUND:                -0.928
REMARK  5 active torsions:
REMARK  status: ('A' for Active; 'I' for Inactive)
REMARK       I    between atoms: C_2  and  N_3 
REMARK    1  A    between atoms: C_2  and  C_28 
REMARK    2  A    between atoms: N_3  and  C_4 
REMARK    3  A    between atoms: C_8  and  C_9 
REMARK    4  A    between atoms: C_13  and  N_14 
REMARK       I    between atoms: N_14  and  C_15 
REMARK    5  A    between atoms: C_15  and  C_17 
ROOT
ATOM      1  C   UNL d   1      27.941 -16.649  -0.985  0.00  0.00     0.139 C 
ATOM      2  N   UNL d   1      27.288 -17.706  -0.540  0.00  0.00    -0.228 NA
ATOM      3  C   UNL d   1      25.966 -17.439  -0.588  0.00  0.00     0.088 C 
ATOM      4  C   UNL d   1      24.934 -18.236  -0.074  0.00  0.00     0.063 C 
ATOM      5  C   UNL d   1      23.602 -17.947  -0.354  0.00  0.00     0.037 C 
ATOM      6  C   UNL d   1      23.344 -16.804  -1.120  0.00  0.00     0.032 C 
ATOM      7  C   UNL d   1      24.377 -15.924  -1.582  0.00  0.00     0.034 C 
ATOM      8  C   UNL d   1      25.713 -16.241  -1.233  0.00  0.00     0.063 C 
ATOM      9  N   UNL d   1      26.993 -15.653  -1.262  0.00  0.00    -0.338 N 
ATOM     10  H   UNL d   1      27.181 -14.660  -1.239  0.00  0.00     0.167 HD
ENDROOT
BRANCH   1  11
ATOM     11  C   UNL d   1      29.434 -16.710  -1.015  0.00  0.00     0.012 A 
ATOM     12  C   UNL d   1      30.344 -16.441   0.007  0.00  0.00     0.015 A 
ATOM     13  C   UNL d   1      31.727 -16.707  -0.185  0.00  0.00     0.003 A 
ATOM     14  C   UNL d   1      32.229 -17.212  -1.403  0.00  0.00     0.029 A 
ATOM     15  C   UNL d   1      31.347 -17.480  -2.441  0.00  0.00     0.035 A 
ATOM     16  C   UNL d   1      29.985 -17.225  -2.224  0.00  0.00     0.044 A 
BRANCH  15  17
ATOM     17  N   UNL d   1      31.799 -18.045  -3.669  0.00  0.00    -0.327 N 
ATOM     18  C   UNL d   1      31.012 -18.043  -4.820  0.00  0.00     0.226 C 
ATOM     19  O   UNL d   1      29.930 -17.477  -4.903  0.00  0.00    -0.273 OA
ATOM     20  H   UNL d   1      32.768 -18.327  -3.729  0.00  0.00     0.169 HD
BRANCH  18  21
ATOM     21  C   UNL d   1      31.598 -18.749  -6.053  0.00  0.00     0.078 C 
ATOM     22  C   UNL d   1      30.783 -20.027  -6.328  0.00  0.00     0.014 C 
ATOM     23  C   UNL d   1      31.154 -20.696  -7.651  0.00  0.00     0.001 C 
ATOM     24  C   UNL d   1      31.036 -19.730  -8.824  0.00  0.00     0.000 C 
ATOM     25  C   UNL d   1      31.876 -18.482  -8.578  0.00  0.00     0.001 C 
ATOM     26  C   UNL d   1      31.497 -17.800  -7.263  0.00  0.00     0.014 C 
ENDBRANCH  18  21
ENDBRANCH  15  17
ENDBRANCH   1  11
BRANCH   5  27
ATOM     27  N   UNL d   1      22.619 -18.866   0.130  0.00  0.00    -0.327 N 
ATOM     28  C   UNL d   1      21.274 -18.893  -0.218  0.00  0.00     0.226 C 
ATOM     29  O   UNL d   1      20.766 -18.140  -1.033  0.00  0.00    -0.273 OA
ATOM     30  H   UNL d   1      22.970 -19.591   0.743  0.00  0.00     0.169 HD
BRANCH  28  31
ATOM     31  C   UNL d   1      20.409 -20.012   0.426  0.00  0.00     0.078 C 
ATOM     32  C   UNL d   1      20.148 -19.814   1.922  0.00  0.00     0.014 C 
ATOM     33  C   UNL d   1      19.148 -20.825   2.489  0.00  0.00     0.001 C 
ATOM     34  C   UNL d   1      17.833 -20.816   1.723  0.00  0.00     0.000 C 
ATOM     35  C   UNL d   1      18.074 -21.080   0.245  0.00  0.00     0.001 C 
ATOM     36  C   UNL d   1      19.062 -20.075  -0.339  0.00  0.00     0.014 C 
ENDBRANCH  28  31
ENDBRANCH   5  27
TORSDOF 5
ENDMDL
MODEL 6
REMARK VINA RESULT:   -11.624      0.966      1.319
REMARK INTER + INTRA:         -14.142
REMARK INTER:                 -13.115
REMARK INTRA:                  -1.027
REMARK CONF_INDEPENDENT:        1.492
REMARK UNBOUND:                -1.027
REMARK  5 active torsions:
REMARK  status: ('A' for Active; 'I' for Inactive)
REMARK       I    between atoms: C_2  and  N_3 
REMARK    1  A    between atoms: C_2  and  C_28 
REMARK    2  A    between atoms: N_3  and  C_4 
REMARK    3  A    between atoms: C_8  and  C_9 
REMARK    4  A    between atoms: C_13  and  N_14 
REMARK       I    between atoms: N_14  and  C_15 
REMARK    5  A    between atoms: C_15  and  C_17 
ROOT
ATOM      1  C   UNL d   1      26.751 -15.041  -3.096  0.00  0.00     0.139 C 
ATOM      2  N   UNL d   1      25.557 -15.597  -3.018  0.00  0.00    -0.228 NA
ATOM      3  C   UNL d   1      25.555 -16.452  -1.972  0.00  0.00     0.088 C 
ATOM      4  C   UNL d   1      24.534 -17.348  -1.630  0.00  0.00     0.063 C 
ATOM      5  C   UNL d   1      24.567 -18.040  -0.422  0.00  0.00     0.037 C 
ATOM      6  C   UNL d   1      25.684 -17.838   0.398  0.00  0.00     0.032 C 
ATOM      7  C   UNL d   1      26.783 -16.995   0.028  0.00  0.00     0.034 C 
ATOM      8  C   UNL d   1      26.718 -16.348  -1.230  0.00  0.00     0.063 C 
ATOM      9  N   UNL d   1      27.553 -15.620  -2.100  0.00  0.00    -0.338 N 
ATOM     10  H   UNL d   1      28.560 -15.698  -2.148  0.00  0.00     0.167 HD
ENDROOT
BRANCH   1  11
ATOM     11  C   UNL d   1      26.995 -14.057  -4.194  0.00  0.00     0.012 A 
ATOM     12  C   UNL d   1      27.712 -14.223  -5.379  0.00  0.00     0.015 A 
ATOM     13  C   UNL d   1      27.696 -13.203  -6.368  0.00  0.00     0.003 A 
ATOM     14  C   UNL d   1      26.995 -11.994  -6.183  0.00  0.00     0.029 A 
ATOM     15  C   UNL d   1      26.280 -11.797  -5.009  0.00  0.00     0.035 A 
ATOM     16  C   UNL d   1      26.297 -12.823  -4.054  0.00  0.00     0.044 A 
BRANCH  15  17
ATOM     17  N   UNL d   1      25.510 -10.616  -4.801  0.00  0.00    -0.327 N 
ATOM     18  C   UNL d   1      26.036  -9.342  -5.009  0.00  0.00     0.226 C 
ATOM     19  O   UNL d   1      27.147  -9.133  -5.478  0.00  0.00    -0.273 OA
ATOM     20  H   UNL d   1      24.519 -10.723  -4.632  0.00  0.00     0.169 HD
BRANCH  18  21
ATOM     21  C   UNL d   1      25.115  -8.156  -4.679  0.00  0.00     0.078 C 
ATOM     22  C   UNL d   1      25.921  -6.850  -4.813  0.00  0.00     0.014 C 
ATOM     23  C   UNL d   1      25.049  -5.599  -4.704  0.00  0.00     0.001 C 
ATOM     24  C   UNL d   1      23.904  -5.621  -5.710  0.00  0.00     0.000 C 
ATOM     25  C   UNL d   1      23.076  -6.891  -5.553  0.00  0.00     0.001 C 
ATOM     26  C   UNL d   1      23.941  -8.145  -5.678  0.00  0.00     0.014 C 
ENDBRANCH  18  21
ENDBRANCH  15  17
ENDBRANCH   1  11
BRANCH   5  27
ATOM     27  N   UNL d   1      23.439 -18.860  -0.109  0.00  0.00    -0.327 N 
ATOM     28  C   UNL d   1      22.104 -18.549  -0.340  0.00  0.00     0.226 C 
ATOM     29  O   UNL d   1      21.729 -17.528  -0.892  0.00  0.00    -0.273 OA
ATOM     30  H   UNL d   1      23.660 -19.773   0.268  0.00  0.00     0.169 HD
BRANCH  28  31
ATOM     31  C   UNL d   1      21.057 -19.623   0.067  0.00  0.00     0.078 C 
ATOM     32  C   UNL d   1      20.651 -19.569   1.543  0.00  0.00     0.014 C 
ATOM     33  C   UNL d   1      19.491 -20.512   1.874  0.00  0.00     0.001 C 
ATOM     34  C   UNL d   1      18.280 -20.257   0.989  0.00  0.00     0.000 C 
ATOM     35  C   UNL d   1      18.657 -20.375  -0.480  0.00  0.00     0.001 C 
ATOM     36  C   UNL d   1      19.806 -19.435  -0.829  0.00  0.00     0.014 C 
ENDBRANCH  28  31
ENDBRANCH   5  27
TORSDOF 5
ENDMDL
MODEL 7
REMARK VINA RESULT:   -11.621      1.472      1.979
REMARK INTER + INTRA:         -14.207
REMARK INTER:                 -13.113
REMARK INTRA:                  -1.094
REMARK CONF_INDEPENDENT:        1.492
REMARK UNBOUND:                -1.094
REMARK  5 active torsions:
REMARK  status: ('A' for Active; 'I' for Inactive)
REMARK       I    between atoms: C_2  and  N_3 
REMARK    1  A    between atoms: C_2  and  C_28 
REMARK    2  A    between atoms: N_3  and  C_4 
REMARK    3  A    between atoms: C_8  and  C_9 
REMARK    4  A    between atoms: C_13  and  N_14 
REMARK       I    between atoms: N_14  and  C_15 
REMARK    5  A    between atoms: C_15  and  C_17 
ROOT
ATOM      1  C   UNL d   1      25.865 -14.785  -2.844  0.00  0.00     0.139 C 
ATOM      2  N   UNL d   1      24.595 -14.946  -2.525  0.00  0.00    -0.228 NA
ATOM      3  C   UNL d   1      24.495 -16.022  -1.715  0.00  0.00     0.088 C 
ATOM      4  C   UNL d   1      23.309 -16.620  -1.268  0.00  0.00     0.063 C 
ATOM      5  C   UNL d   1      23.335 -17.606  -0.285  0.00  0.00     0.037 C 
ATOM      6  C   UNL d   1      24.591 -18.002   0.189  0.00  0.00     0.032 C 
ATOM      7  C   UNL d   1      25.821 -17.467  -0.317  0.00  0.00     0.034 C 
ATOM      8  C   UNL d   1      25.740 -16.498  -1.346  0.00  0.00     0.063 C 
ATOM      9  N   UNL d   1      26.583 -15.842  -2.265  0.00  0.00    -0.338 N 
ATOM     10  H   UNL d   1      27.455 -16.208  -2.624  0.00  0.00     0.167 HD
ENDROOT
BRANCH   1  11
ATOM     11  C   UNL d   1      26.222 -13.650  -3.749  0.00  0.00     0.012 A 
ATOM     12  C   UNL d   1      26.804 -13.688  -5.016  0.00  0.00     0.015 A 
ATOM     13  C   UNL d   1      26.922 -12.494  -5.779  0.00  0.00     0.003 A 
ATOM     14  C   UNL d   1      26.493 -11.246  -5.284  0.00  0.00     0.029 A 
ATOM     15  C   UNL d   1      25.918 -11.177  -4.022  0.00  0.00     0.035 A 
ATOM     16  C   UNL d   1      25.797 -12.369  -3.293  0.00  0.00     0.044 A 
BRANCH  15  17
ATOM     17  N   UNL d   1      25.417  -9.948  -3.503  0.00  0.00    -0.327 N 
ATOM     18  C   UNL d   1      26.225  -9.056  -2.799  0.00  0.00     0.226 C 
ATOM     19  O   UNL d   1      27.432  -9.199  -2.657  0.00  0.00    -0.273 OA
ATOM     20  H   UNL d   1      24.486  -9.664  -3.779  0.00  0.00     0.169 HD
BRANCH  18  21
ATOM     21  C   UNL d   1      25.536  -7.803  -2.237  0.00  0.00     0.078 C 
ATOM     22  C   UNL d   1      25.585  -7.858  -0.698  0.00  0.00     0.014 C 
ATOM     23  C   UNL d   1      25.108  -6.563  -0.041  0.00  0.00     0.001 C 
ATOM     24  C   UNL d   1      25.882  -5.353  -0.552  0.00  0.00     0.000 C 
ATOM     25  C   UNL d   1      25.801  -5.268  -2.072  0.00  0.00     0.001 C 
ATOM     26  C   UNL d   1      26.293  -6.555  -2.734  0.00  0.00     0.014 C 
ENDBRANCH  18  21
ENDBRANCH  15  17
ENDBRANCH   1  11
BRANCH   5  27
ATOM     27  N   UNL d   1      22.075 -18.095   0.182  0.00  0.00    -0.327 N 
ATOM     28  C   UNL d   1      21.188 -18.897  -0.526  0.00  0.00     0.226 C 
ATOM     29  O   UNL d   1      21.405 -19.326  -1.648  0.00  0.00    -0.273 OA
ATOM     30  H   UNL d   1      21.853 -17.867   1.143  0.00  0.00     0.169 HD
BRANCH  28  31
ATOM     31  C   UNL d   1      19.889 -19.322   0.212  0.00  0.00     0.078 C 
ATOM     32  C   UNL d   1      19.087 -20.408  -0.513  0.00  0.00     0.014 C 
ATOM     33  C   UNL d   1      17.916 -20.936   0.319  0.00  0.00     0.001 C 
ATOM     34  C   UNL d   1      18.367 -21.441   1.682  0.00  0.00     0.000 C 
ATOM     35  C   UNL d   1      19.106 -20.348   2.439  0.00  0.00     0.001 C 
ATOM     36  C   UNL d   1      20.283 -19.817   1.627  0.00  0.00     0.014 C 
ENDBRANCH  28  31
ENDBRANCH   5  27
TORSDOF 5
ENDMDL
MODEL 8
REMARK VINA RESULT:   -11.464      2.558      4.695
REMARK INTER + INTRA:         -13.859
REMARK INTER:                 -12.955
REMARK INTRA:                  -0.904
REMARK CONF_INDEPENDENT:        1.492
REMARK UNBOUND:                -0.904
REMARK  5 active torsions:
REMARK  status: ('A' for Active; 'I' for Inactive)
REMARK       I    between atoms: C_2  and  N_3 
REMARK    1  A    between atoms: C_2  and  C_28 
REMARK    2  A    between atoms: N_3  and  C_4 
REMARK    3  A    between atoms: C_8  and  C_9 
REMARK    4  A    between atoms: C_13  and  N_14 
REMARK       I    between atoms: N_14  and  C_15 
REMARK    5  A    between atoms: C_15  and  C_17 
ROOT
ATOM      1  C   UNL d   1      26.070 -14.871  -3.011  0.00  0.00     0.139 C 
ATOM      2  N   UNL d   1      24.877 -15.381  -2.769  0.00  0.00    -0.228 NA
ATOM      3  C   UNL d   1      25.018 -16.379  -1.870  0.00  0.00     0.088 C 
ATOM      4  C   UNL d   1      24.022 -17.272  -1.453  0.00  0.00     0.063 C 
ATOM      5  C   UNL d   1      24.240 -18.135  -0.382  0.00  0.00     0.037 C 
ATOM      6  C   UNL d   1      25.506 -18.104   0.215  0.00  0.00     0.032 C 
ATOM      7  C   UNL d   1      26.569 -17.262  -0.252  0.00  0.00     0.034 C 
ATOM      8  C   UNL d   1      26.307 -16.435  -1.371  0.00  0.00     0.063 C 
ATOM      9  N   UNL d   1      27.006 -15.623  -2.285  0.00  0.00    -0.338 N 
ATOM     10  H   UNL d   1      27.977 -15.735  -2.546  0.00  0.00     0.167 HD
ENDROOT
BRANCH   1  11
ATOM     11  C   UNL d   1      26.164 -13.747  -3.991  0.00  0.00     0.012 A 
ATOM     12  C   UNL d   1      25.529 -12.505  -3.967  0.00  0.00     0.015 A 
ATOM     13  C   UNL d   1      25.874 -11.512  -4.924  0.00  0.00     0.003 A 
ATOM     14  C   UNL d   1      26.829 -11.748  -5.934  0.00  0.00     0.029 A 
ATOM     15  C   UNL d   1      27.470 -12.978  -5.987  0.00  0.00     0.035 A 
ATOM     16  C   UNL d   1      27.126 -13.937  -5.025  0.00  0.00     0.044 A 
BRANCH  15  17
ATOM     17  N   UNL d   1      28.484 -13.242  -6.954  0.00  0.00    -0.327 N 
ATOM     18  C   UNL d   1      29.349 -12.249  -7.411  0.00  0.00     0.226 C 
ATOM     19  O   UNL d   1      29.382 -11.113  -6.956  0.00  0.00    -0.273 OA
ATOM     20  H   UNL d   1      28.658 -14.207  -7.204  0.00  0.00     0.169 HD
BRANCH  18  21
ATOM     21  C   UNL d   1      30.348 -12.659  -8.505  0.00  0.00     0.078 C 
ATOM     22  C   UNL d   1      31.180 -11.425  -8.905  0.00  0.00     0.014 C 
ATOM     23  C   UNL d   1      32.339 -11.767  -9.841  0.00  0.00     0.001 C 
ATOM     24  C   UNL d   1      33.240 -12.846  -9.251  0.00  0.00     0.000 C 
ATOM     25  C   UNL d   1      32.430 -14.086  -8.894  0.00  0.00     0.001 C 
ATOM     26  C   UNL d   1      31.280 -13.751  -7.945  0.00  0.00     0.014 C 
ENDBRANCH  18  21
ENDBRANCH  15  17
ENDBRANCH   1  11
BRANCH   5  27
ATOM     27  N   UNL d   1      23.140 -18.944   0.038  0.00  0.00    -0.327 N 
ATOM     28  C   UNL d   1      21.794 -18.704  -0.218  0.00  0.00     0.226 C 
ATOM     29  O   UNL d   1      21.385 -17.770  -0.887  0.00  0.00    -0.273 OA
ATOM     30  H   UNL d   1      23.391 -19.797   0.522  0.00  0.00     0.169 HD
BRANCH  28  31
ATOM     31  C   UNL d   1      20.783 -19.751   0.326  0.00  0.00     0.078 C 
ATOM     32  C   UNL d   1      20.381 -19.529   1.787  0.00  0.00     0.014 C 
ATOM     33  C   UNL d   1      19.253 -20.458   2.241  0.00  0.00     0.001 C 
ATOM     34  C   UNL d   1      18.030 -20.351   1.340  0.00  0.00     0.000 C 
ATOM     35  C   UNL d   1      18.406 -20.638  -0.106  0.00  0.00     0.001 C 
ATOM     36  C   UNL d   1      19.524 -19.714  -0.577  0.00  0.00     0.014 C 
ENDBRANCH  28  31
ENDBRANCH   5  27
TORSDOF 5
ENDMDL
MODEL 9
REMARK VINA RESULT:   -11.241      1.039     10.678
REMARK INTER + INTRA:         -13.846
REMARK INTER:                 -12.732
REMARK INTRA:                  -1.114
REMARK CONF_INDEPENDENT:        1.492
REMARK UNBOUND:                -1.114
REMARK  5 active torsions:
REMARK  status: ('A' for Active; 'I' for Inactive)
REMARK       I    between atoms: C_2  and  N_3 
REMARK    1  A    between atoms: C_2  and  C_28 
REMARK    2  A    between atoms: N_3  and  C_4 
REMARK    3  A    between atoms: C_8  and  C_9 
REMARK    4  A    between atoms: C_13  and  N_14 
REMARK       I    between atoms: N_14  and  C_15 
REMARK    5  A    between atoms: C_15  and  C_17 
ROOT
ATOM      1  C   UNL d   1      26.755 -15.539  -2.637  0.00  0.00     0.139 C 
ATOM      2  N   UNL d   1      25.978 -14.473  -2.620  0.00  0.00    -0.228 NA
ATOM      3  C   UNL d   1      26.320 -13.684  -3.661  0.00  0.00     0.088 C 
ATOM      4  C   UNL d   1      25.840 -12.393  -3.922  0.00  0.00     0.063 C 
ATOM      5  C   UNL d   1      26.123 -11.756  -5.127  0.00  0.00     0.037 C 
ATOM      6  C   UNL d   1      26.945 -12.440  -6.032  0.00  0.00     0.032 C 
ATOM      7  C   UNL d   1      27.520 -13.723  -5.750  0.00  0.00     0.034 C 
ATOM      8  C   UNL d   1      27.234 -14.306  -4.492  0.00  0.00     0.063 C 
ATOM      9  N   UNL d   1      27.667 -15.381  -3.691  0.00  0.00    -0.338 N 
ATOM     10  H   UNL d   1      28.587 -15.801  -3.721  0.00  0.00     0.167 HD
ENDROOT
BRANCH   1  11
ATOM     11  C   UNL d   1      26.564 -16.561  -1.563  0.00  0.00     0.012 A 
ATOM     12  C   UNL d   1      27.525 -17.204  -0.781  0.00  0.00     0.015 A 
ATOM     13  C   UNL d   1      27.122 -18.037   0.297  0.00  0.00     0.003 A 
ATOM     14  C   UNL d   1      25.763 -18.268   0.595  0.00  0.00     0.029 A 
ATOM     15  C   UNL d   1      24.786 -17.649  -0.171  0.00  0.00     0.035 A 
ATOM     16  C   UNL d   1      25.205 -16.819  -1.220  0.00  0.00     0.044 A 
BRANCH  15  17
ATOM     17  N   UNL d   1      23.401 -17.807   0.128  0.00  0.00    -0.327 N 
ATOM     18  C   UNL d   1      22.566 -18.621  -0.635  0.00  0.00     0.226 C 
ATOM     19  O   UNL d   1      22.961 -19.337  -1.546  0.00  0.00    -0.273 OA
ATOM     20  H   UNL d   1      23.060 -17.422   0.999  0.00  0.00     0.169 HD
BRANCH  18  21
ATOM     21  C   UNL d   1      21.080 -18.642  -0.241  0.00  0.00     0.078 C 
ATOM     22  C   UNL d   1      20.298 -19.446  -1.297  0.00  0.00     0.014 C 
ATOM     23  C   UNL d   1      18.845 -19.700  -0.895  0.00  0.00     0.001 C 
ATOM     24  C   UNL d   1      18.748 -20.380   0.466  0.00  0.00     0.000 C 
ATOM     25  C   UNL d   1      19.483 -19.568   1.525  0.00  0.00     0.001 C 
ATOM     26  C   UNL d   1      20.941 -19.324   1.135  0.00  0.00     0.014 C 
ENDBRANCH  18  21
ENDBRANCH  15  17
ENDBRANCH   1  11
BRANCH   5  27
ATOM     27  N   UNL d   1      25.516 -10.482  -5.350  0.00  0.00    -0.327 N 
ATOM     28  C   UNL d   1      25.936  -9.265  -4.825  0.00  0.00     0.226 C 
ATOM     29  O   UNL d   1      26.926  -9.132  -4.124  0.00  0.00    -0.273 OA
ATOM     30  H   UNL d   1      24.739 -10.481  -5.999  0.00  0.00     0.169 HD
BRANCH  28  31
ATOM     31  C   UNL d   1      25.122  -8.008  -5.239  0.00  0.00     0.078 C 
ATOM     32  C   UNL d   1      23.708  -8.319  -5.742  0.00  0.00     0.014 C 
ATOM     33  C   UNL d   1      22.869  -7.060  -5.969  0.00  0.00     0.001 C 
ATOM     34  C   UNL d   1      22.801  -6.188  -4.722  0.00  0.00     0.000 C 
ATOM     35  C   UNL d   1      24.200  -5.816  -4.254  0.00  0.00     0.001 C 
ATOM     36  C   UNL d   1      25.048  -7.061  -4.014  0.00  0.00     0.014 C 
ENDBRANCH  28  31
ENDBRANCH   5  27
TORSDOF 5
ENDMDL
