MODEL 1
REMARK VINA RESULT:    -9.585      0.000      0.000
REMARK INTER + INTRA:         -14.040
REMARK INTER:                 -12.866
REMARK INTRA:                  -1.174
REMARK CONF_INDEPENDENT:        3.281
REMARK UNBOUND:                -1.174
REMARK  11 active torsions:
REMARK  status: ('A' for Active; 'I' for Inactive)
REMARK    1  A    between atoms: C_2  and  C_3 
REMARK    2  A    between atoms: C_3  and  C_4 
REMARK    3  A    between atoms: C_4  and  S_5 
REMARK    4  A    between atoms: S_5  and  C_6 
REMARK    5  A    between atoms: C_9  and  C_10 
REMARK       I    between atoms: C_10  and  N_12 
REMARK    6  A    between atoms: N_12  and  C_13 
REMARK    7  A    between atoms: C_13  and  C_14 
REMARK    8  A    between atoms: C_14  and  C_15 
REMARK    9  A    between atoms: C_14  and  N_25 
REMARK   10  A    between atoms: C_18  and  O_19 
REMARK   11  A    between atoms: C_21  and  O_22 
ROOT
ATOM      1  C   UNL d   1      27.866 -15.083   0.031  0.00  0.00     0.256 C 
ATOM      2  O   UNL d   1      28.169 -14.280  -0.852  0.00  0.00    -0.268 OA
ATOM      3  N   UNL d   1      28.515 -15.081   1.240  0.00  0.00    -0.354 N 
ATOM      4  H   UNL d   1      28.280 -15.803   1.916  0.00  0.00     0.162 HD
ENDROOT
BRANCH   3   5
ATOM      5  C   UNL d   1      29.584 -14.158   1.576  0.00  0.00     0.161 C 
BRANCH   5   6
ATOM      6  C   UNL d   1      29.433 -13.571   3.024  0.00  0.00     0.237 C 
BRANCH   6   7
ATOM      7  C   UNL d   1      28.385 -12.463   3.081  0.00  0.00    -0.023 C 
ATOM      8  C   UNL d   1      27.460 -12.264   2.050  0.00  0.00     0.012 C 
ATOM      9  C   UNL d   1      26.742 -11.067   1.986  0.00  0.00     0.040 C 
ATOM     10  C   UNL d   1      26.803 -10.128   3.028  0.00  0.00     0.101 C 
ATOM     11  C   UNL d   1      27.666 -10.359   4.105  0.00  0.00     0.102 C 
ATOM     12  C   UNL d   1      28.436 -11.515   4.109  0.00  0.00     0.049 C 
BRANCH  10  13
ATOM     13  O   UNL d   1      25.970  -9.053   2.859  0.00  0.00    -0.353 OA
ATOM     14  C   UNL d   1      25.849  -8.547   1.531  0.00  0.00     0.210 C 
ENDBRANCH  10  13
BRANCH  11  15
ATOM     15  O   UNL d   1      27.781  -9.430   5.096  0.00  0.00    -0.353 OA
ATOM     16  C   UNL d   1      29.021  -8.765   5.288  0.00  0.00     0.210 C 
ENDBRANCH  11  15
ENDBRANCH   6   7
BRANCH   6  17
ATOM     17  N   UNL d   1      29.068 -14.692   4.016  0.00  0.00    -0.069 N 
ATOM     18  C   UNL d   1      30.030 -14.792   5.164  0.00  0.00     0.270 C 
ATOM     19  C   UNL d   1      27.665 -14.571   4.562  0.00  0.00     0.270 C 
ATOM     20  H   UNL d   1      29.095 -15.575   3.485  0.00  0.00     0.279 HD
ENDBRANCH   6  17
ENDBRANCH   5   6
ENDBRANCH   3   5
BRANCH   1  21
ATOM     21  C   UNL d   1      26.775 -16.069  -0.170  0.00  0.00     0.090 A 
ATOM     22  C   UNL d   1      26.719 -17.192   0.627  0.00  0.00     0.139 A 
ATOM     23  N   UNL d   1      25.792 -18.174   0.491  0.00  0.00    -0.234 NA
ATOM     24  C   UNL d   1      24.881 -18.031  -0.486  0.00  0.00     0.189 A 
ATOM     25  N   UNL d   1      24.829 -16.976  -1.302  0.00  0.00    -0.210 NA
ATOM     26  C   UNL d   1      25.769 -16.028  -1.117  0.00  0.00     0.146 A 
ATOM     27 CL   UNL d   1      25.533 -14.735  -2.242  0.00  0.00    -0.061 Cl
BRANCH  24  28
ATOM     28  S   UNL d   1      23.552 -19.198  -0.580  0.00  0.00    -0.090 SA
BRANCH  28  29
ATOM     29  C   UNL d   1      22.101 -18.091  -0.695  0.00  0.00     0.082 C 
BRANCH  29  30
ATOM     30  C   UNL d   1      20.839 -18.949  -0.854  0.00  0.00     0.010 C 
BRANCH  30  31
ATOM     31  C   UNL d   1      20.490 -19.710   0.429  0.00  0.00    -0.004 C 
ATOM     32  C   UNL d   1      19.126 -20.378   0.318  0.00  0.00     0.005 C 
ENDBRANCH  30  31
ENDBRANCH  29  30
ENDBRANCH  28  29
ENDBRANCH  24  28
ENDBRANCH   1  21
TORSDOF 11
ENDMDL
MODEL 2
REMARK VINA RESULT:    -9.212      4.208      9.026
REMARK INTER + INTRA:         -13.596
REMARK INTER:                 -12.493
REMARK INTRA:                  -1.103
REMARK CONF_INDEPENDENT:        3.281
REMARK UNBOUND:                -1.103
REMARK  11 active torsions:
REMARK  status: ('A' for Active; 'I' for Inactive)
REMARK    1  A    between atoms: C_2  and  C_3 
REMARK    2  A    between atoms: C_3  and  C_4 
REMARK    3  A    between atoms: C_4  and  S_5 
REMARK    4  A    between atoms: S_5  and  C_6 
REMARK    5  A    between atoms: C_9  and  C_10 
REMARK       I    between atoms: C_10  and  N_12 
REMARK    6  A    between atoms: N_12  and  C_13 
REMARK    7  A    between atoms: C_13  and  C_14 
REMARK    8  A    between atoms: C_14  and  C_15 
REMARK    9  A    between atoms: C_14  and  N_25 
REMARK   10  A    between atoms: C_18  and  O_19 
REMARK   11  A    between atoms: C_21  and  O_22 
ROOT
ATOM      1  C   UNL d   1      27.676 -13.869   3.403  0.00  0.00     0.256 C 
ATOM      2  O   UNL d   1      26.616 -13.348   3.054  0.00  0.00    -0.268 OA
ATOM      3  N   UNL d   1      28.371 -14.693   2.555  0.00  0.00    -0.354 N 
ATOM      4  H   UNL d   1      29.205 -15.155   2.906  0.00  0.00     0.162 HD
ENDROOT
BRANCH   3   5
ATOM      5  C   UNL d   1      27.933 -15.012   1.208  0.00  0.00     0.161 C 
BRANCH   5   6
ATOM      6  C   UNL d   1      27.782 -16.559   0.980  0.00  0.00     0.237 C 
BRANCH   6   7
ATOM      7  C   UNL d   1      26.407 -16.918   0.423  0.00  0.00    -0.023 C 
ATOM      8  C   UNL d   1      25.839 -18.184   0.609  0.00  0.00     0.012 C 
ATOM      9  C   UNL d   1      24.749 -18.575  -0.171  0.00  0.00     0.040 C 
ATOM     10  C   UNL d   1      24.102 -17.663  -1.021  0.00  0.00     0.101 C 
ATOM     11  C   UNL d   1      24.616 -16.369  -1.151  0.00  0.00     0.102 C 
ATOM     12  C   UNL d   1      25.752 -16.025  -0.431  0.00  0.00     0.049 C 
BRANCH  10  13
ATOM     13  O   UNL d   1      22.993 -18.174  -1.645  0.00  0.00    -0.353 OA
ATOM     14  C   UNL d   1      22.008 -18.769  -0.803  0.00  0.00     0.210 C 
ENDBRANCH  10  13
BRANCH  11  15
ATOM     15  O   UNL d   1      24.034 -15.489  -2.016  0.00  0.00    -0.353 OA
ATOM     16  C   UNL d   1      24.856 -14.677  -2.843  0.00  0.00     0.210 C 
ENDBRANCH  11  15
ENDBRANCH   6   7
BRANCH   6  17
ATOM     17  N   UNL d   1      28.884 -17.064   0.030  0.00  0.00    -0.069 N 
ATOM     18  C   UNL d   1      28.456 -17.073  -1.409  0.00  0.00     0.270 C 
ATOM     19  C   UNL d   1      30.176 -16.291   0.151  0.00  0.00     0.270 C 
ATOM     20  H   UNL d   1      29.098 -18.031   0.315  0.00  0.00     0.279 HD
ENDBRANCH   6  17
ENDBRANCH   5   6
ENDBRANCH   3   5
BRANCH   1  21
ATOM     21  C   UNL d   1      28.252 -13.610   4.746  0.00  0.00     0.090 A 
ATOM     22  C   UNL d   1      28.775 -14.657   5.475  0.00  0.00     0.139 A 
ATOM     23  N   UNL d   1      29.278 -14.532   6.729  0.00  0.00    -0.234 NA
ATOM     24  C   UNL d   1      29.258 -13.309   7.283  0.00  0.00     0.189 A 
ATOM     25  N   UNL d   1      28.793 -12.223   6.663  0.00  0.00    -0.210 NA
ATOM     26  C   UNL d   1      28.312 -12.403   5.417  0.00  0.00     0.146 A 
ATOM     27 CL   UNL d   1      27.780 -10.892   4.764  0.00  0.00    -0.061 Cl
BRANCH  24  28
ATOM     28  S   UNL d   1      30.066 -13.073   8.841  0.00  0.00    -0.090 SA
BRANCH  28  29
ATOM     29  C   UNL d   1      29.583 -14.593   9.737  0.00  0.00     0.082 C 
BRANCH  29  30
ATOM     30  C   UNL d   1      28.130 -14.446  10.208  0.00  0.00     0.010 C 
BRANCH  30  31
ATOM     31  C   UNL d   1      27.832 -13.041  10.741  0.00  0.00    -0.004 C 
ATOM     32  C   UNL d   1      28.524 -12.800  12.075  0.00  0.00     0.005 C 
ENDBRANCH  30  31
ENDBRANCH  29  30
ENDBRANCH  28  29
ENDBRANCH  24  28
ENDBRANCH   1  21
TORSDOF 11
ENDMDL
MODEL 3
REMARK VINA RESULT:    -9.055      4.360      6.103
REMARK INTER + INTRA:         -13.970
REMARK INTER:                 -12.336
REMARK INTRA:                  -1.634
REMARK CONF_INDEPENDENT:        3.281
REMARK UNBOUND:                -1.634
REMARK  11 active torsions:
REMARK  status: ('A' for Active; 'I' for Inactive)
REMARK    1  A    between atoms: C_2  and  C_3 
REMARK    2  A    between atoms: C_3  and  C_4 
REMARK    3  A    between atoms: C_4  and  S_5 
REMARK    4  A    between atoms: S_5  and  C_6 
REMARK    5  A    between atoms: C_9  and  C_10 
REMARK       I    between atoms: C_10  and  N_12 
REMARK    6  A    between atoms: N_12  and  C_13 
REMARK    7  A    between atoms: C_13  and  C_14 
REMARK    8  A    between atoms: C_14  and  C_15 
REMARK    9  A    between atoms: C_14  and  N_25 
REMARK   10  A    between atoms: C_18  and  O_19 
REMARK   11  A    between atoms: C_21  and  O_22 
ROOT
ATOM      1  C   UNL d   1      26.306 -17.414   0.297  0.00  0.00     0.256 C 
ATOM      2  O   UNL d   1      27.106 -18.330   0.487  0.00  0.00    -0.268 OA
ATOM      3  N   UNL d   1      26.680 -16.105   0.466  0.00  0.00    -0.354 N 
ATOM      4  H   UNL d   1      25.971 -15.383   0.365  0.00  0.00     0.162 HD
ENDROOT
BRANCH   3   5
ATOM      5  C   UNL d   1      28.012 -15.696   0.871  0.00  0.00     0.161 C 
BRANCH   5   6
ATOM      6  C   UNL d   1      29.135 -16.391   0.020  0.00  0.00     0.237 C 
BRANCH   6   7
ATOM      7  C   UNL d   1      29.056 -15.997  -1.452  0.00  0.00    -0.023 C 
ATOM      8  C   UNL d   1      28.386 -14.844  -1.877  0.00  0.00     0.012 C 
ATOM      9  C   UNL d   1      28.062 -14.689  -3.227  0.00  0.00     0.040 C 
ATOM     10  C   UNL d   1      28.544 -15.585  -4.195  0.00  0.00     0.101 C 
ATOM     11  C   UNL d   1      29.285 -16.698  -3.786  0.00  0.00     0.102 C 
ATOM     12  C   UNL d   1      29.524 -16.881  -2.431  0.00  0.00     0.049 C 
BRANCH  10  13
ATOM     13  O   UNL d   1      28.217 -15.242  -5.482  0.00  0.00    -0.353 OA
ATOM     14  C   UNL d   1      27.421 -14.070  -5.644  0.00  0.00     0.210 C 
ENDBRANCH  10  13
BRANCH  11  15
ATOM     15  O   UNL d   1      29.711 -17.608  -4.708  0.00  0.00    -0.353 OA
ATOM     16  C   UNL d   1      30.674 -17.221  -5.678  0.00  0.00     0.210 C 
ENDBRANCH  11  15
ENDBRANCH   6   7
BRANCH   6  17
ATOM     17  N   UNL d   1      30.523 -16.039   0.585  0.00  0.00    -0.069 N 
ATOM     18  C   UNL d   1      31.646 -16.446  -0.325  0.00  0.00     0.270 C 
ATOM     19  C   UNL d   1      30.675 -14.574   0.924  0.00  0.00     0.270 C 
ATOM     20  H   UNL d   1      30.618 -16.552   1.474  0.00  0.00     0.279 HD
ENDBRANCH   6  17
ENDBRANCH   5   6
ENDBRANCH   3   5
BRANCH   1  21
ATOM     21  C   UNL d   1      24.915 -17.688  -0.142  0.00  0.00     0.090 A 
ATOM     22  C   UNL d   1      24.137 -18.569   0.578  0.00  0.00     0.139 A 
ATOM     23  N   UNL d   1      22.873 -18.923   0.231  0.00  0.00    -0.234 NA
ATOM     24  C   UNL d   1      22.363 -18.375  -0.884  0.00  0.00     0.189 A 
ATOM     25  N   UNL d   1      23.019 -17.497  -1.645  0.00  0.00    -0.210 NA
ATOM     26  C   UNL d   1      24.267 -17.176  -1.251  0.00  0.00     0.146 A 
ATOM     27 CL   UNL d   1      24.950 -16.015  -2.336  0.00  0.00    -0.061 Cl
BRANCH  24  28
ATOM     28  S   UNL d   1      20.660 -18.672  -1.268  0.00  0.00    -0.090 SA
BRANCH  28  29
ATOM     29  C   UNL d   1      20.278 -20.086  -0.172  0.00  0.00     0.082 C 
BRANCH  29  30
ATOM     30  C   UNL d   1      19.929 -19.547   1.222  0.00  0.00     0.010 C 
BRANCH  30  31
ATOM     31  C   UNL d   1      18.931 -20.445   1.957  0.00  0.00    -0.004 C 
ATOM     32  C   UNL d   1      18.109 -21.271   0.978  0.00  0.00     0.005 C 
ENDBRANCH  30  31
ENDBRANCH  29  30
ENDBRANCH  28  29
ENDBRANCH  24  28
ENDBRANCH   1  21
TORSDOF 11
ENDMDL
MODEL 4
REMARK VINA RESULT:    -9.024      2.085      3.291
REMARK INTER + INTRA:         -13.608
REMARK INTER:                 -12.305
REMARK INTRA:                  -1.303
REMARK CONF_INDEPENDENT:        3.281
REMARK UNBOUND:                -1.303
REMARK  11 active torsions:
REMARK  status: ('A' for Active; 'I' for Inactive)
REMARK    1  A    between atoms: C_2  and  C_3 
REMARK    2  A    between atoms: C_3  and  C_4 
REMARK    3  A    between atoms: C_4  and  S_5 
REMARK    4  A    between atoms: S_5  and  C_6 
REMARK    5  A    between atoms: C_9  and  C_10 
REMARK       I    between atoms: C_10  and  N_12 
REMARK    6  A    between atoms: N_12  and  C_13 
REMARK    7  A    between atoms: C_13  and  C_14 
REMARK    8  A    between atoms: C_14  and  C_15 
REMARK    9  A    between atoms: C_14  and  N_25 
REMARK   10  A    between atoms: C_18  and  O_19 
REMARK   11  A    between atoms: C_21  and  O_22 
ROOT
ATOM      1  C   UNL d   1      26.373 -15.715  -1.475  0.00  0.00     0.256 C 
ATOM      2  O   UNL d   1      26.432 -15.323  -2.641  0.00  0.00    -0.268 OA
ATOM      3  N   UNL d   1      27.313 -15.330  -0.553  0.00  0.00    -0.354 N 
ATOM      4  H   UNL d   1      27.266 -15.729   0.381  0.00  0.00     0.162 HD
ENDROOT
BRANCH   3   5
ATOM      5  C   UNL d   1      28.425 -14.449  -0.860  0.00  0.00     0.161 C 
BRANCH   5   6
ATOM      6  C   UNL d   1      29.424 -14.307   0.344  0.00  0.00     0.237 C 
BRANCH   6   7
ATOM      7  C   UNL d   1      28.764 -13.653   1.555  0.00  0.00    -0.023 C 
ATOM      8  C   UNL d   1      28.717 -12.264   1.715  0.00  0.00     0.012 C 
ATOM      9  C   UNL d   1      28.401 -11.721   2.962  0.00  0.00     0.040 C 
ATOM     10  C   UNL d   1      27.963 -12.536   4.018  0.00  0.00     0.101 C 
ATOM     11  C   UNL d   1      27.929 -13.923   3.839  0.00  0.00     0.102 C 
ATOM     12  C   UNL d   1      28.329 -14.451   2.619  0.00  0.00     0.049 C 
BRANCH  10  13
ATOM     13  O   UNL d   1      27.603 -11.843   5.144  0.00  0.00    -0.353 OA
ATOM     14  C   UNL d   1      27.781 -10.429   5.104  0.00  0.00     0.210 C 
ENDBRANCH  10  13
BRANCH  11  15
ATOM     15  O   UNL d   1      27.562 -14.734   4.873  0.00  0.00    -0.353 OA
ATOM     16  C   UNL d   1      28.530 -15.108   5.843  0.00  0.00     0.210 C 
ENDBRANCH  11  15
ENDBRANCH   6   7
BRANCH   6  17
ATOM     17  N   UNL d   1      29.987 -15.687   0.732  0.00  0.00    -0.069 N 
ATOM     18  C   UNL d   1      30.023 -16.648  -0.421  0.00  0.00     0.270 C 
ATOM     19  C   UNL d   1      31.362 -15.617   1.353  0.00  0.00     0.270 C 
ATOM     20  H   UNL d   1      29.362 -16.067   1.457  0.00  0.00     0.279 HD
ENDBRANCH   6  17
ENDBRANCH   5   6
ENDBRANCH   3   5
BRANCH   1  21
ATOM     21  C   UNL d   1      25.275 -16.603  -1.019  0.00  0.00     0.090 A 
ATOM     22  C   UNL d   1      23.977 -16.325  -1.391  0.00  0.00     0.139 A 
ATOM     23  N   UNL d   1      22.901 -17.046  -0.987  0.00  0.00    -0.234 NA
ATOM     24  C   UNL d   1      23.127 -18.089  -0.173  0.00  0.00     0.189 A 
ATOM     25  N   UNL d   1      24.343 -18.461   0.234  0.00  0.00    -0.210 NA
ATOM     26  C   UNL d   1      25.377 -17.714  -0.203  0.00  0.00     0.146 A 
ATOM     27 CL   UNL d   1      26.866 -18.354   0.402  0.00  0.00    -0.061 Cl
BRANCH  24  28
ATOM     28  S   UNL d   1      21.773 -19.157   0.230  0.00  0.00    -0.090 SA
BRANCH  28  29
ATOM     29  C   UNL d   1      20.496 -18.588  -0.949  0.00  0.00     0.082 C 
BRANCH  29  30
ATOM     30  C   UNL d   1      19.265 -19.495  -0.816  0.00  0.00     0.010 C 
BRANCH  30  31
ATOM     31  C   UNL d   1      19.397 -20.485   0.345  0.00  0.00    -0.004 C 
ATOM     32  C   UNL d   1      18.079 -21.200   0.610  0.00  0.00     0.005 C 
ENDBRANCH  30  31
ENDBRANCH  29  30
ENDBRANCH  28  29
ENDBRANCH  24  28
ENDBRANCH   1  21
TORSDOF 11
ENDMDL
MODEL 5
REMARK VINA RESULT:    -8.813      2.082      3.307
REMARK INTER + INTRA:         -14.356
REMARK INTER:                 -12.094
REMARK INTRA:                  -2.262
REMARK CONF_INDEPENDENT:        3.281
REMARK UNBOUND:                -2.262
REMARK  11 active torsions:
REMARK  status: ('A' for Active; 'I' for Inactive)
REMARK    1  A    between atoms: C_2  and  C_3 
REMARK    2  A    between atoms: C_3  and  C_4 
REMARK    3  A    between atoms: C_4  and  S_5 
REMARK    4  A    between atoms: S_5  and  C_6 
REMARK    5  A    between atoms: C_9  and  C_10 
REMARK       I    between atoms: C_10  and  N_12 
REMARK    6  A    between atoms: N_12  and  C_13 
REMARK    7  A    between atoms: C_13  and  C_14 
REMARK    8  A    between atoms: C_14  and  C_15 
REMARK    9  A    between atoms: C_14  and  N_25 
REMARK   10  A    between atoms: C_18  and  O_19 
REMARK   11  A    between atoms: C_21  and  O_22 
ROOT
ATOM      1  C   UNL d   1      27.338 -17.088  -0.698  0.00  0.00     0.256 C 
ATOM      2  O   UNL d   1      27.967 -17.519   0.270  0.00  0.00    -0.268 OA
ATOM      3  N   UNL d   1      27.983 -16.468  -1.738  0.00  0.00    -0.354 N 
ATOM      4  H   UNL d   1      27.421 -16.068  -2.485  0.00  0.00     0.162 HD
ENDROOT
BRANCH   3   5
ATOM      5  C   UNL d   1      29.420 -16.273  -1.790  0.00  0.00     0.161 C 
BRANCH   5   6
ATOM      6  C   UNL d   1      29.961 -15.476  -0.549  0.00  0.00     0.237 C 
BRANCH   6   7
ATOM      7  C   UNL d   1      28.875 -14.610   0.085  0.00  0.00    -0.023 C 
ATOM      8  C   UNL d   1      28.300 -13.529  -0.591  0.00  0.00     0.012 C 
ATOM      9  C   UNL d   1      27.559 -12.582   0.121  0.00  0.00     0.040 C 
ATOM     10  C   UNL d   1      27.237 -12.781   1.473  0.00  0.00     0.101 C 
ATOM     11  C   UNL d   1      27.742 -13.905   2.136  0.00  0.00     0.102 C 
ATOM     12  C   UNL d   1      28.548 -14.791   1.433  0.00  0.00     0.049 C 
BRANCH  10  13
ATOM     13  O   UNL d   1      26.427 -11.810   2.001  0.00  0.00    -0.353 OA
ATOM     14  C   UNL d   1      27.024 -10.937   2.958  0.00  0.00     0.210 C 
ENDBRANCH  10  13
BRANCH  11  15
ATOM     15  O   UNL d   1      27.487 -14.083   3.464  0.00  0.00    -0.353 OA
ATOM     16  C   UNL d   1      28.464 -14.709   4.284  0.00  0.00     0.210 C 
ENDBRANCH  11  15
ENDBRANCH   6   7
BRANCH   6  17
ATOM     17  N   UNL d   1      30.536 -16.449   0.497  0.00  0.00    -0.069 N 
ATOM     18  C   UNL d   1      31.156 -17.670  -0.120  0.00  0.00     0.270 C 
ATOM     19  C   UNL d   1      31.542 -15.804   1.421  0.00  0.00     0.270 C 
ATOM     20  H   UNL d   1      29.747 -16.744   1.090  0.00  0.00     0.279 HD
ENDBRANCH   6  17
ENDBRANCH   5   6
ENDBRANCH   3   5
BRANCH   1  21
ATOM     21  C   UNL d   1      25.865 -17.240  -0.786  0.00  0.00     0.090 A 
ATOM     22  C   UNL d   1      25.251 -18.296  -0.146  0.00  0.00     0.139 A 
ATOM     23  N   UNL d   1      23.920 -18.549  -0.206  0.00  0.00    -0.234 NA
ATOM     24  C   UNL d   1      23.165 -17.714  -0.938  0.00  0.00     0.189 A 
ATOM     25  N   UNL d   1      23.650 -16.650  -1.583  0.00  0.00    -0.210 NA
ATOM     26  C   UNL d   1      24.978 -16.442  -1.483  0.00  0.00     0.146 A 
ATOM     27 CL   UNL d   1      25.419 -15.015  -2.356  0.00  0.00    -0.061 Cl
BRANCH  24  28
ATOM     28  S   UNL d   1      21.405 -17.906  -0.895  0.00  0.00    -0.090 SA
BRANCH  28  29
ATOM     29  C   UNL d   1      21.237 -19.569  -0.152  0.00  0.00     0.082 C 
BRANCH  29  30
ATOM     30  C   UNL d   1      19.761 -19.985  -0.205  0.00  0.00     0.010 C 
BRANCH  30  31
ATOM     31  C   UNL d   1      19.243 -20.457   1.157  0.00  0.00    -0.004 C 
ATOM     32  C   UNL d   1      18.029 -21.362   1.000  0.00  0.00     0.005 C 
ENDBRANCH  30  31
ENDBRANCH  29  30
ENDBRANCH  28  29
ENDBRANCH  24  28
ENDBRANCH   1  21
TORSDOF 11
ENDMDL
MODEL 6
REMARK VINA RESULT:    -8.737      2.239      3.035
REMARK INTER + INTRA:         -13.103
REMARK INTER:                 -12.018
REMARK INTRA:                  -1.085
REMARK CONF_INDEPENDENT:        3.281
REMARK UNBOUND:                -1.085
REMARK  11 active torsions:
REMARK  status: ('A' for Active; 'I' for Inactive)
REMARK    1  A    between atoms: C_2  and  C_3 
REMARK    2  A    between atoms: C_3  and  C_4 
REMARK    3  A    between atoms: C_4  and  S_5 
REMARK    4  A    between atoms: S_5  and  C_6 
REMARK    5  A    between atoms: C_9  and  C_10 
REMARK       I    between atoms: C_10  and  N_12 
REMARK    6  A    between atoms: N_12  and  C_13 
REMARK    7  A    between atoms: C_13  and  C_14 
REMARK    8  A    between atoms: C_14  and  C_15 
REMARK    9  A    between atoms: C_14  and  N_25 
REMARK   10  A    between atoms: C_18  and  O_19 
REMARK   11  A    between atoms: C_21  and  O_22 
ROOT
ATOM      1  C   UNL d   1      27.696 -15.111  -0.390  0.00  0.00     0.256 C 
ATOM      2  O   UNL d   1      27.473 -13.940  -0.702  0.00  0.00    -0.268 OA
ATOM      3  N   UNL d   1      28.950 -15.513  -0.008  0.00  0.00    -0.354 N 
ATOM      4  H   UNL d   1      29.106 -16.500   0.177  0.00  0.00     0.162 HD
ENDROOT
BRANCH   3   5
ATOM      5  C   UNL d   1      30.093 -14.621   0.062  0.00  0.00     0.161 C 
BRANCH   5   6
ATOM      6  C   UNL d   1      30.851 -14.727   1.433  0.00  0.00     0.237 C 
BRANCH   6   7
ATOM      7  C   UNL d   1      29.932 -14.431   2.615  0.00  0.00    -0.023 C 
ATOM      8  C   UNL d   1      28.546 -14.313   2.464  0.00  0.00     0.012 C 
ATOM      9  C   UNL d   1      27.785 -13.734   3.483  0.00  0.00     0.040 C 
ATOM     10  C   UNL d   1      28.358 -13.422   4.727  0.00  0.00     0.101 C 
ATOM     11  C   UNL d   1      29.731 -13.614   4.913  0.00  0.00     0.102 C 
ATOM     12  C   UNL d   1      30.486 -14.111   3.859  0.00  0.00     0.049 C 
BRANCH  10  13
ATOM     13  O   UNL d   1      27.461 -12.949   5.650  0.00  0.00    -0.353 OA
ATOM     14  C   UNL d   1      27.780 -11.702   6.264  0.00  0.00     0.210 C 
ENDBRANCH  10  13
BRANCH  11  15
ATOM     15  O   UNL d   1      30.313 -13.262   6.095  0.00  0.00    -0.353 OA
ATOM     16  C   UNL d   1      30.283 -14.172   7.186  0.00  0.00     0.210 C 
ENDBRANCH  11  15
ENDBRANCH   6   7
BRANCH   6  17
ATOM     17  N   UNL d   1      31.473 -16.128   1.588  0.00  0.00    -0.069 N 
ATOM     18  C   UNL d   1      31.779 -16.781   0.271  0.00  0.00     0.270 C 
ATOM     19  C   UNL d   1      32.721 -16.136   2.439  0.00  0.00     0.270 C 
ATOM     20  H   UNL d   1      30.780 -16.705   2.088  0.00  0.00     0.279 HD
ENDBRANCH   6  17
ENDBRANCH   5   6
ENDBRANCH   3   5
BRANCH   1  21
ATOM     21  C   UNL d   1      26.612 -16.125  -0.395  0.00  0.00     0.090 A 
ATOM     22  C   UNL d   1      26.671 -17.186   0.484  0.00  0.00     0.139 A 
ATOM     23  N   UNL d   1      25.757 -18.189   0.523  0.00  0.00    -0.234 NA
ATOM     24  C   UNL d   1      24.741 -18.134  -0.353  0.00  0.00     0.189 A 
ATOM     25  N   UNL d   1      24.576 -17.145  -1.234  0.00  0.00    -0.210 NA
ATOM     26  C   UNL d   1      25.508 -16.171  -1.225  0.00  0.00     0.146 A 
ATOM     27 CL   UNL d   1      25.120 -14.970  -2.408  0.00  0.00    -0.061 Cl
BRANCH  24  28
ATOM     28  S   UNL d   1      23.438 -19.324  -0.213  0.00  0.00    -0.090 SA
BRANCH  28  29
ATOM     29  C   UNL d   1      21.988 -18.343  -0.742  0.00  0.00     0.082 C 
BRANCH  29  30
ATOM     30  C   UNL d   1      20.904 -19.302  -1.251  0.00  0.00     0.010 C 
BRANCH  30  31
ATOM     31  C   UNL d   1      19.752 -19.457  -0.254  0.00  0.00    -0.004 C 
ATOM     32  C   UNL d   1      20.273 -19.695   1.156  0.00  0.00     0.005 C 
ENDBRANCH  30  31
ENDBRANCH  29  30
ENDBRANCH  28  29
ENDBRANCH  24  28
ENDBRANCH   1  21
TORSDOF 11
ENDMDL
MODEL 7
REMARK VINA RESULT:    -8.690      2.355      3.528
REMARK INTER + INTRA:         -13.873
REMARK INTER:                 -11.972
REMARK INTRA:                  -1.901
REMARK CONF_INDEPENDENT:        3.281
REMARK UNBOUND:                -1.901
REMARK  11 active torsions:
REMARK  status: ('A' for Active; 'I' for Inactive)
REMARK    1  A    between atoms: C_2  and  C_3 
REMARK    2  A    between atoms: C_3  and  C_4 
REMARK    3  A    between atoms: C_4  and  S_5 
REMARK    4  A    between atoms: S_5  and  C_6 
REMARK    5  A    between atoms: C_9  and  C_10 
REMARK       I    between atoms: C_10  and  N_12 
REMARK    6  A    between atoms: N_12  and  C_13 
REMARK    7  A    between atoms: C_13  and  C_14 
REMARK    8  A    between atoms: C_14  and  C_15 
REMARK    9  A    between atoms: C_14  and  N_25 
REMARK   10  A    between atoms: C_18  and  O_19 
REMARK   11  A    between atoms: C_21  and  O_22 
ROOT
ATOM      1  C   UNL d   1      28.031 -16.734  -1.325  0.00  0.00     0.256 C 
ATOM      2  O   UNL d   1      28.324 -16.102  -2.341  0.00  0.00    -0.268 OA
ATOM      3  N   UNL d   1      29.004 -17.168  -0.460  0.00  0.00    -0.354 N 
ATOM      4  H   UNL d   1      28.725 -17.744   0.330  0.00  0.00     0.162 HD
ENDROOT
BRANCH   3   5
ATOM      5  C   UNL d   1      30.421 -16.927  -0.659  0.00  0.00     0.161 C 
BRANCH   5   6
ATOM      6  C   UNL d   1      30.952 -15.736   0.217  0.00  0.00     0.237 C 
BRANCH   6   7
ATOM      7  C   UNL d   1      29.850 -14.729   0.533  0.00  0.00    -0.023 C 
ATOM      8  C   UNL d   1      29.072 -14.821   1.692  0.00  0.00     0.012 C 
ATOM      9  C   UNL d   1      27.885 -14.089   1.789  0.00  0.00     0.040 C 
ATOM     10  C   UNL d   1      27.542 -13.134   0.819  0.00  0.00     0.101 C 
ATOM     11  C   UNL d   1      28.360 -12.978  -0.305  0.00  0.00     0.102 C 
ATOM     12  C   UNL d   1      29.490 -13.775  -0.425  0.00  0.00     0.049 C 
BRANCH  10  13
ATOM     13  O   UNL d   1      26.397 -12.436   1.106  0.00  0.00    -0.353 OA
ATOM     14  C   UNL d   1      26.561 -11.221   1.834  0.00  0.00     0.210 C 
ENDBRANCH  10  13
BRANCH  11  15
ATOM     15  O   UNL d   1      28.010 -12.096  -1.284  0.00  0.00    -0.353 OA
ATOM     16  C   UNL d   1      27.053 -12.482  -2.261  0.00  0.00     0.210 C 
ENDBRANCH  11  15
ENDBRANCH   6   7
BRANCH   6  17
ATOM     17  N   UNL d   1      31.567 -16.272   1.524  0.00  0.00    -0.069 N 
ATOM     18  C   UNL d   1      32.501 -17.426   1.301  0.00  0.00     0.270 C 
ATOM     19  C   UNL d   1      32.284 -15.210   2.324  0.00  0.00     0.270 C 
ATOM     20  H   UNL d   1      30.782 -16.592   2.109  0.00  0.00     0.279 HD
ENDBRANCH   6  17
ENDBRANCH   5   6
ENDBRANCH   3   5
BRANCH   1  21
ATOM     21  C   UNL d   1      26.618 -17.032  -0.988  0.00  0.00     0.090 A 
ATOM     22  C   UNL d   1      26.334 -17.932   0.018  0.00  0.00     0.139 A 
ATOM     23  N   UNL d   1      25.078 -18.307   0.368  0.00  0.00    -0.234 NA
ATOM     24  C   UNL d   1      24.058 -17.764  -0.316  0.00  0.00     0.189 A 
ATOM     25  N   UNL d   1      24.215 -16.870  -1.295  0.00  0.00    -0.210 NA
ATOM     26  C   UNL d   1      25.484 -16.528  -1.597  0.00  0.00     0.146 A 
ATOM     27 CL   UNL d   1      25.493 -15.349  -2.863  0.00  0.00    -0.061 Cl
BRANCH  24  28
ATOM     28  S   UNL d   1      22.405 -18.092   0.228  0.00  0.00    -0.090 SA
BRANCH  28  29
ATOM     29  C   UNL d   1      21.702 -18.944  -1.229  0.00  0.00     0.082 C 
BRANCH  29  30
ATOM     30  C   UNL d   1      20.240 -19.301  -0.933  0.00  0.00     0.010 C 
BRANCH  30  31
ATOM     31  C   UNL d   1      20.090 -20.101   0.365  0.00  0.00    -0.004 C 
ATOM     32  C   UNL d   1      18.725 -20.771   0.443  0.00  0.00     0.005 C 
ENDBRANCH  30  31
ENDBRANCH  29  30
ENDBRANCH  28  29
ENDBRANCH  24  28
ENDBRANCH   1  21
TORSDOF 11
ENDMDL
MODEL 8
REMARK VINA RESULT:    -8.068      2.434      3.555
REMARK INTER + INTRA:         -12.988
REMARK INTER:                 -11.349
REMARK INTRA:                  -1.639
REMARK CONF_INDEPENDENT:        3.281
REMARK UNBOUND:                -1.639
REMARK  11 active torsions:
REMARK  status: ('A' for Active; 'I' for Inactive)
REMARK    1  A    between atoms: C_2  and  C_3 
REMARK    2  A    between atoms: C_3  and  C_4 
REMARK    3  A    between atoms: C_4  and  S_5 
REMARK    4  A    between atoms: S_5  and  C_6 
REMARK    5  A    between atoms: C_9  and  C_10 
REMARK       I    between atoms: C_10  and  N_12 
REMARK    6  A    between atoms: N_12  and  C_13 
REMARK    7  A    between atoms: C_13  and  C_14 
REMARK    8  A    between atoms: C_14  and  C_15 
REMARK    9  A    between atoms: C_14  and  N_25 
REMARK   10  A    between atoms: C_18  and  O_19 
REMARK   11  A    between atoms: C_21  and  O_22 
ROOT
ATOM      1  C   UNL d   1      26.385 -16.002  -1.379  0.00  0.00     0.256 C 
ATOM      2  O   UNL d   1      26.281 -14.818  -1.700  0.00  0.00    -0.268 OA
ATOM      3  N   UNL d   1      27.593 -16.649  -1.451  0.00  0.00    -0.354 N 
ATOM      4  H   UNL d   1      27.622 -17.643  -1.241  0.00  0.00     0.162 HD
ENDROOT
BRANCH   3   5
ATOM      5  C   UNL d   1      28.819 -16.013  -1.897  0.00  0.00     0.161 C 
BRANCH   5   6
ATOM      6  C   UNL d   1      29.816 -15.742  -0.714  0.00  0.00     0.237 C 
BRANCH   6   7
ATOM      7  C   UNL d   1      29.207 -14.823   0.341  0.00  0.00    -0.023 C 
ATOM      8  C   UNL d   1      28.153 -15.234   1.163  0.00  0.00     0.012 C 
ATOM      9  C   UNL d   1      27.421 -14.283   1.879  0.00  0.00     0.040 C 
ATOM     10  C   UNL d   1      27.827 -12.940   1.924  0.00  0.00     0.101 C 
ATOM     11  C   UNL d   1      28.933 -12.536   1.168  0.00  0.00     0.102 C 
ATOM     12  C   UNL d   1      29.595 -13.480   0.395  0.00  0.00     0.049 C 
BRANCH  10  13
ATOM     13  O   UNL d   1      27.060 -12.154   2.744  0.00  0.00    -0.353 OA
ATOM     14  C   UNL d   1      26.428 -11.029   2.135  0.00  0.00     0.210 C 
ENDBRANCH  10  13
BRANCH  11  15
ATOM     15  O   UNL d   1      29.305 -11.224   1.155  0.00  0.00    -0.353 OA
ATOM     16  C   UNL d   1      30.048 -10.699   2.246  0.00  0.00     0.210 C 
ENDBRANCH  11  15
ENDBRANCH   6   7
BRANCH   6  17
ATOM     17  N   UNL d   1      30.247 -17.072  -0.069  0.00  0.00    -0.069 N 
ATOM     18  C   UNL d   1      30.364 -18.193  -1.061  0.00  0.00     0.270 C 
ATOM     19  C   UNL d   1      31.541 -16.968   0.705  0.00  0.00     0.270 C 
ATOM     20  H   UNL d   1      29.519 -17.316   0.619  0.00  0.00     0.279 HD
ENDBRANCH   6  17
ENDBRANCH   5   6
ENDBRANCH   3   5
BRANCH   1  21
ATOM     21  C   UNL d   1      25.215 -16.769  -0.883  0.00  0.00     0.090 A 
ATOM     22  C   UNL d   1      23.947 -16.408  -1.285  0.00  0.00     0.139 A 
ATOM     23  N   UNL d   1      22.813 -17.014  -0.851  0.00  0.00    -0.234 NA
ATOM     24  C   UNL d   1      22.948 -18.022   0.026  0.00  0.00     0.189 A 
ATOM     25  N   UNL d   1      24.126 -18.466   0.468  0.00  0.00    -0.210 NA
ATOM     26  C   UNL d   1      25.220 -17.834  -0.001  0.00  0.00     0.146 A 
ATOM     27 CL   UNL d   1      26.648 -18.555   0.656  0.00  0.00    -0.061 Cl
BRANCH  24  28
ATOM     28  S   UNL d   1      21.508 -18.949   0.477  0.00  0.00    -0.090 SA
BRANCH  28  29
ATOM     29  C   UNL d   1      20.644 -19.085  -1.129  0.00  0.00     0.082 C 
BRANCH  29  30
ATOM     30  C   UNL d   1      19.257 -19.698  -0.891  0.00  0.00     0.010 C 
BRANCH  30  31
ATOM     31  C   UNL d   1      19.193 -20.499   0.413  0.00  0.00    -0.004 C 
ATOM     32  C   UNL d   1      17.862 -21.224   0.548  0.00  0.00     0.005 C 
ENDBRANCH  30  31
ENDBRANCH  29  30
ENDBRANCH  28  29
ENDBRANCH  24  28
ENDBRANCH   1  21
TORSDOF 11
ENDMDL
MODEL 9
REMARK VINA RESULT:    -7.924      4.178      6.199
REMARK INTER + INTRA:         -13.573
REMARK INTER:                 -11.205
REMARK INTRA:                  -2.368
REMARK CONF_INDEPENDENT:        3.281
REMARK UNBOUND:                -2.368
REMARK  11 active torsions:
REMARK  status: ('A' for Active; 'I' for Inactive)
REMARK    1  A    between atoms: C_2  and  C_3 
REMARK    2  A    between atoms: C_3  and  C_4 
REMARK    3  A    between atoms: C_4  and  S_5 
REMARK    4  A    between atoms: S_5  and  C_6 
REMARK    5  A    between atoms: C_9  and  C_10 
REMARK       I    between atoms: C_10  and  N_12 
REMARK    6  A    between atoms: N_12  and  C_13 
REMARK    7  A    between atoms: C_13  and  C_14 
REMARK    8  A    between atoms: C_14  and  C_15 
REMARK    9  A    between atoms: C_14  and  N_25 
REMARK   10  A    between atoms: C_18  and  O_19 
REMARK   11  A    between atoms: C_21  and  O_22 
ROOT
ATOM      1  C   UNL d   1      27.271 -16.968   0.069  0.00  0.00     0.256 C 
ATOM      2  O   UNL d   1      27.658 -16.237   0.982  0.00  0.00    -0.268 OA
ATOM      3  N   UNL d   1      28.167 -17.651  -0.714  0.00  0.00    -0.354 N 
ATOM      4  H   UNL d   1      27.809 -18.190  -1.498  0.00  0.00     0.162 HD
ENDROOT
BRANCH   3   5
ATOM      5  C   UNL d   1      29.606 -17.578  -0.540  0.00  0.00     0.161 C 
BRANCH   5   6
ATOM      6  C   UNL d   1      30.234 -16.337  -1.270  0.00  0.00     0.237 C 
BRANCH   6   7
ATOM      7  C   UNL d   1      29.739 -16.216  -2.709  0.00  0.00    -0.023 C 
ATOM      8  C   UNL d   1      30.616 -16.234  -3.799  0.00  0.00     0.012 C 
ATOM      9  C   UNL d   1      30.171 -15.805  -5.052  0.00  0.00     0.040 C 
ATOM     10  C   UNL d   1      28.817 -15.516  -5.281  0.00  0.00     0.101 C 
ATOM     11  C   UNL d   1      27.916 -15.575  -4.211  0.00  0.00     0.102 C 
ATOM     12  C   UNL d   1      28.393 -15.920  -2.954  0.00  0.00     0.049 C 
BRANCH  10  13
ATOM     13  O   UNL d   1      28.527 -15.200  -6.583  0.00  0.00    -0.353 OA
ATOM     14  C   UNL d   1      29.271 -14.127  -7.157  0.00  0.00     0.210 C 
ENDBRANCH  10  13
BRANCH  11  15
ATOM     15  O   UNL d   1      26.609 -15.240  -4.404  0.00  0.00    -0.353 OA
ATOM     16  C   UNL d   1      26.277 -13.911  -4.779  0.00  0.00     0.210 C 
ENDBRANCH  11  15
ENDBRANCH   6   7
BRANCH   6  17
ATOM     17  N   UNL d   1      29.915 -15.046  -0.493  0.00  0.00    -0.069 N 
ATOM     18  C   UNL d   1      30.679 -14.936   0.795  0.00  0.00     0.270 C 
ATOM     19  C   UNL d   1      30.139 -13.791  -1.304  0.00  0.00     0.270 C 
ATOM     20  H   UNL d   1      28.907 -15.074  -0.277  0.00  0.00     0.279 HD
ENDBRANCH   6  17
ENDBRANCH   5   6
ENDBRANCH   3   5
BRANCH   1  21
ATOM     21  C   UNL d   1      25.825 -17.152  -0.206  0.00  0.00     0.090 A 
ATOM     22  C   UNL d   1      25.174 -18.261   0.293  0.00  0.00     0.139 A 
ATOM     23  N   UNL d   1      23.869 -18.544   0.057  0.00  0.00    -0.234 NA
ATOM     24  C   UNL d   1      23.180 -17.686  -0.713  0.00  0.00     0.189 A 
ATOM     25  N   UNL d   1      23.703 -16.573  -1.232  0.00  0.00    -0.210 NA
ATOM     26  C   UNL d   1      25.002 -16.337  -0.960  0.00  0.00     0.146 A 
ATOM     27 CL   UNL d   1      25.497 -14.849  -1.689  0.00  0.00    -0.061 Cl
BRANCH  24  28
ATOM     28  S   UNL d   1      21.435 -17.927  -0.895  0.00  0.00    -0.090 SA
BRANCH  28  29
ATOM     29  C   UNL d   1      21.211 -19.572  -0.129  0.00  0.00     0.082 C 
BRANCH  29  30
ATOM     30  C   UNL d   1      19.749 -20.004  -0.310  0.00  0.00     0.010 C 
BRANCH  30  31
ATOM     31  C   UNL d   1      18.988 -20.044   1.018  0.00  0.00    -0.004 C 
ATOM     32  C   UNL d   1      18.188 -21.332   1.155  0.00  0.00     0.005 C 
ENDBRANCH  30  31
ENDBRANCH  29  30
ENDBRANCH  28  29
ENDBRANCH  24  28
ENDBRANCH   1  21
TORSDOF 11
ENDMDL
