MODEL 1
REMARK VINA RESULT:    -8.518      0.000      0.000
REMARK INTER + INTRA:         -11.767
REMARK INTER:                 -10.606
REMARK INTRA:                  -1.161
REMARK CONF_INDEPENDENT:        2.088
REMARK UNBOUND:                -1.161
REMARK  7 active torsions:
REMARK  status: ('A' for Active; 'I' for Inactive)
REMARK    1  A    between atoms: C_2  and  N_3 
REMARK    2  A    between atoms: N_3  and  S_4 
REMARK    3  A    between atoms: S_4  and  C_7 
REMARK    4  A    between atoms: C_9  and  C_10 
REMARK       I    between atoms: C_10  and  N_12 
REMARK    5  A    between atoms: N_12  and  C_13 
REMARK    6  A    between atoms: C_15  and  N_16 
REMARK    7  A    between atoms: C_25  and  O_26 
ROOT
ATOM      1  C   UNL d   1      23.987 -17.058  -0.822  0.00  0.00     0.108 C 
ATOM      2  C   UNL d   1      24.116 -15.917  -1.646  0.00  0.00     0.044 C 
ATOM      3  C   UNL d   1      25.370 -15.314  -1.907  0.00  0.00     0.034 C 
ATOM      4  C   UNL d   1      26.472 -15.701  -1.165  0.00  0.00     0.020 C 
ATOM      5  C   UNL d   1      26.346 -16.789  -0.302  0.00  0.00     0.039 C 
ATOM      6  C   UNL d   1      25.129 -17.498  -0.131  0.00  0.00     0.091 C 
ENDROOT
BRANCH   3   7
ATOM      7  C   UNL d   1      25.490 -14.452  -3.119  0.00  0.00     0.256 C 
ATOM      8  O   UNL d   1      24.821 -14.802  -4.088  0.00  0.00    -0.267 OA
ATOM      9  N   UNL d   1      26.428 -13.417  -3.159  0.00  0.00    -0.322 N 
ATOM     10  H   UNL d   1      27.205 -13.421  -2.511  0.00  0.00     0.169 HD
BRANCH   9  11
ATOM     11  C   UNL d   1      26.497 -12.465  -4.216  0.00  0.00     0.043 A 
ATOM     12  C   UNL d   1      25.887 -11.206  -4.056  0.00  0.00     0.066 A 
ATOM     13  C   UNL d   1      25.832 -10.311  -5.146  0.00  0.00     0.105 A 
ATOM     14  C   UNL d   1      26.438 -10.627  -6.363  0.00  0.00     0.037 A 
ATOM     15  C   UNL d   1      27.023 -11.876  -6.521  0.00  0.00     0.011 A 
ATOM     16  C   UNL d   1      27.047 -12.807  -5.469  0.00  0.00    -0.035 A 
ATOM     17  C   UNL d   1      27.618 -14.164  -5.772  0.00  0.00     0.050 C 
BRANCH  13  18
ATOM     18  N   UNL d   1      25.043  -9.073  -5.065  0.00  0.00    -0.116 N 
ATOM     19  O   UNL d   1      24.776  -8.631  -3.940  0.00  0.00    -0.532 OA
ATOM     20  O   UNL d   1      24.648  -8.569  -6.128  0.00  0.00    -0.532 OA
ENDBRANCH  13  18
ENDBRANCH   9  11
ENDBRANCH   3   7
BRANCH   1  21
ATOM     21  S   UNL d   1      22.402 -17.919  -1.003  0.00  0.00     0.244 S 
ATOM     22  O   UNL d   1      22.536 -18.950  -1.998  0.00  0.00    -0.206 OA
ATOM     23  O   UNL d   1      21.294 -16.985  -1.115  0.00  0.00    -0.206 OA
BRANCH  21  24
ATOM     24  N   UNL d   1      22.268 -18.747   0.499  0.00  0.00    -0.216 NA
ATOM     25  H   UNL d   1      23.099 -19.335   0.607  0.00  0.00     0.139 HD
BRANCH  24  26
ATOM     26  C   UNL d   1      21.021 -19.558   0.593  0.00  0.00     0.100 C 
ATOM     27  C   UNL d   1      20.191 -19.463  -0.676  0.00  0.00     0.021 C 
ENDBRANCH  24  26
ENDBRANCH  21  24
ENDBRANCH   1  21
BRANCH   6  28
ATOM     28  O   UNL d   1      25.343 -18.557   0.711  0.00  0.00    -0.354 OA
ATOM     29  C   UNL d   1      26.654 -18.741   1.190  0.00  0.00     0.210 C 
ENDBRANCH   6  28
TORSDOF 7
ENDMDL
MODEL 2
REMARK VINA RESULT:    -8.382      2.960      8.837
REMARK INTER + INTRA:         -11.299
REMARK INTER:                 -10.470
REMARK INTRA:                  -0.829
REMARK CONF_INDEPENDENT:        2.088
REMARK UNBOUND:                -0.829
REMARK  7 active torsions:
REMARK  status: ('A' for Active; 'I' for Inactive)
REMARK    1  A    between atoms: C_2  and  N_3 
REMARK    2  A    between atoms: N_3  and  S_4 
REMARK    3  A    between atoms: S_4  and  C_7 
REMARK    4  A    between atoms: C_9  and  C_10 
REMARK       I    between atoms: C_10  and  N_12 
REMARK    5  A    between atoms: N_12  and  C_13 
REMARK    6  A    between atoms: C_15  and  N_16 
REMARK    7  A    between atoms: C_25  and  O_26 
ROOT
ATOM      1  C   UNL d   1      27.732 -13.301  -5.316  0.00  0.00     0.108 C 
ATOM      2  C   UNL d   1      27.180 -14.038  -4.243  0.00  0.00     0.044 C 
ATOM      3  C   UNL d   1      26.006 -13.622  -3.569  0.00  0.00     0.034 C 
ATOM      4  C   UNL d   1      25.509 -12.353  -3.802  0.00  0.00     0.020 C 
ATOM      5  C   UNL d   1      26.082 -11.588  -4.818  0.00  0.00     0.039 C 
ATOM      6  C   UNL d   1      27.172 -12.044  -5.603  0.00  0.00     0.091 C 
ENDROOT
BRANCH   3   7
ATOM      7  C   UNL d   1      25.238 -14.651  -2.808  0.00  0.00     0.256 C 
ATOM      8  O   UNL d   1      24.018 -14.615  -2.949  0.00  0.00    -0.267 OA
ATOM      9  N   UNL d   1      25.888 -15.479  -1.889  0.00  0.00    -0.322 N 
ATOM     10  H   UNL d   1      26.793 -15.212  -1.527  0.00  0.00     0.169 HD
BRANCH   9  11
ATOM     11  C   UNL d   1      25.251 -16.576  -1.241  0.00  0.00     0.043 A 
ATOM     12  C   UNL d   1      23.962 -16.970  -1.649  0.00  0.00     0.066 A 
ATOM     13  C   UNL d   1      23.271 -17.964  -0.924  0.00  0.00     0.105 A 
ATOM     14  C   UNL d   1      23.876 -18.615   0.153  0.00  0.00     0.037 A 
ATOM     15  C   UNL d   1      25.140 -18.212   0.562  0.00  0.00     0.011 A 
ATOM     16  C   UNL d   1      25.830 -17.190  -0.110  0.00  0.00    -0.035 A 
ATOM     17  C   UNL d   1      27.150 -16.762   0.470  0.00  0.00     0.050 C 
BRANCH  13  18
ATOM     18  N   UNL d   1      21.860 -18.261  -1.210  0.00  0.00    -0.116 N 
ATOM     19  O   UNL d   1      21.600 -19.323  -1.792  0.00  0.00    -0.532 OA
ATOM     20  O   UNL d   1      21.014 -17.409  -0.895  0.00  0.00    -0.532 OA
ENDBRANCH  13  18
ENDBRANCH   9  11
ENDBRANCH   3   7
BRANCH   1  21
ATOM     21  S   UNL d   1      28.925 -14.236  -6.310  0.00  0.00     0.244 S 
ATOM     22  O   UNL d   1      28.443 -15.580  -6.486  0.00  0.00    -0.206 OA
ATOM     23  O   UNL d   1      30.286 -14.042  -5.839  0.00  0.00    -0.206 OA
BRANCH  21  24
ATOM     24  N   UNL d   1      28.770 -13.489  -7.853  0.00  0.00    -0.216 NA
ATOM     25  H   UNL d   1      28.613 -14.228  -8.544  0.00  0.00     0.139 HD
BRANCH  24  26
ATOM     26  C   UNL d   1      29.961 -12.667  -8.209  0.00  0.00     0.100 C 
ATOM     27  C   UNL d   1      29.667 -11.718  -9.360  0.00  0.00     0.021 C 
ENDBRANCH  24  26
ENDBRANCH  21  24
ENDBRANCH   1  21
BRANCH   6  28
ATOM     28  O   UNL d   1      27.453 -11.112  -6.565  0.00  0.00    -0.354 OA
ATOM     29  C   UNL d   1      26.374 -10.351  -7.055  0.00  0.00     0.210 C 
ENDBRANCH   6  28
TORSDOF 7
ENDMDL
MODEL 3
REMARK VINA RESULT:    -8.066      2.672      8.436
REMARK INTER + INTRA:         -11.024
REMARK INTER:                 -10.154
REMARK INTRA:                  -0.870
REMARK CONF_INDEPENDENT:        2.088
REMARK UNBOUND:                -0.870
REMARK  7 active torsions:
REMARK  status: ('A' for Active; 'I' for Inactive)
REMARK    1  A    between atoms: C_2  and  N_3 
REMARK    2  A    between atoms: N_3  and  S_4 
REMARK    3  A    between atoms: S_4  and  C_7 
REMARK    4  A    between atoms: C_9  and  C_10 
REMARK       I    between atoms: C_10  and  N_12 
REMARK    5  A    between atoms: N_12  and  C_13 
REMARK    6  A    between atoms: C_15  and  N_16 
REMARK    7  A    between atoms: C_25  and  O_26 
ROOT
ATOM      1  C   UNL d   1      26.892 -12.457  -5.414  0.00  0.00     0.108 C 
ATOM      2  C   UNL d   1      25.986 -13.332  -4.771  0.00  0.00     0.044 C 
ATOM      3  C   UNL d   1      26.354 -14.641  -4.376  0.00  0.00     0.034 C 
ATOM      4  C   UNL d   1      27.551 -15.169  -4.826  0.00  0.00     0.020 C 
ATOM      5  C   UNL d   1      28.431 -14.335  -5.515  0.00  0.00     0.039 C 
ATOM      6  C   UNL d   1      28.140 -12.976  -5.798  0.00  0.00     0.091 C 
ENDROOT
BRANCH   3   7
ATOM      7  C   UNL d   1      25.540 -15.303  -3.315  0.00  0.00     0.256 C 
ATOM      8  O   UNL d   1      24.429 -14.818  -3.117  0.00  0.00    -0.267 OA
ATOM      9  N   UNL d   1      26.102 -16.304  -2.518  0.00  0.00    -0.322 N 
ATOM     10  H   UNL d   1      27.107 -16.389  -2.454  0.00  0.00     0.169 HD
BRANCH   9  11
ATOM     11  C   UNL d   1      25.347 -17.080  -1.592  0.00  0.00     0.043 A 
ATOM     12  C   UNL d   1      24.004 -17.393  -1.881  0.00  0.00     0.066 A 
ATOM     13  C   UNL d   1      23.212 -18.042  -0.911  0.00  0.00     0.105 A 
ATOM     14  C   UNL d   1      23.759 -18.443   0.309  0.00  0.00     0.037 A 
ATOM     15  C   UNL d   1      25.079 -18.119   0.596  0.00  0.00     0.011 A 
ATOM     16  C   UNL d   1      25.876 -17.428  -0.331  0.00  0.00    -0.035 A 
ATOM     17  C   UNL d   1      27.259 -17.040   0.113  0.00  0.00     0.050 C 
BRANCH  13  18
ATOM     18  N   UNL d   1      21.765 -18.212  -1.111  0.00  0.00    -0.116 N 
ATOM     19  O   UNL d   1      21.034 -17.236  -0.896  0.00  0.00    -0.532 OA
ATOM     20  O   UNL d   1      21.355 -19.337  -1.438  0.00  0.00    -0.532 OA
ENDBRANCH  13  18
ENDBRANCH   9  11
ENDBRANCH   3   7
BRANCH   1  21
ATOM     21  S   UNL d   1      26.369 -10.721  -5.401  0.00  0.00     0.244 S 
ATOM     22  O   UNL d   1      25.363 -10.525  -6.411  0.00  0.00    -0.206 OA
ATOM     23  O   UNL d   1      27.507  -9.818  -5.370  0.00  0.00    -0.206 OA
BRANCH  21  24
ATOM     24  N   UNL d   1      25.538 -10.606  -3.899  0.00  0.00    -0.216 NA
ATOM     25  H   UNL d   1      24.700 -11.189  -3.960  0.00  0.00     0.139 HD
BRANCH  24  26
ATOM     26  C   UNL d   1      25.191  -9.201  -3.547  0.00  0.00     0.100 C 
ATOM     27  C   UNL d   1      25.899  -8.745  -2.281  0.00  0.00     0.021 C 
ENDBRANCH  24  26
ENDBRANCH  21  24
ENDBRANCH   1  21
BRANCH   6  28
ATOM     28  O   UNL d   1      29.225 -12.403  -6.406  0.00  0.00    -0.354 OA
ATOM     29  C   UNL d   1      29.717 -13.032  -7.566  0.00  0.00     0.210 C 
ENDBRANCH   6  28
TORSDOF 7
ENDMDL
MODEL 4
REMARK VINA RESULT:    -8.052      1.985      2.551
REMARK INTER + INTRA:         -11.241
REMARK INTER:                 -10.140
REMARK INTRA:                  -1.101
REMARK CONF_INDEPENDENT:        2.088
REMARK UNBOUND:                -1.101
REMARK  7 active torsions:
REMARK  status: ('A' for Active; 'I' for Inactive)
REMARK    1  A    between atoms: C_2  and  N_3 
REMARK    2  A    between atoms: N_3  and  S_4 
REMARK    3  A    between atoms: S_4  and  C_7 
REMARK    4  A    between atoms: C_9  and  C_10 
REMARK       I    between atoms: C_10  and  N_12 
REMARK    5  A    between atoms: N_12  and  C_13 
REMARK    6  A    between atoms: C_15  and  N_16 
REMARK    7  A    between atoms: C_25  and  O_26 
ROOT
ATOM      1  C   UNL d   1      24.074 -17.041  -0.849  0.00  0.00     0.108 C 
ATOM      2  C   UNL d   1      24.213 -15.946  -1.733  0.00  0.00     0.044 C 
ATOM      3  C   UNL d   1      25.471 -15.361  -2.015  0.00  0.00     0.034 C 
ATOM      4  C   UNL d   1      26.565 -15.708  -1.242  0.00  0.00     0.020 C 
ATOM      5  C   UNL d   1      26.428 -16.747  -0.322  0.00  0.00     0.039 C 
ATOM      6  C   UNL d   1      25.208 -17.444  -0.124  0.00  0.00     0.091 C 
ENDROOT
BRANCH   3   7
ATOM      7  C   UNL d   1      25.604 -14.567  -3.272  0.00  0.00     0.256 C 
ATOM      8  O   UNL d   1      24.784 -14.820  -4.150  0.00  0.00    -0.267 OA
ATOM      9  N   UNL d   1      26.697 -13.714  -3.454  0.00  0.00    -0.322 N 
ATOM     10  H   UNL d   1      27.527 -13.836  -2.891  0.00  0.00     0.169 HD
BRANCH   9  11
ATOM     11  C   UNL d   1      26.812 -12.819  -4.556  0.00  0.00     0.043 A 
ATOM     12  C   UNL d   1      27.422 -13.258  -5.747  0.00  0.00     0.066 A 
ATOM     13  C   UNL d   1      27.662 -12.341  -6.791  0.00  0.00     0.105 A 
ATOM     14  C   UNL d   1      27.240 -11.014  -6.689  0.00  0.00     0.037 A 
ATOM     15  C   UNL d   1      26.654 -10.581  -5.507  0.00  0.00     0.011 A 
ATOM     16  C   UNL d   1      26.449 -11.461  -4.432  0.00  0.00    -0.035 A 
ATOM     17  C   UNL d   1      25.896 -10.872  -3.164  0.00  0.00     0.050 C 
BRANCH  13  18
ATOM     18  N   UNL d   1      28.461 -12.726  -7.964  0.00  0.00    -0.116 N 
ATOM     19  O   UNL d   1      29.559 -13.261  -7.764  0.00  0.00    -0.532 OA
ATOM     20  O   UNL d   1      28.009 -12.450  -9.087  0.00  0.00    -0.532 OA
ENDBRANCH  13  18
ENDBRANCH   9  11
ENDBRANCH   3   7
BRANCH   1  21
ATOM     21  S   UNL d   1      22.488 -17.907  -0.999  0.00  0.00     0.244 S 
ATOM     22  O   UNL d   1      22.619 -18.967  -1.964  0.00  0.00    -0.206 OA
ATOM     23  O   UNL d   1      21.379 -16.978  -1.133  0.00  0.00    -0.206 OA
BRANCH  21  24
ATOM     24  N   UNL d   1      22.362 -18.692   0.528  0.00  0.00    -0.216 NA
ATOM     25  H   UNL d   1      23.071 -19.429   0.560  0.00  0.00     0.139 HD
BRANCH  24  26
ATOM     26  C   UNL d   1      21.000 -19.245   0.772  0.00  0.00     0.100 C 
ATOM     27  C   UNL d   1      20.345 -19.717  -0.515  0.00  0.00     0.021 C 
ENDBRANCH  24  26
ENDBRANCH  21  24
ENDBRANCH   1  21
BRANCH   6  28
ATOM     28  O   UNL d   1      25.411 -18.455   0.777  0.00  0.00    -0.354 OA
ATOM     29  C   UNL d   1      26.744 -18.831   1.029  0.00  0.00     0.210 C 
ENDBRANCH   6  28
TORSDOF 7
ENDMDL
MODEL 5
REMARK VINA RESULT:    -7.795      4.692      6.164
REMARK INTER + INTRA:         -11.173
REMARK INTER:                  -9.883
REMARK INTRA:                  -1.291
REMARK CONF_INDEPENDENT:        2.088
REMARK UNBOUND:                -1.291
REMARK  7 active torsions:
REMARK  status: ('A' for Active; 'I' for Inactive)
REMARK    1  A    between atoms: C_2  and  N_3 
REMARK    2  A    between atoms: N_3  and  S_4 
REMARK    3  A    between atoms: S_4  and  C_7 
REMARK    4  A    between atoms: C_9  and  C_10 
REMARK       I    between atoms: C_10  and  N_12 
REMARK    5  A    between atoms: N_12  and  C_13 
REMARK    6  A    between atoms: C_15  and  N_16 
REMARK    7  A    between atoms: C_25  and  O_26 
ROOT
ATOM      1  C   UNL d   1      25.708 -15.922  -1.241  0.00  0.00     0.108 C 
ATOM      2  C   UNL d   1      26.430 -15.141  -0.311  0.00  0.00     0.044 C 
ATOM      3  C   UNL d   1      27.177 -14.003  -0.703  0.00  0.00     0.034 C 
ATOM      4  C   UNL d   1      27.399 -13.773  -2.049  0.00  0.00     0.020 C 
ATOM      5  C   UNL d   1      26.740 -14.575  -2.980  0.00  0.00     0.039 C 
ATOM      6  C   UNL d   1      25.873 -15.634  -2.606  0.00  0.00     0.091 C 
ENDROOT
BRANCH   3   7
ATOM      7  C   UNL d   1      27.499 -12.987   0.342  0.00  0.00     0.256 C 
ATOM      8  O   UNL d   1      28.479 -12.283   0.114  0.00  0.00    -0.267 OA
ATOM      9  N   UNL d   1      26.802 -12.976   1.553  0.00  0.00    -0.322 N 
ATOM     10  H   UNL d   1      26.292 -13.799   1.845  0.00  0.00     0.169 HD
BRANCH   9  11
ATOM     11  C   UNL d   1      26.951 -11.950   2.530  0.00  0.00     0.043 A 
ATOM     12  C   UNL d   1      26.412 -10.673   2.283  0.00  0.00     0.066 A 
ATOM     13  C   UNL d   1      26.672  -9.617   3.182  0.00  0.00     0.105 A 
ATOM     14  C   UNL d   1      27.399  -9.837   4.353  0.00  0.00     0.037 A 
ATOM     15  C   UNL d   1      27.942 -11.093   4.585  0.00  0.00     0.011 A 
ATOM     16  C   UNL d   1      27.742 -12.150   3.681  0.00  0.00    -0.035 A 
ATOM     17  C   UNL d   1      28.451 -13.443   3.975  0.00  0.00     0.050 C 
BRANCH  13  18
ATOM     18  N   UNL d   1      26.283  -8.237   2.855  0.00  0.00    -0.116 N 
ATOM     19  O   UNL d   1      26.691  -7.332   3.596  0.00  0.00    -0.532 OA
ATOM     20  O   UNL d   1      25.530  -8.063   1.884  0.00  0.00    -0.532 OA
ENDBRANCH  13  18
ENDBRANCH   9  11
ENDBRANCH   3   7
BRANCH   1  21
ATOM     21  S   UNL d   1      24.477 -17.015  -0.480  0.00  0.00     0.244 S 
ATOM     22  O   UNL d   1      23.308 -16.247  -0.144  0.00  0.00    -0.206 OA
ATOM     23  O   UNL d   1      25.070 -17.862   0.542  0.00  0.00    -0.206 OA
BRANCH  21  24
ATOM     24  N   UNL d   1      24.008 -18.007  -1.806  0.00  0.00    -0.216 NA
ATOM     25  H   UNL d   1      23.718 -17.390  -2.570  0.00  0.00     0.139 HD
BRANCH  24  26
ATOM     26  C   UNL d   1      22.924 -18.963  -1.446  0.00  0.00     0.100 C 
ATOM     27  C   UNL d   1      21.700 -18.247  -0.898  0.00  0.00     0.021 C 
ENDBRANCH  24  26
ENDBRANCH  21  24
ENDBRANCH   1  21
BRANCH   6  28
ATOM     28  O   UNL d   1      25.316 -16.176  -3.734  0.00  0.00    -0.354 OA
ATOM     29  C   UNL d   1      25.640 -15.571  -4.964  0.00  0.00     0.210 C 
ENDBRANCH   6  28
TORSDOF 7
ENDMDL
MODEL 6
REMARK VINA RESULT:    -7.497      4.648      7.187
REMARK INTER + INTRA:         -10.875
REMARK INTER:                  -9.585
REMARK INTRA:                  -1.291
REMARK CONF_INDEPENDENT:        2.088
REMARK UNBOUND:                -1.291
REMARK  7 active torsions:
REMARK  status: ('A' for Active; 'I' for Inactive)
REMARK    1  A    between atoms: C_2  and  N_3 
REMARK    2  A    between atoms: N_3  and  S_4 
REMARK    3  A    between atoms: S_4  and  C_7 
REMARK    4  A    between atoms: C_9  and  C_10 
REMARK       I    between atoms: C_10  and  N_12 
REMARK    5  A    between atoms: N_12  and  C_13 
REMARK    6  A    between atoms: C_15  and  N_16 
REMARK    7  A    between atoms: C_25  and  O_26 
ROOT
ATOM      1  C   UNL d   1      26.636 -14.678  -2.946  0.00  0.00     0.108 C 
ATOM      2  C   UNL d   1      26.773 -14.293  -1.593  0.00  0.00     0.044 C 
ATOM      3  C   UNL d   1      28.032 -14.249  -0.946  0.00  0.00     0.034 C 
ATOM      4  C   UNL d   1      29.131 -14.811  -1.570  0.00  0.00     0.020 C 
ATOM      5  C   UNL d   1      28.998 -15.251  -2.887  0.00  0.00     0.039 C 
ATOM      6  C   UNL d   1      27.776 -15.174  -3.604  0.00  0.00     0.091 C 
ENDROOT
BRANCH   3   7
ATOM      7  C   UNL d   1      28.157 -13.404   0.278  0.00  0.00     0.256 C 
ATOM      8  O   UNL d   1      29.304 -13.106   0.603  0.00  0.00    -0.267 OA
ATOM      9  N   UNL d   1      27.033 -13.122   1.058  0.00  0.00    -0.322 N 
ATOM     10  H   UNL d   1      26.207 -13.700   0.974  0.00  0.00     0.169 HD
BRANCH   9  11
ATOM     11  C   UNL d   1      27.049 -12.206   2.148  0.00  0.00     0.043 A 
ATOM     12  C   UNL d   1      26.519 -10.913   1.976  0.00  0.00     0.066 A 
ATOM     13  C   UNL d   1      26.654  -9.957   3.005  0.00  0.00     0.105 A 
ATOM     14  C   UNL d   1      27.245 -10.297   4.224  0.00  0.00     0.037 A 
ATOM     15  C   UNL d   1      27.780 -11.568   4.384  0.00  0.00     0.011 A 
ATOM     16  C   UNL d   1      27.705 -12.523   3.357  0.00  0.00    -0.035 A 
ATOM     17  C   UNL d   1      28.399 -13.835   3.593  0.00  0.00     0.050 C 
BRANCH  13  18
ATOM     18  N   UNL d   1      26.280  -8.553   2.783  0.00  0.00    -0.116 N 
ATOM     19  O   UNL d   1      26.768  -7.699   3.536  0.00  0.00    -0.532 OA
ATOM     20  O   UNL d   1      25.460  -8.309   1.884  0.00  0.00    -0.532 OA
ENDBRANCH  13  18
ENDBRANCH   9  11
ENDBRANCH   3   7
BRANCH   1  21
ATOM     21  S   UNL d   1      25.044 -14.219  -3.682  0.00  0.00     0.244 S 
ATOM     22  O   UNL d   1      23.997 -14.450  -2.723  0.00  0.00    -0.206 OA
ATOM     23  O   UNL d   1      24.893 -14.767  -5.020  0.00  0.00    -0.206 OA
BRANCH  21  24
ATOM     24  N   UNL d   1      25.184 -12.509  -3.804  0.00  0.00    -0.216 NA
ATOM     25  H   UNL d   1      24.628 -12.206  -4.609  0.00  0.00     0.139 HD
BRANCH  24  26
ATOM     26  C   UNL d   1      26.600 -12.061  -3.930  0.00  0.00     0.100 C 
ATOM     27  C   UNL d   1      27.003 -11.140  -2.791  0.00  0.00     0.021 C 
ENDBRANCH  24  26
ENDBRANCH  21  24
ENDBRANCH   1  21
BRANCH   6  28
ATOM     28  O   UNL d   1      27.982 -15.603  -4.887  0.00  0.00    -0.354 OA
ATOM     29  C   UNL d   1      28.015 -14.620  -5.895  0.00  0.00     0.210 C 
ENDBRANCH   6  28
TORSDOF 7
ENDMDL
MODEL 7
REMARK VINA RESULT:    -7.489      4.698      6.456
REMARK INTER + INTRA:         -10.629
REMARK INTER:                  -9.577
REMARK INTRA:                  -1.052
REMARK CONF_INDEPENDENT:        2.088
REMARK UNBOUND:                -1.052
REMARK  7 active torsions:
REMARK  status: ('A' for Active; 'I' for Inactive)
REMARK    1  A    between atoms: C_2  and  N_3 
REMARK    2  A    between atoms: N_3  and  S_4 
REMARK    3  A    between atoms: S_4  and  C_7 
REMARK    4  A    between atoms: C_9  and  C_10 
REMARK       I    between atoms: C_10  and  N_12 
REMARK    5  A    between atoms: N_12  and  C_13 
REMARK    6  A    between atoms: C_15  and  N_16 
REMARK    7  A    between atoms: C_25  and  O_26 
ROOT
ATOM      1  C   UNL d   1      25.579 -15.470  -1.860  0.00  0.00     0.108 C 
ATOM      2  C   UNL d   1      26.350 -14.943  -0.800  0.00  0.00     0.044 C 
ATOM      3  C   UNL d   1      27.154 -13.787  -0.955  0.00  0.00     0.034 C 
ATOM      4  C   UNL d   1      27.377 -13.287  -2.225  0.00  0.00     0.020 C 
ATOM      5  C   UNL d   1      26.668 -13.837  -3.293  0.00  0.00     0.039 C 
ATOM      6  C   UNL d   1      25.749 -14.906  -3.136  0.00  0.00     0.091 C 
ENDROOT
BRANCH   3   7
ATOM      7  C   UNL d   1      27.538 -13.035   0.276  0.00  0.00     0.256 C 
ATOM      8  O   UNL d   1      28.740 -12.823   0.415  0.00  0.00    -0.267 OA
ATOM      9  N   UNL d   1      26.582 -12.747   1.253  0.00  0.00    -0.322 N 
ATOM     10  H   UNL d   1      25.718 -13.272   1.279  0.00  0.00     0.169 HD
BRANCH   9  11
ATOM     11  C   UNL d   1      26.841 -11.910   2.376  0.00  0.00     0.043 A 
ATOM     12  C   UNL d   1      26.478 -10.550   2.326  0.00  0.00     0.066 A 
ATOM     13  C   UNL d   1      26.853  -9.686   3.376  0.00  0.00     0.105 A 
ATOM     14  C   UNL d   1      27.520 -10.174   4.502  0.00  0.00     0.037 A 
ATOM     15  C   UNL d   1      27.890 -11.512   4.539  0.00  0.00     0.011 A 
ATOM     16  C   UNL d   1      27.574 -12.384   3.485  0.00  0.00    -0.035 A 
ATOM     17  C   UNL d   1      28.103 -13.788   3.579  0.00  0.00     0.050 C 
BRANCH  13  18
ATOM     18  N   UNL d   1      26.654  -8.233   3.264  0.00  0.00    -0.116 N 
ATOM     19  O   UNL d   1      27.197  -7.509   4.109  0.00  0.00    -0.532 OA
ATOM     20  O   UNL d   1      25.914  -7.820   2.357  0.00  0.00    -0.532 OA
ENDBRANCH  13  18
ENDBRANCH   9  11
ENDBRANCH   3   7
BRANCH   1  21
ATOM     21  S   UNL d   1      24.298 -16.637  -1.326  0.00  0.00     0.244 S 
ATOM     22  O   UNL d   1      24.256 -17.744  -2.245  0.00  0.00    -0.206 OA
ATOM     23  O   UNL d   1      23.056 -15.958  -0.999  0.00  0.00    -0.206 OA
BRANCH  21  24
ATOM     24  N   UNL d   1      24.973 -17.272   0.124  0.00  0.00    -0.216 NA
ATOM     25  H   UNL d   1      25.328 -16.486   0.675  0.00  0.00     0.139 HD
BRANCH  24  26
ATOM     26  C   UNL d   1      26.045 -18.273  -0.138  0.00  0.00     0.100 C 
ATOM     27  C   UNL d   1      27.425 -17.714   0.168  0.00  0.00     0.021 C 
ENDBRANCH  24  26
ENDBRANCH  21  24
ENDBRANCH   1  21
BRANCH   6  28
ATOM     28  O   UNL d   1      25.155 -15.166  -4.342  0.00  0.00    -0.354 OA
ATOM     29  C   UNL d   1      25.994 -15.574  -5.396  0.00  0.00     0.210 C 
ENDBRANCH   6  28
TORSDOF 7
ENDMDL
MODEL 8
REMARK VINA RESULT:    -7.309      4.767      7.181
REMARK INTER + INTRA:         -11.105
REMARK INTER:                  -9.397
REMARK INTRA:                  -1.708
REMARK CONF_INDEPENDENT:        2.088
REMARK UNBOUND:                -1.708
REMARK  7 active torsions:
REMARK  status: ('A' for Active; 'I' for Inactive)
REMARK    1  A    between atoms: C_2  and  N_3 
REMARK    2  A    between atoms: N_3  and  S_4 
REMARK    3  A    between atoms: S_4  and  C_7 
REMARK    4  A    between atoms: C_9  and  C_10 
REMARK       I    between atoms: C_10  and  N_12 
REMARK    5  A    between atoms: N_12  and  C_13 
REMARK    6  A    between atoms: C_15  and  N_16 
REMARK    7  A    between atoms: C_25  and  O_26 
ROOT
ATOM      1  C   UNL d   1      27.273 -15.071  -3.043  0.00  0.00     0.108 C 
ATOM      2  C   UNL d   1      26.705 -14.584  -1.844  0.00  0.00     0.044 C 
ATOM      3  C   UNL d   1      27.367 -14.695  -0.597  0.00  0.00     0.034 C 
ATOM      4  C   UNL d   1      28.489 -15.497  -0.499  0.00  0.00     0.020 C 
ATOM      5  C   UNL d   1      29.029 -16.035  -1.666  0.00  0.00     0.039 C 
ATOM      6  C   UNL d   1      28.459 -15.819  -2.948  0.00  0.00     0.091 C 
ENDROOT
BRANCH   3   7
ATOM      7  C   UNL d   1      26.953 -13.767   0.497  0.00  0.00     0.256 C 
ATOM      8  O   UNL d   1      25.905 -14.055   1.069  0.00  0.00    -0.267 OA
ATOM      9  N   UNL d   1      27.655 -12.579   0.717  0.00  0.00    -0.322 N 
ATOM     10  H   UNL d   1      28.247 -12.204  -0.012  0.00  0.00     0.169 HD
BRANCH   9  11
ATOM     11  C   UNL d   1      27.412 -11.724   1.829  0.00  0.00     0.043 A 
ATOM     12  C   UNL d   1      26.722 -10.511   1.635  0.00  0.00     0.066 A 
ATOM     13  C   UNL d   1      26.597  -9.597   2.702  0.00  0.00     0.105 A 
ATOM     14  C   UNL d   1      27.087  -9.908   3.972  0.00  0.00     0.037 A 
ATOM     15  C   UNL d   1      27.781 -11.096   4.155  0.00  0.00     0.011 A 
ATOM     16  C   UNL d   1      27.965 -12.002   3.097  0.00  0.00    -0.035 A 
ATOM     17  C   UNL d   1      28.812 -13.212   3.375  0.00  0.00     0.050 C 
BRANCH  13  18
ATOM     18  N   UNL d   1      26.049  -8.250   2.480  0.00  0.00    -0.116 N 
ATOM     19  O   UNL d   1      26.475  -7.330   3.189  0.00  0.00    -0.532 OA
ATOM     20  O   UNL d   1      25.156  -8.123   1.627  0.00  0.00    -0.532 OA
ENDBRANCH  13  18
ENDBRANCH   9  11
ENDBRANCH   3   7
BRANCH   1  21
ATOM     21  S   UNL d   1      26.492 -14.418  -4.543  0.00  0.00     0.244 S 
ATOM     22  O   UNL d   1      26.812 -13.021  -4.672  0.00  0.00    -0.206 OA
ATOM     23  O   UNL d   1      25.100 -14.825  -4.644  0.00  0.00    -0.206 OA
BRANCH  21  24
ATOM     24  N   UNL d   1      27.383 -15.208  -5.786  0.00  0.00    -0.216 NA
ATOM     25  H   UNL d   1      27.767 -16.072  -5.394  0.00  0.00     0.139 HD
BRANCH  24  26
ATOM     26  C   UNL d   1      28.461 -14.347  -6.347  0.00  0.00     0.100 C 
ATOM     27  C   UNL d   1      29.632 -15.170  -6.857  0.00  0.00     0.021 C 
ENDBRANCH  24  26
ENDBRANCH  21  24
ENDBRANCH   1  21
BRANCH   6  28
ATOM     28  O   UNL d   1      29.256 -16.401  -3.896  0.00  0.00    -0.354 OA
ATOM     29  C   UNL d   1      30.438 -17.022  -3.448  0.00  0.00     0.210 C 
ENDBRANCH   6  28
TORSDOF 7
ENDMDL
MODEL 9
REMARK VINA RESULT:    -6.205      9.979     11.473
REMARK INTER + INTRA:         -10.055
REMARK INTER:                  -8.293
REMARK INTRA:                  -1.762
REMARK CONF_INDEPENDENT:        2.088
REMARK UNBOUND:                -1.762
REMARK  7 active torsions:
REMARK  status: ('A' for Active; 'I' for Inactive)
REMARK    1  A    between atoms: C_2  and  N_3 
REMARK    2  A    between atoms: N_3  and  S_4 
REMARK    3  A    between atoms: S_4  and  C_7 
REMARK    4  A    between atoms: C_9  and  C_10 
REMARK       I    between atoms: C_10  and  N_12 
REMARK    5  A    between atoms: N_12  and  C_13 
REMARK    6  A    between atoms: C_15  and  N_16 
REMARK    7  A    between atoms: C_25  and  O_26 
ROOT
ATOM      1  C   UNL d   1      29.207 -12.551  10.130  0.00  0.00     0.108 C 
ATOM      2  C   UNL d   1      28.429 -12.258   8.986  0.00  0.00     0.044 C 
ATOM      3  C   UNL d   1      28.911 -11.439   7.937  0.00  0.00     0.034 C 
ATOM      4  C   UNL d   1      30.076 -10.717   8.126  0.00  0.00     0.020 C 
ATOM      5  C   UNL d   1      30.825 -10.950   9.279  0.00  0.00     0.039 C 
ATOM      6  C   UNL d   1      30.430 -11.875  10.279  0.00  0.00     0.091 C 
ENDROOT
BRANCH   3   7
ATOM      7  C   UNL d   1      28.260 -11.565   6.600  0.00  0.00     0.256 C 
ATOM      8  O   UNL d   1      27.388 -12.425   6.512  0.00  0.00    -0.267 OA
ATOM      9  N   UNL d   1      28.747 -10.841   5.508  0.00  0.00    -0.322 N 
ATOM     10  H   UNL d   1      29.684 -10.462   5.536  0.00  0.00     0.169 HD
BRANCH   9  11
ATOM     11  C   UNL d   1      28.090 -10.796   4.245  0.00  0.00     0.043 A 
ATOM     12  C   UNL d   1      27.483  -9.598   3.820  0.00  0.00     0.066 A 
ATOM     13  C   UNL d   1      26.715  -9.583   2.637  0.00  0.00     0.105 A 
ATOM     14  C   UNL d   1      26.605 -10.725   1.841  0.00  0.00     0.037 A 
ATOM     15  C   UNL d   1      27.191 -11.907   2.271  0.00  0.00     0.011 A 
ATOM     16  C   UNL d   1      27.919 -11.964   3.471  0.00  0.00    -0.035 A 
ATOM     17  C   UNL d   1      28.431 -13.312   3.896  0.00  0.00     0.050 C 
BRANCH  13  18
ATOM     18  N   UNL d   1      25.920  -8.402   2.270  0.00  0.00    -0.116 N 
ATOM     19  O   UNL d   1      25.083  -8.527   1.366  0.00  0.00    -0.532 OA
ATOM     20  O   UNL d   1      26.167  -7.335   2.855  0.00  0.00    -0.532 OA
ENDBRANCH  13  18
ENDBRANCH   9  11
ENDBRANCH   3   7
BRANCH   1  21
ATOM     21  S   UNL d   1      28.594 -13.960  11.093  0.00  0.00     0.244 S 
ATOM     22  O   UNL d   1      28.038 -14.938  10.195  0.00  0.00    -0.206 OA
ATOM     23  O   UNL d   1      27.798 -13.528  12.229  0.00  0.00    -0.206 OA
BRANCH  21  24
ATOM     24  N   UNL d   1      30.054 -14.656  11.681  0.00  0.00    -0.216 NA
ATOM     25  H   UNL d   1      30.735 -13.901  11.798  0.00  0.00     0.139 HD
BRANCH  24  26
ATOM     26  C   UNL d   1      30.580 -15.720  10.780  0.00  0.00     0.100 C 
ATOM     27  C   UNL d   1      31.365 -15.136   9.617  0.00  0.00     0.021 C 
ENDBRANCH  24  26
ENDBRANCH  21  24
ENDBRANCH   1  21
BRANCH   6  28
ATOM     28  O   UNL d   1      31.405 -11.943  11.237  0.00  0.00    -0.354 OA
ATOM     29  C   UNL d   1      32.712 -11.588  10.849  0.00  0.00     0.210 C 
ENDBRANCH   6  28
TORSDOF 7
ENDMDL
