MODEL 1
REMARK VINA RESULT:    -8.908      0.000      0.000
REMARK INTER + INTRA:         -12.772
REMARK INTER:                 -10.698
REMARK INTRA:                  -2.074
REMARK CONF_INDEPENDENT:        1.790
REMARK UNBOUND:                -2.074
REMARK  6 active torsions:
REMARK  status: ('A' for Active; 'I' for Inactive)
REMARK    1  A    between atoms: O_2  and  C_3 
REMARK    2  A    between atoms: C_10  and  C_11 
REMARK       I    between atoms: C_11  and  N_13 
REMARK    3  A    between atoms: N_13  and  C_14 
REMARK    4  A    between atoms: C_14  and  N_16 
REMARK    5  A    between atoms: N_16  and  C_17 
REMARK    6  A    between atoms: C_20  and  N_21 
ROOT
ATOM      1  N   UNL d   1      27.171 -11.773  -2.116  0.00  0.00    -0.333 N 
ATOM      2  H   UNL d   1      26.885 -10.815  -2.282  0.00  0.00     0.168 HD
ENDROOT
BRANCH   1   3
ATOM      3  C   UNL d   1      26.468 -12.799  -2.812  0.00  0.00     0.179 C 
ATOM      4  S   UNL d   1      25.996 -12.642  -4.433  0.00  0.00    -0.040 SA
BRANCH   3   5
ATOM      5  N   UNL d   1      26.240 -13.982  -2.060  0.00  0.00    -0.299 N 
ATOM      6  C   UNL d   1      25.176 -14.889  -2.263  0.00  0.00     0.260 C 
ATOM      7  O   UNL d   1      24.268 -14.701  -3.080  0.00  0.00    -0.267 OA
ATOM      8  H   UNL d   1      26.877 -14.232  -1.312  0.00  0.00     0.171 HD
BRANCH   6   9
ATOM      9  C   UNL d   1      25.034 -16.158  -1.478  0.00  0.00     0.067 A 
ATOM     10  C   UNL d   1      23.745 -16.763  -1.527  0.00  0.00     0.039 A 
ATOM     11  C   UNL d   1      23.463 -17.924  -0.818  0.00  0.00     0.012 A 
ATOM     12  C   UNL d   1      24.447 -18.493  -0.029  0.00  0.00     0.028 A 
ATOM     13 BR   UNL d   1      21.747 -18.712  -0.895  0.00  0.00    -0.051 Br
ATOM     14  C   UNL d   1      25.730 -17.912   0.054  0.00  0.00    -0.026 A 
ATOM     15  C   UNL d   1      26.046 -16.768  -0.718  0.00  0.00     0.089 A 
ATOM     16  C   UNL d   1      26.683 -18.563   1.013  0.00  0.00     0.051 C 
BRANCH  15  17
ATOM     17  O   UNL d   1      27.273 -16.156  -0.651  0.00  0.00    -0.354 OA
ATOM     18  C   UNL d   1      28.275 -16.714  -1.508  0.00  0.00     0.210 C 
ENDBRANCH  15  17
ENDBRANCH   6   9
ENDBRANCH   3   5
ENDBRANCH   1   3
BRANCH   1  19
ATOM     19  C   UNL d   1      27.869 -12.021  -0.872  0.00  0.00     0.036 A 
ATOM     20  C   UNL d   1      29.263 -11.954  -0.810  0.00  0.00     0.032 A 
ATOM     21  C   UNL d   1      29.982 -12.360   0.327  0.00  0.00     0.033 A 
ATOM     22  C   UNL d   1      29.349 -12.812   1.493  0.00  0.00     0.052 A 
ATOM     23  C   UNL d   1      27.936 -12.826   1.443  0.00  0.00     0.062 A 
ATOM     24 CL   UNL d   1      27.001 -13.303   2.823  0.00  0.00    -0.082 Cl
ATOM     25  C   UNL d   1      27.203 -12.402   0.295  0.00  0.00     0.055 A 
BRANCH  22  26
ATOM     26  N   UNL d   1      30.143 -13.117   2.593  0.00  0.00    -0.376 N 
ATOM     27  C   UNL d   1      30.593 -14.458   2.992  0.00  0.00     0.150 C 
ATOM     28  C   UNL d   1      30.073 -14.818   4.405  0.00  0.00     0.254 C 
ATOM     29  N   UNL d   1      30.407 -13.711   5.418  0.00  0.00    -0.072 N 
ATOM     30  C   UNL d   1      29.847 -14.021   6.777  0.00  0.00     0.269 C 
ATOM     31  C   UNL d   1      29.926 -12.346   4.917  0.00  0.00     0.254 C 
ATOM     32  H   UNL d   1      31.431 -13.668   5.499  0.00  0.00     0.279 HD
ATOM     33  C   UNL d   1      30.495 -12.033   3.518  0.00  0.00     0.150 C 
ENDBRANCH  22  26
ENDBRANCH   1  19
TORSDOF 6
ENDMDL
MODEL 2
REMARK VINA RESULT:    -8.471      4.381      7.198
REMARK INTER + INTRA:         -12.068
REMARK INTER:                 -10.261
REMARK INTRA:                  -1.808
REMARK CONF_INDEPENDENT:        1.790
REMARK UNBOUND:                -1.808
REMARK  6 active torsions:
REMARK  status: ('A' for Active; 'I' for Inactive)
REMARK    1  A    between atoms: O_2  and  C_3 
REMARK    2  A    between atoms: C_10  and  C_11 
REMARK       I    between atoms: C_11  and  N_13 
REMARK    3  A    between atoms: N_13  and  C_14 
REMARK    4  A    between atoms: C_14  and  N_16 
REMARK    5  A    between atoms: N_16  and  C_17 
REMARK    6  A    between atoms: C_20  and  N_21 
ROOT
ATOM      1  N   UNL d   1      27.078 -13.351  -4.679  0.00  0.00    -0.333 N 
ATOM      2  H   UNL d   1      26.899 -12.667  -5.405  0.00  0.00     0.168 HD
ENDROOT
BRANCH   1   3
ATOM      3  C   UNL d   1      26.702 -13.011  -3.346  0.00  0.00     0.179 C 
ATOM      4  S   UNL d   1      26.499 -11.406  -2.839  0.00  0.00    -0.040 SA
BRANCH   3   5
ATOM      5  N   UNL d   1      26.461 -14.121  -2.493  0.00  0.00    -0.299 N 
ATOM      6  C   UNL d   1      25.353 -14.993  -2.577  0.00  0.00     0.260 C 
ATOM      7  O   UNL d   1      24.416 -14.829  -3.366  0.00  0.00    -0.267 OA
ATOM      8  H   UNL d   1      27.123 -14.340  -1.756  0.00  0.00     0.171 HD
BRANCH   6   9
ATOM      9  C   UNL d   1      25.197 -16.189  -1.688  0.00  0.00     0.067 A 
ATOM     10  C   UNL d   1      23.886 -16.745  -1.640  0.00  0.00     0.039 A 
ATOM     11  C   UNL d   1      23.590 -17.834  -0.830  0.00  0.00     0.012 A 
ATOM     12  C   UNL d   1      24.584 -18.379  -0.036  0.00  0.00     0.028 A 
ATOM     13 BR   UNL d   1      21.844 -18.556  -0.779  0.00  0.00    -0.051 Br
ATOM     14  C   UNL d   1      25.889 -17.845  -0.049  0.00  0.00    -0.026 A 
ATOM     15  C   UNL d   1      26.216 -16.779  -0.922  0.00  0.00     0.089 A 
ATOM     16  C   UNL d   1      26.857 -18.457   0.921  0.00  0.00     0.051 C 
BRANCH  15  17
ATOM     17  O   UNL d   1      27.467 -16.213  -0.951  0.00  0.00    -0.354 OA
ATOM     18  C   UNL d   1      27.822 -15.473   0.223  0.00  0.00     0.210 C 
ENDBRANCH  15  17
ENDBRANCH   6   9
ENDBRANCH   3   5
ENDBRANCH   1   3
BRANCH   1  19
ATOM     19  C   UNL d   1      28.109 -14.328  -4.966  0.00  0.00     0.036 A 
ATOM     20  C   UNL d   1      28.564 -14.521  -6.272  0.00  0.00     0.032 A 
ATOM     21  C   UNL d   1      29.428 -15.574  -6.615  0.00  0.00     0.033 A 
ATOM     22  C   UNL d   1      29.931 -16.472  -5.664  0.00  0.00     0.052 A 
ATOM     23  C   UNL d   1      29.509 -16.238  -4.335  0.00  0.00     0.062 A 
ATOM     24 CL   UNL d   1      30.086 -17.225  -3.031  0.00  0.00    -0.082 Cl
ATOM     25  C   UNL d   1      28.642 -15.161  -3.981  0.00  0.00     0.055 A 
BRANCH  22  26
ATOM     26  N   UNL d   1      30.842 -17.434  -6.088  0.00  0.00    -0.376 N 
ATOM     27  C   UNL d   1      32.011 -17.200  -6.946  0.00  0.00     0.150 C 
ATOM     28  C   UNL d   1      31.911 -18.022  -8.254  0.00  0.00     0.254 C 
ATOM     29  N   UNL d   1      31.629 -19.504  -7.958  0.00  0.00    -0.072 N 
ATOM     30  C   UNL d   1      31.462 -20.296  -9.223  0.00  0.00     0.269 C 
ATOM     31  C   UNL d   1      30.411 -19.659  -7.041  0.00  0.00     0.254 C 
ATOM     32  H   UNL d   1      32.445 -19.876  -7.455  0.00  0.00     0.279 HD
ATOM     33  C   UNL d   1      30.581 -18.837  -5.746  0.00  0.00     0.150 C 
ENDBRANCH  22  26
ENDBRANCH   1  19
TORSDOF 6
ENDMDL
MODEL 3
REMARK VINA RESULT:    -8.458      3.986      7.193
REMARK INTER + INTRA:         -11.836
REMARK INTER:                 -10.248
REMARK INTRA:                  -1.588
REMARK CONF_INDEPENDENT:        1.790
REMARK UNBOUND:                -1.588
REMARK  6 active torsions:
REMARK  status: ('A' for Active; 'I' for Inactive)
REMARK    1  A    between atoms: O_2  and  C_3 
REMARK    2  A    between atoms: C_10  and  C_11 
REMARK       I    between atoms: C_11  and  N_13 
REMARK    3  A    between atoms: N_13  and  C_14 
REMARK    4  A    between atoms: C_14  and  N_16 
REMARK    5  A    between atoms: N_16  and  C_17 
REMARK    6  A    between atoms: C_20  and  N_21 
ROOT
ATOM      1  N   UNL d   1      27.648 -12.991  -3.638  0.00  0.00    -0.333 N 
ATOM      2  H   UNL d   1      28.610 -12.829  -3.363  0.00  0.00     0.168 HD
ENDROOT
BRANCH   1   3
ATOM      3  C   UNL d   1      27.311 -14.289  -4.122  0.00  0.00     0.179 C 
ATOM      4  S   UNL d   1      27.380 -14.694  -5.766  0.00  0.00    -0.040 SA
BRANCH   3   5
ATOM      5  N   UNL d   1      26.963 -15.228  -3.115  0.00  0.00    -0.299 N 
ATOM      6  C   UNL d   1      25.649 -15.515  -2.682  0.00  0.00     0.260 C 
ATOM      7  O   UNL d   1      24.651 -14.907  -3.086  0.00  0.00    -0.267 OA
ATOM      8  H   UNL d   1      27.691 -15.761  -2.652  0.00  0.00     0.171 HD
BRANCH   6   9
ATOM      9  C   UNL d   1      25.346 -16.572  -1.664  0.00  0.00     0.067 A 
ATOM     10  C   UNL d   1      23.997 -17.032  -1.646  0.00  0.00     0.039 A 
ATOM     11  C   UNL d   1      23.569 -17.984  -0.731  0.00  0.00     0.012 A 
ATOM     12  C   UNL d   1      24.464 -18.481   0.200  0.00  0.00     0.028 A 
ATOM     13 BR   UNL d   1      21.775 -18.580  -0.722  0.00  0.00    -0.051 Br
ATOM     14  C   UNL d   1      25.803 -18.038   0.220  0.00  0.00    -0.026 A 
ATOM     15  C   UNL d   1      26.264 -17.119  -0.753  0.00  0.00     0.089 A 
ATOM     16  C   UNL d   1      26.655 -18.578   1.331  0.00  0.00     0.051 C 
BRANCH  15  17
ATOM     17  O   UNL d   1      27.552 -16.642  -0.757  0.00  0.00    -0.354 OA
ATOM     18  C   UNL d   1      27.756 -15.445   0.001  0.00  0.00     0.210 C 
ENDBRANCH  15  17
ENDBRANCH   6   9
ENDBRANCH   3   5
ENDBRANCH   1   3
BRANCH   1  19
ATOM     19  C   UNL d   1      26.880 -11.812  -3.986  0.00  0.00     0.036 A 
ATOM     20  C   UNL d   1      26.464 -11.594  -5.301  0.00  0.00     0.032 A 
ATOM     21  C   UNL d   1      25.875 -10.385  -5.708  0.00  0.00     0.033 A 
ATOM     22  C   UNL d   1      25.622  -9.335  -4.815  0.00  0.00     0.052 A 
ATOM     23  C   UNL d   1      25.996  -9.584  -3.474  0.00  0.00     0.062 A 
ATOM     24 CL   UNL d   1      25.697  -8.409  -2.234  0.00  0.00    -0.082 Cl
ATOM     25  C   UNL d   1      26.581 -10.816  -3.054  0.00  0.00     0.055 A 
BRANCH  22  26
ATOM     26  N   UNL d   1      24.965  -8.209  -5.297  0.00  0.00    -0.376 N 
ATOM     27  C   UNL d   1      25.384  -6.813  -5.105  0.00  0.00     0.150 C 
ATOM     28  C   UNL d   1      24.300  -6.009  -4.346  0.00  0.00     0.254 C 
ATOM     29  N   UNL d   1      22.923  -6.171  -5.010  0.00  0.00    -0.072 N 
ATOM     30  C   UNL d   1      21.853  -5.450  -4.241  0.00  0.00     0.269 C 
ATOM     31  C   UNL d   1      22.573  -7.651  -5.193  0.00  0.00     0.254 C 
ATOM     32  H   UNL d   1      22.981  -5.748  -5.945  0.00  0.00     0.279 HD
ATOM     33  C   UNL d   1      23.677  -8.392  -5.976  0.00  0.00     0.150 C 
ENDBRANCH  22  26
ENDBRANCH   1  19
TORSDOF 6
ENDMDL
MODEL 4
REMARK VINA RESULT:    -8.344      1.274      1.790
REMARK INTER + INTRA:         -12.153
REMARK INTER:                 -10.134
REMARK INTRA:                  -2.019
REMARK CONF_INDEPENDENT:        1.790
REMARK UNBOUND:                -2.019
REMARK  6 active torsions:
REMARK  status: ('A' for Active; 'I' for Inactive)
REMARK    1  A    between atoms: O_2  and  C_3 
REMARK    2  A    between atoms: C_10  and  C_11 
REMARK       I    between atoms: C_11  and  N_13 
REMARK    3  A    between atoms: N_13  and  C_14 
REMARK    4  A    between atoms: C_14  and  N_16 
REMARK    5  A    between atoms: N_16  and  C_17 
REMARK    6  A    between atoms: C_20  and  N_21 
ROOT
ATOM      1  N   UNL d   1      27.191 -11.726  -2.569  0.00  0.00    -0.333 N 
ATOM      2  H   UNL d   1      26.985 -10.755  -2.774  0.00  0.00     0.168 HD
ENDROOT
BRANCH   1   3
ATOM      3  C   UNL d   1      26.339 -12.715  -3.139  0.00  0.00     0.179 C 
ATOM      4  S   UNL d   1      25.656 -12.550  -4.682  0.00  0.00    -0.040 SA
BRANCH   3   5
ATOM      5  N   UNL d   1      26.147 -13.872  -2.337  0.00  0.00    -0.299 N 
ATOM      6  C   UNL d   1      25.035 -14.741  -2.405  0.00  0.00     0.260 C 
ATOM      7  O   UNL d   1      24.054 -14.535  -3.129  0.00  0.00    -0.267 OA
ATOM      8  H   UNL d   1      26.850 -14.130  -1.653  0.00  0.00     0.171 HD
BRANCH   6   9
ATOM      9  C   UNL d   1      24.930 -15.985  -1.578  0.00  0.00     0.067 A 
ATOM     10  C   UNL d   1      23.657 -16.624  -1.599  0.00  0.00     0.039 A 
ATOM     11  C   UNL d   1      23.408 -17.767  -0.850  0.00  0.00     0.012 A 
ATOM     12  C   UNL d   1      24.410 -18.285  -0.049  0.00  0.00     0.028 A 
ATOM     13 BR   UNL d   1      21.712 -18.601  -0.890  0.00  0.00    -0.051 Br
ATOM     14  C   UNL d   1      25.678 -17.669   0.007  0.00  0.00    -0.026 A 
ATOM     15  C   UNL d   1      25.961 -16.545  -0.805  0.00  0.00     0.089 A 
ATOM     16  C   UNL d   1      26.653 -18.264   0.980  0.00  0.00     0.051 C 
BRANCH  15  17
ATOM     17  O   UNL d   1      27.173 -15.899  -0.766  0.00  0.00    -0.354 OA
ATOM     18  C   UNL d   1      28.185 -16.465  -1.605  0.00  0.00     0.210 C 
ENDBRANCH  15  17
ENDBRANCH   6   9
ENDBRANCH   3   5
ENDBRANCH   1   3
BRANCH   1  19
ATOM     19  C   UNL d   1      27.966 -11.970  -1.369  0.00  0.00     0.036 A 
ATOM     20  C   UNL d   1      29.361 -12.010  -1.417  0.00  0.00     0.032 A 
ATOM     21  C   UNL d   1      30.136 -12.418  -0.318  0.00  0.00     0.033 A 
ATOM     22  C   UNL d   1      29.566 -12.765   0.914  0.00  0.00     0.052 A 
ATOM     23  C   UNL d   1      28.156 -12.669   0.973  0.00  0.00     0.062 A 
ATOM     24 CL   UNL d   1      27.301 -13.008   2.442  0.00  0.00    -0.082 Cl
ATOM     25  C   UNL d   1      27.368 -12.243  -0.138  0.00  0.00     0.055 A 
BRANCH  22  26
ATOM     26  N   UNL d   1      30.419 -13.080   1.966  0.00  0.00    -0.376 N 
ATOM     27  C   UNL d   1      31.542 -12.261   2.444  0.00  0.00     0.150 C 
ATOM     28  C   UNL d   1      32.880 -13.031   2.319  0.00  0.00     0.254 C 
ATOM     29  N   UNL d   1      32.785 -14.419   2.973  0.00  0.00    -0.072 N 
ATOM     30  C   UNL d   1      34.056 -15.199   2.797  0.00  0.00     0.269 C 
ATOM     31  C   UNL d   1      31.578 -15.196   2.437  0.00  0.00     0.254 C 
ATOM     32  H   UNL d   1      32.638 -14.275   3.980  0.00  0.00     0.279 HD
ATOM     33  C   UNL d   1      30.274 -14.390   2.611  0.00  0.00     0.150 C 
ENDBRANCH  22  26
ENDBRANCH   1  19
TORSDOF 6
ENDMDL
MODEL 5
REMARK VINA RESULT:    -8.313      4.148      6.454
REMARK INTER + INTRA:         -11.662
REMARK INTER:                 -10.103
REMARK INTRA:                  -1.559
REMARK CONF_INDEPENDENT:        1.790
REMARK UNBOUND:                -1.559
REMARK  6 active torsions:
REMARK  status: ('A' for Active; 'I' for Inactive)
REMARK    1  A    between atoms: O_2  and  C_3 
REMARK    2  A    between atoms: C_10  and  C_11 
REMARK       I    between atoms: C_11  and  N_13 
REMARK    3  A    between atoms: N_13  and  C_14 
REMARK    4  A    between atoms: C_14  and  N_16 
REMARK    5  A    between atoms: N_16  and  C_17 
REMARK    6  A    between atoms: C_20  and  N_21 
ROOT
ATOM      1  N   UNL d   1      28.215 -13.595  -4.237  0.00  0.00    -0.333 N 
ATOM      2  H   UNL d   1      28.822 -12.785  -4.268  0.00  0.00     0.168 HD
ENDROOT
BRANCH   1   3
ATOM      3  C   UNL d   1      26.973 -13.462  -3.551  0.00  0.00     0.179 C 
ATOM      4  S   UNL d   1      25.914 -12.167  -3.826  0.00  0.00    -0.040 SA
BRANCH   3   5
ATOM      5  N   UNL d   1      26.668 -14.524  -2.658  0.00  0.00    -0.299 N 
ATOM      6  C   UNL d   1      25.418 -15.175  -2.556  0.00  0.00     0.260 C 
ATOM      7  O   UNL d   1      24.416 -14.826  -3.189  0.00  0.00    -0.267 OA
ATOM      8  H   UNL d   1      27.385 -14.875  -2.032  0.00  0.00     0.171 HD
BRANCH   6   9
ATOM      9  C   UNL d   1      25.185 -16.338  -1.641  0.00  0.00     0.067 A 
ATOM     10  C   UNL d   1      23.855 -16.851  -1.635  0.00  0.00     0.039 A 
ATOM     11  C   UNL d   1      23.490 -17.905  -0.808  0.00  0.00     0.012 A 
ATOM     12  C   UNL d   1      24.429 -18.455   0.046  0.00  0.00     0.028 A 
ATOM     13 BR   UNL d   1      21.721 -18.571  -0.813  0.00  0.00    -0.051 Br
ATOM     14  C   UNL d   1      25.751 -17.963   0.076  0.00  0.00    -0.026 A 
ATOM     15  C   UNL d   1      26.149 -16.935  -0.812  0.00  0.00     0.089 A 
ATOM     16  C   UNL d   1      26.654 -18.575   1.106  0.00  0.00     0.051 C 
BRANCH  15  17
ATOM     17  O   UNL d   1      27.418 -16.408  -0.801  0.00  0.00    -0.354 OA
ATOM     18  C   UNL d   1      27.707 -15.552   0.309  0.00  0.00     0.210 C 
ENDBRANCH  15  17
ENDBRANCH   6   9
ENDBRANCH   3   5
ENDBRANCH   1   3
BRANCH   1  19
ATOM     19  C   UNL d   1      28.859 -14.879  -4.430  0.00  0.00     0.036 A 
ATOM     20  C   UNL d   1      28.964 -15.790  -3.376  0.00  0.00     0.032 A 
ATOM     21  C   UNL d   1      29.731 -16.962  -3.474  0.00  0.00     0.033 A 
ATOM     22  C   UNL d   1      30.404 -17.322  -4.650  0.00  0.00     0.052 A 
ATOM     23  C   UNL d   1      30.249 -16.423  -5.730  0.00  0.00     0.062 A 
ATOM     24 CL   UNL d   1      30.969 -16.752  -7.273  0.00  0.00    -0.082 Cl
ATOM     25  C   UNL d   1      29.459 -15.239  -5.638  0.00  0.00     0.055 A 
BRANCH  22  26
ATOM     26  N   UNL d   1      31.074 -18.540  -4.675  0.00  0.00    -0.376 N 
ATOM     27  C   UNL d   1      30.891 -19.609  -5.667  0.00  0.00     0.150 C 
ATOM     28  C   UNL d   1      30.410 -20.916  -4.989  0.00  0.00     0.254 C 
ATOM     29  N   UNL d   1      31.319 -21.296  -3.809  0.00  0.00    -0.072 N 
ATOM     30  C   UNL d   1      30.820 -22.525  -3.104  0.00  0.00     0.269 C 
ATOM     31  C   UNL d   1      31.475 -20.123  -2.837  0.00  0.00     0.254 C 
ATOM     32  H   UNL d   1      32.248 -21.506  -4.194  0.00  0.00     0.279 HD
ATOM     33  C   UNL d   1      31.979 -18.859  -3.564  0.00  0.00     0.150 C 
ENDBRANCH  22  26
ENDBRANCH   1  19
TORSDOF 6
ENDMDL
MODEL 6
REMARK VINA RESULT:    -8.238      4.187      6.704
REMARK INTER + INTRA:         -11.791
REMARK INTER:                 -10.028
REMARK INTRA:                  -1.762
REMARK CONF_INDEPENDENT:        1.790
REMARK UNBOUND:                -1.762
REMARK  6 active torsions:
REMARK  status: ('A' for Active; 'I' for Inactive)
REMARK    1  A    between atoms: O_2  and  C_3 
REMARK    2  A    between atoms: C_10  and  C_11 
REMARK       I    between atoms: C_11  and  N_13 
REMARK    3  A    between atoms: N_13  and  C_14 
REMARK    4  A    between atoms: C_14  and  N_16 
REMARK    5  A    between atoms: N_16  and  C_17 
REMARK    6  A    between atoms: C_20  and  N_21 
ROOT
ATOM      1  N   UNL d   1      26.618 -12.765  -5.107  0.00  0.00    -0.333 N 
ATOM      2  H   UNL d   1      26.433 -12.068  -5.819  0.00  0.00     0.168 HD
ENDROOT
BRANCH   1   3
ATOM      3  C   UNL d   1      26.278 -12.437  -3.762  0.00  0.00     0.179 C 
ATOM      4  S   UNL d   1      25.907 -10.855  -3.276  0.00  0.00    -0.040 SA
BRANCH   3   5
ATOM      5  N   UNL d   1      26.226 -13.544  -2.873  0.00  0.00    -0.299 N 
ATOM      6  C   UNL d   1      25.199 -14.513  -2.833  0.00  0.00     0.260 C 
ATOM      7  O   UNL d   1      24.177 -14.451  -3.526  0.00  0.00    -0.267 OA
ATOM      8  H   UNL d   1      26.974 -13.686  -2.204  0.00  0.00     0.171 HD
BRANCH   6   9
ATOM      9  C   UNL d   1      25.242 -15.698  -1.917  0.00  0.00     0.067 A 
ATOM     10  C   UNL d   1      23.980 -16.302  -1.644  0.00  0.00     0.039 A 
ATOM     11  C   UNL d   1      23.868 -17.387  -0.784  0.00  0.00     0.012 A 
ATOM     12  C   UNL d   1      25.001 -17.878  -0.160  0.00  0.00     0.028 A 
ATOM     13 BR   UNL d   1      22.185 -18.175  -0.434  0.00  0.00    -0.051 Br
ATOM     14  C   UNL d   1      26.263 -17.295  -0.396  0.00  0.00    -0.026 A 
ATOM     15  C   UNL d   1      26.396 -16.234  -1.323  0.00  0.00     0.089 A 
ATOM     16  C   UNL d   1      27.402 -17.852   0.407  0.00  0.00     0.051 C 
BRANCH  15  17
ATOM     17  O   UNL d   1      27.601 -15.620  -1.566  0.00  0.00    -0.354 OA
ATOM     18  C   UNL d   1      28.108 -14.834  -0.483  0.00  0.00     0.210 C 
ENDBRANCH  15  17
ENDBRANCH   6   9
ENDBRANCH   3   5
ENDBRANCH   1   3
BRANCH   1  19
ATOM     19  C   UNL d   1      27.625 -13.753  -5.431  0.00  0.00     0.036 A 
ATOM     20  C   UNL d   1      27.580 -15.030  -4.867  0.00  0.00     0.032 A 
ATOM     21  C   UNL d   1      28.629 -15.952  -5.017  0.00  0.00     0.033 A 
ATOM     22  C   UNL d   1      29.770 -15.673  -5.782  0.00  0.00     0.052 A 
ATOM     23  C   UNL d   1      29.785 -14.399  -6.396  0.00  0.00     0.062 A 
ATOM     24 CL   UNL d   1      31.097 -13.920  -7.423  0.00  0.00    -0.082 Cl
ATOM     25  C   UNL d   1      28.714 -13.465  -6.256  0.00  0.00     0.055 A 
BRANCH  22  26
ATOM     26  N   UNL d   1      30.718 -16.678  -5.936  0.00  0.00    -0.376 N 
ATOM     27  C   UNL d   1      30.988 -17.433  -7.167  0.00  0.00     0.150 C 
ATOM     28  C   UNL d   1      30.740 -18.946  -6.954  0.00  0.00     0.254 C 
ATOM     29  N   UNL d   1      31.492 -19.463  -5.716  0.00  0.00    -0.072 N 
ATOM     30  C   UNL d   1      31.203 -20.914  -5.462  0.00  0.00     0.269 C 
ATOM     31  C   UNL d   1      31.174 -18.610  -4.485  0.00  0.00     0.254 C 
ATOM     32  H   UNL d   1      32.498 -19.369  -5.908  0.00  0.00     0.279 HD
ATOM     33  C   UNL d   1      31.464 -17.118  -4.751  0.00  0.00     0.150 C 
ENDBRANCH  22  26
ENDBRANCH   1  19
TORSDOF 6
ENDMDL
MODEL 7
REMARK VINA RESULT:    -7.956      4.855      6.589
REMARK INTER + INTRA:         -11.598
REMARK INTER:                  -9.746
REMARK INTRA:                  -1.851
REMARK CONF_INDEPENDENT:        1.790
REMARK UNBOUND:                -1.851
REMARK  6 active torsions:
REMARK  status: ('A' for Active; 'I' for Inactive)
REMARK    1  A    between atoms: O_2  and  C_3 
REMARK    2  A    between atoms: C_10  and  C_11 
REMARK       I    between atoms: C_11  and  N_13 
REMARK    3  A    between atoms: N_13  and  C_14 
REMARK    4  A    between atoms: C_14  and  N_16 
REMARK    5  A    between atoms: N_16  and  C_17 
REMARK    6  A    between atoms: C_20  and  N_21 
ROOT
ATOM      1  N   UNL d   1      25.456 -12.003  -4.358  0.00  0.00    -0.333 N 
ATOM      2  H   UNL d   1      24.453 -11.861  -4.345  0.00  0.00     0.168 HD
ENDROOT
BRANCH   1   3
ATOM      3  C   UNL d   1      26.129 -11.829  -5.603  0.00  0.00     0.179 C 
ATOM      4  S   UNL d   1      25.764 -10.560  -6.666  0.00  0.00    -0.040 SA
BRANCH   3   5
ATOM      5  N   UNL d   1      27.163 -12.769  -5.859  0.00  0.00    -0.299 N 
ATOM      6  C   UNL d   1      28.206 -12.604  -6.797  0.00  0.00     0.260 C 
ATOM      7  O   UNL d   1      28.281 -11.640  -7.568  0.00  0.00    -0.267 OA
ATOM      8  H   UNL d   1      27.191 -13.638  -5.337  0.00  0.00     0.171 HD
BRANCH   6   9
ATOM      9  C   UNL d   1      29.307 -13.606  -6.966  0.00  0.00     0.067 A 
ATOM     10  C   UNL d   1      30.442 -13.145  -7.695  0.00  0.00     0.039 A 
ATOM     11  C   UNL d   1      31.521 -13.979  -7.957  0.00  0.00     0.012 A 
ATOM     12  C   UNL d   1      31.485 -15.292  -7.521  0.00  0.00     0.028 A 
ATOM     13 BR   UNL d   1      33.017 -13.351  -8.926  0.00  0.00    -0.051 Br
ATOM     14  C   UNL d   1      30.372 -15.785  -6.810  0.00  0.00    -0.026 A 
ATOM     15  C   UNL d   1      29.298 -14.923  -6.480  0.00  0.00     0.089 A 
ATOM     16  C   UNL d   1      30.405 -17.246  -6.471  0.00  0.00     0.051 C 
BRANCH  15  17
ATOM     17  O   UNL d   1      28.184 -15.365  -5.809  0.00  0.00    -0.354 OA
ATOM     18  C   UNL d   1      28.367 -15.575  -4.405  0.00  0.00     0.210 C 
ENDBRANCH  15  17
ENDBRANCH   6   9
ENDBRANCH   3   5
ENDBRANCH   1   3
BRANCH   1  19
ATOM     19  C   UNL d   1      25.995 -12.829  -3.296  0.00  0.00     0.036 A 
ATOM     20  C   UNL d   1      27.184 -12.478  -2.654  0.00  0.00     0.032 A 
ATOM     21  C   UNL d   1      27.827 -13.338  -1.749  0.00  0.00     0.033 A 
ATOM     22  C   UNL d   1      27.296 -14.585  -1.392  0.00  0.00     0.052 A 
ATOM     23  C   UNL d   1      26.063 -14.911  -2.004  0.00  0.00     0.062 A 
ATOM     24 CL   UNL d   1      25.244 -16.391  -1.625  0.00  0.00    -0.082 Cl
ATOM     25  C   UNL d   1      25.401 -14.033  -2.914  0.00  0.00     0.055 A 
BRANCH  22  26
ATOM     26  N   UNL d   1      27.965 -15.332  -0.428  0.00  0.00    -0.376 N 
ATOM     27  C   UNL d   1      28.504 -14.823   0.841  0.00  0.00     0.150 C 
ATOM     28  C   UNL d   1      30.037 -15.033   0.914  0.00  0.00     0.254 C 
ATOM     29  N   UNL d   1      30.413 -16.491   0.605  0.00  0.00    -0.072 N 
ATOM     30  C   UNL d   1      31.902 -16.687   0.607  0.00  0.00     0.269 C 
ATOM     31  C   UNL d   1      29.795 -16.948  -0.720  0.00  0.00     0.254 C 
ATOM     32  H   UNL d   1      30.015 -17.075   1.351  0.00  0.00     0.279 HD
ATOM     33  C   UNL d   1      28.266 -16.737  -0.723  0.00  0.00     0.150 C 
ENDBRANCH  22  26
ENDBRANCH   1  19
TORSDOF 6
ENDMDL
MODEL 8
REMARK VINA RESULT:    -7.912      4.375      6.295
REMARK INTER + INTRA:         -11.851
REMARK INTER:                  -9.702
REMARK INTRA:                  -2.149
REMARK CONF_INDEPENDENT:        1.790
REMARK UNBOUND:                -2.149
REMARK  6 active torsions:
REMARK  status: ('A' for Active; 'I' for Inactive)
REMARK    1  A    between atoms: O_2  and  C_3 
REMARK    2  A    between atoms: C_10  and  C_11 
REMARK       I    between atoms: C_11  and  N_13 
REMARK    3  A    between atoms: N_13  and  C_14 
REMARK    4  A    between atoms: C_14  and  N_16 
REMARK    5  A    between atoms: N_16  and  C_17 
REMARK    6  A    between atoms: C_20  and  N_21 
ROOT
ATOM      1  N   UNL d   1      25.455 -12.288  -4.284  0.00  0.00    -0.333 N 
ATOM      2  H   UNL d   1      24.443 -12.248  -4.309  0.00  0.00     0.168 HD
ENDROOT
BRANCH   1   3
ATOM      3  C   UNL d   1      26.158 -11.920  -5.468  0.00  0.00     0.179 C 
ATOM      4  S   UNL d   1      25.586 -10.733  -6.535  0.00  0.00    -0.040 SA
BRANCH   3   5
ATOM      5  N   UNL d   1      27.399 -12.586  -5.656  0.00  0.00    -0.299 N 
ATOM      6  C   UNL d   1      27.566 -13.982  -5.791  0.00  0.00     0.260 C 
ATOM      7  O   UNL d   1      26.639 -14.792  -5.675  0.00  0.00    -0.267 OA
ATOM      8  H   UNL d   1      28.255 -12.046  -5.712  0.00  0.00     0.171 HD
BRANCH   6   9
ATOM      9  C   UNL d   1      28.897 -14.615  -6.060  0.00  0.00     0.067 A 
ATOM     10  C   UNL d   1      29.049 -15.944  -5.570  0.00  0.00     0.039 A 
ATOM     11  C   UNL d   1      30.243 -16.638  -5.718  0.00  0.00     0.012 A 
ATOM     12  C   UNL d   1      31.316 -16.019  -6.334  0.00  0.00     0.028 A 
ATOM     13 BR   UNL d   1      30.426 -18.401  -5.061  0.00  0.00    -0.051 Br
ATOM     14  C   UNL d   1      31.205 -14.698  -6.818  0.00  0.00    -0.026 A 
ATOM     15  C   UNL d   1      29.971 -14.009  -6.732  0.00  0.00     0.089 A 
ATOM     16  C   UNL d   1      32.460 -14.100  -7.382  0.00  0.00     0.051 C 
BRANCH  15  17
ATOM     17  O   UNL d   1      29.823 -12.715  -7.168  0.00  0.00    -0.354 OA
ATOM     18  C   UNL d   1      29.156 -12.575  -8.427  0.00  0.00     0.210 C 
ENDBRANCH  15  17
ENDBRANCH   6   9
ENDBRANCH   3   5
ENDBRANCH   1   3
BRANCH   1  19
ATOM     19  C   UNL d   1      26.031 -13.161  -3.281  0.00  0.00     0.036 A 
ATOM     20  C   UNL d   1      27.291 -12.893  -2.741  0.00  0.00     0.032 A 
ATOM     21  C   UNL d   1      27.955 -13.804  -1.904  0.00  0.00     0.033 A 
ATOM     22  C   UNL d   1      27.381 -15.022  -1.515  0.00  0.00     0.052 A 
ATOM     23  C   UNL d   1      26.082 -15.263  -2.022  0.00  0.00     0.062 A 
ATOM     24 CL   UNL d   1      25.209 -16.696  -1.588  0.00  0.00    -0.082 Cl
ATOM     25  C   UNL d   1      25.400 -14.332  -2.861  0.00  0.00     0.055 A 
BRANCH  22  26
ATOM     26  N   UNL d   1      28.083 -15.823  -0.622  0.00  0.00    -0.376 N 
ATOM     27  C   UNL d   1      28.699 -15.381   0.638  0.00  0.00     0.150 C 
ATOM     28  C   UNL d   1      30.228 -15.622   0.621  0.00  0.00     0.254 C 
ATOM     29  N   UNL d   1      30.556 -17.073   0.230  0.00  0.00    -0.072 N 
ATOM     30  C   UNL d   1      32.039 -17.298   0.145  0.00  0.00     0.269 C 
ATOM     31  C   UNL d   1      29.860 -17.460  -1.078  0.00  0.00     0.254 C 
ATOM     32  H   UNL d   1      30.185 -17.681   0.971  0.00  0.00     0.279 HD
ATOM     33  C   UNL d   1      28.338 -17.220  -0.992  0.00  0.00     0.150 C 
ENDBRANCH  22  26
ENDBRANCH   1  19
TORSDOF 6
ENDMDL
MODEL 9
REMARK VINA RESULT:    -7.808      1.443      2.034
REMARK INTER + INTRA:         -11.351
REMARK INTER:                  -9.598
REMARK INTRA:                  -1.753
REMARK CONF_INDEPENDENT:        1.790
REMARK UNBOUND:                -1.753
REMARK  6 active torsions:
REMARK  status: ('A' for Active; 'I' for Inactive)
REMARK    1  A    between atoms: O_2  and  C_3 
REMARK    2  A    between atoms: C_10  and  C_11 
REMARK       I    between atoms: C_11  and  N_13 
REMARK    3  A    between atoms: N_13  and  C_14 
REMARK    4  A    between atoms: C_14  and  N_16 
REMARK    5  A    between atoms: N_16  and  C_17 
REMARK    6  A    between atoms: C_20  and  N_21 
ROOT
ATOM      1  N   UNL d   1      27.381 -11.605  -0.967  0.00  0.00    -0.333 N 
ATOM      2  H   UNL d   1      27.288 -10.620  -1.188  0.00  0.00     0.168 HD
ENDROOT
BRANCH   1   3
ATOM      3  C   UNL d   1      26.871 -12.543  -1.911  0.00  0.00     0.179 C 
ATOM      4  S   UNL d   1      26.653 -12.160  -3.548  0.00  0.00    -0.040 SA
BRANCH   3   5
ATOM      5  N   UNL d   1      26.608 -13.836  -1.384  0.00  0.00    -0.299 N 
ATOM      6  C   UNL d   1      25.567 -14.694  -1.802  0.00  0.00     0.260 C 
ATOM      7  O   UNL d   1      24.707 -14.368  -2.629  0.00  0.00    -0.267 OA
ATOM      8  H   UNL d   1      27.203 -14.210  -0.653  0.00  0.00     0.171 HD
BRANCH   6   9
ATOM      9  C   UNL d   1      25.390 -16.077  -1.253  0.00  0.00     0.067 A 
ATOM     10  C   UNL d   1      24.061 -16.590  -1.312  0.00  0.00     0.039 A 
ATOM     11  C   UNL d   1      23.747 -17.845  -0.808  0.00  0.00     0.012 A 
ATOM     12  C   UNL d   1      24.739 -18.605  -0.214  0.00  0.00     0.028 A 
ATOM     13 BR   UNL d   1      21.979 -18.508  -0.894  0.00  0.00    -0.051 Br
ATOM     14  C   UNL d   1      26.061 -18.122  -0.126  0.00  0.00    -0.026 A 
ATOM     15  C   UNL d   1      26.404 -16.874  -0.698  0.00  0.00     0.089 A 
ATOM     16  C   UNL d   1      27.028 -18.994   0.621  0.00  0.00     0.051 C 
BRANCH  15  17
ATOM     17  O   UNL d   1      27.673 -16.354  -0.616  0.00  0.00    -0.354 OA
ATOM     18  C   UNL d   1      28.076 -15.951   0.698  0.00  0.00     0.210 C 
ENDBRANCH  15  17
ENDBRANCH   6   9
ENDBRANCH   3   5
ENDBRANCH   1   3
BRANCH   1  19
ATOM     19  C   UNL d   1      27.541 -11.928   0.436  0.00  0.00     0.036 A 
ATOM     20  C   UNL d   1      26.748 -11.310   1.406  0.00  0.00     0.032 A 
ATOM     21  C   UNL d   1      26.992 -11.463   2.781  0.00  0.00     0.033 A 
ATOM     22  C   UNL d   1      28.015 -12.283   3.275  0.00  0.00     0.052 A 
ATOM     23  C   UNL d   1      28.779 -12.950   2.289  0.00  0.00     0.062 A 
ATOM     24 CL   UNL d   1      30.045 -14.047   2.735  0.00  0.00    -0.082 Cl
ATOM     25  C   UNL d   1      28.526 -12.807   0.892  0.00  0.00     0.055 A 
BRANCH  22  26
ATOM     26  N   UNL d   1      28.128 -12.433   4.652  0.00  0.00    -0.376 N 
ATOM     27  C   UNL d   1      28.727 -11.465   5.582  0.00  0.00     0.150 C 
ATOM     28  C   UNL d   1      29.935 -12.087   6.324  0.00  0.00     0.254 C 
ATOM     29  N   UNL d   1      29.560 -13.433   6.966  0.00  0.00    -0.072 N 
ATOM     30  C   UNL d   1      30.744 -14.075   7.630  0.00  0.00     0.269 C 
ATOM     31  C   UNL d   1      28.923 -14.372   5.937  0.00  0.00     0.254 C 
ATOM     32  H   UNL d   1      28.855 -13.241   7.689  0.00  0.00     0.279 HD
ATOM     33  C   UNL d   1      27.712 -13.707   5.250  0.00  0.00     0.150 C 
ENDBRANCH  22  26
ENDBRANCH   1  19
TORSDOF 6
ENDMDL
