MODEL 1
REMARK VINA RESULT:    -7.206      0.000      0.000
REMARK INTER + INTRA:          -9.347
REMARK INTER:                  -8.698
REMARK INTRA:                  -0.649
REMARK CONF_INDEPENDENT:        1.492
REMARK UNBOUND:                -0.649
REMARK  5 active torsions:
REMARK  status: ('A' for Active; 'I' for Inactive)
REMARK       I    between atoms: N_1  and  C_2 
REMARK    1  A    between atoms: C_2  and  C_4 
REMARK    2  A    between atoms: C_7  and  C_8 
REMARK       I    between atoms: C_8  and  N_10 
REMARK    3  A    between atoms: N_10  and  C_11 
REMARK    4  A    between atoms: C_14  and  O_15 
REMARK    5  A    between atoms: O_15  and  C_16 
ROOT
ATOM      1  C   UNL d   1      22.886 -17.684  -0.272  0.00  0.00     0.256 C 
ATOM      2  O   UNL d   1      22.789 -16.464  -0.148  0.00  0.00    -0.267 OA
ATOM      3  N   UNL d   1      24.098 -18.337  -0.513  0.00  0.00    -0.323 N 
ATOM      4  H   UNL d   1      24.124 -19.309  -0.784  0.00  0.00     0.169 HD
ENDROOT
BRANCH   1   5
ATOM      5  C   UNL d   1      21.629 -18.493  -0.165  0.00  0.00     0.032 A 
ATOM      6  C   UNL d   1      21.239 -18.950   1.111  0.00  0.00     0.018 A 
ATOM      7  C   UNL d   1      20.147 -19.817   1.270  0.00  0.00     0.018 A 
ATOM      8  C   UNL d   1      19.393 -20.187   0.155  0.00  0.00     0.031 A 
ATOM      9  C   UNL d   1      19.745 -19.700  -1.109  0.00  0.00     0.018 A 
ATOM     10  C   UNL d   1      20.857 -18.862  -1.270  0.00  0.00     0.018 A 
BRANCH   8  11
ATOM     11  C   UNL d   1      18.161 -20.998   0.305  0.00  0.00     0.249 C 
ATOM     12  N   UNL d   1      18.070 -21.781   1.421  0.00  0.00    -0.366 N 
ATOM     13  H   UNL d   1      17.237 -22.345   1.534  0.00  0.00     0.159 HD
ATOM     14  H   UNL d   1      18.722 -21.733   2.192  0.00  0.00     0.159 HD
ATOM     15  O   UNL d   1      17.277 -20.986  -0.548  0.00  0.00    -0.268 OA
ENDBRANCH   8  11
ENDBRANCH   1   5
BRANCH   3  16
ATOM     16  C   UNL d   1      25.339 -17.657  -0.472  0.00  0.00     0.038 A 
ATOM     17  C   UNL d   1      26.237 -17.833   0.586  0.00  0.00     0.032 A 
ATOM     18  C   UNL d   1      27.455 -17.123   0.604  0.00  0.00     0.042 A 
ATOM     19  C   UNL d   1      27.794 -16.254  -0.444  0.00  0.00     0.113 A 
ATOM     20  C   UNL d   1      26.863 -16.067  -1.465  0.00  0.00     0.151 A 
ATOM     21  F   UNL d   1      27.087 -15.219  -2.477  0.00  0.00    -0.203 F 
ATOM     22  C   UNL d   1      25.658 -16.753  -1.481  0.00  0.00     0.074 A 
BRANCH  19  23
ATOM     23  O   UNL d   1      29.031 -15.670  -0.371  0.00  0.00    -0.287 OA
BRANCH  23  24
ATOM     24  C   UNL d   1      30.138 -16.564  -0.275  0.00  0.00     0.505 C 
ATOM     25  F   UNL d   1      30.137 -17.383  -1.355  0.00  0.00    -0.184 F 
ATOM     26  F   UNL d   1      31.272 -15.821  -0.369  0.00  0.00    -0.184 F 
ENDBRANCH  23  24
ENDBRANCH  19  23
ENDBRANCH   3  16
TORSDOF 5
ENDMDL
MODEL 2
REMARK VINA RESULT:    -7.124      1.352      1.741
REMARK INTER + INTRA:          -9.303
REMARK INTER:                  -8.615
REMARK INTRA:                  -0.687
REMARK CONF_INDEPENDENT:        1.492
REMARK UNBOUND:                -0.687
REMARK  5 active torsions:
REMARK  status: ('A' for Active; 'I' for Inactive)
REMARK       I    between atoms: N_1  and  C_2 
REMARK    1  A    between atoms: C_2  and  C_4 
REMARK    2  A    between atoms: C_7  and  C_8 
REMARK       I    between atoms: C_8  and  N_10 
REMARK    3  A    between atoms: N_10  and  C_11 
REMARK    4  A    between atoms: C_14  and  O_15 
REMARK    5  A    between atoms: O_15  and  C_16 
ROOT
ATOM      1  C   UNL d   1      22.717 -17.583  -0.610  0.00  0.00     0.256 C 
ATOM      2  O   UNL d   1      22.453 -16.383  -0.679  0.00  0.00    -0.267 OA
ATOM      3  N   UNL d   1      23.990 -18.104  -0.858  0.00  0.00    -0.323 N 
ATOM      4  H   UNL d   1      24.137 -19.097  -0.966  0.00  0.00     0.169 HD
ENDROOT
BRANCH   1   5
ATOM      5  C   UNL d   1      21.602 -18.517  -0.247  0.00  0.00     0.032 A 
ATOM      6  C   UNL d   1      20.724 -18.932  -1.270  0.00  0.00     0.018 A 
ATOM      7  C   UNL d   1      19.585 -19.700  -0.982  0.00  0.00     0.018 A 
ATOM      8  C   UNL d   1      19.347 -20.115   0.329  0.00  0.00     0.031 A 
ATOM      9  C   UNL d   1      20.240 -19.747   1.343  0.00  0.00     0.018 A 
ATOM     10  C   UNL d   1      21.357 -18.950   1.059  0.00  0.00     0.018 A 
BRANCH   8  11
ATOM     11  C   UNL d   1      18.224 -21.030   0.645  0.00  0.00     0.249 C 
ATOM     12  N   UNL d   1      17.280 -21.207  -0.326  0.00  0.00    -0.366 N 
ATOM     13  H   UNL d   1      16.504 -21.824  -0.122  0.00  0.00     0.159 HD
ATOM     14  H   UNL d   1      17.378 -20.859  -1.270  0.00  0.00     0.159 HD
ATOM     15  O   UNL d   1      18.135 -21.582   1.740  0.00  0.00    -0.268 OA
ENDBRANCH   8  11
ENDBRANCH   1   5
BRANCH   3  16
ATOM     16  C   UNL d   1      25.118 -17.271  -1.052  0.00  0.00     0.038 A 
ATOM     17  C   UNL d   1      26.183 -17.256  -0.146  0.00  0.00     0.032 A 
ATOM     18  C   UNL d   1      27.280 -16.398  -0.361  0.00  0.00     0.042 A 
ATOM     19  C   UNL d   1      27.333 -15.571  -1.492  0.00  0.00     0.113 A 
ATOM     20  C   UNL d   1      26.241 -15.576  -2.358  0.00  0.00     0.151 A 
ATOM     21  F   UNL d   1      26.189 -14.782  -3.434  0.00  0.00    -0.203 F 
ATOM     22  C   UNL d   1      25.153 -16.409  -2.144  0.00  0.00     0.074 A 
BRANCH  19  23
ATOM     23  O   UNL d   1      28.476 -14.831  -1.650  0.00  0.00    -0.287 OA
BRANCH  23  24
ATOM     24  C   UNL d   1      29.516 -15.445  -2.409  0.00  0.00     0.505 C 
ATOM     25  F   UNL d   1      29.083 -16.649  -2.854  0.00  0.00    -0.184 F 
ATOM     26  F   UNL d   1      29.715 -14.684  -3.517  0.00  0.00    -0.184 F 
ENDBRANCH  23  24
ENDBRANCH  19  23
ENDBRANCH   3  16
TORSDOF 5
ENDMDL
MODEL 3
REMARK VINA RESULT:    -7.066      1.814      2.166
REMARK INTER + INTRA:          -9.242
REMARK INTER:                  -8.558
REMARK INTRA:                  -0.684
REMARK CONF_INDEPENDENT:        1.492
REMARK UNBOUND:                -0.684
REMARK  5 active torsions:
REMARK  status: ('A' for Active; 'I' for Inactive)
REMARK       I    between atoms: N_1  and  C_2 
REMARK    1  A    between atoms: C_2  and  C_4 
REMARK    2  A    between atoms: C_7  and  C_8 
REMARK       I    between atoms: C_8  and  N_10 
REMARK    3  A    between atoms: N_10  and  C_11 
REMARK    4  A    between atoms: C_14  and  O_15 
REMARK    5  A    between atoms: O_15  and  C_16 
ROOT
ATOM      1  C   UNL d   1      22.712 -17.587  -0.613  0.00  0.00     0.256 C 
ATOM      2  O   UNL d   1      22.435 -16.396  -0.750  0.00  0.00    -0.267 OA
ATOM      3  N   UNL d   1      24.000 -18.100  -0.786  0.00  0.00    -0.323 N 
ATOM      4  H   UNL d   1      24.164 -19.094  -0.840  0.00  0.00     0.169 HD
ENDROOT
BRANCH   1   5
ATOM      5  C   UNL d   1      21.596 -18.519  -0.249  0.00  0.00     0.032 A 
ATOM      6  C   UNL d   1      20.716 -18.933  -1.271  0.00  0.00     0.018 A 
ATOM      7  C   UNL d   1      19.577 -19.700  -0.982  0.00  0.00     0.018 A 
ATOM      8  C   UNL d   1      19.339 -20.113   0.330  0.00  0.00     0.031 A 
ATOM      9  C   UNL d   1      20.233 -19.745   1.342  0.00  0.00     0.018 A 
ATOM     10  C   UNL d   1      21.351 -18.951   1.058  0.00  0.00     0.018 A 
BRANCH   8  11
ATOM     11  C   UNL d   1      18.215 -21.027   0.647  0.00  0.00     0.249 C 
ATOM     12  N   UNL d   1      17.274 -21.208  -0.327  0.00  0.00    -0.366 N 
ATOM     13  H   UNL d   1      16.497 -21.825  -0.122  0.00  0.00     0.159 HD
ATOM     14  H   UNL d   1      17.374 -20.865  -1.272  0.00  0.00     0.159 HD
ATOM     15  O   UNL d   1      18.123 -21.573   1.744  0.00  0.00    -0.268 OA
ENDBRANCH   8  11
ENDBRANCH   1   5
BRANCH   3  16
ATOM     16  C   UNL d   1      25.124 -17.261  -0.976  0.00  0.00     0.038 A 
ATOM     17  C   UNL d   1      26.170 -17.215  -0.049  0.00  0.00     0.032 A 
ATOM     18  C   UNL d   1      27.264 -16.351  -0.261  0.00  0.00     0.042 A 
ATOM     19  C   UNL d   1      27.332 -15.549  -1.410  0.00  0.00     0.113 A 
ATOM     20  C   UNL d   1      26.258 -15.585  -2.297  0.00  0.00     0.151 A 
ATOM     21  F   UNL d   1      26.220 -14.815  -3.392  0.00  0.00    -0.203 F 
ATOM     22  C   UNL d   1      25.173 -16.423  -2.086  0.00  0.00     0.074 A 
BRANCH  19  23
ATOM     23  O   UNL d   1      28.470 -14.801  -1.561  0.00  0.00    -0.287 OA
BRANCH  23  24
ATOM     24  C   UNL d   1      28.377 -13.435  -1.160  0.00  0.00     0.505 C 
ATOM     25  F   UNL d   1      28.106 -12.675  -2.248  0.00  0.00    -0.184 F 
ATOM     26  F   UNL d   1      27.296 -13.322  -0.345  0.00  0.00    -0.184 F 
ENDBRANCH  23  24
ENDBRANCH  19  23
ENDBRANCH   3  16
TORSDOF 5
ENDMDL
MODEL 4
REMARK VINA RESULT:    -7.049      2.347      2.722
REMARK INTER + INTRA:          -9.206
REMARK INTER:                  -8.541
REMARK INTRA:                  -0.665
REMARK CONF_INDEPENDENT:        1.492
REMARK UNBOUND:                -0.665
REMARK  5 active torsions:
REMARK  status: ('A' for Active; 'I' for Inactive)
REMARK       I    between atoms: N_1  and  C_2 
REMARK    1  A    between atoms: C_2  and  C_4 
REMARK    2  A    between atoms: C_7  and  C_8 
REMARK       I    between atoms: C_8  and  N_10 
REMARK    3  A    between atoms: N_10  and  C_11 
REMARK    4  A    between atoms: C_14  and  O_15 
REMARK    5  A    between atoms: O_15  and  C_16 
ROOT
ATOM      1  C   UNL d   1      22.678 -18.430  -1.123  0.00  0.00     0.256 C 
ATOM      2  O   UNL d   1      23.035 -18.984  -2.162  0.00  0.00    -0.267 OA
ATOM      3  N   UNL d   1      23.370 -17.362  -0.546  0.00  0.00    -0.323 N 
ATOM      4  H   UNL d   1      23.157 -17.045   0.388  0.00  0.00     0.169 HD
ENDROOT
BRANCH   1   5
ATOM      5  C   UNL d   1      21.439 -18.946  -0.455  0.00  0.00     0.032 A 
ATOM      6  C   UNL d   1      21.397 -18.950   0.955  0.00  0.00     0.018 A 
ATOM      7  C   UNL d   1      20.326 -19.536   1.648  0.00  0.00     0.018 A 
ATOM      8  C   UNL d   1      19.253 -20.069   0.933  0.00  0.00     0.031 A 
ATOM      9  C   UNL d   1      19.265 -20.026  -0.466  0.00  0.00     0.018 A 
ATOM     10  C   UNL d   1      20.351 -19.473  -1.156  0.00  0.00     0.018 A 
BRANCH   8  11
ATOM     11  C   UNL d   1      18.051 -20.580   1.636  0.00  0.00     0.249 C 
ATOM     12  N   UNL d   1      17.394 -21.626   1.054  0.00  0.00    -0.366 N 
ATOM     13  H   UNL d   1      16.568 -21.982   1.520  0.00  0.00     0.159 HD
ATOM     14  H   UNL d   1      17.752 -22.140   0.261  0.00  0.00     0.159 HD
ATOM     15  O   UNL d   1      17.653 -20.067   2.680  0.00  0.00    -0.268 OA
ENDBRANCH   8  11
ENDBRANCH   1   5
BRANCH   3  16
ATOM     16  C   UNL d   1      24.453 -16.727  -1.200  0.00  0.00     0.038 A 
ATOM     17  C   UNL d   1      25.774 -17.145  -1.005  0.00  0.00     0.032 A 
ATOM     18  C   UNL d   1      26.829 -16.475  -1.657  0.00  0.00     0.042 A 
ATOM     19  C   UNL d   1      26.571 -15.404  -2.525  0.00  0.00     0.113 A 
ATOM     20  C   UNL d   1      25.250 -14.983  -2.671  0.00  0.00     0.151 A 
ATOM     21  F   UNL d   1      24.922 -13.939  -3.441  0.00  0.00    -0.203 F 
ATOM     22  C   UNL d   1      24.210 -15.630  -2.021  0.00  0.00     0.074 A 
BRANCH  19  23
ATOM     23  O   UNL d   1      27.656 -14.869  -3.168  0.00  0.00    -0.287 OA
BRANCH  23  24
ATOM     24  C   UNL d   1      27.489 -14.606  -4.561  0.00  0.00     0.505 C 
ATOM     25  F   UNL d   1      28.683 -14.757  -5.183  0.00  0.00    -0.184 F 
ATOM     26  F   UNL d   1      26.679 -15.574  -5.064  0.00  0.00    -0.184 F 
ENDBRANCH  23  24
ENDBRANCH  19  23
ENDBRANCH   3  16
TORSDOF 5
ENDMDL
MODEL 5
REMARK VINA RESULT:    -6.832      1.415      2.104
REMARK INTER + INTRA:          -8.991
REMARK INTER:                  -8.324
REMARK INTRA:                  -0.667
REMARK CONF_INDEPENDENT:        1.492
REMARK UNBOUND:                -0.667
REMARK  5 active torsions:
REMARK  status: ('A' for Active; 'I' for Inactive)
REMARK       I    between atoms: N_1  and  C_2 
REMARK    1  A    between atoms: C_2  and  C_4 
REMARK    2  A    between atoms: C_7  and  C_8 
REMARK       I    between atoms: C_8  and  N_10 
REMARK    3  A    between atoms: N_10  and  C_11 
REMARK    4  A    between atoms: C_14  and  O_15 
REMARK    5  A    between atoms: O_15  and  C_16 
ROOT
ATOM      1  C   UNL d   1      22.779 -17.612  -0.573  0.00  0.00     0.256 C 
ATOM      2  O   UNL d   1      22.598 -16.404  -0.421  0.00  0.00    -0.267 OA
ATOM      3  N   UNL d   1      23.970 -18.153  -1.065  0.00  0.00    -0.323 N 
ATOM      4  H   UNL d   1      24.028 -19.121  -1.343  0.00  0.00     0.169 HD
ENDROOT
BRANCH   1   5
ATOM      5  C   UNL d   1      21.650 -18.530  -0.216  0.00  0.00     0.032 A 
ATOM      6  C   UNL d   1      20.778 -18.944  -1.245  0.00  0.00     0.018 A 
ATOM      7  C   UNL d   1      19.628 -19.698  -0.964  0.00  0.00     0.018 A 
ATOM      8  C   UNL d   1      19.371 -20.099   0.347  0.00  0.00     0.031 A 
ATOM      9  C   UNL d   1      20.256 -19.732   1.368  0.00  0.00     0.018 A 
ATOM     10  C   UNL d   1      21.385 -18.950   1.091  0.00  0.00     0.018 A 
BRANCH   8  11
ATOM     11  C   UNL d   1      18.235 -20.999   0.658  0.00  0.00     0.249 C 
ATOM     12  N   UNL d   1      17.323 -21.208  -0.338  0.00  0.00    -0.366 N 
ATOM     13  H   UNL d   1      16.538 -21.816  -0.138  0.00  0.00     0.159 HD
ATOM     14  H   UNL d   1      17.452 -20.894  -1.289  0.00  0.00     0.159 HD
ATOM     15  O   UNL d   1      18.107 -21.512   1.767  0.00  0.00    -0.268 OA
ENDBRANCH   8  11
ENDBRANCH   1   5
BRANCH   3  16
ATOM     16  C   UNL d   1      25.125 -17.362  -1.275  0.00  0.00     0.038 A 
ATOM     17  C   UNL d   1      25.173 -16.388  -2.277  0.00  0.00     0.032 A 
ATOM     18  C   UNL d   1      26.348 -15.633  -2.471  0.00  0.00     0.042 A 
ATOM     19  C   UNL d   1      27.470 -15.828  -1.651  0.00  0.00     0.113 A 
ATOM     20  C   UNL d   1      27.408 -16.832  -0.687  0.00  0.00     0.151 A 
ATOM     21  F   UNL d   1      28.450 -17.116   0.104  0.00  0.00    -0.203 F 
ATOM     22  C   UNL d   1      26.259 -17.587  -0.501  0.00  0.00     0.074 A 
BRANCH  19  23
ATOM     23  O   UNL d   1      28.533 -14.993  -1.871  0.00  0.00    -0.287 OA
BRANCH  23  24
ATOM     24  C   UNL d   1      29.667 -15.582  -2.507  0.00  0.00     0.505 C 
ATOM     25  F   UNL d   1      29.274 -16.135  -3.680  0.00  0.00    -0.184 F 
ATOM     26  F   UNL d   1      30.519 -14.575  -2.834  0.00  0.00    -0.184 F 
ENDBRANCH  23  24
ENDBRANCH  19  23
ENDBRANCH   3  16
TORSDOF 5
ENDMDL
MODEL 6
REMARK VINA RESULT:    -6.725      4.514      9.142
REMARK INTER + INTRA:          -8.796
REMARK INTER:                  -8.217
REMARK INTRA:                  -0.580
REMARK CONF_INDEPENDENT:        1.492
REMARK UNBOUND:                -0.580
REMARK  5 active torsions:
REMARK  status: ('A' for Active; 'I' for Inactive)
REMARK       I    between atoms: N_1  and  C_2 
REMARK    1  A    between atoms: C_2  and  C_4 
REMARK    2  A    between atoms: C_7  and  C_8 
REMARK       I    between atoms: C_8  and  N_10 
REMARK    3  A    between atoms: N_10  and  C_11 
REMARK    4  A    between atoms: C_14  and  O_15 
REMARK    5  A    between atoms: O_15  and  C_16 
ROOT
ATOM      1  C   UNL d   1      23.420 -17.346  -0.550  0.00  0.00     0.256 C 
ATOM      2  O   UNL d   1      22.607 -16.516  -0.957  0.00  0.00    -0.267 OA
ATOM      3  N   UNL d   1      23.051 -18.586  -0.021  0.00  0.00    -0.323 N 
ATOM      4  H   UNL d   1      23.720 -19.167   0.463  0.00  0.00     0.169 HD
ENDROOT
BRANCH   1   5
ATOM      5  C   UNL d   1      24.872 -16.986  -0.627  0.00  0.00     0.032 A 
ATOM      6  C   UNL d   1      25.802 -17.831   0.013  0.00  0.00     0.018 A 
ATOM      7  C   UNL d   1      27.161 -17.490   0.092  0.00  0.00     0.018 A 
ATOM      8  C   UNL d   1      27.615 -16.324  -0.527  0.00  0.00     0.031 A 
ATOM      9  C   UNL d   1      26.707 -15.502  -1.204  0.00  0.00     0.018 A 
ATOM     10  C   UNL d   1      25.345 -15.827  -1.251  0.00  0.00     0.018 A 
BRANCH   8  11
ATOM     11  C   UNL d   1      29.061 -16.000  -0.569  0.00  0.00     0.249 C 
ATOM     12  N   UNL d   1      29.785 -16.256   0.561  0.00  0.00    -0.366 N 
ATOM     13  H   UNL d   1      30.773 -16.034   0.549  0.00  0.00     0.159 HD
ATOM     14  H   UNL d   1      29.420 -16.764   1.355  0.00  0.00     0.159 HD
ATOM     15  O   UNL d   1      29.578 -15.500  -1.566  0.00  0.00    -0.268 OA
ENDBRANCH   8  11
ENDBRANCH   1   5
BRANCH   3  16
ATOM     16  C   UNL d   1      21.716 -19.052  -0.060  0.00  0.00     0.038 A 
ATOM     17  C   UNL d   1      21.038 -19.235  -1.269  0.00  0.00     0.032 A 
ATOM     18  C   UNL d   1      19.701 -19.681  -1.269  0.00  0.00     0.042 A 
ATOM     19  C   UNL d   1      19.042 -19.972  -0.065  0.00  0.00     0.113 A 
ATOM     20  C   UNL d   1      19.727 -19.743   1.127  0.00  0.00     0.151 A 
ATOM     21  F   UNL d   1      19.156 -19.948   2.320  0.00  0.00    -0.203 F 
ATOM     22  C   UNL d   1      21.038 -19.291   1.132  0.00  0.00     0.074 A 
BRANCH  19  23
ATOM     23  O   UNL d   1      17.771 -20.471  -0.175  0.00  0.00    -0.287 OA
BRANCH  23  24
ATOM     24  C   UNL d   1      17.460 -21.575   0.674  0.00  0.00     0.505 C 
ATOM     25  F   UNL d   1      18.569 -22.340   0.826  0.00  0.00    -0.184 F 
ATOM     26  F   UNL d   1      17.178 -21.075   1.906  0.00  0.00    -0.184 F 
ENDBRANCH  23  24
ENDBRANCH  19  23
ENDBRANCH   3  16
TORSDOF 5
ENDMDL
MODEL 7
REMARK VINA RESULT:    -6.350      2.229      3.393
REMARK INTER + INTRA:          -8.482
REMARK INTER:                  -7.842
REMARK INTRA:                  -0.640
REMARK CONF_INDEPENDENT:        1.492
REMARK UNBOUND:                -0.640
REMARK  5 active torsions:
REMARK  status: ('A' for Active; 'I' for Inactive)
REMARK       I    between atoms: N_1  and  C_2 
REMARK    1  A    between atoms: C_2  and  C_4 
REMARK    2  A    between atoms: C_7  and  C_8 
REMARK       I    between atoms: C_8  and  N_10 
REMARK    3  A    between atoms: N_10  and  C_11 
REMARK    4  A    between atoms: C_14  and  O_15 
REMARK    5  A    between atoms: O_15  and  C_16 
ROOT
ATOM      1  C   UNL d   1      25.514 -16.580  -0.536  0.00  0.00     0.256 C 
ATOM      2  O   UNL d   1      25.520 -15.384  -0.824  0.00  0.00    -0.267 OA
ATOM      3  N   UNL d   1      26.653 -17.273  -0.114  0.00  0.00    -0.323 N 
ATOM      4  H   UNL d   1      26.659 -18.280  -0.054  0.00  0.00     0.169 HD
ENDROOT
BRANCH   1   5
ATOM      5  C   UNL d   1      24.214 -17.315  -0.657  0.00  0.00     0.032 A 
ATOM      6  C   UNL d   1      23.045 -16.563  -0.898  0.00  0.00     0.018 A 
ATOM      7  C   UNL d   1      21.778 -17.167  -0.895  0.00  0.00     0.018 A 
ATOM      8  C   UNL d   1      21.674 -18.547  -0.712  0.00  0.00     0.031 A 
ATOM      9  C   UNL d   1      22.833 -19.308  -0.519  0.00  0.00     0.018 A 
ATOM     10  C   UNL d   1      24.094 -18.697  -0.487  0.00  0.00     0.018 A 
BRANCH   8  11
ATOM     11  C   UNL d   1      20.364 -19.232  -0.829  0.00  0.00     0.249 C 
ATOM     12  N   UNL d   1      19.255 -18.437  -0.895  0.00  0.00    -0.366 N 
ATOM     13  H   UNL d   1      18.354 -18.891  -0.969  0.00  0.00     0.159 HD
ATOM     14  H   UNL d   1      19.294 -17.432  -1.000  0.00  0.00     0.159 HD
ATOM     15  O   UNL d   1      20.281 -20.458  -0.839  0.00  0.00    -0.268 OA
ENDBRANCH   8  11
ENDBRANCH   1   5
BRANCH   3  16
ATOM     16  C   UNL d   1      27.872 -16.612   0.170  0.00  0.00     0.038 A 
ATOM     17  C   UNL d   1      27.916 -15.471   0.978  0.00  0.00     0.032 A 
ATOM     18  C   UNL d   1      29.147 -14.827   1.222  0.00  0.00     0.042 A 
ATOM     19  C   UNL d   1      30.340 -15.332   0.684  0.00  0.00     0.113 A 
ATOM     20  C   UNL d   1      30.261 -16.446  -0.149  0.00  0.00     0.151 A 
ATOM     21  F   UNL d   1      31.345 -16.962  -0.743  0.00  0.00    -0.203 F 
ATOM     22  C   UNL d   1      29.052 -17.075  -0.404  0.00  0.00     0.074 A 
BRANCH  19  23
ATOM     23  O   UNL d   1      31.490 -14.679   1.041  0.00  0.00    -0.287 OA
BRANCH  23  24
ATOM     24  C   UNL d   1      32.039 -15.033   2.310  0.00  0.00     0.505 C 
ATOM     25  F   UNL d   1      32.091 -16.384   2.405  0.00  0.00    -0.184 F 
ATOM     26  F   UNL d   1      33.329 -14.607   2.329  0.00  0.00    -0.184 F 
ENDBRANCH  23  24
ENDBRANCH  19  23
ENDBRANCH   3  16
TORSDOF 5
ENDMDL
MODEL 8
REMARK VINA RESULT:    -6.274      2.263      3.362
REMARK INTER + INTRA:          -8.406
REMARK INTER:                  -7.765
REMARK INTRA:                  -0.641
REMARK CONF_INDEPENDENT:        1.492
REMARK UNBOUND:                -0.641
REMARK  5 active torsions:
REMARK  status: ('A' for Active; 'I' for Inactive)
REMARK       I    between atoms: N_1  and  C_2 
REMARK    1  A    between atoms: C_2  and  C_4 
REMARK    2  A    between atoms: C_7  and  C_8 
REMARK       I    between atoms: C_8  and  N_10 
REMARK    3  A    between atoms: N_10  and  C_11 
REMARK    4  A    between atoms: C_14  and  O_15 
REMARK    5  A    between atoms: O_15  and  C_16 
ROOT
ATOM      1  C   UNL d   1      25.534 -16.634  -0.641  0.00  0.00     0.256 C 
ATOM      2  O   UNL d   1      25.741 -15.766  -1.489  0.00  0.00    -0.267 OA
ATOM      3  N   UNL d   1      26.499 -17.051   0.280  0.00  0.00    -0.323 N 
ATOM      4  H   UNL d   1      26.362 -17.878   0.842  0.00  0.00     0.169 HD
ENDROOT
BRANCH   1   5
ATOM      5  C   UNL d   1      24.177 -17.269  -0.618  0.00  0.00     0.032 A 
ATOM      6  C   UNL d   1      24.099 -18.664  -0.423  0.00  0.00     0.018 A 
ATOM      7  C   UNL d   1      22.875 -19.344  -0.517  0.00  0.00     0.018 A 
ATOM      8  C   UNL d   1      21.703 -18.622  -0.747  0.00  0.00     0.031 A 
ATOM      9  C   UNL d   1      21.765 -17.232  -0.895  0.00  0.00     0.018 A 
ATOM     10  C   UNL d   1      22.993 -16.560  -0.836  0.00  0.00     0.018 A 
BRANCH   8  11
ATOM     11  C   UNL d   1      20.381 -19.294  -0.727  0.00  0.00     0.249 C 
ATOM     12  N   UNL d   1      19.282 -18.500  -0.895  0.00  0.00    -0.366 N 
ATOM     13  H   UNL d   1      18.372 -18.944  -0.878  0.00  0.00     0.159 HD
ATOM     14  H   UNL d   1      19.332 -17.525  -1.158  0.00  0.00     0.159 HD
ATOM     15  O   UNL d   1      20.280 -20.505  -0.542  0.00  0.00    -0.268 OA
ENDBRANCH   8  11
ENDBRANCH   1   5
BRANCH   3  16
ATOM     16  C   UNL d   1      27.744 -16.391   0.416  0.00  0.00     0.038 A 
ATOM     17  C   UNL d   1      27.868 -15.204   1.146  0.00  0.00     0.032 A 
ATOM     18  C   UNL d   1      29.120 -14.563   1.241  0.00  0.00     0.042 A 
ATOM     19  C   UNL d   1      30.257 -15.114   0.632  0.00  0.00     0.113 A 
ATOM     20  C   UNL d   1      30.097 -16.275  -0.121  0.00  0.00     0.151 A 
ATOM     21  F   UNL d   1      31.120 -16.840  -0.775  0.00  0.00    -0.203 F 
ATOM     22  C   UNL d   1      28.865 -16.903  -0.230  0.00  0.00     0.074 A 
BRANCH  19  23
ATOM     23  O   UNL d   1      31.439 -14.456   0.848  0.00  0.00    -0.287 OA
BRANCH  23  24
ATOM     24  C   UNL d   1      32.223 -14.924   1.945  0.00  0.00     0.505 C 
ATOM     25  F   UNL d   1      33.263 -15.648   1.465  0.00  0.00    -0.184 F 
ATOM     26  F   UNL d   1      32.769 -13.836   2.548  0.00  0.00    -0.184 F 
ENDBRANCH  23  24
ENDBRANCH  19  23
ENDBRANCH   3  16
TORSDOF 5
ENDMDL
MODEL 9
REMARK VINA RESULT:    -6.270      2.464      3.346
REMARK INTER + INTRA:          -8.421
REMARK INTER:                  -7.761
REMARK INTRA:                  -0.659
REMARK CONF_INDEPENDENT:        1.492
REMARK UNBOUND:                -0.659
REMARK  5 active torsions:
REMARK  status: ('A' for Active; 'I' for Inactive)
REMARK       I    between atoms: N_1  and  C_2 
REMARK    1  A    between atoms: C_2  and  C_4 
REMARK    2  A    between atoms: C_7  and  C_8 
REMARK       I    between atoms: C_8  and  N_10 
REMARK    3  A    between atoms: N_10  and  C_11 
REMARK    4  A    between atoms: C_14  and  O_15 
REMARK    5  A    between atoms: O_15  and  C_16 
ROOT
ATOM      1  C   UNL d   1      25.514 -16.602  -0.651  0.00  0.00     0.256 C 
ATOM      2  O   UNL d   1      25.601 -15.481  -1.151  0.00  0.00    -0.267 OA
ATOM      3  N   UNL d   1      26.608 -17.295  -0.123  0.00  0.00    -0.323 N 
ATOM      4  H   UNL d   1      26.541 -18.272   0.117  0.00  0.00     0.169 HD
ENDROOT
BRANCH   1   5
ATOM      5  C   UNL d   1      24.160 -17.244  -0.624  0.00  0.00     0.032 A 
ATOM      6  C   UNL d   1      24.089 -18.639  -0.430  0.00  0.00     0.018 A 
ATOM      7  C   UNL d   1      22.868 -19.325  -0.522  0.00  0.00     0.018 A 
ATOM      8  C   UNL d   1      21.691 -18.608  -0.748  0.00  0.00     0.031 A 
ATOM      9  C   UNL d   1      21.747 -17.218  -0.895  0.00  0.00     0.018 A 
ATOM     10  C   UNL d   1      22.972 -16.540  -0.838  0.00  0.00     0.018 A 
BRANCH   8  11
ATOM     11  C   UNL d   1      20.373 -19.286  -0.725  0.00  0.00     0.249 C 
ATOM     12  N   UNL d   1      19.270 -18.499  -0.897  0.00  0.00    -0.366 N 
ATOM     13  H   UNL d   1      18.363 -18.948  -0.878  0.00  0.00     0.159 HD
ATOM     14  H   UNL d   1      19.315 -17.525  -1.165  0.00  0.00     0.159 HD
ATOM     15  O   UNL d   1      20.278 -20.497  -0.533  0.00  0.00    -0.268 OA
ENDBRANCH   8  11
ENDBRANCH   1   5
BRANCH   3  16
ATOM     16  C   UNL d   1      27.879 -16.690   0.025  0.00  0.00     0.038 A 
ATOM     17  C   UNL d   1      29.026 -17.245  -0.553  0.00  0.00     0.032 A 
ATOM     18  C   UNL d   1      30.279 -16.627  -0.367  0.00  0.00     0.042 A 
ATOM     19  C   UNL d   1      30.391 -15.441   0.373  0.00  0.00     0.113 A 
ATOM     20  C   UNL d   1      29.239 -14.932   0.971  0.00  0.00     0.151 A 
ATOM     21  F   UNL d   1      29.267 -13.832   1.734  0.00  0.00    -0.203 F 
ATOM     22  C   UNL d   1      28.006 -15.543   0.803  0.00  0.00     0.074 A 
BRANCH  19  23
ATOM     23  O   UNL d   1      31.639 -14.878   0.431  0.00  0.00    -0.287 OA
BRANCH  23  24
ATOM     24  C   UNL d   1      32.222 -14.787   1.731  0.00  0.00     0.505 C 
ATOM     25  F   UNL d   1      33.157 -15.759   1.862  0.00  0.00    -0.184 F 
ATOM     26  F   UNL d   1      32.895 -13.609   1.794  0.00  0.00    -0.184 F 
ENDBRANCH  23  24
ENDBRANCH  19  23
ENDBRANCH   3  16
TORSDOF 5
ENDMDL
