MODEL 1
REMARK VINA RESULT:    -8.910      0.000      0.000
REMARK INTER + INTRA:         -11.488
REMARK INTER:                 -10.700
REMARK INTRA:                  -0.788
REMARK CONF_INDEPENDENT:        1.790
REMARK UNBOUND:                -0.788
REMARK  6 active torsions:
REMARK  status: ('A' for Active; 'I' for Inactive)
REMARK    1  A    between atoms: O_2  and  C_3 
REMARK       I    between atoms: C_3  and  N_5 
REMARK    2  A    between atoms: N_5  and  C_6 
REMARK    3  A    between atoms: C_8  and  N_9 
REMARK       I    between atoms: N_9  and  C_10 
REMARK    4  A    between atoms: C_10  and  C_12 
REMARK       I    between atoms: C_12  and  N_14 
REMARK    5  A    between atoms: N_14  and  C_15 
REMARK    6  A    between atoms: C_15  and  C_16 
ROOT
ATOM      1  N   UNL d   1      28.249 -14.285   3.694  0.00  0.00    -0.319 N 
ATOM      2  C   UNL d   1      27.514 -13.699   2.642  0.00  0.00     0.313 C 
ATOM      3  O   UNL d   1      26.923 -12.622   2.643  0.00  0.00    -0.262 OA
ATOM      4  H   UNL d   1      28.661 -15.194   3.499  0.00  0.00     0.169 HD
ENDROOT
BRANCH   2   5
ATOM      5  C   UNL d   1      27.436 -14.481   1.307  0.00  0.00     0.309 C 
ATOM      6  O   UNL d   1      26.695 -14.110   0.409  0.00  0.00    -0.262 OA
ATOM      7  N   UNL d   1      28.268 -15.595   1.267  0.00  0.00    -0.349 N 
ATOM      8  H   UNL d   1      28.884 -15.740   2.064  0.00  0.00     0.163 HD
BRANCH   7   9
ATOM      9  C   UNL d   1      28.372 -16.458   0.106  0.00  0.00     0.162 C 
BRANCH   9  10
ATOM     10  C   UNL d   1      27.227 -16.322  -0.889  0.00  0.00    -0.029 A 
ATOM     11  C   UNL d   1      27.437 -15.601  -2.080  0.00  0.00     0.010 A 
ATOM     12  C   UNL d   1      26.408 -15.411  -3.001  0.00  0.00     0.002 A 
ATOM     13  C   UNL d   1      25.157 -15.972  -2.770  0.00  0.00     0.012 A 
ATOM     14  C   UNL d   1      24.926 -16.768  -1.640  0.00  0.00    -0.025 A 
ATOM     15  C   UNL d   1      23.671 -17.377  -1.457  0.00  0.00     0.012 A 
ATOM     16  C   UNL d   1      25.964 -16.960  -0.685  0.00  0.00    -0.018 A 
ATOM     17  C   UNL d   1      23.417 -18.181  -0.349  0.00  0.00     0.001 A 
ATOM     18  C   UNL d   1      24.416 -18.390   0.589  0.00  0.00     0.001 A 
ATOM     19  C   UNL d   1      25.666 -17.791   0.422  0.00  0.00     0.013 A 
ENDBRANCH   9  10
ENDBRANCH   7   9
ENDBRANCH   2   5
BRANCH   1  20
ATOM     20  C   UNL d   1      28.438 -13.703   4.996  0.00  0.00     0.037 A 
ATOM     21  C   UNL d   1      28.921 -14.450   6.110  0.00  0.00     0.062 A 
ATOM     22  C   UNL d   1      29.020 -13.850   7.401  0.00  0.00     0.077 A 
ATOM     23  C   UNL d   1      28.722 -12.487   7.528  0.00  0.00     0.143 A 
ATOM     24  C   UNL d   1      28.281 -11.747   6.451  0.00  0.00     0.047 A 
ATOM     25  F   UNL d   1      28.938 -11.832   8.679  0.00  0.00    -0.204 F 
ATOM     26  C   UNL d   1      28.128 -12.355   5.211  0.00  0.00     0.032 A 
BRANCH  22  27
ATOM     27  N   UNL d   1      29.413 -14.576   8.565  0.00  0.00    -0.300 N 
ATOM     28  C   UNL d   1      28.784 -14.397   9.792  0.00  0.00     0.364 C 
ATOM     29  O   UNL d   1      27.782 -13.712   9.986  0.00  0.00    -0.238 OA
ATOM     30  H   UNL d   1      30.078 -15.333   8.496  0.00  0.00     0.171 HD
BRANCH  28  31
ATOM     31  O   UNL d   1      29.355 -15.147  10.782  0.00  0.00    -0.309 OA
ATOM     32  C   UNL d   1      30.796 -15.187  10.709  0.00  0.00     0.215 C 
ENDBRANCH  28  31
ENDBRANCH  22  27
ENDBRANCH   1  20
TORSDOF 6
ENDMDL
MODEL 2
REMARK VINA RESULT:    -8.665      7.442      9.963
REMARK INTER + INTRA:         -12.507
REMARK INTER:                 -10.454
REMARK INTRA:                  -2.053
REMARK CONF_INDEPENDENT:        1.790
REMARK UNBOUND:                -2.053
REMARK  6 active torsions:
REMARK  status: ('A' for Active; 'I' for Inactive)
REMARK    1  A    between atoms: O_2  and  C_3 
REMARK       I    between atoms: C_3  and  N_5 
REMARK    2  A    between atoms: N_5  and  C_6 
REMARK    3  A    between atoms: C_8  and  N_9 
REMARK       I    between atoms: N_9  and  C_10 
REMARK    4  A    between atoms: C_10  and  C_12 
REMARK       I    between atoms: C_12  and  N_14 
REMARK    5  A    between atoms: N_14  and  C_15 
REMARK    6  A    between atoms: C_15  and  C_16 
ROOT
ATOM      1  N   UNL d   1      26.050 -14.675  -2.444  0.00  0.00    -0.319 N 
ATOM      2  C   UNL d   1      25.476 -14.003  -3.544  0.00  0.00     0.313 C 
ATOM      3  O   UNL d   1      24.406 -14.242  -4.100  0.00  0.00    -0.262 OA
ATOM      4  H   UNL d   1      26.954 -14.328  -2.133  0.00  0.00     0.169 HD
ENDROOT
BRANCH   2   5
ATOM      5  C   UNL d   1      26.260 -12.804  -4.135  0.00  0.00     0.309 C 
ATOM      6  O   UNL d   1      27.408 -12.575  -3.783  0.00  0.00    -0.262 OA
ATOM      7  N   UNL d   1      25.530 -12.066  -5.060  0.00  0.00    -0.349 N 
ATOM      8  H   UNL d   1      24.608 -12.418  -5.308  0.00  0.00     0.163 HD
BRANCH   7   9
ATOM      9  C   UNL d   1      26.076 -10.914  -5.755  0.00  0.00     0.162 C 
BRANCH   9  10
ATOM     10  C   UNL d   1      25.517  -9.575  -5.294  0.00  0.00    -0.029 A 
ATOM     11  C   UNL d   1      24.644  -8.868  -6.145  0.00  0.00     0.010 A 
ATOM     12  C   UNL d   1      24.141  -7.619  -5.787  0.00  0.00     0.002 A 
ATOM     13  C   UNL d   1      24.468  -7.065  -4.553  0.00  0.00     0.012 A 
ATOM     14  C   UNL d   1      25.264  -7.770  -3.641  0.00  0.00    -0.025 A 
ATOM     15  C   UNL d   1      25.531  -7.218  -2.374  0.00  0.00     0.012 A 
ATOM     16  C   UNL d   1      25.795  -9.041  -3.997  0.00  0.00    -0.018 A 
ATOM     17  C   UNL d   1      26.310  -7.900  -1.443  0.00  0.00     0.001 A 
ATOM     18  C   UNL d   1      26.830  -9.145  -1.765  0.00  0.00     0.001 A 
ATOM     19  C   UNL d   1      26.575  -9.703  -3.019  0.00  0.00     0.013 A 
ENDBRANCH   9  10
ENDBRANCH   7   9
ENDBRANCH   2   5
BRANCH   1  20
ATOM     20  C   UNL d   1      25.464 -15.797  -1.763  0.00  0.00     0.037 A 
ATOM     21  C   UNL d   1      24.054 -15.969  -1.633  0.00  0.00     0.062 A 
ATOM     22  C   UNL d   1      23.520 -17.058  -0.881  0.00  0.00     0.077 A 
ATOM     23  C   UNL d   1      24.408 -18.005  -0.355  0.00  0.00     0.143 A 
ATOM     24  C   UNL d   1      25.773 -17.865  -0.500  0.00  0.00     0.047 A 
ATOM     25  F   UNL d   1      23.961 -19.127   0.230  0.00  0.00    -0.204 F 
ATOM     26  C   UNL d   1      26.287 -16.768  -1.179  0.00  0.00     0.032 A 
BRANCH  22  27
ATOM     27  N   UNL d   1      22.123 -17.225  -0.647  0.00  0.00    -0.300 N 
ATOM     28  C   UNL d   1      21.425 -18.335  -1.111  0.00  0.00     0.364 C 
ATOM     29  O   UNL d   1      21.929 -19.319  -1.648  0.00  0.00    -0.238 OA
ATOM     30  H   UNL d   1      21.628 -16.598  -0.029  0.00  0.00     0.171 HD
BRANCH  28  31
ATOM     31  O   UNL d   1      20.090 -18.265  -0.827  0.00  0.00    -0.309 OA
ATOM     32  C   UNL d   1      19.535 -19.520  -0.381  0.00  0.00     0.215 C 
ENDBRANCH  28  31
ENDBRANCH  22  27
ENDBRANCH   1  20
TORSDOF 6
ENDMDL
MODEL 3
REMARK VINA RESULT:    -8.661      7.418     10.221
REMARK INTER + INTRA:         -12.404
REMARK INTER:                 -10.450
REMARK INTRA:                  -1.953
REMARK CONF_INDEPENDENT:        1.790
REMARK UNBOUND:                -1.953
REMARK  6 active torsions:
REMARK  status: ('A' for Active; 'I' for Inactive)
REMARK    1  A    between atoms: O_2  and  C_3 
REMARK       I    between atoms: C_3  and  N_5 
REMARK    2  A    between atoms: N_5  and  C_6 
REMARK    3  A    between atoms: C_8  and  N_9 
REMARK       I    between atoms: N_9  and  C_10 
REMARK    4  A    between atoms: C_10  and  C_12 
REMARK       I    between atoms: C_12  and  N_14 
REMARK    5  A    between atoms: N_14  and  C_15 
REMARK    6  A    between atoms: C_15  and  C_16 
ROOT
ATOM      1  N   UNL d   1      26.043 -14.643  -2.310  0.00  0.00    -0.319 N 
ATOM      2  C   UNL d   1      25.500 -13.990  -3.436  0.00  0.00     0.313 C 
ATOM      3  O   UNL d   1      24.474 -14.271  -4.049  0.00  0.00    -0.262 OA
ATOM      4  H   UNL d   1      26.914 -14.261  -1.948  0.00  0.00     0.169 HD
ENDROOT
BRANCH   2   5
ATOM      5  C   UNL d   1      26.263 -12.755  -3.979  0.00  0.00     0.309 C 
ATOM      6  O   UNL d   1      27.397 -12.506  -3.600  0.00  0.00    -0.262 OA
ATOM      7  N   UNL d   1      25.530 -12.011  -4.897  0.00  0.00    -0.349 N 
ATOM      8  H   UNL d   1      24.622 -12.380  -5.172  0.00  0.00     0.163 HD
BRANCH   7   9
ATOM      9  C   UNL d   1      26.057 -10.826  -5.550  0.00  0.00     0.162 C 
BRANCH   9  10
ATOM     10  C   UNL d   1      26.027  -9.567  -4.694  0.00  0.00    -0.029 A 
ATOM     11  C   UNL d   1      26.959  -9.427  -3.648  0.00  0.00     0.010 A 
ATOM     12  C   UNL d   1      26.944  -8.313  -2.810  0.00  0.00     0.002 A 
ATOM     13  C   UNL d   1      26.021  -7.295  -3.025  0.00  0.00     0.012 A 
ATOM     14  C   UNL d   1      25.130  -7.352  -4.105  0.00  0.00    -0.025 A 
ATOM     15  C   UNL d   1      24.247  -6.282  -4.340  0.00  0.00     0.012 A 
ATOM     16  C   UNL d   1      25.126  -8.489  -4.961  0.00  0.00    -0.018 A 
ATOM     17  C   UNL d   1      23.358  -6.307  -5.412  0.00  0.00     0.001 A 
ATOM     18  C   UNL d   1      23.343  -7.400  -6.264  0.00  0.00     0.001 A 
ATOM     19  C   UNL d   1      24.213  -8.469  -6.042  0.00  0.00     0.013 A 
ENDBRANCH   9  10
ENDBRANCH   7   9
ENDBRANCH   2   5
BRANCH   1  20
ATOM     20  C   UNL d   1      25.471 -15.794  -1.664  0.00  0.00     0.037 A 
ATOM     21  C   UNL d   1      24.063 -15.983  -1.535  0.00  0.00     0.062 A 
ATOM     22  C   UNL d   1      23.542 -17.102  -0.819  0.00  0.00     0.077 A 
ATOM     23  C   UNL d   1      24.441 -18.059  -0.329  0.00  0.00     0.143 A 
ATOM     24  C   UNL d   1      25.804 -17.901  -0.475  0.00  0.00     0.047 A 
ATOM     25  F   UNL d   1      24.007 -19.205   0.218  0.00  0.00    -0.204 F 
ATOM     26  C   UNL d   1      26.305 -16.777  -1.118  0.00  0.00     0.032 A 
BRANCH  22  27
ATOM     27  N   UNL d   1      22.148 -17.291  -0.585  0.00  0.00    -0.300 N 
ATOM     28  C   UNL d   1      21.452 -18.376  -1.108  0.00  0.00     0.364 C 
ATOM     29  O   UNL d   1      21.958 -19.325  -1.704  0.00  0.00    -0.238 OA
ATOM     30  H   UNL d   1      21.654 -16.703   0.071  0.00  0.00     0.171 HD
BRANCH  28  31
ATOM     31  O   UNL d   1      20.119 -18.330  -0.811  0.00  0.00    -0.309 OA
ATOM     32  C   UNL d   1      19.555 -19.625  -0.516  0.00  0.00     0.215 C 
ENDBRANCH  28  31
ENDBRANCH  22  27
ENDBRANCH   1  20
TORSDOF 6
ENDMDL
MODEL 4
REMARK VINA RESULT:    -8.285      7.339      9.824
REMARK INTER + INTRA:         -12.136
REMARK INTER:                 -10.075
REMARK INTRA:                  -2.061
REMARK CONF_INDEPENDENT:        1.790
REMARK UNBOUND:                -2.061
REMARK  6 active torsions:
REMARK  status: ('A' for Active; 'I' for Inactive)
REMARK    1  A    between atoms: O_2  and  C_3 
REMARK       I    between atoms: C_3  and  N_5 
REMARK    2  A    between atoms: N_5  and  C_6 
REMARK    3  A    between atoms: C_8  and  N_9 
REMARK       I    between atoms: N_9  and  C_10 
REMARK    4  A    between atoms: C_10  and  C_12 
REMARK       I    between atoms: C_12  and  N_14 
REMARK    5  A    between atoms: N_14  and  C_15 
REMARK    6  A    between atoms: C_15  and  C_16 
ROOT
ATOM      1  N   UNL d   1      25.898 -14.516  -2.107  0.00  0.00    -0.319 N 
ATOM      2  C   UNL d   1      25.388 -13.844  -3.238  0.00  0.00     0.313 C 
ATOM      3  O   UNL d   1      24.424 -14.159  -3.931  0.00  0.00    -0.262 OA
ATOM      4  H   UNL d   1      26.717 -14.098  -1.672  0.00  0.00     0.169 HD
ENDROOT
BRANCH   2   5
ATOM      5  C   UNL d   1      26.103 -12.541  -3.675  0.00  0.00     0.309 C 
ATOM      6  O   UNL d   1      27.073 -12.124  -3.058  0.00  0.00    -0.262 OA
ATOM      7  N   UNL d   1      25.530 -11.941  -4.791  0.00  0.00    -0.349 N 
ATOM      8  H   UNL d   1      24.768 -12.441  -5.244  0.00  0.00     0.163 HD
BRANCH   7   9
ATOM      9  C   UNL d   1      26.051 -10.724  -5.385  0.00  0.00     0.162 C 
BRANCH   9  10
ATOM     10  C   UNL d   1      26.758 -10.923  -6.719  0.00  0.00    -0.029 A 
ATOM     11  C   UNL d   1      26.402 -10.108  -7.811  0.00  0.00     0.010 A 
ATOM     12  C   UNL d   1      26.989 -10.281  -9.063  0.00  0.00     0.002 A 
ATOM     13  C   UNL d   1      27.974 -11.247  -9.242  0.00  0.00     0.012 A 
ATOM     14  C   UNL d   1      28.419 -12.023  -8.164  0.00  0.00    -0.025 A 
ATOM     15  C   UNL d   1      29.460 -12.951  -8.353  0.00  0.00     0.012 A 
ATOM     16  C   UNL d   1      27.821 -11.866  -6.882  0.00  0.00    -0.018 A 
ATOM     17  C   UNL d   1      29.930 -13.728  -7.297  0.00  0.00     0.001 A 
ATOM     18  C   UNL d   1      29.368 -13.585  -6.038  0.00  0.00     0.001 A 
ATOM     19  C   UNL d   1      28.333 -12.669  -5.836  0.00  0.00     0.013 A 
ENDBRANCH   9  10
ENDBRANCH   7   9
ENDBRANCH   2   5
BRANCH   1  20
ATOM     20  C   UNL d   1      25.361 -15.728  -1.553  0.00  0.00     0.037 A 
ATOM     21  C   UNL d   1      23.959 -15.966  -1.434  0.00  0.00     0.062 A 
ATOM     22  C   UNL d   1      23.473 -17.152  -0.807  0.00  0.00     0.077 A 
ATOM     23  C   UNL d   1      24.400 -18.119  -0.397  0.00  0.00     0.143 A 
ATOM     24  C   UNL d   1      25.757 -17.913  -0.534  0.00  0.00     0.047 A 
ATOM     25  F   UNL d   1      24.000 -19.315   0.060  0.00  0.00    -0.204 F 
ATOM     26  C   UNL d   1      26.224 -16.728  -1.088  0.00  0.00     0.032 A 
BRANCH  22  27
ATOM     27  N   UNL d   1      22.085 -17.396  -0.584  0.00  0.00    -0.300 N 
ATOM     28  C   UNL d   1      21.413 -18.447  -1.200  0.00  0.00     0.364 C 
ATOM     29  O   UNL d   1      21.938 -19.325  -1.882  0.00  0.00    -0.238 OA
ATOM     30  H   UNL d   1      21.582 -16.883   0.126  0.00  0.00     0.171 HD
BRANCH  28  31
ATOM     31  O   UNL d   1      20.081 -18.462  -0.893  0.00  0.00    -0.309 OA
ATOM     32  C   UNL d   1      19.665 -19.665  -0.214  0.00  0.00     0.215 C 
ENDBRANCH  28  31
ENDBRANCH  22  27
ENDBRANCH   1  20
TORSDOF 6
ENDMDL
MODEL 5
REMARK VINA RESULT:    -8.147      7.204     10.284
REMARK INTER + INTRA:         -11.430
REMARK INTER:                  -9.937
REMARK INTRA:                  -1.493
REMARK CONF_INDEPENDENT:        1.790
REMARK UNBOUND:                -1.493
REMARK  6 active torsions:
REMARK  status: ('A' for Active; 'I' for Inactive)
REMARK    1  A    between atoms: O_2  and  C_3 
REMARK       I    between atoms: C_3  and  N_5 
REMARK    2  A    between atoms: N_5  and  C_6 
REMARK    3  A    between atoms: C_8  and  N_9 
REMARK       I    between atoms: N_9  and  C_10 
REMARK    4  A    between atoms: C_10  and  C_12 
REMARK       I    between atoms: C_12  and  N_14 
REMARK    5  A    between atoms: N_14  and  C_15 
REMARK    6  A    between atoms: C_15  and  C_16 
ROOT
ATOM      1  N   UNL d   1      26.616 -15.892  -3.053  0.00  0.00    -0.319 N 
ATOM      2  C   UNL d   1      25.954 -14.998  -3.920  0.00  0.00     0.313 C 
ATOM      3  O   UNL d   1      24.780 -14.640  -3.882  0.00  0.00    -0.262 OA
ATOM      4  H   UNL d   1      27.597 -16.068  -3.257  0.00  0.00     0.169 HD
ENDROOT
BRANCH   2   5
ATOM      5  C   UNL d   1      26.789 -14.363  -5.061  0.00  0.00     0.309 C 
ATOM      6  O   UNL d   1      27.614 -15.024  -5.674  0.00  0.00    -0.262 OA
ATOM      7  N   UNL d   1      26.498 -13.021  -5.281  0.00  0.00    -0.349 N 
ATOM      8  H   UNL d   1      25.735 -12.619  -4.740  0.00  0.00     0.163 HD
BRANCH   7   9
ATOM      9  C   UNL d   1      27.144 -12.234  -6.314  0.00  0.00     0.162 C 
BRANCH   9  10
ATOM     10  C   UNL d   1      26.617 -10.811  -6.449  0.00  0.00    -0.029 A 
ATOM     11  C   UNL d   1      25.963 -10.217  -5.353  0.00  0.00     0.010 A 
ATOM     12  C   UNL d   1      25.424  -8.934  -5.441  0.00  0.00     0.002 A 
ATOM     13  C   UNL d   1      25.562  -8.202  -6.615  0.00  0.00     0.012 A 
ATOM     14  C   UNL d   1      26.279  -8.721  -7.703  0.00  0.00    -0.025 A 
ATOM     15  C   UNL d   1      26.460  -7.938  -8.858  0.00  0.00     0.012 A 
ATOM     16  C   UNL d   1      26.823 -10.033  -7.631  0.00  0.00    -0.018 A 
ATOM     17  C   UNL d   1      27.176  -8.424  -9.949  0.00  0.00     0.001 A 
ATOM     18  C   UNL d   1      27.723  -9.697  -9.898  0.00  0.00     0.001 A 
ATOM     19  C   UNL d   1      27.550 -10.484  -8.759  0.00  0.00     0.013 A 
ENDBRANCH   9  10
ENDBRANCH   7   9
ENDBRANCH   2   5
BRANCH   1  20
ATOM     20  C   UNL d   1      26.008 -16.566  -1.938  0.00  0.00     0.037 A 
ATOM     21  C   UNL d   1      24.596 -16.715  -1.805  0.00  0.00     0.062 A 
ATOM     22  C   UNL d   1      24.035 -17.324  -0.643  0.00  0.00     0.077 A 
ATOM     23  C   UNL d   1      24.904 -17.856   0.318  0.00  0.00     0.143 A 
ATOM     24  C   UNL d   1      26.273 -17.744   0.186  0.00  0.00     0.047 A 
ATOM     25  F   UNL d   1      24.441 -18.570   1.355  0.00  0.00    -0.204 F 
ATOM     26  C   UNL d   1      26.810 -17.094  -0.918  0.00  0.00     0.032 A 
BRANCH  22  27
ATOM     27  N   UNL d   1      22.629 -17.418  -0.421  0.00  0.00    -0.300 N 
ATOM     28  C   UNL d   1      21.835 -18.338  -1.099  0.00  0.00     0.364 C 
ATOM     29  O   UNL d   1      22.250 -19.222  -1.846  0.00  0.00    -0.238 OA
ATOM     30  H   UNL d   1      22.192 -16.899   0.328  0.00  0.00     0.171 HD
BRANCH  28  31
ATOM     31  O   UNL d   1      20.512 -18.217  -0.778  0.00  0.00    -0.309 OA
ATOM     32  C   UNL d   1      19.901 -19.467  -0.396  0.00  0.00     0.215 C 
ENDBRANCH  28  31
ENDBRANCH  22  27
ENDBRANCH   1  20
TORSDOF 6
ENDMDL
MODEL 6
REMARK VINA RESULT:    -8.018      7.385     10.379
REMARK INTER + INTRA:         -11.759
REMARK INTER:                  -9.808
REMARK INTRA:                  -1.952
REMARK CONF_INDEPENDENT:        1.790
REMARK UNBOUND:                -1.952
REMARK  6 active torsions:
REMARK  status: ('A' for Active; 'I' for Inactive)
REMARK    1  A    between atoms: O_2  and  C_3 
REMARK       I    between atoms: C_3  and  N_5 
REMARK    2  A    between atoms: N_5  and  C_6 
REMARK    3  A    between atoms: C_8  and  N_9 
REMARK       I    between atoms: N_9  and  C_10 
REMARK    4  A    between atoms: C_10  and  C_12 
REMARK       I    between atoms: C_12  and  N_14 
REMARK    5  A    between atoms: N_14  and  C_15 
REMARK    6  A    between atoms: C_15  and  C_16 
ROOT
ATOM      1  N   UNL d   1      25.975 -14.624  -2.324  0.00  0.00    -0.319 N 
ATOM      2  C   UNL d   1      25.437 -13.995  -3.467  0.00  0.00     0.313 C 
ATOM      3  O   UNL d   1      24.411 -14.287  -4.075  0.00  0.00    -0.262 OA
ATOM      4  H   UNL d   1      26.847 -14.236  -1.970  0.00  0.00     0.169 HD
ENDROOT
BRANCH   2   5
ATOM      5  C   UNL d   1      26.206 -12.777  -4.037  0.00  0.00     0.309 C 
ATOM      6  O   UNL d   1      27.281 -12.439  -3.563  0.00  0.00    -0.262 OA
ATOM      7  N   UNL d   1      25.552 -12.154  -5.095  0.00  0.00    -0.349 N 
ATOM      8  H   UNL d   1      24.696 -12.590  -5.430  0.00  0.00     0.163 HD
BRANCH   7   9
ATOM      9  C   UNL d   1      26.101 -11.007  -5.794  0.00  0.00     0.162 C 
BRANCH   9  10
ATOM     10  C   UNL d   1      27.103 -11.354  -6.887  0.00  0.00    -0.029 A 
ATOM     11  C   UNL d   1      27.783 -12.585  -6.827  0.00  0.00     0.010 A 
ATOM     12  C   UNL d   1      28.742 -12.929  -7.779  0.00  0.00     0.002 A 
ATOM     13  C   UNL d   1      29.013 -12.066  -8.836  0.00  0.00     0.012 A 
ATOM     14  C   UNL d   1      28.300 -10.868  -8.982  0.00  0.00    -0.025 A 
ATOM     15  C   UNL d   1      28.546 -10.040 -10.093  0.00  0.00     0.012 A 
ATOM     16  C   UNL d   1      27.327 -10.498  -8.012  0.00  0.00    -0.018 A 
ATOM     17  C   UNL d   1      27.845  -8.849 -10.270  0.00  0.00     0.001 A 
ATOM     18  C   UNL d   1      26.887  -8.473  -9.341  0.00  0.00     0.001 A 
ATOM     19  C   UNL d   1      26.633  -9.286  -8.234  0.00  0.00     0.013 A 
ENDBRANCH   9  10
ENDBRANCH   7   9
ENDBRANCH   2   5
BRANCH   1  20
ATOM     20  C   UNL d   1      25.397 -15.756  -1.653  0.00  0.00     0.037 A 
ATOM     21  C   UNL d   1      23.988 -15.957  -1.556  0.00  0.00     0.062 A 
ATOM     22  C   UNL d   1      23.459 -17.055  -0.814  0.00  0.00     0.077 A 
ATOM     23  C   UNL d   1      24.353 -17.983  -0.265  0.00  0.00     0.143 A 
ATOM     24  C   UNL d   1      25.717 -17.815  -0.378  0.00  0.00     0.047 A 
ATOM     25  F   UNL d   1      23.915 -19.112   0.313  0.00  0.00    -0.204 F 
ATOM     26  C   UNL d   1      26.225 -16.709  -1.048  0.00  0.00     0.032 A 
BRANCH  22  27
ATOM     27  N   UNL d   1      22.060 -17.250  -0.612  0.00  0.00    -0.300 N 
ATOM     28  C   UNL d   1      21.389 -18.358  -1.119  0.00  0.00     0.364 C 
ATOM     29  O   UNL d   1      21.920 -19.320  -1.671  0.00  0.00    -0.238 OA
ATOM     30  H   UNL d   1      21.543 -16.647   0.012  0.00  0.00     0.171 HD
BRANCH  28  31
ATOM     31  O   UNL d   1      20.048 -18.316  -0.860  0.00  0.00    -0.309 OA
ATOM     32  C   UNL d   1      19.481 -19.613  -0.575  0.00  0.00     0.215 C 
ENDBRANCH  28  31
ENDBRANCH  22  27
ENDBRANCH   1  20
TORSDOF 6
ENDMDL
MODEL 7
REMARK VINA RESULT:    -7.971      7.347      9.620
REMARK INTER + INTRA:         -11.383
REMARK INTER:                  -9.761
REMARK INTRA:                  -1.622
REMARK CONF_INDEPENDENT:        1.790
REMARK UNBOUND:                -1.622
REMARK  6 active torsions:
REMARK  status: ('A' for Active; 'I' for Inactive)
REMARK    1  A    between atoms: O_2  and  C_3 
REMARK       I    between atoms: C_3  and  N_5 
REMARK    2  A    between atoms: N_5  and  C_6 
REMARK    3  A    between atoms: C_8  and  N_9 
REMARK       I    between atoms: N_9  and  C_10 
REMARK    4  A    between atoms: C_10  and  C_12 
REMARK       I    between atoms: C_12  and  N_14 
REMARK    5  A    between atoms: N_14  and  C_15 
REMARK    6  A    between atoms: C_15  and  C_16 
ROOT
ATOM      1  N   UNL d   1      26.532 -15.064  -2.529  0.00  0.00    -0.319 N 
ATOM      2  C   UNL d   1      26.403 -14.908  -3.925  0.00  0.00     0.313 C 
ATOM      3  O   UNL d   1      25.693 -15.551  -4.694  0.00  0.00    -0.262 OA
ATOM      4  H   UNL d   1      27.183 -14.434  -2.068  0.00  0.00     0.169 HD
ENDROOT
BRANCH   2   5
ATOM      5  C   UNL d   1      27.236 -13.787  -4.596  0.00  0.00     0.309 C 
ATOM      6  O   UNL d   1      27.671 -12.853  -3.937  0.00  0.00    -0.262 OA
ATOM      7  N   UNL d   1      27.410 -13.968  -5.964  0.00  0.00    -0.349 N 
ATOM      8  H   UNL d   1      27.051 -14.832  -6.364  0.00  0.00     0.163 HD
BRANCH   7   9
ATOM      9  C   UNL d   1      28.176 -13.052  -6.788  0.00  0.00     0.162 C 
BRANCH   9  10
ATOM     10  C   UNL d   1      29.522 -13.592  -7.252  0.00  0.00    -0.029 A 
ATOM     11  C   UNL d   1      30.308 -12.813  -8.124  0.00  0.00     0.010 A 
ATOM     12  C   UNL d   1      31.527 -13.282  -8.612  0.00  0.00     0.002 A 
ATOM     13  C   UNL d   1      32.005 -14.524  -8.207  0.00  0.00     0.012 A 
ATOM     14  C   UNL d   1      31.297 -15.295  -7.275  0.00  0.00    -0.025 A 
ATOM     15  C   UNL d   1      31.831 -16.520  -6.832  0.00  0.00     0.012 A 
ATOM     16  C   UNL d   1      30.046 -14.835  -6.778  0.00  0.00    -0.018 A 
ATOM     17  C   UNL d   1      31.154 -17.303  -5.899  0.00  0.00     0.001 A 
ATOM     18  C   UNL d   1      29.938 -16.869  -5.395  0.00  0.00     0.001 A 
ATOM     19  C   UNL d   1      29.396 -15.657  -5.827  0.00  0.00     0.013 A 
ENDBRANCH   9  10
ENDBRANCH   7   9
ENDBRANCH   2   5
BRANCH   1  20
ATOM     20  C   UNL d   1      25.833 -16.040  -1.738  0.00  0.00     0.037 A 
ATOM     21  C   UNL d   1      24.411 -16.142  -1.720  0.00  0.00     0.062 A 
ATOM     22  C   UNL d   1      23.758 -17.076  -0.861  0.00  0.00     0.077 A 
ATOM     23  C   UNL d   1      24.547 -17.953  -0.106  0.00  0.00     0.143 A 
ATOM     24  C   UNL d   1      25.925 -17.884  -0.137  0.00  0.00     0.047 A 
ATOM     25  F   UNL d   1      23.995 -18.949   0.604  0.00  0.00    -0.204 F 
ATOM     26  C   UNL d   1      26.551 -16.930  -0.929  0.00  0.00     0.032 A 
BRANCH  22  27
ATOM     27  N   UNL d   1      22.338 -17.156  -0.741  0.00  0.00    -0.300 N 
ATOM     28  C   UNL d   1      21.625 -18.271  -1.167  0.00  0.00     0.364 C 
ATOM     29  O   UNL d   1      22.120 -19.323  -1.567  0.00  0.00    -0.238 OA
ATOM     30  H   UNL d   1      21.827 -16.452  -0.227  0.00  0.00     0.171 HD
BRANCH  28  31
ATOM     31  O   UNL d   1      20.275 -18.114  -1.012  0.00  0.00    -0.309 OA
ATOM     32  C   UNL d   1      19.615 -19.301  -0.526  0.00  0.00     0.215 C 
ENDBRANCH  28  31
ENDBRANCH  22  27
ENDBRANCH   1  20
TORSDOF 6
ENDMDL
MODEL 8
REMARK VINA RESULT:    -7.560      6.718      8.282
REMARK INTER + INTRA:         -11.287
REMARK INTER:                  -9.350
REMARK INTRA:                  -1.938
REMARK CONF_INDEPENDENT:        1.790
REMARK UNBOUND:                -1.938
REMARK  6 active torsions:
REMARK  status: ('A' for Active; 'I' for Inactive)
REMARK    1  A    between atoms: O_2  and  C_3 
REMARK       I    between atoms: C_3  and  N_5 
REMARK    2  A    between atoms: N_5  and  C_6 
REMARK    3  A    between atoms: C_8  and  N_9 
REMARK       I    between atoms: N_9  and  C_10 
REMARK    4  A    between atoms: C_10  and  C_12 
REMARK       I    between atoms: C_12  and  N_14 
REMARK    5  A    between atoms: N_14  and  C_15 
REMARK    6  A    between atoms: C_15  and  C_16 
ROOT
ATOM      1  N   UNL d   1      25.356 -10.646  -3.679  0.00  0.00    -0.319 N 
ATOM      2  C   UNL d   1      25.995 -11.684  -2.968  0.00  0.00     0.313 C 
ATOM      3  O   UNL d   1      26.741 -11.585  -1.997  0.00  0.00    -0.262 OA
ATOM      4  H   UNL d   1      24.780 -10.933  -4.466  0.00  0.00     0.169 HD
ENDROOT
BRANCH   2   5
ATOM      5  C   UNL d   1      25.731 -13.136  -3.439  0.00  0.00     0.309 C 
ATOM      6  O   UNL d   1      24.938 -13.366  -4.340  0.00  0.00    -0.262 OA
ATOM      7  N   UNL d   1      26.468 -14.088  -2.742  0.00  0.00    -0.349 N 
ATOM      8  H   UNL d   1      27.144 -13.743  -2.064  0.00  0.00     0.163 HD
BRANCH   7   9
ATOM      9  C   UNL d   1      26.395 -15.508  -3.032  0.00  0.00     0.162 C 
BRANCH   9  10
ATOM     10  C   UNL d   1      26.468 -16.408  -1.806  0.00  0.00    -0.029 A 
ATOM     11  C   UNL d   1      27.726 -16.699  -1.244  0.00  0.00     0.010 A 
ATOM     12  C   UNL d   1      27.849 -17.553  -0.149  0.00  0.00     0.002 A 
ATOM     13  C   UNL d   1      26.713 -18.103   0.434  0.00  0.00     0.012 A 
ATOM     14  C   UNL d   1      25.435 -17.775  -0.039  0.00  0.00    -0.025 A 
ATOM     15  C   UNL d   1      24.297 -18.294   0.605  0.00  0.00     0.012 A 
ATOM     16  C   UNL d   1      25.294 -16.915  -1.164  0.00  0.00    -0.018 A 
ATOM     17  C   UNL d   1      23.014 -17.976   0.164  0.00  0.00     0.001 A 
ATOM     18  C   UNL d   1      22.854 -17.133  -0.925  0.00  0.00     0.001 A 
ATOM     19  C   UNL d   1      23.975 -16.612  -1.574  0.00  0.00     0.013 A 
ENDBRANCH   9  10
ENDBRANCH   7   9
ENDBRANCH   2   5
BRANCH   1  20
ATOM     20  C   UNL d   1      25.475  -9.245  -3.381  0.00  0.00     0.037 A 
ATOM     21  C   UNL d   1      25.741  -8.756  -2.068  0.00  0.00     0.062 A 
ATOM     22  C   UNL d   1      25.774  -7.354  -1.806  0.00  0.00     0.077 A 
ATOM     23  C   UNL d   1      25.633  -6.469  -2.883  0.00  0.00     0.143 A 
ATOM     24  C   UNL d   1      25.405  -6.931  -4.163  0.00  0.00     0.047 A 
ATOM     25  F   UNL d   1      25.804  -5.148  -2.725  0.00  0.00    -0.204 F 
ATOM     26  C   UNL d   1      25.311  -8.297  -4.399  0.00  0.00     0.032 A 
BRANCH  22  27
ATOM     27  N   UNL d   1      25.947  -6.815  -0.496  0.00  0.00    -0.300 N 
ATOM     28  C   UNL d   1      25.259  -7.316   0.604  0.00  0.00     0.364 C 
ATOM     29  O   UNL d   1      24.543  -8.316   0.602  0.00  0.00    -0.238 OA
ATOM     30  H   UNL d   1      26.671  -6.135  -0.313  0.00  0.00     0.171 HD
BRANCH  28  31
ATOM     31  O   UNL d   1      25.530  -6.618   1.748  0.00  0.00    -0.309 OA
ATOM     32  C   UNL d   1      26.900  -6.747   2.183  0.00  0.00     0.215 C 
ENDBRANCH  28  31
ENDBRANCH  22  27
ENDBRANCH   1  20
TORSDOF 6
ENDMDL
MODEL 9
REMARK VINA RESULT:    -7.510      1.115      2.221
REMARK INTER + INTRA:         -11.240
REMARK INTER:                  -9.300
REMARK INTRA:                  -1.940
REMARK CONF_INDEPENDENT:        1.790
REMARK UNBOUND:                -1.940
REMARK  6 active torsions:
REMARK  status: ('A' for Active; 'I' for Inactive)
REMARK    1  A    between atoms: O_2  and  C_3 
REMARK       I    between atoms: C_3  and  N_5 
REMARK    2  A    between atoms: N_5  and  C_6 
REMARK    3  A    between atoms: C_8  and  N_9 
REMARK       I    between atoms: N_9  and  C_10 
REMARK    4  A    between atoms: C_10  and  C_12 
REMARK       I    between atoms: C_12  and  N_14 
REMARK    5  A    between atoms: N_14  and  C_15 
REMARK    6  A    between atoms: C_15  and  C_16 
ROOT
ATOM      1  N   UNL d   1      27.917 -13.623   3.986  0.00  0.00    -0.319 N 
ATOM      2  C   UNL d   1      28.819 -14.222   3.081  0.00  0.00     0.313 C 
ATOM      3  O   UNL d   1      30.011 -14.463   3.253  0.00  0.00    -0.262 OA
ATOM      4  H   UNL d   1      26.964 -13.500   3.650  0.00  0.00     0.169 HD
ENDROOT
BRANCH   2   5
ATOM      5  C   UNL d   1      28.263 -14.650   1.699  0.00  0.00     0.309 C 
ATOM      6  O   UNL d   1      27.212 -14.189   1.279  0.00  0.00    -0.262 OA
ATOM      7  N   UNL d   1      29.066 -15.575   1.041  0.00  0.00    -0.349 N 
ATOM      8  H   UNL d   1      29.951 -15.815   1.482  0.00  0.00     0.163 HD
BRANCH   7   9
ATOM      9  C   UNL d   1      28.749 -16.097  -0.275  0.00  0.00     0.162 C 
BRANCH   9  10
ATOM     10  C   UNL d   1      27.273 -16.400  -0.497  0.00  0.00    -0.029 A 
ATOM     11  C   UNL d   1      26.675 -17.454   0.220  0.00  0.00     0.010 A 
ATOM     12  C   UNL d   1      25.340 -17.799   0.021  0.00  0.00     0.002 A 
ATOM     13  C   UNL d   1      24.560 -17.070  -0.872  0.00  0.00     0.012 A 
ATOM     14  C   UNL d   1      25.089 -15.960  -1.544  0.00  0.00    -0.025 A 
ATOM     15  C   UNL d   1      24.266 -15.200  -2.395  0.00  0.00     0.012 A 
ATOM     16  C   UNL d   1      26.455 -15.604  -1.360  0.00  0.00    -0.018 A 
ATOM     17  C   UNL d   1      24.762 -14.086  -3.068  0.00  0.00     0.001 A 
ATOM     18  C   UNL d   1      26.087 -13.715  -2.895  0.00  0.00     0.001 A 
ATOM     19  C   UNL d   1      26.916 -14.462  -2.055  0.00  0.00     0.013 A 
ENDBRANCH   9  10
ENDBRANCH   7   9
ENDBRANCH   2   5
BRANCH   1  20
ATOM     20  C   UNL d   1      28.249 -13.173   5.310  0.00  0.00     0.037 A 
ATOM     21  C   UNL d   1      28.661 -14.064   6.345  0.00  0.00     0.062 A 
ATOM     22  C   UNL d   1      28.907 -13.581   7.665  0.00  0.00     0.077 A 
ATOM     23  C   UNL d   1      28.827 -12.202   7.898  0.00  0.00     0.143 A 
ATOM     24  C   UNL d   1      28.459 -11.328   6.897  0.00  0.00     0.047 A 
ATOM     25  F   UNL d   1      29.192 -11.673   9.076  0.00  0.00    -0.204 F 
ATOM     26  C   UNL d   1      28.160 -11.813   5.630  0.00  0.00     0.032 A 
BRANCH  22  27
ATOM     27  N   UNL d   1      29.234 -14.442   8.755  0.00  0.00    -0.300 N 
ATOM     28  C   UNL d   1      28.630 -14.315  10.001  0.00  0.00     0.364 C 
ATOM     29  O   UNL d   1      27.695 -13.561  10.266  0.00  0.00    -0.238 OA
ATOM     30  H   UNL d   1      29.827 -15.247   8.613  0.00  0.00     0.171 HD
BRANCH  28  31
ATOM     31  O   UNL d   1      29.131 -15.200  10.914  0.00  0.00    -0.309 OA
ATOM     32  C   UNL d   1      30.557 -15.393  10.798  0.00  0.00     0.215 C 
ENDBRANCH  28  31
ENDBRANCH  22  27
ENDBRANCH   1  20
TORSDOF 6
ENDMDL
