MODEL 1
REMARK VINA RESULT:   -11.033      0.000      0.000
REMARK INTER + INTRA:         -14.625
REMARK INTER:                 -13.121
REMARK INTRA:                  -1.503
REMARK CONF_INDEPENDENT:        2.088
REMARK UNBOUND:                -1.503
REMARK  7 active torsions:
REMARK  status: ('A' for Active; 'I' for Inactive)
REMARK    1  A    between atoms: O_2  and  C_3 
REMARK    2  A    between atoms: C_6  and  N_7 
REMARK       I    between atoms: N_7  and  C_8 
REMARK       I    between atoms: C_8  and  N_19 
REMARK       I    between atoms: N_9  and  C_10 
REMARK    3  A    between atoms: C_10  and  C_12 
REMARK    4  A    between atoms: N_19  and  C_20 
REMARK    5  A    between atoms: C_20  and  C_21 
REMARK    6  A    between atoms: C_21  and  C_22 
REMARK    7  A    between atoms: C_32  and  O_33 
ROOT
ATOM      1  N   UNL d   1      25.155 -16.240  -3.093  0.00  0.00    -0.190 N 
ATOM      2  C   UNL d   1      25.095 -16.685  -1.751  0.00  0.00     0.704 C 
ATOM      3  N   UNL d   1      25.699 -16.258  -0.675  0.00  0.00    -0.023 NA
ATOM      4  C   UNL d   1      26.934 -15.678  -0.822  0.00  0.00     0.293 C 
ATOM      5  O   UNL d   1      27.791 -16.143  -1.536  0.00  0.00    -0.265 OA
ATOM      6  N   UNL d   1      24.246 -17.777  -1.494  0.00  0.00    -0.224 N 
ATOM      7  H   UNL d   1      24.815 -16.878  -3.799  0.00  0.00     0.184 HD
ATOM      8  H   UNL d   1      23.957 -18.384  -2.253  0.00  0.00     0.177 HD
ENDROOT
BRANCH   1   9
ATOM      9  C   UNL d   1      25.903 -15.142  -3.654  0.00  0.00     0.052 C 
ATOM     10  C   UNL d   1      25.549 -13.803  -3.589  0.00  0.00     0.033 C 
ATOM     11  C   UNL d   1      26.212 -12.822  -4.412  0.00  0.00     0.042 C 
ATOM     12  C   UNL d   1      27.173 -13.148  -5.395  0.00  0.00     0.101 C 
ATOM     13  C   UNL d   1      27.500 -14.478  -5.449  0.00  0.00     0.103 C 
ATOM     14  C   UNL d   1      27.060 -15.323  -4.390  0.00  0.00     0.069 C 
BRANCH  12  15
ATOM     15  O   UNL d   1      27.905 -12.101  -5.895  0.00  0.00    -0.353 OA
ATOM     16  C   UNL d   1      28.199 -11.927  -7.278  0.00  0.00     0.210 C 
ENDBRANCH  12  15
BRANCH  13  17
ATOM     17  O   UNL d   1      28.090 -15.200  -6.436  0.00  0.00    -0.353 OA
ATOM     18  C   UNL d   1      29.445 -15.101  -6.749  0.00  0.00     0.210 C 
ENDBRANCH  13  17
ENDBRANCH   1   9
BRANCH   6  19
ATOM     19  C   UNL d   1      24.252 -18.377  -0.130  0.00  0.00     0.142 C 
BRANCH  19  20
ATOM     20  C   UNL d   1      22.914 -18.339   0.591  0.00  0.00     0.057 C 
BRANCH  20  21
ATOM     21  C   UNL d   1      21.691 -18.842  -0.146  0.00  0.00    -0.048 A 
ATOM     22  C   UNL d   1      20.656 -19.325   0.543  0.00  0.00    -0.006 A 
ATOM     23  C   UNL d   1      20.480 -19.475   1.942  0.00  0.00     0.014 C 
ATOM     24  C   UNL d   1      19.659 -19.788  -0.428  0.00  0.00     0.038 A 
ATOM     25  C   UNL d   1      19.435 -20.182   2.377  0.00  0.00     0.001 C 
ATOM     26  C   UNL d   1      18.407 -20.646   1.457  0.00  0.00     0.002 C 
ATOM     27  C   UNL d   1      18.461 -20.470   0.118  0.00  0.00     0.030 C 
ATOM     28  N   UNL d   1      20.024 -19.526  -1.626  0.00  0.00    -0.385 N 
ATOM     29  C   UNL d   1      21.415 -18.950  -1.626  0.00  0.00     0.155 A 
ATOM     30  H   UNL d   1      19.422 -19.700  -2.432  0.00  0.00     0.160 HD
ENDBRANCH  20  21
ENDBRANCH  19  20
ENDBRANCH   6  19
BRANCH   4  31
ATOM     31  C   UNL d   1      27.345 -14.669   0.216  0.00  0.00     0.035 C 
ATOM     32  C   UNL d   1      27.582 -14.819   1.607  0.00  0.00     0.019 C 
ATOM     33  C   UNL d   1      27.404 -13.719   2.467  0.00  0.00     0.025 C 
ATOM     34  C   UNL d   1      27.170 -12.466   1.920  0.00  0.00     0.034 C 
ATOM     35 CL   UNL d   1      27.089 -11.083   2.932  0.00  0.00    -0.084 Cl
ATOM     36  C   UNL d   1      27.030 -12.312   0.545  0.00  0.00     0.025 C 
ATOM     37  C   UNL d   1      27.095 -13.409  -0.295  0.00  0.00     0.019 C 
ENDBRANCH   4  31
TORSDOF 7
ENDMDL
MODEL 2
REMARK VINA RESULT:   -10.232      4.479      8.101
REMARK INTER + INTRA:         -14.392
REMARK INTER:                 -12.320
REMARK INTRA:                  -2.072
REMARK CONF_INDEPENDENT:        2.088
REMARK UNBOUND:                -2.072
REMARK  7 active torsions:
REMARK  status: ('A' for Active; 'I' for Inactive)
REMARK    1  A    between atoms: O_2  and  C_3 
REMARK    2  A    between atoms: C_6  and  N_7 
REMARK       I    between atoms: N_7  and  C_8 
REMARK       I    between atoms: C_8  and  N_19 
REMARK       I    between atoms: N_9  and  C_10 
REMARK    3  A    between atoms: C_10  and  C_12 
REMARK    4  A    between atoms: N_19  and  C_20 
REMARK    5  A    between atoms: C_20  and  C_21 
REMARK    6  A    between atoms: C_21  and  C_22 
REMARK    7  A    between atoms: C_32  and  O_33 
ROOT
ATOM      1  N   UNL d   1      29.459 -14.612   3.396  0.00  0.00    -0.190 N 
ATOM      2  C   UNL d   1      28.995 -14.253   2.108  0.00  0.00     0.704 C 
ATOM      3  N   UNL d   1      28.306 -13.222   1.699  0.00  0.00    -0.023 NA
ATOM      4  C   UNL d   1      27.436 -12.641   2.587  0.00  0.00     0.293 C 
ATOM      5  O   UNL d   1      26.700 -13.287   3.295  0.00  0.00    -0.265 OA
ATOM      6  N   UNL d   1      29.313 -15.138   1.062  0.00  0.00    -0.224 N 
ATOM      7  H   UNL d   1      29.738 -15.575   3.526  0.00  0.00     0.184 HD
ATOM      8  H   UNL d   1      29.570 -16.096   1.269  0.00  0.00     0.177 HD
ENDROOT
BRANCH   1   9
ATOM      9  C   UNL d   1      29.317 -13.904   4.644  0.00  0.00     0.052 C 
ATOM     10  C   UNL d   1      28.905 -14.459   5.847  0.00  0.00     0.033 C 
ATOM     11  C   UNL d   1      28.531 -13.619   6.959  0.00  0.00     0.042 C 
ATOM     12  C   UNL d   1      28.456 -12.210   6.882  0.00  0.00     0.101 C 
ATOM     13  C   UNL d   1      28.856 -11.684   5.681  0.00  0.00     0.103 C 
ATOM     14  C   UNL d   1      29.525 -12.542   4.761  0.00  0.00     0.069 C 
BRANCH  12  15
ATOM     15  O   UNL d   1      28.358 -11.544   8.077  0.00  0.00    -0.353 OA
ATOM     16  C   UNL d   1      28.316 -12.191   9.345  0.00  0.00     0.210 C 
ENDBRANCH  12  15
BRANCH  13  17
ATOM     17  O   UNL d   1      28.612 -10.470   5.126  0.00  0.00    -0.353 OA
ATOM     18  C   UNL d   1      28.957  -9.267   5.742  0.00  0.00     0.210 C 
ENDBRANCH  13  17
ENDBRANCH   1   9
BRANCH   6  19
ATOM     19  C   UNL d   1      28.730 -14.884  -0.286  0.00  0.00     0.142 C 
BRANCH  19  20
ATOM     20  C   UNL d   1      27.230 -15.118  -0.388  0.00  0.00     0.057 C 
BRANCH  20  21
ATOM     21  C   UNL d   1      26.714 -16.529  -0.207  0.00  0.00    -0.048 A 
ATOM     22  C   UNL d   1      25.434 -16.803  -0.468  0.00  0.00    -0.006 A 
ATOM     23  C   UNL d   1      24.389 -15.951  -0.907  0.00  0.00     0.014 C 
ATOM     24  C   UNL d   1      25.213 -18.217  -0.146  0.00  0.00     0.038 A 
ATOM     25  C   UNL d   1      23.140 -16.424  -0.894  0.00  0.00     0.001 C 
ATOM     26  C   UNL d   1      22.870 -17.823  -0.602  0.00  0.00     0.002 C 
ATOM     27  C   UNL d   1      23.822 -18.717  -0.255  0.00  0.00     0.030 C 
ATOM     28  N   UNL d   1      26.303 -18.786   0.206  0.00  0.00    -0.385 N 
ATOM     29  C   UNL d   1      27.411 -17.770   0.292  0.00  0.00     0.155 A 
ATOM     30  H   UNL d   1      26.362 -19.789   0.390  0.00  0.00     0.160 HD
ENDBRANCH  20  21
ENDBRANCH  19  20
ENDBRANCH   6  19
BRANCH   4  31
ATOM     31  C   UNL d   1      27.131 -11.181   2.391  0.00  0.00     0.035 C 
ATOM     32  C   UNL d   1      26.283 -10.307   3.122  0.00  0.00     0.019 C 
ATOM     33  C   UNL d   1      25.713  -9.192   2.481  0.00  0.00     0.025 C 
ATOM     34  C   UNL d   1      26.127  -8.866   1.197  0.00  0.00     0.034 C 
ATOM     35 CL   UNL d   1      25.558  -7.434   0.443  0.00  0.00    -0.084 Cl
ATOM     36  C   UNL d   1      27.031  -9.679   0.521  0.00  0.00     0.025 C 
ATOM     37  C   UNL d   1      27.509 -10.836   1.107  0.00  0.00     0.019 C 
ENDBRANCH   4  31
TORSDOF 7
ENDMDL
MODEL 3
REMARK VINA RESULT:    -9.905      4.270      8.370
REMARK INTER + INTRA:         -14.191
REMARK INTER:                 -11.993
REMARK INTRA:                  -2.198
REMARK CONF_INDEPENDENT:        2.088
REMARK UNBOUND:                -2.198
REMARK  7 active torsions:
REMARK  status: ('A' for Active; 'I' for Inactive)
REMARK    1  A    between atoms: O_2  and  C_3 
REMARK    2  A    between atoms: C_6  and  N_7 
REMARK       I    between atoms: N_7  and  C_8 
REMARK       I    between atoms: C_8  and  N_19 
REMARK       I    between atoms: N_9  and  C_10 
REMARK    3  A    between atoms: C_10  and  C_12 
REMARK    4  A    between atoms: N_19  and  C_20 
REMARK    5  A    between atoms: C_20  and  C_21 
REMARK    6  A    between atoms: C_21  and  C_22 
REMARK    7  A    between atoms: C_32  and  O_33 
ROOT
ATOM      1  N   UNL d   1      29.878 -14.680   3.704  0.00  0.00    -0.190 N 
ATOM      2  C   UNL d   1      29.307 -14.377   2.445  0.00  0.00     0.704 C 
ATOM      3  N   UNL d   1      28.459 -13.452   2.085  0.00  0.00    -0.023 NA
ATOM      4  C   UNL d   1      27.556 -13.013   3.021  0.00  0.00     0.293 C 
ATOM      5  O   UNL d   1      26.955 -13.767   3.749  0.00  0.00    -0.265 OA
ATOM      6  N   UNL d   1      29.700 -15.194   1.369  0.00  0.00    -0.224 N 
ATOM      7  H   UNL d   1      30.298 -15.593   3.804  0.00  0.00     0.184 HD
ATOM      8  H   UNL d   1      30.102 -16.107   1.548  0.00  0.00     0.177 HD
ENDROOT
BRANCH   1   9
ATOM      9  C   UNL d   1      29.693 -14.015   4.969  0.00  0.00     0.052 C 
ATOM     10  C   UNL d   1      28.895 -14.463   6.012  0.00  0.00     0.033 C 
ATOM     11  C   UNL d   1      28.562 -13.596   7.115  0.00  0.00     0.042 C 
ATOM     12  C   UNL d   1      28.923 -12.230   7.171  0.00  0.00     0.101 C 
ATOM     13  C   UNL d   1      29.701 -11.806   6.126  0.00  0.00     0.103 C 
ATOM     14  C   UNL d   1      30.264 -12.790   5.263  0.00  0.00     0.069 C 
BRANCH  12  15
ATOM     15  O   UNL d   1      28.778 -11.617   8.389  0.00  0.00    -0.353 OA
ATOM     16  C   UNL d   1      28.716 -12.317   9.628  0.00  0.00     0.210 C 
ENDBRANCH  12  15
BRANCH  13  17
ATOM     17  O   UNL d   1      29.948 -10.554   5.664  0.00  0.00    -0.353 OA
ATOM     18  C   UNL d   1      29.785  -9.408   6.441  0.00  0.00     0.210 C 
ENDBRANCH  13  17
ENDBRANCH   1   9
BRANCH   6  19
ATOM     19  C   UNL d   1      29.025 -15.012   0.054  0.00  0.00     0.142 C 
BRANCH  19  20
ATOM     20  C   UNL d   1      28.189 -16.197  -0.406  0.00  0.00     0.057 C 
BRANCH  20  21
ATOM     21  C   UNL d   1      26.816 -15.921  -0.979  0.00  0.00    -0.048 A 
ATOM     22  C   UNL d   1      25.789 -16.703  -0.639  0.00  0.00    -0.006 A 
ATOM     23  C   UNL d   1      25.746 -17.834   0.216  0.00  0.00     0.014 C 
ATOM     24  C   UNL d   1      24.616 -16.239  -1.387  0.00  0.00     0.038 A 
ATOM     25  C   UNL d   1      24.635 -18.575   0.229  0.00  0.00     0.001 C 
ATOM     26  C   UNL d   1      23.439 -18.148  -0.480  0.00  0.00     0.002 C 
ATOM     27  C   UNL d   1      23.375 -17.038  -1.249  0.00  0.00     0.030 C 
ATOM     28  N   UNL d   1      24.889 -15.192  -2.071  0.00  0.00    -0.385 N 
ATOM     29  C   UNL d   1      26.358 -14.880  -1.970  0.00  0.00     0.155 A 
ATOM     30  H   UNL d   1      24.177 -14.678  -2.593  0.00  0.00     0.160 HD
ENDBRANCH  20  21
ENDBRANCH  19  20
ENDBRANCH   6  19
BRANCH   4  31
ATOM     31  C   UNL d   1      27.035 -11.610   2.866  0.00  0.00     0.035 C 
ATOM     32  C   UNL d   1      26.589 -10.912   1.713  0.00  0.00     0.019 C 
ATOM     33  C   UNL d   1      26.680  -9.509   1.668  0.00  0.00     0.025 C 
ATOM     34  C   UNL d   1      27.040  -8.819   2.817  0.00  0.00     0.034 C 
ATOM     35 CL   UNL d   1      27.024  -7.104   2.837  0.00  0.00    -0.084 Cl
ATOM     36  C   UNL d   1      27.388  -9.510   3.973  0.00  0.00     0.025 C 
ATOM     37  C   UNL d   1      27.406 -10.892   3.987  0.00  0.00     0.019 C 
ENDBRANCH   4  31
TORSDOF 7
ENDMDL
MODEL 4
REMARK VINA RESULT:    -9.132      4.230      7.594
REMARK INTER + INTRA:         -13.508
REMARK INTER:                 -11.220
REMARK INTRA:                  -2.288
REMARK CONF_INDEPENDENT:        2.088
REMARK UNBOUND:                -2.288
REMARK  7 active torsions:
REMARK  status: ('A' for Active; 'I' for Inactive)
REMARK    1  A    between atoms: O_2  and  C_3 
REMARK    2  A    between atoms: C_6  and  N_7 
REMARK       I    between atoms: N_7  and  C_8 
REMARK       I    between atoms: C_8  and  N_19 
REMARK       I    between atoms: N_9  and  C_10 
REMARK    3  A    between atoms: C_10  and  C_12 
REMARK    4  A    between atoms: N_19  and  C_20 
REMARK    5  A    between atoms: C_20  and  C_21 
REMARK    6  A    between atoms: C_21  and  C_22 
REMARK    7  A    between atoms: C_32  and  O_33 
ROOT
ATOM      1  N   UNL d   1      29.699 -15.339  -2.114  0.00  0.00    -0.190 N 
ATOM      2  C   UNL d   1      29.558 -16.659  -1.623  0.00  0.00     0.704 C 
ATOM      3  N   UNL d   1      28.497 -17.350  -1.308  0.00  0.00    -0.023 NA
ATOM      4  C   UNL d   1      27.397 -16.664  -0.859  0.00  0.00     0.293 C 
ATOM      5  O   UNL d   1      27.473 -15.765  -0.054  0.00  0.00    -0.265 OA
ATOM      6  N   UNL d   1      30.749 -17.382  -1.429  0.00  0.00    -0.224 N 
ATOM      7  H   UNL d   1      30.616 -14.921  -2.036  0.00  0.00     0.184 HD
ATOM      8  H   UNL d   1      31.632 -16.892  -1.345  0.00  0.00     0.177 HD
ENDROOT
BRANCH   1   9
ATOM      9  C   UNL d   1      28.677 -14.374  -2.434  0.00  0.00     0.052 C 
ATOM     10  C   UNL d   1      28.424 -13.201  -1.739  0.00  0.00     0.033 C 
ATOM     11  C   UNL d   1      27.214 -12.451  -1.969  0.00  0.00     0.042 C 
ATOM     12  C   UNL d   1      26.173 -12.890  -2.818  0.00  0.00     0.101 C 
ATOM     13  C   UNL d   1      26.440 -14.055  -3.487  0.00  0.00     0.103 C 
ATOM     14  C   UNL d   1      27.775 -14.553  -3.467  0.00  0.00     0.069 C 
BRANCH  12  15
ATOM     15  O   UNL d   1      25.226 -11.953  -3.147  0.00  0.00    -0.353 OA
ATOM     16  C   UNL d   1      25.529 -10.688  -3.728  0.00  0.00     0.210 C 
ENDBRANCH  12  15
BRANCH  13  17
ATOM     17  O   UNL d   1      25.601 -14.935  -4.092  0.00  0.00    -0.353 OA
ATOM     18  C   UNL d   1      25.904 -15.574  -5.294  0.00  0.00     0.210 C 
ENDBRANCH  13  17
ENDBRANCH   1   9
BRANCH   6  19
ATOM     19  C   UNL d   1      30.670 -18.722  -0.782  0.00  0.00     0.142 C 
BRANCH  19  20
ATOM     20  C   UNL d   1      31.643 -19.755  -1.328  0.00  0.00     0.057 C 
BRANCH  20  21
ATOM     21  C   UNL d   1      31.255 -20.508  -2.583  0.00  0.00    -0.048 A 
ATOM     22  C   UNL d   1      31.150 -19.853  -3.741  0.00  0.00    -0.006 A 
ATOM     23  C   UNL d   1      31.339 -18.478  -4.033  0.00  0.00     0.014 C 
ATOM     24  C   UNL d   1      30.704 -20.817  -4.752  0.00  0.00     0.038 A 
ATOM     25  C   UNL d   1      30.968 -18.030  -5.234  0.00  0.00     0.001 C 
ATOM     26  C   UNL d   1      30.539 -18.947  -6.279  0.00  0.00     0.002 C 
ATOM     27  C   UNL d   1      30.411 -20.281  -6.103  0.00  0.00     0.030 C 
ATOM     28  N   UNL d   1      30.626 -21.997  -4.263  0.00  0.00    -0.385 N 
ATOM     29  C   UNL d   1      30.894 -21.959  -2.782  0.00  0.00     0.155 A 
ATOM     30  H   UNL d   1      30.411 -22.814  -4.837  0.00  0.00     0.160 HD
ENDBRANCH  20  21
ENDBRANCH  19  20
ENDBRANCH   6  19
BRANCH   4  31
ATOM     31  C   UNL d   1      26.052 -17.300  -1.086  0.00  0.00     0.035 C 
ATOM     32  C   UNL d   1      24.989 -16.931  -1.952  0.00  0.00     0.019 C 
ATOM     33  C   UNL d   1      23.668 -17.287  -1.624  0.00  0.00     0.025 C 
ATOM     34  C   UNL d   1      23.445 -18.142  -0.554  0.00  0.00     0.034 C 
ATOM     35 CL   UNL d   1      21.861 -18.708  -0.215  0.00  0.00    -0.084 Cl
ATOM     36  C   UNL d   1      24.505 -18.574   0.235  0.00  0.00     0.025 C 
ATOM     37  C   UNL d   1      25.793 -18.138  -0.018  0.00  0.00     0.019 C 
ENDBRANCH   4  31
TORSDOF 7
ENDMDL
MODEL 5
REMARK VINA RESULT:    -9.030      3.322      8.300
REMARK INTER + INTRA:         -13.615
REMARK INTER:                 -11.118
REMARK INTRA:                  -2.497
REMARK CONF_INDEPENDENT:        2.088
REMARK UNBOUND:                -2.497
REMARK  7 active torsions:
REMARK  status: ('A' for Active; 'I' for Inactive)
REMARK    1  A    between atoms: O_2  and  C_3 
REMARK    2  A    between atoms: C_6  and  N_7 
REMARK       I    between atoms: N_7  and  C_8 
REMARK       I    between atoms: C_8  and  N_19 
REMARK       I    between atoms: N_9  and  C_10 
REMARK    3  A    between atoms: C_10  and  C_12 
REMARK    4  A    between atoms: N_19  and  C_20 
REMARK    5  A    between atoms: C_20  and  C_21 
REMARK    6  A    between atoms: C_21  and  C_22 
REMARK    7  A    between atoms: C_32  and  O_33 
ROOT
ATOM      1  N   UNL d   1      26.784 -13.307  -1.094  0.00  0.00    -0.190 N 
ATOM      2  C   UNL d   1      25.979 -13.956  -2.060  0.00  0.00     0.704 C 
ATOM      3  N   UNL d   1      25.235 -15.026  -1.982  0.00  0.00    -0.023 NA
ATOM      4  C   UNL d   1      25.609 -16.001  -1.091  0.00  0.00     0.293 C 
ATOM      5  O   UNL d   1      26.754 -16.367  -0.969  0.00  0.00    -0.265 OA
ATOM      6  N   UNL d   1      25.949 -13.372  -3.340  0.00  0.00    -0.224 N 
ATOM      7  H   UNL d   1      27.474 -12.656  -1.441  0.00  0.00     0.184 HD
ATOM      8  H   UNL d   1      26.686 -12.737  -3.624  0.00  0.00     0.177 HD
ENDROOT
BRANCH   1   9
ATOM      9  C   UNL d   1      26.992 -13.647   0.292  0.00  0.00     0.052 C 
ATOM     10  C   UNL d   1      26.280 -13.135   1.367  0.00  0.00     0.033 C 
ATOM     11  C   UNL d   1      26.746 -13.324   2.719  0.00  0.00     0.042 C 
ATOM     12  C   UNL d   1      27.978 -13.936   3.042  0.00  0.00     0.101 C 
ATOM     13  C   UNL d   1      28.669 -14.424   1.965  0.00  0.00     0.103 C 
ATOM     14  C   UNL d   1      27.996 -14.501   0.711  0.00  0.00     0.069 C 
BRANCH  12  15
ATOM     15  O   UNL d   1      28.151 -14.289   4.357  0.00  0.00    -0.353 OA
ATOM     16  C   UNL d   1      29.424 -14.487   4.965  0.00  0.00     0.210 C 
ENDBRANCH  12  15
BRANCH  13  17
ATOM     17  O   UNL d   1      29.981 -14.750   1.833  0.00  0.00    -0.353 OA
ATOM     18  C   UNL d   1      30.477 -15.505   0.771  0.00  0.00     0.210 C 
ENDBRANCH  13  17
ENDBRANCH   1   9
BRANCH   6  19
ATOM     19  C   UNL d   1      25.233 -14.090  -4.432  0.00  0.00     0.142 C 
BRANCH  19  20
ATOM     20  C   UNL d   1      26.046 -15.173  -5.125  0.00  0.00     0.057 C 
BRANCH  20  21
ATOM     21  C   UNL d   1      27.505 -14.895  -5.414  0.00  0.00    -0.048 A 
ATOM     22  C   UNL d   1      28.437 -15.283  -4.542  0.00  0.00    -0.006 A 
ATOM     23  C   UNL d   1      28.303 -15.949  -3.297  0.00  0.00     0.014 C 
ATOM     24  C   UNL d   1      29.735 -14.828  -5.053  0.00  0.00     0.038 A 
ATOM     25  C   UNL d   1      29.376 -16.040  -2.509  0.00  0.00     0.001 C 
ATOM     26  C   UNL d   1      30.689 -15.622  -2.976  0.00  0.00     0.002 C 
ATOM     27  C   UNL d   1      30.913 -15.054  -4.182  0.00  0.00     0.030 C 
ATOM     28  N   UNL d   1      29.611 -14.276  -6.200  0.00  0.00    -0.385 N 
ATOM     29  C   UNL d   1      28.155 -14.169  -6.566  0.00  0.00     0.155 A 
ATOM     30  H   UNL d   1      30.415 -13.970  -6.750  0.00  0.00     0.160 HD
ENDBRANCH  20  21
ENDBRANCH  19  20
ENDBRANCH   6  19
BRANCH   4  31
ATOM     31  C   UNL d   1      24.520 -16.882  -0.542  0.00  0.00     0.035 C 
ATOM     32  C   UNL d   1      24.560 -18.226  -0.085  0.00  0.00     0.019 C 
ATOM     33  C   UNL d   1      23.399 -19.018  -0.148  0.00  0.00     0.025 C 
ATOM     34  C   UNL d   1      22.193 -18.422  -0.490  0.00  0.00     0.034 C 
ATOM     35 CL   UNL d   1      20.737 -19.327  -0.438  0.00  0.00    -0.084 Cl
ATOM     36  C   UNL d   1      22.148 -17.079  -0.847  0.00  0.00     0.025 C 
ATOM     37  C   UNL d   1      23.305 -16.324  -0.893  0.00  0.00     0.019 C 
ENDBRANCH   4  31
TORSDOF 7
ENDMDL
MODEL 6
REMARK VINA RESULT:    -8.538      3.703      8.129
REMARK INTER + INTRA:         -13.427
REMARK INTER:                 -10.627
REMARK INTRA:                  -2.800
REMARK CONF_INDEPENDENT:        2.088
REMARK UNBOUND:                -2.800
REMARK  7 active torsions:
REMARK  status: ('A' for Active; 'I' for Inactive)
REMARK    1  A    between atoms: O_2  and  C_3 
REMARK    2  A    between atoms: C_6  and  N_7 
REMARK       I    between atoms: N_7  and  C_8 
REMARK       I    between atoms: C_8  and  N_19 
REMARK       I    between atoms: N_9  and  C_10 
REMARK    3  A    between atoms: C_10  and  C_12 
REMARK    4  A    between atoms: N_19  and  C_20 
REMARK    5  A    between atoms: C_20  and  C_21 
REMARK    6  A    between atoms: C_21  and  C_22 
REMARK    7  A    between atoms: C_32  and  O_33 
ROOT
ATOM      1  N   UNL d   1      29.305 -14.266  -1.105  0.00  0.00    -0.190 N 
ATOM      2  C   UNL d   1      28.969 -15.072  -2.218  0.00  0.00     0.704 C 
ATOM      3  N   UNL d   1      28.000 -15.928  -2.399  0.00  0.00    -0.023 NA
ATOM      4  C   UNL d   1      27.518 -16.590  -1.298  0.00  0.00     0.293 C 
ATOM      5  O   UNL d   1      28.242 -17.063  -0.454  0.00  0.00    -0.265 OA
ATOM      6  N   UNL d   1      29.803 -14.957  -3.346  0.00  0.00    -0.224 N 
ATOM      7  H   UNL d   1      30.240 -13.881  -1.088  0.00  0.00     0.184 HD
ATOM      8  H   UNL d   1      30.736 -14.574  -3.249  0.00  0.00     0.177 HD
ENDROOT
BRANCH   1   9
ATOM      9  C   UNL d   1      28.635 -14.145   0.165  0.00  0.00     0.052 C 
ATOM     10  C   UNL d   1      27.351 -13.658   0.362  0.00  0.00     0.033 C 
ATOM     11  C   UNL d   1      26.882 -13.321   1.684  0.00  0.00     0.042 C 
ATOM     12  C   UNL d   1      27.699 -13.361   2.836  0.00  0.00     0.101 C 
ATOM     13  C   UNL d   1      28.966 -13.835   2.617  0.00  0.00     0.103 C 
ATOM     14  C   UNL d   1      29.245 -14.459   1.367  0.00  0.00     0.069 C 
BRANCH  12  15
ATOM     15  O   UNL d   1      27.048 -13.284   4.041  0.00  0.00    -0.353 OA
ATOM     16  C   UNL d   1      27.391 -14.067   5.180  0.00  0.00     0.210 C 
ENDBRANCH  12  15
BRANCH  13  17
ATOM     17  O   UNL d   1      30.095 -13.705   3.359  0.00  0.00    -0.353 OA
ATOM     18  C   UNL d   1      30.405 -14.542   4.430  0.00  0.00     0.210 C 
ENDBRANCH  13  17
ENDBRANCH   1   9
BRANCH   6  19
ATOM     19  C   UNL d   1      29.581 -15.884  -4.491  0.00  0.00     0.142 C 
BRANCH  19  20
ATOM     20  C   UNL d   1      28.645 -15.357  -5.568  0.00  0.00     0.057 C 
BRANCH  20  21
ATOM     21  C   UNL d   1      27.289 -14.836  -5.141  0.00  0.00    -0.048 A 
ATOM     22  C   UNL d   1      27.190 -13.625  -4.591  0.00  0.00    -0.006 A 
ATOM     23  C   UNL d   1      28.196 -12.668  -4.302  0.00  0.00     0.014 C 
ATOM     24  C   UNL d   1      25.784 -13.420  -4.228  0.00  0.00     0.038 A 
ATOM     25  C   UNL d   1      27.869 -11.611  -3.555  0.00  0.00     0.001 C 
ATOM     26  C   UNL d   1      26.486 -11.352  -3.185  0.00  0.00     0.002 C 
ATOM     27  C   UNL d   1      25.458 -12.174  -3.494  0.00  0.00     0.030 C 
ATOM     28  N   UNL d   1      25.061 -14.404  -4.609  0.00  0.00    -0.385 N 
ATOM     29  C   UNL d   1      25.931 -15.491  -5.182  0.00  0.00     0.155 A 
ATOM     30  H   UNL d   1      24.044 -14.404  -4.517  0.00  0.00     0.160 HD
ENDBRANCH  20  21
ENDBRANCH  19  20
ENDBRANCH   6  19
BRANCH   4  31
ATOM     31  C   UNL d   1      26.089 -17.059  -1.352  0.00  0.00     0.035 C 
ATOM     32  C   UNL d   1      24.915 -16.396  -1.797  0.00  0.00     0.019 C 
ATOM     33  C   UNL d   1      23.665 -16.761  -1.264  0.00  0.00     0.025 C 
ATOM     34  C   UNL d   1      23.580 -17.877  -0.445  0.00  0.00     0.034 C 
ATOM     35 CL   UNL d   1      22.052 -18.431   0.107  0.00  0.00    -0.084 Cl
ATOM     36  C   UNL d   1      24.727 -18.577  -0.087  0.00  0.00     0.025 C 
ATOM     37  C   UNL d   1      25.971 -18.156  -0.520  0.00  0.00     0.019 C 
ENDBRANCH   4  31
TORSDOF 7
ENDMDL
MODEL 7
REMARK VINA RESULT:    -8.454      3.534      8.431
REMARK INTER + INTRA:         -13.894
REMARK INTER:                 -10.542
REMARK INTRA:                  -3.351
REMARK CONF_INDEPENDENT:        2.088
REMARK UNBOUND:                -3.351
REMARK  7 active torsions:
REMARK  status: ('A' for Active; 'I' for Inactive)
REMARK    1  A    between atoms: O_2  and  C_3 
REMARK    2  A    between atoms: C_6  and  N_7 
REMARK       I    between atoms: N_7  and  C_8 
REMARK       I    between atoms: C_8  and  N_19 
REMARK       I    between atoms: N_9  and  C_10 
REMARK    3  A    between atoms: C_10  and  C_12 
REMARK    4  A    between atoms: N_19  and  C_20 
REMARK    5  A    between atoms: C_20  and  C_21 
REMARK    6  A    between atoms: C_21  and  C_22 
REMARK    7  A    between atoms: C_32  and  O_33 
ROOT
ATOM      1  N   UNL d   1      27.922 -16.503   0.614  0.00  0.00    -0.190 N 
ATOM      2  C   UNL d   1      28.901 -15.767  -0.095  0.00  0.00     0.704 C 
ATOM      3  N   UNL d   1      28.889 -15.253  -1.294  0.00  0.00    -0.023 NA
ATOM      4  C   UNL d   1      28.123 -15.874  -2.249  0.00  0.00     0.293 C 
ATOM      5  O   UNL d   1      28.104 -17.074  -2.389  0.00  0.00    -0.265 OA
ATOM      6  N   UNL d   1      30.112 -15.529   0.581  0.00  0.00    -0.224 N 
ATOM      7  H   UNL d   1      28.240 -17.026   1.418  0.00  0.00     0.184 HD
ATOM      8  H   UNL d   1      30.372 -16.106   1.372  0.00  0.00     0.177 HD
ENDROOT
BRANCH   1   9
ATOM      9  C   UNL d   1      26.591 -16.877   0.203  0.00  0.00     0.052 C 
ATOM     10  C   UNL d   1      25.941 -18.056   0.537  0.00  0.00     0.033 C 
ATOM     11  C   UNL d   1      24.735 -18.454  -0.145  0.00  0.00     0.042 C 
ATOM     12  C   UNL d   1      24.191 -17.752  -1.244  0.00  0.00     0.101 C 
ATOM     13  C   UNL d   1      24.855 -16.596  -1.564  0.00  0.00     0.103 C 
ATOM     14  C   UNL d   1      25.822 -16.099  -0.643  0.00  0.00     0.069 C 
BRANCH  12  15
ATOM     15  O   UNL d   1      22.911 -18.089  -1.603  0.00  0.00    -0.353 OA
ATOM     16  C   UNL d   1      21.978 -18.711  -0.725  0.00  0.00     0.210 C 
ENDBRANCH  12  15
BRANCH  13  17
ATOM     17  O   UNL d   1      24.851 -15.866  -2.708  0.00  0.00    -0.353 OA
ATOM     18  C   UNL d   1      24.408 -14.546  -2.770  0.00  0.00     0.210 C 
ENDBRANCH  13  17
ENDBRANCH   1   9
BRANCH   6  19
ATOM     19  C   UNL d   1      31.228 -14.885  -0.167  0.00  0.00     0.142 C 
BRANCH  19  20
ATOM     20  C   UNL d   1      31.805 -15.720  -1.299  0.00  0.00     0.057 C 
BRANCH  20  21
ATOM     21  C   UNL d   1      31.442 -15.344  -2.719  0.00  0.00    -0.048 A 
ATOM     22  C   UNL d   1      31.033 -16.288  -3.569  0.00  0.00    -0.006 A 
ATOM     23  C   UNL d   1      30.872 -17.684  -3.376  0.00  0.00     0.014 C 
ATOM     24  C   UNL d   1      30.816 -15.645  -4.870  0.00  0.00     0.038 A 
ATOM     25  C   UNL d   1      30.649 -18.449  -4.447  0.00  0.00     0.001 C 
ATOM     26  C   UNL d   1      30.408 -17.859  -5.755  0.00  0.00     0.002 C 
ATOM     27  C   UNL d   1      30.461 -16.532  -6.003  0.00  0.00     0.030 C 
ATOM     28  N   UNL d   1      30.998 -14.380  -4.796  0.00  0.00    -0.385 N 
ATOM     29  C   UNL d   1      31.501 -14.012  -3.425  0.00  0.00     0.155 A 
ATOM     30  H   UNL d   1      30.814 -13.754  -5.581  0.00  0.00     0.160 HD
ENDBRANCH  20  21
ENDBRANCH  19  20
ENDBRANCH   6  19
BRANCH   4  31
ATOM     31  C   UNL d   1      27.604 -15.019  -3.374  0.00  0.00     0.035 C 
ATOM     32  C   UNL d   1      27.452 -15.305  -4.756  0.00  0.00     0.019 C 
ATOM     33  C   UNL d   1      27.493 -14.255  -5.693  0.00  0.00     0.025 C 
ATOM     34  C   UNL d   1      27.506 -12.945  -5.238  0.00  0.00     0.034 C 
ATOM     35 CL   UNL d   1      27.414 -11.642  -6.351  0.00  0.00    -0.084 Cl
ATOM     36  C   UNL d   1      27.563 -12.673  -3.876  0.00  0.00     0.025 C 
ATOM     37  C   UNL d   1      27.633 -13.703  -2.956  0.00  0.00     0.019 C 
ENDBRANCH   4  31
TORSDOF 7
ENDMDL
MODEL 8
REMARK VINA RESULT:    -8.192      3.590      8.349
REMARK INTER + INTRA:         -13.860
REMARK INTER:                 -10.280
REMARK INTRA:                  -3.580
REMARK CONF_INDEPENDENT:        2.088
REMARK UNBOUND:                -3.580
REMARK  7 active torsions:
REMARK  status: ('A' for Active; 'I' for Inactive)
REMARK    1  A    between atoms: O_2  and  C_3 
REMARK    2  A    between atoms: C_6  and  N_7 
REMARK       I    between atoms: N_7  and  C_8 
REMARK       I    between atoms: C_8  and  N_19 
REMARK       I    between atoms: N_9  and  C_10 
REMARK    3  A    between atoms: C_10  and  C_12 
REMARK    4  A    between atoms: N_19  and  C_20 
REMARK    5  A    between atoms: C_20  and  C_21 
REMARK    6  A    between atoms: C_21  and  C_22 
REMARK    7  A    between atoms: C_32  and  O_33 
ROOT
ATOM      1  N   UNL d   1      27.844 -16.344   0.701  0.00  0.00    -0.190 N 
ATOM      2  C   UNL d   1      28.840 -15.628  -0.004  0.00  0.00     0.704 C 
ATOM      3  N   UNL d   1      28.872 -15.181  -1.230  0.00  0.00    -0.023 NA
ATOM      4  C   UNL d   1      28.161 -15.869  -2.181  0.00  0.00     0.293 C 
ATOM      5  O   UNL d   1      28.171 -17.075  -2.255  0.00  0.00    -0.265 OA
ATOM      6  N   UNL d   1      30.015 -15.328   0.709  0.00  0.00    -0.224 N 
ATOM      7  H   UNL d   1      28.136 -16.816   1.546  0.00  0.00     0.184 HD
ATOM      8  H   UNL d   1      30.250 -15.855   1.542  0.00  0.00     0.177 HD
ENDROOT
BRANCH   1   9
ATOM      9  C   UNL d   1      26.540 -16.768   0.254  0.00  0.00     0.052 C 
ATOM     10  C   UNL d   1      25.927 -17.971   0.570  0.00  0.00     0.033 C 
ATOM     11  C   UNL d   1      24.755 -18.414  -0.145  0.00  0.00     0.042 C 
ATOM     12  C   UNL d   1      24.215 -17.731  -1.259  0.00  0.00     0.101 C 
ATOM     13  C   UNL d   1      24.843 -16.551  -1.559  0.00  0.00     0.103 C 
ATOM     14  C   UNL d   1      25.765 -16.019  -0.613  0.00  0.00     0.069 C 
BRANCH  12  15
ATOM     15  O   UNL d   1      22.959 -18.116  -1.652  0.00  0.00    -0.353 OA
ATOM     16  C   UNL d   1      22.009 -18.731  -0.787  0.00  0.00     0.210 C 
ENDBRANCH  12  15
BRANCH  13  17
ATOM     17  O   UNL d   1      24.843 -15.820  -2.703  0.00  0.00    -0.353 OA
ATOM     18  C   UNL d   1      24.582 -14.451  -2.733  0.00  0.00     0.210 C 
ENDBRANCH  13  17
ENDBRANCH   1   9
BRANCH   6  19
ATOM     19  C   UNL d   1      31.152 -14.703  -0.024  0.00  0.00     0.142 C 
BRANCH  19  20
ATOM     20  C   UNL d   1      32.164 -15.686  -0.591  0.00  0.00     0.057 C 
BRANCH  20  21
ATOM     21  C   UNL d   1      31.650 -16.838  -1.427  0.00  0.00    -0.048 A 
ATOM     22  C   UNL d   1      31.372 -16.646  -2.718  0.00  0.00    -0.006 A 
ATOM     23  C   UNL d   1      31.469 -15.472  -3.508  0.00  0.00     0.014 C 
ATOM     24  C   UNL d   1      30.840 -17.907  -3.246  0.00  0.00     0.038 A 
ATOM     25  C   UNL d   1      30.931 -15.486  -4.730  0.00  0.00     0.001 C 
ATOM     26  C   UNL d   1      30.408 -16.715  -5.307  0.00  0.00     0.002 C 
ATOM     27  C   UNL d   1      30.357 -17.894  -4.647  0.00  0.00     0.030 C 
ATOM     28  N   UNL d   1      30.871 -18.828  -2.359  0.00  0.00    -0.385 N 
ATOM     29  C   UNL d   1      31.323 -18.259  -1.040  0.00  0.00     0.155 A 
ATOM     30  H   UNL d   1      30.618 -19.796  -2.565  0.00  0.00     0.160 HD
ENDBRANCH  20  21
ENDBRANCH  19  20
ENDBRANCH   6  19
BRANCH   4  31
ATOM     31  C   UNL d   1      27.678 -15.089  -3.374  0.00  0.00     0.035 C 
ATOM     32  C   UNL d   1      27.258 -15.528  -4.657  0.00  0.00     0.019 C 
ATOM     33  C   UNL d   1      27.386 -14.668  -5.764  0.00  0.00     0.025 C 
ATOM     34  C   UNL d   1      27.755 -13.347  -5.553  0.00  0.00     0.034 C 
ATOM     35 CL   UNL d   1      27.783 -12.238  -6.862  0.00  0.00    -0.084 Cl
ATOM     36  C   UNL d   1      28.077 -12.901  -4.276  0.00  0.00     0.025 C 
ATOM     37  C   UNL d   1      28.058 -13.772  -3.202  0.00  0.00     0.019 C 
ENDBRANCH   4  31
TORSDOF 7
ENDMDL
