MODEL 1
REMARK VINA RESULT:   -11.215      0.000      0.000
REMARK INTER + INTRA:         -14.866
REMARK INTER:                 -13.303
REMARK INTRA:                  -1.562
REMARK CONF_INDEPENDENT:        2.088
REMARK UNBOUND:                -1.562
REMARK  7 active torsions:
REMARK  status: ('A' for Active; 'I' for Inactive)
REMARK    1  A    between atoms: O_2  and  C_3 
REMARK    2  A    between atoms: C_6  and  N_7 
REMARK       I    between atoms: N_7  and  C_8 
REMARK       I    between atoms: C_8  and  N_21 
REMARK       I    between atoms: N_9  and  C_10 
REMARK    3  A    between atoms: C_10  and  C_12 
REMARK    4  A    between atoms: C_15  and  N_16 
REMARK    5  A    between atoms: N_21  and  C_22 
REMARK    6  A    between atoms: C_22  and  C_23 
REMARK    7  A    between atoms: C_23  and  C_24 
ROOT
ATOM      1  N   UNL d   1      26.068 -17.558   0.221  0.00  0.00    -0.190 N 
ATOM      2  C   UNL d   1      27.097 -16.643  -0.097  0.00  0.00     0.704 C 
ATOM      3  N   UNL d   1      27.116 -15.627  -0.917  0.00  0.00    -0.023 NA
ATOM      4  C   UNL d   1      26.300 -15.700  -2.015  0.00  0.00     0.293 C 
ATOM      5  O   UNL d   1      26.193 -16.693  -2.700  0.00  0.00    -0.265 OA
ATOM      6  N   UNL d   1      28.322 -16.835   0.562  0.00  0.00    -0.224 N 
ATOM      7  H   UNL d   1      26.347 -18.427   0.653  0.00  0.00     0.184 HD
ATOM      8  H   UNL d   1      28.531 -17.738   0.974  0.00  0.00     0.177 HD
ENDROOT
BRANCH   1   9
ATOM      9  C   UNL d   1      24.713 -17.596  -0.260  0.00  0.00     0.049 C 
ATOM     10  C   UNL d   1      23.884 -16.492  -0.442  0.00  0.00     0.033 C 
ATOM     11  C   UNL d   1      22.475 -16.656  -0.657  0.00  0.00     0.039 C 
ATOM     12  C   UNL d   1      21.861 -17.908  -0.591  0.00  0.00     0.068 C 
ATOM     13  C   UNL d   1      22.691 -18.977  -0.433  0.00  0.00     0.039 C 
ATOM     14  C   UNL d   1      24.074 -18.782  -0.564  0.00  0.00     0.033 C 
BRANCH  12  15
ATOM     15  O   UNL d   1      20.535 -18.034  -0.897  0.00  0.00    -0.356 OA
ATOM     16  C   UNL d   1      19.909 -19.300  -0.659  0.00  0.00     0.210 C 
ENDBRANCH  12  15
ENDBRANCH   1   9
BRANCH   6  17
ATOM     17  C   UNL d   1      29.486 -16.001   0.158  0.00  0.00     0.142 C 
BRANCH  17  18
ATOM     18  C   UNL d   1      29.433 -14.559   0.641  0.00  0.00     0.057 C 
BRANCH  18  19
ATOM     19  C   UNL d   1      29.961 -14.254   2.024  0.00  0.00    -0.048 A 
ATOM     20  C   UNL d   1      29.121 -14.208   3.061  0.00  0.00    -0.006 A 
ATOM     21  C   UNL d   1      27.717 -14.393   3.112  0.00  0.00     0.014 C 
ATOM     22  C   UNL d   1      29.908 -13.838   4.244  0.00  0.00     0.038 A 
ATOM     23  C   UNL d   1      27.079 -14.075   4.241  0.00  0.00     0.001 C 
ATOM     24  C   UNL d   1      27.812 -13.715   5.443  0.00  0.00     0.002 C 
ATOM     25  C   UNL d   1      29.159 -13.609   5.501  0.00  0.00     0.030 C 
ATOM     26  N   UNL d   1      31.153 -13.752   3.963  0.00  0.00    -0.385 N 
ATOM     27  C   UNL d   1      31.358 -13.915   2.482  0.00  0.00     0.155 A 
ATOM     28  H   UNL d   1      31.865 -13.590   4.676  0.00  0.00     0.160 HD
ENDBRANCH  18  19
ENDBRANCH  17  18
ENDBRANCH   6  17
BRANCH   4  29
ATOM     29  C   UNL d   1      25.811 -14.423  -2.600  0.00  0.00     0.035 C 
ATOM     30  C   UNL d   1      25.078 -14.171  -3.775  0.00  0.00     0.019 C 
ATOM     31  C   UNL d   1      25.155 -12.909  -4.388  0.00  0.00     0.030 C 
ATOM     32  C   UNL d   1      25.828 -11.842  -3.780  0.00  0.00     0.029 C 
ATOM     33  C   UNL d   1      26.547 -12.163  -2.618  0.00  0.00     0.030 C 
ATOM     34  C   UNL d   1      26.537 -13.409  -2.034  0.00  0.00     0.019 C 
BRANCH  32  35
ATOM     35  N   UNL d   1      25.827 -10.553  -4.278  0.00  0.00    -0.390 N 
ATOM     36  C   UNL d   1      25.789 -10.246  -5.706  0.00  0.00     0.149 C 
ATOM     37  C   UNL d   1      25.532  -9.413  -3.408  0.00  0.00     0.149 C 
ENDBRANCH  32  35
ENDBRANCH   4  29
TORSDOF 7
ENDMDL
MODEL 2
REMARK VINA RESULT:   -10.053      3.983      8.002
REMARK INTER + INTRA:         -14.026
REMARK INTER:                 -12.141
REMARK INTRA:                  -1.885
REMARK CONF_INDEPENDENT:        2.088
REMARK UNBOUND:                -1.885
REMARK  7 active torsions:
REMARK  status: ('A' for Active; 'I' for Inactive)
REMARK    1  A    between atoms: O_2  and  C_3 
REMARK    2  A    between atoms: C_6  and  N_7 
REMARK       I    between atoms: N_7  and  C_8 
REMARK       I    between atoms: C_8  and  N_21 
REMARK       I    between atoms: N_9  and  C_10 
REMARK    3  A    between atoms: C_10  and  C_12 
REMARK    4  A    between atoms: C_15  and  N_16 
REMARK    5  A    between atoms: N_21  and  C_22 
REMARK    6  A    between atoms: C_22  and  C_23 
REMARK    7  A    between atoms: C_23  and  C_24 
ROOT
ATOM      1  N   UNL d   1      29.656 -14.628   3.476  0.00  0.00    -0.190 N 
ATOM      2  C   UNL d   1      29.073 -14.252   2.245  0.00  0.00     0.704 C 
ATOM      3  N   UNL d   1      28.274 -13.264   1.941  0.00  0.00    -0.023 NA
ATOM      4  C   UNL d   1      27.433 -12.821   2.927  0.00  0.00     0.293 C 
ATOM      5  O   UNL d   1      26.804 -13.563   3.649  0.00  0.00    -0.265 OA
ATOM      6  N   UNL d   1      29.383 -15.061   1.140  0.00  0.00    -0.224 N 
ATOM      7  H   UNL d   1      30.000 -15.574   3.548  0.00  0.00     0.184 HD
ATOM      8  H   UNL d   1      29.727 -16.003   1.291  0.00  0.00     0.177 HD
ENDROOT
BRANCH   1   9
ATOM      9  C   UNL d   1      29.552 -13.984   4.757  0.00  0.00     0.049 C 
ATOM     10  C   UNL d   1      28.790 -14.432   5.833  0.00  0.00     0.033 C 
ATOM     11  C   UNL d   1      28.533 -13.582   6.960  0.00  0.00     0.039 C 
ATOM     12  C   UNL d   1      28.943 -12.248   6.984  0.00  0.00     0.068 C 
ATOM     13  C   UNL d   1      29.704 -11.833   5.932  0.00  0.00     0.039 C 
ATOM     14  C   UNL d   1      30.197 -12.794   5.037  0.00  0.00     0.033 C 
BRANCH  12  15
ATOM     15  O   UNL d   1      28.765 -11.500   8.113  0.00  0.00    -0.356 OA
ATOM     16  C   UNL d   1      28.453 -12.187   9.331  0.00  0.00     0.210 C 
ENDBRANCH  12  15
ENDBRANCH   1   9
BRANCH   6  17
ATOM     17  C   UNL d   1      28.682 -14.807  -0.148  0.00  0.00     0.142 C 
BRANCH  17  18
ATOM     18  C   UNL d   1      27.181 -15.057  -0.114  0.00  0.00     0.057 C 
BRANCH  18  19
ATOM     19  C   UNL d   1      26.701 -16.488  -0.037  0.00  0.00    -0.048 A 
ATOM     20  C   UNL d   1      25.446 -16.788  -0.380  0.00  0.00    -0.006 A 
ATOM     21  C   UNL d   1      24.393 -15.950  -0.825  0.00  0.00     0.014 C 
ATOM     22  C   UNL d   1      25.262 -18.225  -0.148  0.00  0.00     0.038 A 
ATOM     23  C   UNL d   1      23.162 -16.464  -0.891  0.00  0.00     0.001 C 
ATOM     24  C   UNL d   1      22.929 -17.883  -0.684  0.00  0.00     0.002 C 
ATOM     25  C   UNL d   1      23.897 -18.766  -0.349  0.00  0.00     0.030 C 
ATOM     26  N   UNL d   1      26.354 -18.778   0.224  0.00  0.00    -0.385 N 
ATOM     27  C   UNL d   1      27.411 -17.731   0.439  0.00  0.00     0.155 A 
ATOM     28  H   UNL d   1      26.442 -19.788   0.349  0.00  0.00     0.160 HD
ENDBRANCH  18  19
ENDBRANCH  17  18
ENDBRANCH   6  17
BRANCH   4  29
ATOM     29  C   UNL d   1      26.995 -11.400   2.877  0.00  0.00     0.035 C 
ATOM     30  C   UNL d   1      26.612 -10.594   1.788  0.00  0.00     0.019 C 
ATOM     31  C   UNL d   1      26.721  -9.196   1.883  0.00  0.00     0.030 C 
ATOM     32  C   UNL d   1      27.062  -8.571   3.089  0.00  0.00     0.029 C 
ATOM     33  C   UNL d   1      27.443  -9.431   4.130  0.00  0.00     0.030 C 
ATOM     34  C   UNL d   1      27.405 -10.804   4.040  0.00  0.00     0.019 C 
BRANCH  32  35
ATOM     35  N   UNL d   1      27.061  -7.201   3.268  0.00  0.00    -0.390 N 
ATOM     36  C   UNL d   1      27.577  -6.551   4.471  0.00  0.00     0.149 C 
ATOM     37  C   UNL d   1      26.849  -6.297   2.136  0.00  0.00     0.149 C 
ENDBRANCH  32  35
ENDBRANCH   4  29
TORSDOF 7
ENDMDL
MODEL 3
REMARK VINA RESULT:    -9.977      3.955      7.999
REMARK INTER + INTRA:         -13.898
REMARK INTER:                 -12.065
REMARK INTRA:                  -1.833
REMARK CONF_INDEPENDENT:        2.088
REMARK UNBOUND:                -1.833
REMARK  7 active torsions:
REMARK  status: ('A' for Active; 'I' for Inactive)
REMARK    1  A    between atoms: O_2  and  C_3 
REMARK    2  A    between atoms: C_6  and  N_7 
REMARK       I    between atoms: N_7  and  C_8 
REMARK       I    between atoms: C_8  and  N_21 
REMARK       I    between atoms: N_9  and  C_10 
REMARK    3  A    between atoms: C_10  and  C_12 
REMARK    4  A    between atoms: C_15  and  N_16 
REMARK    5  A    between atoms: N_21  and  C_22 
REMARK    6  A    between atoms: C_22  and  C_23 
REMARK    7  A    between atoms: C_23  and  C_24 
ROOT
ATOM      1  N   UNL d   1      29.865 -14.673   3.687  0.00  0.00    -0.190 N 
ATOM      2  C   UNL d   1      29.302 -14.374   2.427  0.00  0.00     0.704 C 
ATOM      3  N   UNL d   1      28.454 -13.449   2.065  0.00  0.00    -0.023 NA
ATOM      4  C   UNL d   1      27.555 -13.028   3.009  0.00  0.00     0.293 C 
ATOM      5  O   UNL d   1      26.949 -13.784   3.735  0.00  0.00    -0.265 OA
ATOM      6  N   UNL d   1      29.697 -15.197   1.360  0.00  0.00    -0.224 N 
ATOM      7  H   UNL d   1      30.265 -15.593   3.802  0.00  0.00     0.184 HD
ATOM      8  H   UNL d   1      30.093 -16.110   1.554  0.00  0.00     0.177 HD
ENDROOT
BRANCH   1   9
ATOM      9  C   UNL d   1      29.679 -13.996   4.942  0.00  0.00     0.049 C 
ATOM     10  C   UNL d   1      28.864 -14.427   5.985  0.00  0.00     0.033 C 
ATOM     11  C   UNL d   1      28.531 -13.551   7.071  0.00  0.00     0.039 C 
ATOM     12  C   UNL d   1      28.921 -12.210   7.081  0.00  0.00     0.068 C 
ATOM     13  C   UNL d   1      29.735 -11.813   6.063  0.00  0.00     0.039 C 
ATOM     14  C   UNL d   1      30.291 -12.790   5.225  0.00  0.00     0.033 C 
BRANCH  12  15
ATOM     15  O   UNL d   1      28.668 -11.434   8.177  0.00  0.00    -0.356 OA
ATOM     16  C   UNL d   1      28.601 -12.079   9.455  0.00  0.00     0.210 C 
ENDBRANCH  12  15
ENDBRANCH   1   9
BRANCH   6  17
ATOM     17  C   UNL d   1      29.025 -15.029   0.043  0.00  0.00     0.142 C 
BRANCH  17  18
ATOM     18  C   UNL d   1      28.186 -16.220  -0.399  0.00  0.00     0.057 C 
BRANCH  18  19
ATOM     19  C   UNL d   1      26.819 -15.948  -0.983  0.00  0.00    -0.048 A 
ATOM     20  C   UNL d   1      25.784 -16.718  -0.639  0.00  0.00    -0.006 A 
ATOM     21  C   UNL d   1      25.723 -17.837   0.228  0.00  0.00     0.014 C 
ATOM     22  C   UNL d   1      24.620 -16.252  -1.402  0.00  0.00     0.038 A 
ATOM     23  C   UNL d   1      24.609 -18.573   0.232  0.00  0.00     0.001 C 
ATOM     24  C   UNL d   1      23.425 -18.148  -0.496  0.00  0.00     0.002 C 
ATOM     25  C   UNL d   1      23.374 -17.041  -1.271  0.00  0.00     0.030 C 
ATOM     26  N   UNL d   1      24.906 -15.214  -2.095  0.00  0.00    -0.385 N 
ATOM     27  C   UNL d   1      26.379 -14.924  -1.999  0.00  0.00     0.155 A 
ATOM     28  H   UNL d   1      24.202 -14.697  -2.622  0.00  0.00     0.160 HD
ENDBRANCH  18  19
ENDBRANCH  17  18
ENDBRANCH   6  17
BRANCH   4  29
ATOM     29  C   UNL d   1      27.032 -11.640   2.896  0.00  0.00     0.035 C 
ATOM     30  C   UNL d   1      26.454 -10.960   1.807  0.00  0.00     0.019 C 
ATOM     31  C   UNL d   1      26.493  -9.556   1.761  0.00  0.00     0.030 C 
ATOM     32  C   UNL d   1      26.963  -8.803   2.844  0.00  0.00     0.029 C 
ATOM     33  C   UNL d   1      27.536  -9.541   3.892  0.00  0.00     0.030 C 
ATOM     34  C   UNL d   1      27.565 -10.917   3.930  0.00  0.00     0.019 C 
BRANCH  32  35
ATOM     35  N   UNL d   1      26.907  -7.424   2.899  0.00  0.00    -0.390 N 
ATOM     36  C   UNL d   1      26.067  -6.620   2.013  0.00  0.00     0.149 C 
ATOM     37  C   UNL d   1      27.427  -6.698   4.060  0.00  0.00     0.149 C 
ENDBRANCH  32  35
ENDBRANCH   4  29
TORSDOF 7
ENDMDL
MODEL 4
REMARK VINA RESULT:    -9.652      2.269      4.278
REMARK INTER + INTRA:         -14.649
REMARK INTER:                 -11.740
REMARK INTRA:                  -2.909
REMARK CONF_INDEPENDENT:        2.088
REMARK UNBOUND:                -2.909
REMARK  7 active torsions:
REMARK  status: ('A' for Active; 'I' for Inactive)
REMARK    1  A    between atoms: O_2  and  C_3 
REMARK    2  A    between atoms: C_6  and  N_7 
REMARK       I    between atoms: N_7  and  C_8 
REMARK       I    between atoms: C_8  and  N_21 
REMARK       I    between atoms: N_9  and  C_10 
REMARK    3  A    between atoms: C_10  and  C_12 
REMARK    4  A    between atoms: C_15  and  N_16 
REMARK    5  A    between atoms: N_21  and  C_22 
REMARK    6  A    between atoms: C_22  and  C_23 
REMARK    7  A    between atoms: C_23  and  C_24 
ROOT
ATOM      1  N   UNL d   1      26.301 -17.155   0.267  0.00  0.00    -0.190 N 
ATOM      2  C   UNL d   1      27.255 -16.177  -0.094  0.00  0.00     0.704 C 
ATOM      3  N   UNL d   1      27.204 -15.216  -0.977  0.00  0.00    -0.023 NA
ATOM      4  C   UNL d   1      26.420 -15.428  -2.079  0.00  0.00     0.293 C 
ATOM      5  O   UNL d   1      26.411 -16.467  -2.701  0.00  0.00    -0.265 OA
ATOM      6  N   UNL d   1      28.478 -16.221   0.594  0.00  0.00    -0.224 N 
ATOM      7  H   UNL d   1      26.644 -17.968   0.757  0.00  0.00     0.184 HD
ATOM      8  H   UNL d   1      28.755 -17.075   1.065  0.00  0.00     0.177 HD
ENDROOT
BRANCH   1   9
ATOM      9  C   UNL d   1      24.965 -17.339  -0.231  0.00  0.00     0.049 C 
ATOM     10  C   UNL d   1      24.046 -16.325  -0.488  0.00  0.00     0.033 C 
ATOM     11  C   UNL d   1      22.661 -16.624  -0.713  0.00  0.00     0.039 C 
ATOM     12  C   UNL d   1      22.158 -17.920  -0.584  0.00  0.00     0.068 C 
ATOM     13  C   UNL d   1      23.075 -18.902  -0.353  0.00  0.00     0.039 C 
ATOM     14  C   UNL d   1      24.437 -18.593  -0.476  0.00  0.00     0.033 C 
BRANCH  12  15
ATOM     15  O   UNL d   1      20.854 -18.180  -0.901  0.00  0.00    -0.356 OA
ATOM     16  C   UNL d   1      20.303 -19.439  -0.497  0.00  0.00     0.210 C 
ENDBRANCH  12  15
ENDBRANCH   1   9
BRANCH   6  17
ATOM     17  C   UNL d   1      29.575 -15.316   0.154  0.00  0.00     0.142 C 
BRANCH  17  18
ATOM     18  C   UNL d   1      30.681 -15.998  -0.639  0.00  0.00     0.057 C 
BRANCH  18  19
ATOM     19  C   UNL d   1      30.366 -16.461  -2.043  0.00  0.00    -0.048 A 
ATOM     20  C   UNL d   1      29.930 -15.584  -2.950  0.00  0.00    -0.006 A 
ATOM     21  C   UNL d   1      29.675 -14.195  -2.833  0.00  0.00     0.014 C 
ATOM     22  C   UNL d   1      29.658 -16.331  -4.184  0.00  0.00     0.038 A 
ATOM     23  C   UNL d   1      29.030 -13.585  -3.831  0.00  0.00     0.001 C 
ATOM     24  C   UNL d   1      28.750 -14.276  -5.078  0.00  0.00     0.002 C 
ATOM     25  C   UNL d   1      29.046 -15.576  -5.302  0.00  0.00     0.030 C 
ATOM     26  N   UNL d   1      29.989 -17.561  -4.063  0.00  0.00    -0.385 N 
ATOM     27  C   UNL d   1      30.405 -17.843  -2.645  0.00  0.00     0.155 A 
ATOM     28  H   UNL d   1      29.954 -18.217  -4.845  0.00  0.00     0.160 HD
ENDBRANCH  18  19
ENDBRANCH  17  18
ENDBRANCH   6  17
BRANCH   4  29
ATOM     29  C   UNL d   1      25.836 -14.236  -2.753  0.00  0.00     0.035 C 
ATOM     30  C   UNL d   1      25.214 -14.102  -4.009  0.00  0.00     0.019 C 
ATOM     31  C   UNL d   1      25.192 -12.850  -4.646  0.00  0.00     0.030 C 
ATOM     32  C   UNL d   1      25.644 -11.694  -3.998  0.00  0.00     0.029 C 
ATOM     33  C   UNL d   1      26.263 -11.898  -2.755  0.00  0.00     0.030 C 
ATOM     34  C   UNL d   1      26.352 -13.126  -2.139  0.00  0.00     0.019 C 
BRANCH  32  35
ATOM     35  N   UNL d   1      25.530 -10.423  -4.530  0.00  0.00    -0.390 N 
ATOM     36  C   UNL d   1      25.536  -9.210  -3.715  0.00  0.00     0.149 C 
ATOM     37  C   UNL d   1      25.729 -10.189  -5.961  0.00  0.00     0.149 C 
ENDBRANCH  32  35
ENDBRANCH   4  29
TORSDOF 7
ENDMDL
MODEL 5
REMARK VINA RESULT:    -9.585      2.235      4.366
REMARK INTER + INTRA:         -14.753
REMARK INTER:                 -11.673
REMARK INTRA:                  -3.080
REMARK CONF_INDEPENDENT:        2.088
REMARK UNBOUND:                -3.080
REMARK  7 active torsions:
REMARK  status: ('A' for Active; 'I' for Inactive)
REMARK    1  A    between atoms: O_2  and  C_3 
REMARK    2  A    between atoms: C_6  and  N_7 
REMARK       I    between atoms: N_7  and  C_8 
REMARK       I    between atoms: C_8  and  N_21 
REMARK       I    between atoms: N_9  and  C_10 
REMARK    3  A    between atoms: C_10  and  C_12 
REMARK    4  A    between atoms: C_15  and  N_16 
REMARK    5  A    between atoms: N_21  and  C_22 
REMARK    6  A    between atoms: C_22  and  C_23 
REMARK    7  A    between atoms: C_23  and  C_24 
ROOT
ATOM      1  N   UNL d   1      26.198 -17.155   0.335  0.00  0.00    -0.190 N 
ATOM      2  C   UNL d   1      27.162 -16.188  -0.028  0.00  0.00     0.704 C 
ATOM      3  N   UNL d   1      27.129 -15.241  -0.926  0.00  0.00    -0.023 NA
ATOM      4  C   UNL d   1      26.358 -15.464  -2.036  0.00  0.00     0.293 C 
ATOM      5  O   UNL d   1      26.352 -16.513  -2.642  0.00  0.00    -0.265 OA
ATOM      6  N   UNL d   1      28.376 -16.229   0.677  0.00  0.00    -0.224 N 
ATOM      7  H   UNL d   1      26.530 -17.963   0.842  0.00  0.00     0.184 HD
ATOM      8  H   UNL d   1      28.642 -17.077   1.165  0.00  0.00     0.177 HD
ENDROOT
BRANCH   1   9
ATOM      9  C   UNL d   1      24.867 -17.339  -0.178  0.00  0.00     0.049 C 
ATOM     10  C   UNL d   1      23.942 -16.327  -0.422  0.00  0.00     0.033 C 
ATOM     11  C   UNL d   1      22.562 -16.632  -0.665  0.00  0.00     0.039 C 
ATOM     12  C   UNL d   1      22.068 -17.934  -0.568  0.00  0.00     0.068 C 
ATOM     13  C   UNL d   1      22.991 -18.912  -0.349  0.00  0.00     0.039 C 
ATOM     14  C   UNL d   1      24.352 -18.591  -0.454  0.00  0.00     0.033 C 
BRANCH  12  15
ATOM     15  O   UNL d   1      20.769 -18.196  -0.901  0.00  0.00    -0.356 OA
ATOM     16  C   UNL d   1      20.239 -19.486  -0.570  0.00  0.00     0.210 C 
ENDBRANCH  12  15
ENDBRANCH   1   9
BRANCH   6  17
ATOM     17  C   UNL d   1      29.484 -15.337   0.238  0.00  0.00     0.142 C 
BRANCH  17  18
ATOM     18  C   UNL d   1      29.927 -15.537  -1.204  0.00  0.00     0.057 C 
BRANCH  18  19
ATOM     19  C   UNL d   1      29.686 -14.410  -2.183  0.00  0.00    -0.048 A 
ATOM     20  C   UNL d   1      29.301 -14.686  -3.431  0.00  0.00    -0.006 A 
ATOM     21  C   UNL d   1      29.073 -15.933  -4.065  0.00  0.00     0.014 C 
ATOM     22  C   UNL d   1      29.205 -13.410  -4.150  0.00  0.00     0.038 A 
ATOM     23  C   UNL d   1      28.909 -15.946  -5.391  0.00  0.00     0.001 C 
ATOM     24  C   UNL d   1      28.794 -14.711  -6.147  0.00  0.00     0.002 C 
ATOM     25  C   UNL d   1      28.907 -13.479  -5.599  0.00  0.00     0.030 C 
ATOM     26  N   UNL d   1      29.428 -12.421  -3.370  0.00  0.00    -0.385 N 
ATOM     27  C   UNL d   1      29.858 -12.921  -2.018  0.00  0.00     0.155 A 
ATOM     28  H   UNL d   1      29.320 -11.451  -3.670  0.00  0.00     0.160 HD
ENDBRANCH  18  19
ENDBRANCH  17  18
ENDBRANCH   6  17
BRANCH   4  29
ATOM     29  C   UNL d   1      25.791 -14.280  -2.735  0.00  0.00     0.035 C 
ATOM     30  C   UNL d   1      25.159 -14.166  -3.988  0.00  0.00     0.019 C 
ATOM     31  C   UNL d   1      25.155 -12.932  -4.658  0.00  0.00     0.030 C 
ATOM     32  C   UNL d   1      25.636 -11.768  -4.046  0.00  0.00     0.029 C 
ATOM     33  C   UNL d   1      26.264 -11.952  -2.804  0.00  0.00     0.030 C 
ATOM     34  C   UNL d   1      26.335 -13.164  -2.156  0.00  0.00     0.019 C 
BRANCH  32  35
ATOM     35  N   UNL d   1      25.541 -10.510  -4.611  0.00  0.00    -0.390 N 
ATOM     36  C   UNL d   1      25.533  -9.278  -3.825  0.00  0.00     0.149 C 
ATOM     37  C   UNL d   1      25.776 -10.311  -6.042  0.00  0.00     0.149 C 
ENDBRANCH  32  35
ENDBRANCH   4  29
TORSDOF 7
ENDMDL
MODEL 6
REMARK VINA RESULT:    -9.509      1.602      2.164
REMARK INTER + INTRA:         -14.148
REMARK INTER:                 -11.597
REMARK INTRA:                  -2.550
REMARK CONF_INDEPENDENT:        2.088
REMARK UNBOUND:                -2.550
REMARK  7 active torsions:
REMARK  status: ('A' for Active; 'I' for Inactive)
REMARK    1  A    between atoms: O_2  and  C_3 
REMARK    2  A    between atoms: C_6  and  N_7 
REMARK       I    between atoms: N_7  and  C_8 
REMARK       I    between atoms: C_8  and  N_21 
REMARK       I    between atoms: N_9  and  C_10 
REMARK    3  A    between atoms: C_10  and  C_12 
REMARK    4  A    between atoms: C_15  and  N_16 
REMARK    5  A    between atoms: N_21  and  C_22 
REMARK    6  A    between atoms: C_22  and  C_23 
REMARK    7  A    between atoms: C_23  and  C_24 
ROOT
ATOM      1  N   UNL d   1      26.018 -17.721   0.028  0.00  0.00    -0.190 N 
ATOM      2  C   UNL d   1      27.058 -16.815  -0.282  0.00  0.00     0.704 C 
ATOM      3  N   UNL d   1      27.071 -15.755  -1.046  0.00  0.00    -0.023 NA
ATOM      4  C   UNL d   1      26.210 -15.747  -2.110  0.00  0.00     0.293 C 
ATOM      5  O   UNL d   1      26.049 -16.697  -2.844  0.00  0.00    -0.265 OA
ATOM      6  N   UNL d   1      28.303 -17.073   0.314  0.00  0.00    -0.224 N 
ATOM      7  H   UNL d   1      26.291 -18.619   0.399  0.00  0.00     0.184 HD
ATOM      8  H   UNL d   1      28.504 -18.003   0.667  0.00  0.00     0.177 HD
ENDROOT
BRANCH   1   9
ATOM      9  C   UNL d   1      24.645 -17.698  -0.398  0.00  0.00     0.049 C 
ATOM     10  C   UNL d   1      23.828 -16.571  -0.451  0.00  0.00     0.033 C 
ATOM     11  C   UNL d   1      22.409 -16.697  -0.620  0.00  0.00     0.039 C 
ATOM     12  C   UNL d   1      21.777 -17.941  -0.636  0.00  0.00     0.068 C 
ATOM     13  C   UNL d   1      22.594 -19.031  -0.603  0.00  0.00     0.039 C 
ATOM     14  C   UNL d   1      23.973 -18.845  -0.775  0.00  0.00     0.033 C 
BRANCH  12  15
ATOM     15  O   UNL d   1      20.438 -18.022  -0.895  0.00  0.00    -0.356 OA
ATOM     16  C   UNL d   1      19.791 -19.285  -0.698  0.00  0.00     0.210 C 
ENDBRANCH  12  15
ENDBRANCH   1   9
BRANCH   6  17
ATOM     17  C   UNL d   1      29.472 -16.247  -0.092  0.00  0.00     0.142 C 
BRANCH  17  18
ATOM     18  C   UNL d   1      29.744 -15.048   0.805  0.00  0.00     0.057 C 
BRANCH  18  19
ATOM     19  C   UNL d   1      29.394 -13.674   0.279  0.00  0.00    -0.048 A 
ATOM     20  C   UNL d   1      28.566 -12.889   0.972  0.00  0.00    -0.006 A 
ATOM     21  C   UNL d   1      27.889 -13.123   2.195  0.00  0.00     0.014 C 
ATOM     22  C   UNL d   1      28.375 -11.660   0.192  0.00  0.00     0.038 A 
ATOM     23  C   UNL d   1      26.940 -12.261   2.567  0.00  0.00     0.001 C 
ATOM     24  C   UNL d   1      26.721 -11.024   1.836  0.00  0.00     0.002 C 
ATOM     25  C   UNL d   1      27.391 -10.683   0.713  0.00  0.00     0.030 C 
ATOM     26  N   UNL d   1      29.106 -11.660  -0.859  0.00  0.00    -0.385 N 
ATOM     27  C   UNL d   1      29.796 -12.989  -1.003  0.00  0.00     0.155 A 
ATOM     28  H   UNL d   1      29.173 -10.853  -1.479  0.00  0.00     0.160 HD
ENDBRANCH  18  19
ENDBRANCH  17  18
ENDBRANCH   6  17
BRANCH   4  29
ATOM     29  C   UNL d   1      25.733 -14.428  -2.605  0.00  0.00     0.035 C 
ATOM     30  C   UNL d   1      25.087 -14.073  -3.804  0.00  0.00     0.019 C 
ATOM     31  C   UNL d   1      25.176 -12.755  -4.281  0.00  0.00     0.030 C 
ATOM     32  C   UNL d   1      25.768 -11.741  -3.518  0.00  0.00     0.029 C 
ATOM     33  C   UNL d   1      26.403 -12.163  -2.340  0.00  0.00     0.030 C 
ATOM     34  C   UNL d   1      26.383 -13.461  -1.884  0.00  0.00     0.019 C 
BRANCH  32  35
ATOM     35  N   UNL d   1      25.770 -10.409  -3.885  0.00  0.00    -0.390 N 
ATOM     36  C   UNL d   1      26.275  -9.342  -3.022  0.00  0.00     0.149 C 
ATOM     37  C   UNL d   1      25.577 -10.015  -5.281  0.00  0.00     0.149 C 
ENDBRANCH  32  35
ENDBRANCH   4  29
TORSDOF 7
ENDMDL
MODEL 7
REMARK VINA RESULT:    -8.550      2.729      4.978
REMARK INTER + INTRA:         -13.435
REMARK INTER:                 -10.638
REMARK INTRA:                  -2.796
REMARK CONF_INDEPENDENT:        2.088
REMARK UNBOUND:                -2.796
REMARK  7 active torsions:
REMARK  status: ('A' for Active; 'I' for Inactive)
REMARK    1  A    between atoms: O_2  and  C_3 
REMARK    2  A    between atoms: C_6  and  N_7 
REMARK       I    between atoms: N_7  and  C_8 
REMARK       I    between atoms: C_8  and  N_21 
REMARK       I    between atoms: N_9  and  C_10 
REMARK    3  A    between atoms: C_10  and  C_12 
REMARK    4  A    between atoms: C_15  and  N_16 
REMARK    5  A    between atoms: N_21  and  C_22 
REMARK    6  A    between atoms: C_22  and  C_23 
REMARK    7  A    between atoms: C_23  and  C_24 
ROOT
ATOM      1  N   UNL d   1      27.691 -16.642   0.695  0.00  0.00    -0.190 N 
ATOM      2  C   UNL d   1      28.583 -15.786   0.011  0.00  0.00     0.704 C 
ATOM      3  N   UNL d   1      28.444 -15.116  -1.102  0.00  0.00    -0.023 NA
ATOM      4  C   UNL d   1      27.606 -15.649  -2.045  0.00  0.00     0.293 C 
ATOM      5  O   UNL d   1      27.604 -16.822  -2.347  0.00  0.00    -0.265 OA
ATOM      6  N   UNL d   1      29.844 -15.606   0.601  0.00  0.00    -0.224 N 
ATOM      7  H   UNL d   1      28.093 -17.275   1.371  0.00  0.00     0.184 HD
ATOM      8  H   UNL d   1      30.181 -16.285   1.275  0.00  0.00     0.177 HD
ENDROOT
BRANCH   1   9
ATOM      9  C   UNL d   1      26.337 -16.989   0.359  0.00  0.00     0.049 C 
ATOM     10  C   UNL d   1      25.774 -18.260   0.456  0.00  0.00     0.033 C 
ATOM     11  C   UNL d   1      24.514 -18.557  -0.160  0.00  0.00     0.039 C 
ATOM     12  C   UNL d   1      23.850 -17.629  -0.964  0.00  0.00     0.068 C 
ATOM     13  C   UNL d   1      24.405 -16.386  -1.031  0.00  0.00     0.039 C 
ATOM     14  C   UNL d   1      25.444 -16.063  -0.146  0.00  0.00     0.033 C 
BRANCH  12  15
ATOM     15  O   UNL d   1      22.607 -17.916  -1.453  0.00  0.00    -0.356 OA
ATOM     16  C   UNL d   1      21.826 -18.902  -0.766  0.00  0.00     0.210 C 
ENDBRANCH  12  15
ENDBRANCH   1   9
BRANCH   6  17
ATOM     17  C   UNL d   1      30.878 -14.840  -0.147  0.00  0.00     0.142 C 
BRANCH  17  18
ATOM     18  C   UNL d   1      31.493 -15.584  -1.323  0.00  0.00     0.057 C 
BRANCH  18  19
ATOM     19  C   UNL d   1      30.951 -15.299  -2.705  0.00  0.00    -0.048 A 
ATOM     20  C   UNL d   1      30.740 -16.306  -3.556  0.00  0.00    -0.006 A 
ATOM     21  C   UNL d   1      30.957 -17.698  -3.401  0.00  0.00     0.014 C 
ATOM     22  C   UNL d   1      30.274 -15.720  -4.819  0.00  0.00     0.038 A 
ATOM     23  C   UNL d   1      30.874 -18.474  -4.485  0.00  0.00     0.001 C 
ATOM     24  C   UNL d   1      30.405 -17.945  -5.755  0.00  0.00     0.002 C 
ATOM     25  C   UNL d   1      30.088 -16.647  -5.959  0.00  0.00     0.030 C 
ATOM     26  N   UNL d   1      30.127 -14.453  -4.714  0.00  0.00    -0.385 N 
ATOM     27  C   UNL d   1      30.627 -13.987  -3.374  0.00  0.00     0.155 A 
ATOM     28  H   UNL d   1      29.727 -13.884  -5.462  0.00  0.00     0.160 HD
ENDBRANCH  18  19
ENDBRANCH  17  18
ENDBRANCH   6  17
BRANCH   4  29
ATOM     29  C   UNL d   1      26.938 -14.710  -2.987  0.00  0.00     0.035 C 
ATOM     30  C   UNL d   1      26.904 -14.689  -4.395  0.00  0.00     0.019 C 
ATOM     31  C   UNL d   1      26.655 -13.481  -5.067  0.00  0.00     0.030 C 
ATOM     32  C   UNL d   1      26.293 -12.320  -4.373  0.00  0.00     0.029 C 
ATOM     33  C   UNL d   1      26.359 -12.406  -2.973  0.00  0.00     0.030 C 
ATOM     34  C   UNL d   1      26.661 -13.563  -2.293  0.00  0.00     0.019 C 
BRANCH  32  35
ATOM     35  N   UNL d   1      25.918 -11.143  -4.992  0.00  0.00    -0.390 N 
ATOM     36  C   UNL d   1      25.924  -9.846  -4.318  0.00  0.00     0.149 C 
ATOM     37  C   UNL d   1      25.809 -11.064  -6.450  0.00  0.00     0.149 C 
ENDBRANCH  32  35
ENDBRANCH   4  29
TORSDOF 7
ENDMDL
MODEL 8
REMARK VINA RESULT:    -8.464      1.928      6.102
REMARK INTER + INTRA:         -13.332
REMARK INTER:                 -10.552
REMARK INTRA:                  -2.780
REMARK CONF_INDEPENDENT:        2.088
REMARK UNBOUND:                -2.780
REMARK  7 active torsions:
REMARK  status: ('A' for Active; 'I' for Inactive)
REMARK    1  A    between atoms: O_2  and  C_3 
REMARK    2  A    between atoms: C_6  and  N_7 
REMARK       I    between atoms: N_7  and  C_8 
REMARK       I    between atoms: C_8  and  N_21 
REMARK       I    between atoms: N_9  and  C_10 
REMARK    3  A    between atoms: C_10  and  C_12 
REMARK    4  A    between atoms: C_15  and  N_16 
REMARK    5  A    between atoms: N_21  and  C_22 
REMARK    6  A    between atoms: C_22  and  C_23 
REMARK    7  A    between atoms: C_23  and  C_24 
ROOT
ATOM      1  N   UNL d   1      27.170 -17.004  -1.578  0.00  0.00    -0.190 N 
ATOM      2  C   UNL d   1      28.211 -16.103  -1.259  0.00  0.00     0.704 C 
ATOM      3  N   UNL d   1      28.294 -15.182  -0.338  0.00  0.00    -0.023 NA
ATOM      4  C   UNL d   1      27.124 -14.585   0.050  0.00  0.00     0.293 C 
ATOM      5  O   UNL d   1      26.275 -14.215  -0.730  0.00  0.00    -0.265 OA
ATOM      6  N   UNL d   1      29.367 -16.186  -2.053  0.00  0.00    -0.224 N 
ATOM      7  H   UNL d   1      27.196 -17.425  -2.496  0.00  0.00     0.184 HD
ATOM      8  H   UNL d   1      29.315 -16.627  -2.965  0.00  0.00     0.177 HD
ENDROOT
BRANCH   1   9
ATOM      9  C   UNL d   1      25.897 -17.177  -0.932  0.00  0.00     0.049 C 
ATOM     10  C   UNL d   1      25.661 -17.947   0.204  0.00  0.00     0.033 C 
ATOM     11  C   UNL d   1      24.324 -18.279   0.605  0.00  0.00     0.039 C 
ATOM     12  C   UNL d   1      23.217 -17.938  -0.174  0.00  0.00     0.068 C 
ATOM     13  C   UNL d   1      23.466 -17.169  -1.271  0.00  0.00     0.039 C 
ATOM     14  C   UNL d   1      24.740 -16.602  -1.420  0.00  0.00     0.033 C 
BRANCH  12  15
ATOM     15  O   UNL d   1      21.955 -18.187   0.289  0.00  0.00    -0.356 OA
ATOM     16  C   UNL d   1      21.156 -19.141  -0.421  0.00  0.00     0.210 C 
ENDBRANCH  12  15
ENDBRANCH   1   9
BRANCH   6  17
ATOM     17  C   UNL d   1      30.434 -15.166  -1.865  0.00  0.00     0.142 C 
BRANCH  17  18
ATOM     18  C   UNL d   1      30.267 -13.909  -2.707  0.00  0.00     0.057 C 
BRANCH  18  19
ATOM     19  C   UNL d   1      28.952 -13.168  -2.625  0.00  0.00    -0.048 A 
ATOM     20  C   UNL d   1      27.886 -13.633  -3.281  0.00  0.00    -0.006 A 
ATOM     21  C   UNL d   1      27.747 -14.769  -4.115  0.00  0.00     0.014 C 
ATOM     22  C   UNL d   1      26.789 -12.682  -3.059  0.00  0.00     0.038 A 
ATOM     23  C   UNL d   1      26.628 -14.892  -4.834  0.00  0.00     0.001 C 
ATOM     24  C   UNL d   1      25.509 -13.985  -4.643  0.00  0.00     0.002 C 
ATOM     25  C   UNL d   1      25.529 -12.932  -3.796  0.00  0.00     0.030 C 
ATOM     26  N   UNL d   1      27.138 -11.752  -2.252  0.00  0.00    -0.385 N 
ATOM     27  C   UNL d   1      28.602 -11.877  -1.929  0.00  0.00     0.155 A 
ATOM     28  H   UNL d   1      26.482 -11.049  -1.911  0.00  0.00     0.160 HD
ENDBRANCH  18  19
ENDBRANCH  17  18
ENDBRANCH   6  17
BRANCH   4  29
ATOM     29  C   UNL d   1      27.049 -14.042   1.433  0.00  0.00     0.035 C 
ATOM     30  C   UNL d   1      26.703 -12.760   1.901  0.00  0.00     0.019 C 
ATOM     31  C   UNL d   1      27.168 -12.326   3.153  0.00  0.00     0.030 C 
ATOM     32  C   UNL d   1      27.847 -13.191   4.019  0.00  0.00     0.029 C 
ATOM     33  C   UNL d   1      28.170 -14.449   3.489  0.00  0.00     0.030 C 
ATOM     34  C   UNL d   1      27.779 -14.874   2.239  0.00  0.00     0.019 C 
BRANCH  32  35
ATOM     35  N   UNL d   1      28.215 -12.851   5.308  0.00  0.00    -0.390 N 
ATOM     36  C   UNL d   1      27.782 -11.620   5.966  0.00  0.00     0.149 C 
ATOM     37  C   UNL d   1      28.785 -13.851   6.213  0.00  0.00     0.149 C 
ENDBRANCH  32  35
ENDBRANCH   4  29
TORSDOF 7
ENDMDL
