MODEL 1
REMARK VINA RESULT:    -7.953      0.000      0.000
REMARK INTER + INTRA:         -14.455
REMARK INTER:                 -11.831
REMARK INTRA:                  -2.624
REMARK CONF_INDEPENDENT:        3.878
REMARK UNBOUND:                -2.624
REMARK  13 active torsions:
REMARK  status: ('A' for Active; 'I' for Inactive)
REMARK    1  A    between atoms: C_2  and  C_3 
REMARK    2  A    between atoms: C_3  and  C_4 
REMARK    3  A    between atoms: C_4  and  N_5 
REMARK       I    between atoms: N_5  and  C_6 
REMARK    4  A    between atoms: C_6  and  C_8 
REMARK    5  A    between atoms: C_8  and  C_9 
REMARK    6  A    between atoms: C_8  and  N_16 
REMARK    7  A    between atoms: C_12  and  O_13 
REMARK    8  A    between atoms: N_16  and  C_17 
REMARK       I    between atoms: N_16  and  C_20 
REMARK    9  A    between atoms: C_17  and  C_18 
REMARK   10  A    between atoms: C_20  and  C_22 
REMARK   11  A    between atoms: C_22  and  O_23 
REMARK   12  A    between atoms: C_22  and  C_24 
REMARK   13  A    between atoms: C_22  and  C_30 
ROOT
ATOM      1  N   UNL d   1      26.769 -15.759  -2.462  0.00  0.00    -0.331 N 
ATOM      2  C   UNL d   1      28.033 -15.558  -3.107  0.00  0.00     0.265 C 
ATOM      3  O   UNL d   1      29.086 -15.638  -2.464  0.00  0.00    -0.269 OA
ENDROOT
BRANCH   1   4
ATOM      4  C   UNL d   1      26.786 -16.154  -0.966  0.00  0.00     0.212 C 
BRANCH   4   5
ATOM      5  C   UNL d   1      27.021 -15.127   0.232  0.00  0.00     0.245 C 
ATOM      6  N   UNL d   1      27.975 -15.196   1.189  0.00  0.00    -0.359 N 
ATOM      7  H   UNL d   1      28.531 -16.025   1.350  0.00  0.00     0.162 HD
ATOM      8  O   UNL d   1      26.345 -14.110   0.462  0.00  0.00    -0.271 OA
BRANCH   6   9
ATOM      9  C   UNL d   1      27.800 -14.137   2.192  0.00  0.00     0.122 C 
BRANCH   9  10
ATOM     10  C   UNL d   1      28.466 -14.450   3.467  0.00  0.00     0.019 C 
BRANCH  10  11
ATOM     11  C   UNL d   1      27.693 -13.816   4.610  0.00  0.00    -0.003 C 
ATOM     12  C   UNL d   1      28.456 -14.138   5.868  0.00  0.00     0.005 C 
ENDBRANCH  10  11
ENDBRANCH   9  10
ENDBRANCH   6   9
ENDBRANCH   4   5
BRANCH   4  13
ATOM     13  C   UNL d   1      25.478 -16.887  -0.665  0.00  0.00    -0.026 A 
ATOM     14  C   UNL d   1      24.263 -16.184  -0.725  0.00  0.00     0.012 A 
ATOM     15  C   UNL d   1      23.053 -16.840  -0.518  0.00  0.00     0.037 A 
ATOM     16  C   UNL d   1      23.061 -18.201  -0.233  0.00  0.00     0.065 A 
ATOM     17  C   UNL d   1      24.254 -18.911  -0.155  0.00  0.00     0.037 A 
ATOM     18  C   UNL d   1      25.467 -18.260  -0.377  0.00  0.00     0.012 A 
BRANCH  16  19
ATOM     19  O   UNL d   1      21.904 -18.889  -0.023  0.00  0.00    -0.361 OA
ATOM     20  H   UNL d   1      22.081 -19.606   0.607  0.00  0.00     0.217 HD
ENDBRANCH  16  19
ENDBRANCH   4  13
ENDBRANCH   1   4
BRANCH   1  21
ATOM     21  C   UNL d   1      25.533 -15.546  -3.241  0.00  0.00     0.127 C 
BRANCH  21  22
ATOM     22  C   UNL d   1      24.957 -14.203  -3.288  0.00  0.00     0.015 C 
ATOM     23  C   UNL d   1      25.530 -12.934  -2.768  0.00  0.00     0.006 C 
ENDBRANCH  21  22
ENDBRANCH   1  21
BRANCH   2  24
ATOM     24  C   UNL d   1      28.050 -15.182  -4.689  0.00  0.00     0.194 C 
BRANCH  24  25
ATOM     25  O   UNL d   1      26.959 -15.801  -5.392  0.00  0.00    -0.371 OA
ATOM     26  H   UNL d   1      26.272 -15.163  -5.579  0.00  0.00     0.212 HD
ENDBRANCH  24  25
BRANCH  24  27
ATOM     27  C   UNL d   1      28.020 -13.643  -4.817  0.00  0.00    -0.010 A 
ATOM     28  C   UNL d   1      28.674 -12.874  -3.825  0.00  0.00     0.011 A 
ATOM     29  C   UNL d   1      28.556 -11.493  -3.789  0.00  0.00     0.001 A 
ATOM     30  C   UNL d   1      27.738 -10.855  -4.713  0.00  0.00     0.000 A 
ATOM     31  C   UNL d   1      27.060 -11.593  -5.685  0.00  0.00     0.001 A 
ATOM     32  C   UNL d   1      27.239 -12.973  -5.776  0.00  0.00     0.011 A 
ENDBRANCH  24  27
BRANCH  24  33
ATOM     33  C   UNL d   1      29.262 -15.790  -5.415  0.00  0.00    -0.010 A 
ATOM     34  C   UNL d   1      29.864 -15.193  -6.539  0.00  0.00     0.011 A 
ATOM     35  C   UNL d   1      30.890 -15.812  -7.235  0.00  0.00     0.001 A 
ATOM     36  C   UNL d   1      31.376 -17.031  -6.793  0.00  0.00     0.000 A 
ATOM     37  C   UNL d   1      30.812 -17.646  -5.678  0.00  0.00     0.001 A 
ATOM     38  C   UNL d   1      29.766 -17.033  -4.992  0.00  0.00     0.011 A 
ENDBRANCH  24  33
ENDBRANCH   2  24
TORSDOF 13
ENDMDL
MODEL 2
REMARK VINA RESULT:    -7.643      2.359      7.006
REMARK INTER + INTRA:         -14.399
REMARK INTER:                 -11.521
REMARK INTRA:                  -2.878
REMARK CONF_INDEPENDENT:        3.878
REMARK UNBOUND:                -2.878
REMARK  13 active torsions:
REMARK  status: ('A' for Active; 'I' for Inactive)
REMARK    1  A    between atoms: C_2  and  C_3 
REMARK    2  A    between atoms: C_3  and  C_4 
REMARK    3  A    between atoms: C_4  and  N_5 
REMARK       I    between atoms: N_5  and  C_6 
REMARK    4  A    between atoms: C_6  and  C_8 
REMARK    5  A    between atoms: C_8  and  C_9 
REMARK    6  A    between atoms: C_8  and  N_16 
REMARK    7  A    between atoms: C_12  and  O_13 
REMARK    8  A    between atoms: N_16  and  C_17 
REMARK       I    between atoms: N_16  and  C_20 
REMARK    9  A    between atoms: C_17  and  C_18 
REMARK   10  A    between atoms: C_20  and  C_22 
REMARK   11  A    between atoms: C_22  and  O_23 
REMARK   12  A    between atoms: C_22  and  C_24 
REMARK   13  A    between atoms: C_22  and  C_30 
ROOT
ATOM      1  N   UNL d   1      28.239 -15.946  -0.554  0.00  0.00    -0.331 N 
ATOM      2  C   UNL d   1      27.863 -15.181   0.598  0.00  0.00     0.265 C 
ATOM      3  O   UNL d   1      26.675 -15.090   0.931  0.00  0.00    -0.269 OA
ENDROOT
BRANCH   1   4
ATOM      4  C   UNL d   1      27.119 -16.707  -1.303  0.00  0.00     0.212 C 
BRANCH   4   5
ATOM      5  C   UNL d   1      25.898 -17.442  -0.586  0.00  0.00     0.245 C 
ATOM      6  N   UNL d   1      24.706 -17.768  -1.137  0.00  0.00    -0.359 N 
ATOM      7  H   UNL d   1      24.396 -17.404  -2.027  0.00  0.00     0.162 HD
ATOM      8  O   UNL d   1      25.868 -17.816   0.599  0.00  0.00    -0.271 OA
BRANCH   6   9
ATOM      9  C   UNL d   1      23.790 -18.326  -0.133  0.00  0.00     0.122 C 
BRANCH   9  10
ATOM     10  C   UNL d   1      22.378 -18.049  -0.440  0.00  0.00     0.019 C 
BRANCH  10  11
ATOM     11  C   UNL d   1      21.568 -19.324  -0.287  0.00  0.00    -0.003 C 
ATOM     12  C   UNL d   1      20.193 -19.021  -0.822  0.00  0.00     0.005 C 
ENDBRANCH  10  11
ENDBRANCH   9  10
ENDBRANCH   6   9
ENDBRANCH   4   5
BRANCH   4  13
ATOM     13  C   UNL d   1      26.514 -15.748  -2.329  0.00  0.00    -0.026 A 
ATOM     14  C   UNL d   1      25.316 -15.079  -2.026  0.00  0.00     0.012 A 
ATOM     15  C   UNL d   1      24.776 -14.154  -2.914  0.00  0.00     0.037 A 
ATOM     16  C   UNL d   1      25.428 -13.911  -4.118  0.00  0.00     0.065 A 
ATOM     17  C   UNL d   1      26.607 -14.573  -4.442  0.00  0.00     0.037 A 
ATOM     18  C   UNL d   1      27.159 -15.489  -3.548  0.00  0.00     0.012 A 
BRANCH  16  19
ATOM     19  O   UNL d   1      24.941 -13.014  -5.021  0.00  0.00    -0.361 OA
ATOM     20  H   UNL d   1      24.780 -12.173  -4.564  0.00  0.00     0.217 HD
ENDBRANCH  16  19
ENDBRANCH   4  13
ENDBRANCH   1   4
BRANCH   1  21
ATOM     21  C   UNL d   1      29.653 -15.939  -0.980  0.00  0.00     0.127 C 
BRANCH  21  22
ATOM     22  C   UNL d   1      30.169 -17.093  -1.716  0.00  0.00     0.015 C 
ATOM     23  C   UNL d   1      30.288 -17.271  -3.186  0.00  0.00     0.006 C 
ENDBRANCH  21  22
ENDBRANCH   1  21
BRANCH   2  24
ATOM     24  C   UNL d   1      29.023 -14.403   1.430  0.00  0.00     0.194 C 
BRANCH  24  25
ATOM     25  O   UNL d   1      30.248 -15.155   1.460  0.00  0.00    -0.371 OA
ATOM     26  H   UNL d   1      30.144 -15.950   1.982  0.00  0.00     0.212 HD
ENDBRANCH  24  25
BRANCH  24  27
ATOM     27  C   UNL d   1      29.217 -13.009   0.794  0.00  0.00    -0.010 A 
ATOM     28  C   UNL d   1      28.089 -12.361   0.237  0.00  0.00     0.011 A 
ATOM     29  C   UNL d   1      28.215 -11.186  -0.486  0.00  0.00     0.001 A 
ATOM     30  C   UNL d   1      29.481 -10.659  -0.713  0.00  0.00     0.000 A 
ATOM     31  C   UNL d   1      30.613 -11.292  -0.197  0.00  0.00     0.001 A 
ATOM     32  C   UNL d   1      30.484 -12.430   0.599  0.00  0.00     0.011 A 
ENDBRANCH  24  27
BRANCH  24  33
ATOM     33  C   UNL d   1      28.691 -14.303   2.929  0.00  0.00    -0.010 A 
ATOM     34  C   UNL d   1      27.404 -14.002   3.413  0.00  0.00     0.011 A 
ATOM     35  C   UNL d   1      27.154 -13.819   4.763  0.00  0.00     0.001 A 
ATOM     36  C   UNL d   1      28.183 -13.979   5.676  0.00  0.00     0.000 A 
ATOM     37  C   UNL d   1      29.468 -14.287   5.234  0.00  0.00     0.001 A 
ATOM     38  C   UNL d   1      29.722 -14.450   3.875  0.00  0.00     0.011 A 
ENDBRANCH  24  33
ENDBRANCH   2  24
TORSDOF 13
ENDMDL
MODEL 3
REMARK VINA RESULT:    -7.555      1.891      4.515
REMARK INTER + INTRA:         -14.248
REMARK INTER:                 -11.433
REMARK INTRA:                  -2.815
REMARK CONF_INDEPENDENT:        3.878
REMARK UNBOUND:                -2.815
REMARK  13 active torsions:
REMARK  status: ('A' for Active; 'I' for Inactive)
REMARK    1  A    between atoms: C_2  and  C_3 
REMARK    2  A    between atoms: C_3  and  C_4 
REMARK    3  A    between atoms: C_4  and  N_5 
REMARK       I    between atoms: N_5  and  C_6 
REMARK    4  A    between atoms: C_6  and  C_8 
REMARK    5  A    between atoms: C_8  and  C_9 
REMARK    6  A    between atoms: C_8  and  N_16 
REMARK    7  A    between atoms: C_12  and  O_13 
REMARK    8  A    between atoms: N_16  and  C_17 
REMARK       I    between atoms: N_16  and  C_20 
REMARK    9  A    between atoms: C_17  and  C_18 
REMARK   10  A    between atoms: C_20  and  C_22 
REMARK   11  A    between atoms: C_22  and  O_23 
REMARK   12  A    between atoms: C_22  and  C_24 
REMARK   13  A    between atoms: C_22  and  C_30 
ROOT
ATOM      1  N   UNL d   1      25.770 -14.956  -3.195  0.00  0.00    -0.331 N 
ATOM      2  C   UNL d   1      27.085 -15.470  -3.440  0.00  0.00     0.265 C 
ATOM      3  O   UNL d   1      27.654 -16.167  -2.592  0.00  0.00    -0.269 OA
ENDROOT
BRANCH   1   4
ATOM      4  C   UNL d   1      25.074 -15.373  -1.878  0.00  0.00     0.212 C 
BRANCH   4   5
ATOM      5  C   UNL d   1      24.352 -16.777  -1.648  0.00  0.00     0.245 C 
ATOM      6  N   UNL d   1      23.556 -17.124  -0.611  0.00  0.00    -0.359 N 
ATOM      7  H   UNL d   1      23.486 -16.574   0.235  0.00  0.00     0.162 HD
ATOM      8  O   UNL d   1      24.430 -17.766  -2.396  0.00  0.00    -0.271 OA
BRANCH   6   9
ATOM      9  C   UNL d   1      23.175 -18.540  -0.682  0.00  0.00     0.122 C 
BRANCH   9  10
ATOM     10  C   UNL d   1      21.854 -18.802  -0.088  0.00  0.00     0.019 C 
BRANCH  10  11
ATOM     11  C   UNL d   1      20.826 -18.968  -1.193  0.00  0.00    -0.003 C 
ATOM     12  C   UNL d   1      19.535 -19.348  -0.517  0.00  0.00     0.005 C 
ENDBRANCH  10  11
ENDBRANCH   9  10
ENDBRANCH   6   9
ENDBRANCH   4   5
BRANCH   4  13
ATOM     13  C   UNL d   1      26.089 -15.210  -0.746  0.00  0.00    -0.026 A 
ATOM     14  C   UNL d   1      26.493 -16.338  -0.013  0.00  0.00     0.012 A 
ATOM     15  C   UNL d   1      27.462 -16.229   0.979  0.00  0.00     0.037 A 
ATOM     16  C   UNL d   1      28.014 -14.983   1.253  0.00  0.00     0.065 A 
ATOM     17  C   UNL d   1      27.617 -13.852   0.549  0.00  0.00     0.037 A 
ATOM     18  C   UNL d   1      26.658 -13.960  -0.457  0.00  0.00     0.012 A 
BRANCH  16  19
ATOM     19  O   UNL d   1      28.967 -14.824   2.215  0.00  0.00    -0.361 OA
ATOM     20  H   UNL d   1      29.631 -15.524   2.111  0.00  0.00     0.217 HD
ENDBRANCH  16  19
ENDBRANCH   4  13
ENDBRANCH   1   4
BRANCH   1  21
ATOM     21  C   UNL d   1      25.171 -14.039  -4.186  0.00  0.00     0.127 C 
BRANCH  21  22
ATOM     22  C   UNL d   1      25.155 -12.606  -3.894  0.00  0.00     0.015 C 
ATOM     23  C   UNL d   1      26.006 -11.850  -2.940  0.00  0.00     0.006 C 
ENDBRANCH  21  22
ENDBRANCH   1  21
BRANCH   2  24
ATOM     24  C   UNL d   1      27.827 -15.083  -4.835  0.00  0.00     0.194 C 
BRANCH  24  25
ATOM     25  O   UNL d   1      27.002 -15.384  -5.974  0.00  0.00    -0.371 OA
ATOM     26  H   UNL d   1      26.241 -15.900  -5.713  0.00  0.00     0.212 HD
ENDBRANCH  24  25
BRANCH  24  27
ATOM     27  C   UNL d   1      28.209 -13.588  -4.776  0.00  0.00    -0.010 A 
ATOM     28  C   UNL d   1      27.919 -12.776  -5.898  0.00  0.00     0.011 A 
ATOM     29  C   UNL d   1      28.371 -11.468  -5.978  0.00  0.00     0.001 A 
ATOM     30  C   UNL d   1      29.168 -10.960  -4.960  0.00  0.00     0.000 A 
ATOM     31  C   UNL d   1      29.491 -11.749  -3.854  0.00  0.00     0.001 A 
ATOM     32  C   UNL d   1      28.971 -13.037  -3.730  0.00  0.00     0.011 A 
ENDBRANCH  24  27
BRANCH  24  33
ATOM     33  C   UNL d   1      29.052 -15.974  -5.104  0.00  0.00    -0.010 A 
ATOM     34  C   UNL d   1      29.654 -16.773  -4.113  0.00  0.00     0.011 A 
ATOM     35  C   UNL d   1      30.817 -17.487  -4.355  0.00  0.00     0.001 A 
ATOM     36  C   UNL d   1      31.385 -17.457  -5.617  0.00  0.00     0.000 A 
ATOM     37  C   UNL d   1      30.812 -16.685  -6.625  0.00  0.00     0.001 A 
ATOM     38  C   UNL d   1      29.655 -15.952  -6.374  0.00  0.00     0.011 A 
ENDBRANCH  24  33
ENDBRANCH   2  24
TORSDOF 13
ENDMDL
MODEL 4
REMARK VINA RESULT:    -7.255      2.753      7.484
REMARK INTER + INTRA:         -14.332
REMARK INTER:                 -11.133
REMARK INTRA:                  -3.199
REMARK CONF_INDEPENDENT:        3.878
REMARK UNBOUND:                -3.199
REMARK  13 active torsions:
REMARK  status: ('A' for Active; 'I' for Inactive)
REMARK    1  A    between atoms: C_2  and  C_3 
REMARK    2  A    between atoms: C_3  and  C_4 
REMARK    3  A    between atoms: C_4  and  N_5 
REMARK       I    between atoms: N_5  and  C_6 
REMARK    4  A    between atoms: C_6  and  C_8 
REMARK    5  A    between atoms: C_8  and  C_9 
REMARK    6  A    between atoms: C_8  and  N_16 
REMARK    7  A    between atoms: C_12  and  O_13 
REMARK    8  A    between atoms: N_16  and  C_17 
REMARK       I    between atoms: N_16  and  C_20 
REMARK    9  A    between atoms: C_17  and  C_18 
REMARK   10  A    between atoms: C_20  and  C_22 
REMARK   11  A    between atoms: C_22  and  O_23 
REMARK   12  A    between atoms: C_22  and  C_24 
REMARK   13  A    between atoms: C_22  and  C_30 
ROOT
ATOM      1  N   UNL d   1      26.157 -13.374  -2.333  0.00  0.00    -0.331 N 
ATOM      2  C   UNL d   1      25.541 -14.664  -2.241  0.00  0.00     0.265 C 
ATOM      3  O   UNL d   1      24.716 -15.028  -3.087  0.00  0.00    -0.269 OA
ENDROOT
BRANCH   1   4
ATOM      4  C   UNL d   1      25.810 -12.504  -3.564  0.00  0.00     0.212 C 
BRANCH   4   5
ATOM      5  C   UNL d   1      25.786 -10.908  -3.558  0.00  0.00     0.245 C 
ATOM      6  N   UNL d   1      25.155 -10.099  -4.441  0.00  0.00    -0.359 N 
ATOM      7  H   UNL d   1      24.780 -10.433  -5.318  0.00  0.00     0.162 HD
ATOM      8  O   UNL d   1      26.359 -10.175  -2.735  0.00  0.00    -0.271 OA
BRANCH   6   9
ATOM      9  C   UNL d   1      25.462  -8.687  -4.182  0.00  0.00     0.122 C 
BRANCH   9  10
ATOM     10  C   UNL d   1      24.915  -7.791  -5.214  0.00  0.00     0.019 C 
BRANCH  10  11
ATOM     11  C   UNL d   1      23.435  -8.077  -5.399  0.00  0.00    -0.003 C 
ATOM     12  C   UNL d   1      22.850  -6.864  -6.073  0.00  0.00     0.005 C 
ENDBRANCH  10  11
ENDBRANCH   9  10
ENDBRANCH   6   9
ENDBRANCH   4   5
BRANCH   4  13
ATOM     13  C   UNL d   1      26.736 -12.924  -4.706  0.00  0.00    -0.026 A 
ATOM     14  C   UNL d   1      27.413 -11.940  -5.445  0.00  0.00     0.012 A 
ATOM     15  C   UNL d   1      28.309 -12.296  -6.447  0.00  0.00     0.037 A 
ATOM     16  C   UNL d   1      28.517 -13.643  -6.723  0.00  0.00     0.065 A 
ATOM     17  C   UNL d   1      27.847 -14.633  -6.011  0.00  0.00     0.037 A 
ATOM     18  C   UNL d   1      26.959 -14.279  -4.996  0.00  0.00     0.012 A 
BRANCH  16  19
ATOM     19  O   UNL d   1      29.386 -14.044  -7.693  0.00  0.00    -0.361 OA
ATOM     20  H   UNL d   1      29.000 -13.832  -8.559  0.00  0.00     0.217 HD
ENDBRANCH  16  19
ENDBRANCH   4  13
ENDBRANCH   1   4
BRANCH   1  21
ATOM     21  C   UNL d   1      27.053 -12.936  -1.244  0.00  0.00     0.127 C 
BRANCH  21  22
ATOM     22  C   UNL d   1      28.473 -12.748  -1.537  0.00  0.00     0.015 C 
ATOM     23  C   UNL d   1      29.243 -13.225  -2.714  0.00  0.00     0.006 C 
ENDBRANCH  21  22
ENDBRANCH   1  21
BRANCH   2  24
ATOM     24  C   UNL d   1      25.917 -15.620  -0.979  0.00  0.00     0.194 C 
BRANCH  24  25
ATOM     25  O   UNL d   1      26.045 -14.865   0.237  0.00  0.00    -0.371 OA
ATOM     26  H   UNL d   1      25.437 -14.127   0.243  0.00  0.00     0.212 HD
ENDBRANCH  24  25
BRANCH  24  27
ATOM     27  C   UNL d   1      24.833 -16.715  -0.868  0.00  0.00    -0.010 A 
ATOM     28  C   UNL d   1      23.474 -16.320  -0.894  0.00  0.00     0.011 A 
ATOM     29  C   UNL d   1      22.455 -17.225  -0.643  0.00  0.00     0.001 A 
ATOM     30  C   UNL d   1      22.775 -18.535  -0.309  0.00  0.00     0.000 A 
ATOM     31  C   UNL d   1      24.109 -18.944  -0.250  0.00  0.00     0.001 A 
ATOM     32  C   UNL d   1      25.134 -18.059  -0.581  0.00  0.00     0.011 A 
ENDBRANCH  24  27
BRANCH  24  33
ATOM     33  C   UNL d   1      27.325 -16.224  -1.112  0.00  0.00    -0.010 A 
ATOM     34  C   UNL d   1      28.091 -16.638  -0.006  0.00  0.00     0.011 A 
ATOM     35  C   UNL d   1      29.396 -17.084  -0.144  0.00  0.00     0.001 A 
ATOM     36  C   UNL d   1      29.956 -17.173  -1.408  0.00  0.00     0.000 A 
ATOM     37  C   UNL d   1      29.224 -16.782  -2.526  0.00  0.00     0.001 A 
ATOM     38  C   UNL d   1      27.920 -16.314  -2.383  0.00  0.00     0.011 A 
ENDBRANCH  24  33
ENDBRANCH   2  24
TORSDOF 13
ENDMDL
MODEL 5
REMARK VINA RESULT:    -7.092      1.852      4.501
REMARK INTER + INTRA:         -14.575
REMARK INTER:                 -10.970
REMARK INTRA:                  -3.605
REMARK CONF_INDEPENDENT:        3.878
REMARK UNBOUND:                -3.605
REMARK  13 active torsions:
REMARK  status: ('A' for Active; 'I' for Inactive)
REMARK    1  A    between atoms: C_2  and  C_3 
REMARK    2  A    between atoms: C_3  and  C_4 
REMARK    3  A    between atoms: C_4  and  N_5 
REMARK       I    between atoms: N_5  and  C_6 
REMARK    4  A    between atoms: C_6  and  C_8 
REMARK    5  A    between atoms: C_8  and  C_9 
REMARK    6  A    between atoms: C_8  and  N_16 
REMARK    7  A    between atoms: C_12  and  O_13 
REMARK    8  A    between atoms: N_16  and  C_17 
REMARK       I    between atoms: N_16  and  C_20 
REMARK    9  A    between atoms: C_17  and  C_18 
REMARK   10  A    between atoms: C_20  and  C_22 
REMARK   11  A    between atoms: C_22  and  O_23 
REMARK   12  A    between atoms: C_22  and  C_24 
REMARK   13  A    between atoms: C_22  and  C_30 
ROOT
ATOM      1  N   UNL d   1      26.799 -14.603  -2.426  0.00  0.00    -0.331 N 
ATOM      2  C   UNL d   1      26.294 -15.236  -3.609  0.00  0.00     0.265 C 
ATOM      3  O   UNL d   1      25.382 -16.069  -3.534  0.00  0.00    -0.269 OA
ENDROOT
BRANCH   1   4
ATOM      4  C   UNL d   1      26.111 -14.944  -1.084  0.00  0.00     0.212 C 
BRANCH   4   5
ATOM      5  C   UNL d   1      25.370 -16.324  -0.778  0.00  0.00     0.245 C 
ATOM      6  N   UNL d   1      24.311 -16.844  -1.439  0.00  0.00    -0.359 N 
ATOM      7  H   UNL d   1      23.755 -16.308  -2.092  0.00  0.00     0.162 HD
ATOM      8  O   UNL d   1      25.662 -17.120   0.130  0.00  0.00    -0.271 OA
BRANCH   6   9
ATOM      9  C   UNL d   1      23.830 -18.071  -0.791  0.00  0.00     0.122 C 
BRANCH   9  10
ATOM     10  C   UNL d   1      22.530 -17.887  -0.125  0.00  0.00     0.019 C 
BRANCH  10  11
ATOM     11  C   UNL d   1      21.454 -18.622  -0.904  0.00  0.00    -0.003 C 
ATOM     12  C   UNL d   1      20.671 -19.421   0.105  0.00  0.00     0.005 C 
ENDBRANCH  10  11
ENDBRANCH   9  10
ENDBRANCH   6   9
ENDBRANCH   4   5
BRANCH   4  13
ATOM     13  C   UNL d   1      27.139 -14.742   0.029  0.00  0.00    -0.026 A 
ATOM     14  C   UNL d   1      26.803 -13.961   1.147  0.00  0.00     0.012 A 
ATOM     15  C   UNL d   1      27.696 -13.812   2.203  0.00  0.00     0.037 A 
ATOM     16  C   UNL d   1      28.938 -14.433   2.132  0.00  0.00     0.065 A 
ATOM     17  C   UNL d   1      29.296 -15.199   1.028  0.00  0.00     0.037 A 
ATOM     18  C   UNL d   1      28.397 -15.362  -0.025  0.00  0.00     0.012 A 
BRANCH  16  19
ATOM     19  O   UNL d   1      29.848 -14.319   3.141  0.00  0.00    -0.361 OA
ATOM     20  H   UNL d   1      30.000 -15.200   3.520  0.00  0.00     0.217 HD
ENDBRANCH  16  19
ENDBRANCH   4  13
ENDBRANCH   1   4
BRANCH   1  21
ATOM     21  C   UNL d   1      27.959 -13.698  -2.548  0.00  0.00     0.127 C 
BRANCH  21  22
ATOM     22  C   UNL d   1      27.840 -12.333  -2.036  0.00  0.00     0.015 C 
ATOM     23  C   UNL d   1      28.922 -11.352  -1.764  0.00  0.00     0.006 C 
ENDBRANCH  21  22
ENDBRANCH   1  21
BRANCH   2  24
ATOM     24  C   UNL d   1      26.970 -14.867  -5.041  0.00  0.00     0.194 C 
BRANCH  24  25
ATOM     25  O   UNL d   1      26.339 -15.575  -6.122  0.00  0.00    -0.371 OA
ATOM     26  H   UNL d   1      25.656 -16.157  -5.792  0.00  0.00     0.212 HD
ENDBRANCH  24  25
BRANCH  24  27
ATOM     27  C   UNL d   1      26.890 -13.336  -5.229  0.00  0.00    -0.010 A 
ATOM     28  C   UNL d   1      28.024 -12.662  -5.742  0.00  0.00     0.011 A 
ATOM     29  C   UNL d   1      28.079 -11.278  -5.789  0.00  0.00     0.001 A 
ATOM     30  C   UNL d   1      27.022 -10.536  -5.276  0.00  0.00     0.000 A 
ATOM     31  C   UNL d   1      25.904 -11.176  -4.740  0.00  0.00     0.001 A 
ATOM     32  C   UNL d   1      25.808 -12.567  -4.764  0.00  0.00     0.011 A 
ENDBRANCH  24  27
BRANCH  24  33
ATOM     33  C   UNL d   1      28.416 -15.379  -5.147  0.00  0.00    -0.010 A 
ATOM     34  C   UNL d   1      29.178 -15.295  -6.328  0.00  0.00     0.011 A 
ATOM     35  C   UNL d   1      30.442 -15.855  -6.425  0.00  0.00     0.001 A 
ATOM     36  C   UNL d   1      30.999 -16.477  -5.322  0.00  0.00     0.000 A 
ATOM     37  C   UNL d   1      30.279 -16.571  -4.134  0.00  0.00     0.001 A 
ATOM     38  C   UNL d   1      29.001 -16.026  -4.043  0.00  0.00     0.011 A 
ENDBRANCH  24  33
ENDBRANCH   2  24
TORSDOF 13
ENDMDL
MODEL 6
REMARK VINA RESULT:    -6.755      3.075      5.811
REMARK INTER + INTRA:         -14.345
REMARK INTER:                 -10.633
REMARK INTRA:                  -3.712
REMARK CONF_INDEPENDENT:        3.878
REMARK UNBOUND:                -3.712
REMARK  13 active torsions:
REMARK  status: ('A' for Active; 'I' for Inactive)
REMARK    1  A    between atoms: C_2  and  C_3 
REMARK    2  A    between atoms: C_3  and  C_4 
REMARK    3  A    between atoms: C_4  and  N_5 
REMARK       I    between atoms: N_5  and  C_6 
REMARK    4  A    between atoms: C_6  and  C_8 
REMARK    5  A    between atoms: C_8  and  C_9 
REMARK    6  A    between atoms: C_8  and  N_16 
REMARK    7  A    between atoms: C_12  and  O_13 
REMARK    8  A    between atoms: N_16  and  C_17 
REMARK       I    between atoms: N_16  and  C_20 
REMARK    9  A    between atoms: C_17  and  C_18 
REMARK   10  A    between atoms: C_20  and  C_22 
REMARK   11  A    between atoms: C_22  and  O_23 
REMARK   12  A    between atoms: C_22  and  C_24 
REMARK   13  A    between atoms: C_22  and  C_30 
ROOT
ATOM      1  N   UNL d   1      27.783 -13.450  -5.508  0.00  0.00    -0.331 N 
ATOM      2  C   UNL d   1      28.287 -14.790  -5.568  0.00  0.00     0.265 C 
ATOM      3  O   UNL d   1      27.553 -15.750  -5.303  0.00  0.00    -0.269 OA
ENDROOT
BRANCH   1   4
ATOM      4  C   UNL d   1      26.283 -13.266  -5.179  0.00  0.00     0.212 C 
BRANCH   4   5
ATOM      5  C   UNL d   1      25.491 -14.117  -4.086  0.00  0.00     0.245 C 
ATOM      6  N   UNL d   1      26.010 -15.019  -3.222  0.00  0.00    -0.359 N 
ATOM      7  H   UNL d   1      26.948 -15.387  -3.311  0.00  0.00     0.162 HD
ATOM      8  O   UNL d   1      24.266 -14.075  -3.879  0.00  0.00    -0.271 OA
BRANCH   6   9
ATOM      9  C   UNL d   1      24.953 -15.689  -2.452  0.00  0.00     0.122 C 
BRANCH   9  10
ATOM     10  C   UNL d   1      25.489 -16.630  -1.456  0.00  0.00     0.019 C 
BRANCH  10  11
ATOM     11  C   UNL d   1      24.387 -17.024  -0.488  0.00  0.00    -0.003 C 
ATOM     12  C   UNL d   1      23.649 -18.170  -1.129  0.00  0.00     0.005 C 
ENDBRANCH  10  11
ENDBRANCH   9  10
ENDBRANCH   6   9
ENDBRANCH   4   5
BRANCH   4  13
ATOM     13  C   UNL d   1      26.061 -11.793  -4.834  0.00  0.00    -0.026 A 
ATOM     14  C   UNL d   1      25.698 -10.893  -5.850  0.00  0.00     0.012 A 
ATOM     15  C   UNL d   1      25.428  -9.561  -5.554  0.00  0.00     0.037 A 
ATOM     16  C   UNL d   1      25.540  -9.123  -4.239  0.00  0.00     0.065 A 
ATOM     17  C   UNL d   1      25.912  -9.995  -3.221  0.00  0.00     0.037 A 
ATOM     18  C   UNL d   1      26.167 -11.334  -3.512  0.00  0.00     0.012 A 
BRANCH  16  19
ATOM     19  O   UNL d   1      25.286  -7.828  -3.897  0.00  0.00    -0.361 OA
ATOM     20  H   UNL d   1      24.394  -7.779  -3.518  0.00  0.00     0.217 HD
ENDBRANCH  16  19
ENDBRANCH   4  13
ENDBRANCH   1   4
BRANCH   1  21
ATOM     21  C   UNL d   1      28.719 -12.330  -5.725  0.00  0.00     0.127 C 
BRANCH  21  22
ATOM     22  C   UNL d   1      28.756 -11.692  -7.041  0.00  0.00     0.015 C 
ATOM     23  C   UNL d   1      28.208 -12.197  -8.326  0.00  0.00     0.006 C 
ENDBRANCH  21  22
ENDBRANCH   1  21
BRANCH   2  24
ATOM     24  C   UNL d   1      29.851 -15.019  -5.952  0.00  0.00     0.194 C 
BRANCH  24  25
ATOM     25  O   UNL d   1      30.151 -14.525  -7.268  0.00  0.00    -0.371 OA
ATOM     26  H   UNL d   1      29.360 -14.491  -7.805  0.00  0.00     0.212 HD
ENDBRANCH  24  25
BRANCH  24  27
ATOM     27  C   UNL d   1      30.715 -14.337  -4.868  0.00  0.00    -0.010 A 
ATOM     28  C   UNL d   1      30.236 -14.325  -3.536  0.00  0.00     0.011 A 
ATOM     29  C   UNL d   1      30.878 -13.599  -2.545  0.00  0.00     0.001 A 
ATOM     30  C   UNL d   1      31.985 -12.826  -2.876  0.00  0.00     0.000 A 
ATOM     31  C   UNL d   1      32.461 -12.799  -4.188  0.00  0.00     0.001 A 
ATOM     32  C   UNL d   1      31.868 -13.591  -5.171  0.00  0.00     0.011 A 
ENDBRANCH  24  27
BRANCH  24  33
ATOM     33  C   UNL d   1      30.198 -16.510  -6.101  0.00  0.00    -0.010 A 
ATOM     34  C   UNL d   1      30.030 -17.446  -5.063  0.00  0.00     0.011 A 
ATOM     35  C   UNL d   1      30.444 -18.762  -5.190  0.00  0.00     0.001 A 
ATOM     36  C   UNL d   1      30.998 -19.191  -6.384  0.00  0.00     0.000 A 
ATOM     37  C   UNL d   1      31.171 -18.295  -7.436  0.00  0.00     0.001 A 
ATOM     38  C   UNL d   1      30.773 -16.968  -7.300  0.00  0.00     0.011 A 
ENDBRANCH  24  33
ENDBRANCH   2  24
TORSDOF 13
ENDMDL
MODEL 7
REMARK VINA RESULT:    -6.693      2.195      5.682
REMARK INTER + INTRA:         -14.272
REMARK INTER:                 -10.570
REMARK INTRA:                  -3.701
REMARK CONF_INDEPENDENT:        3.878
REMARK UNBOUND:                -3.701
REMARK  13 active torsions:
REMARK  status: ('A' for Active; 'I' for Inactive)
REMARK    1  A    between atoms: C_2  and  C_3 
REMARK    2  A    between atoms: C_3  and  C_4 
REMARK    3  A    between atoms: C_4  and  N_5 
REMARK       I    between atoms: N_5  and  C_6 
REMARK    4  A    between atoms: C_6  and  C_8 
REMARK    5  A    between atoms: C_8  and  C_9 
REMARK    6  A    between atoms: C_8  and  N_16 
REMARK    7  A    between atoms: C_12  and  O_13 
REMARK    8  A    between atoms: N_16  and  C_17 
REMARK       I    between atoms: N_16  and  C_20 
REMARK    9  A    between atoms: C_17  and  C_18 
REMARK   10  A    between atoms: C_20  and  C_22 
REMARK   11  A    between atoms: C_22  and  O_23 
REMARK   12  A    between atoms: C_22  and  C_24 
REMARK   13  A    between atoms: C_22  and  C_30 
ROOT
ATOM      1  N   UNL d   1      27.236 -16.066  -0.577  0.00  0.00    -0.331 N 
ATOM      2  C   UNL d   1      28.085 -16.431  -1.671  0.00  0.00     0.265 C 
ATOM      3  O   UNL d   1      27.691 -16.316  -2.838  0.00  0.00    -0.269 OA
ENDROOT
BRANCH   1   4
ATOM      4  C   UNL d   1      25.856 -15.455  -0.917  0.00  0.00     0.212 C 
BRANCH   4   5
ATOM      5  C   UNL d   1      25.518 -14.702  -2.282  0.00  0.00     0.245 C 
ATOM      6  N   UNL d   1      25.452 -15.246  -3.519  0.00  0.00    -0.359 N 
ATOM      7  H   UNL d   1      25.800 -16.172  -3.729  0.00  0.00     0.162 HD
ATOM      8  O   UNL d   1      25.274 -13.489  -2.402  0.00  0.00    -0.271 OA
BRANCH   6   9
ATOM      9  C   UNL d   1      25.235 -14.216  -4.543  0.00  0.00     0.122 C 
BRANCH   9  10
ATOM     10  C   UNL d   1      26.496 -13.680  -5.082  0.00  0.00     0.019 C 
BRANCH  10  11
ATOM     11  C   UNL d   1      27.371 -14.827  -5.557  0.00  0.00    -0.003 C 
ATOM     12  C   UNL d   1      28.510 -14.204  -6.320  0.00  0.00     0.005 C 
ENDBRANCH  10  11
ENDBRANCH   9  10
ENDBRANCH   6   9
ENDBRANCH   4   5
BRANCH   4  13
ATOM     13  C   UNL d   1      24.808 -16.556  -0.752  0.00  0.00    -0.026 A 
ATOM     14  C   UNL d   1      23.453 -16.260  -0.975  0.00  0.00     0.012 A 
ATOM     15  C   UNL d   1      22.486 -17.257  -0.895  0.00  0.00     0.037 A 
ATOM     16  C   UNL d   1      22.875 -18.552  -0.571  0.00  0.00     0.065 A 
ATOM     17  C   UNL d   1      24.209 -18.863  -0.332  0.00  0.00     0.037 A 
ATOM     18  C   UNL d   1      25.182 -17.870  -0.427  0.00  0.00     0.012 A 
BRANCH  16  19
ATOM     19  O   UNL d   1      21.966 -19.564  -0.480  0.00  0.00    -0.361 OA
ATOM     20  H   UNL d   1      22.185 -20.107   0.295  0.00  0.00     0.217 HD
ENDBRANCH  16  19
ENDBRANCH   4  13
ENDBRANCH   1   4
BRANCH   1  21
ATOM     21  C   UNL d   1      27.704 -16.321   0.800  0.00  0.00     0.127 C 
BRANCH  21  22
ATOM     22  C   UNL d   1      27.780 -15.199   1.734  0.00  0.00     0.015 C 
ATOM     23  C   UNL d   1      27.353 -13.792   1.522  0.00  0.00     0.006 C 
ENDBRANCH  21  22
ENDBRANCH   1  21
BRANCH   2  24
ATOM     24  C   UNL d   1      29.559 -17.039  -1.347  0.00  0.00     0.194 C 
BRANCH  24  25
ATOM     25  O   UNL d   1      29.478 -18.212  -0.520  0.00  0.00    -0.371 OA
ATOM     26  H   UNL d   1      30.062 -18.136   0.233  0.00  0.00     0.212 HD
ENDBRANCH  24  25
BRANCH  24  27
ATOM     27  C   UNL d   1      30.266 -17.325  -2.690  0.00  0.00    -0.010 A 
ATOM     28  C   UNL d   1      30.250 -16.320  -3.686  0.00  0.00     0.011 A 
ATOM     29  C   UNL d   1      30.725 -16.564  -4.965  0.00  0.00     0.001 A 
ATOM     30  C   UNL d   1      31.178 -17.836  -5.291  0.00  0.00     0.000 A 
ATOM     31  C   UNL d   1      31.180 -18.853  -4.335  0.00  0.00     0.001 A 
ATOM     32  C   UNL d   1      30.779 -18.591  -3.025  0.00  0.00     0.011 A 
ENDBRANCH  24  27
BRANCH  24  33
ATOM     33  C   UNL d   1      30.388 -16.098  -0.457  0.00  0.00    -0.010 A 
ATOM     34  C   UNL d   1      31.326 -16.559   0.487  0.00  0.00     0.011 A 
ATOM     35  C   UNL d   1      31.986 -15.696   1.347  0.00  0.00     0.001 A 
ATOM     36  C   UNL d   1      31.758 -14.334   1.253  0.00  0.00     0.000 A 
ATOM     37  C   UNL d   1      30.844 -13.839   0.325  0.00  0.00     0.001 A 
ATOM     38  C   UNL d   1      30.166 -14.711  -0.524  0.00  0.00     0.011 A 
ENDBRANCH  24  33
ENDBRANCH   2  24
TORSDOF 13
ENDMDL
MODEL 8
REMARK VINA RESULT:    -6.628      3.031      6.304
REMARK INTER + INTRA:         -14.010
REMARK INTER:                 -10.506
REMARK INTRA:                  -3.504
REMARK CONF_INDEPENDENT:        3.878
REMARK UNBOUND:                -3.504
REMARK  13 active torsions:
REMARK  status: ('A' for Active; 'I' for Inactive)
REMARK    1  A    between atoms: C_2  and  C_3 
REMARK    2  A    between atoms: C_3  and  C_4 
REMARK    3  A    between atoms: C_4  and  N_5 
REMARK       I    between atoms: N_5  and  C_6 
REMARK    4  A    between atoms: C_6  and  C_8 
REMARK    5  A    between atoms: C_8  and  C_9 
REMARK    6  A    between atoms: C_8  and  N_16 
REMARK    7  A    between atoms: C_12  and  O_13 
REMARK    8  A    between atoms: N_16  and  C_17 
REMARK       I    between atoms: N_16  and  C_20 
REMARK    9  A    between atoms: C_17  and  C_18 
REMARK   10  A    between atoms: C_20  and  C_22 
REMARK   11  A    between atoms: C_22  and  O_23 
REMARK   12  A    between atoms: C_22  and  C_24 
REMARK   13  A    between atoms: C_22  and  C_30 
ROOT
ATOM      1  N   UNL d   1      27.825 -13.266  -5.300  0.00  0.00    -0.331 N 
ATOM      2  C   UNL d   1      28.415 -14.547  -5.554  0.00  0.00     0.265 C 
ATOM      3  O   UNL d   1      27.730 -15.575  -5.505  0.00  0.00    -0.269 OA
ENDROOT
BRANCH   1   4
ATOM      4  C   UNL d   1      26.300 -13.221  -5.046  0.00  0.00     0.212 C 
BRANCH   4   5
ATOM      5  C   UNL d   1      25.542 -14.112  -3.959  0.00  0.00     0.245 C 
ATOM      6  N   UNL d   1      26.061 -15.129  -3.234  0.00  0.00    -0.359 N 
ATOM      7  H   UNL d   1      26.953 -15.555  -3.447  0.00  0.00     0.162 HD
ATOM      8  O   UNL d   1      24.349 -13.999  -3.631  0.00  0.00    -0.271 OA
BRANCH   6   9
ATOM      9  C   UNL d   1      25.027 -15.789  -2.427  0.00  0.00     0.122 C 
BRANCH   9  10
ATOM     10  C   UNL d   1      25.562 -16.895  -1.617  0.00  0.00     0.019 C 
BRANCH  10  11
ATOM     11  C   UNL d   1      24.632 -17.160  -0.446  0.00  0.00    -0.003 C 
ATOM     12  C   UNL d   1      23.655 -18.208  -0.910  0.00  0.00     0.005 C 
ENDBRANCH  10  11
ENDBRANCH   9  10
ENDBRANCH   6   9
ENDBRANCH   4   5
BRANCH   4  13
ATOM     13  C   UNL d   1      25.919 -11.767  -4.763  0.00  0.00    -0.026 A 
ATOM     14  C   UNL d   1      25.818 -11.325  -3.434  0.00  0.00     0.012 A 
ATOM     15  C   UNL d   1      25.536  -9.993  -3.148  0.00  0.00     0.037 A 
ATOM     16  C   UNL d   1      25.336  -9.104  -4.198  0.00  0.00     0.065 A 
ATOM     17  C   UNL d   1      25.418  -9.524  -5.521  0.00  0.00     0.037 A 
ATOM     18  C   UNL d   1      25.716 -10.855  -5.810  0.00  0.00     0.012 A 
BRANCH  16  19
ATOM     19  O   UNL d   1      25.058  -7.789  -3.971  0.00  0.00    -0.361 OA
ATOM     20  H   UNL d   1      24.402  -7.730  -3.258  0.00  0.00     0.217 HD
ENDBRANCH  16  19
ENDBRANCH   4  13
ENDBRANCH   1   4
BRANCH   1  21
ATOM     21  C   UNL d   1      28.699 -12.077  -5.259  0.00  0.00     0.127 C 
BRANCH  21  22
ATOM     22  C   UNL d   1      29.055 -11.512  -3.958  0.00  0.00     0.015 C 
ATOM     23  C   UNL d   1      29.089 -12.190  -2.637  0.00  0.00     0.006 C 
ENDBRANCH  21  22
ENDBRANCH   1  21
BRANCH   2  24
ATOM     24  C   UNL d   1      30.010 -14.622  -5.865  0.00  0.00     0.194 C 
BRANCH  24  25
ATOM     25  O   UNL d   1      30.779 -13.943  -4.857  0.00  0.00    -0.371 OA
ATOM     26  H   UNL d   1      30.208 -13.595  -4.174  0.00  0.00     0.212 HD
ENDBRANCH  24  25
BRANCH  24  27
ATOM     27  C   UNL d   1      30.405 -16.111  -5.987  0.00  0.00    -0.010 A 
ATOM     28  C   UNL d   1      30.761 -16.609  -7.262  0.00  0.00     0.011 A 
ATOM     29  C   UNL d   1      30.973 -17.962  -7.474  0.00  0.00     0.001 A 
ATOM     30  C   UNL d   1      30.782 -18.854  -6.425  0.00  0.00     0.000 A 
ATOM     31  C   UNL d   1      30.405 -18.391  -5.164  0.00  0.00     0.001 A 
ATOM     32  C   UNL d   1      30.269 -17.024  -4.925  0.00  0.00     0.011 A 
ENDBRANCH  24  27
BRANCH  24  33
ATOM     33  C   UNL d   1      30.392 -13.827  -7.125  0.00  0.00    -0.010 A 
ATOM     34  C   UNL d   1      31.722 -13.514  -7.463  0.00  0.00     0.011 A 
ATOM     35  C   UNL d   1      32.031 -12.710  -8.549  0.00  0.00     0.001 A 
ATOM     36  C   UNL d   1      31.013 -12.234  -9.357  0.00  0.00     0.000 A 
ATOM     37  C   UNL d   1      29.686 -12.531  -9.059  0.00  0.00     0.001 A 
ATOM     38  C   UNL d   1      29.375 -13.322  -7.955  0.00  0.00     0.011 A 
ENDBRANCH  24  33
ENDBRANCH   2  24
TORSDOF 13
ENDMDL
MODEL 9
REMARK VINA RESULT:    -6.469      2.431      7.322
REMARK INTER + INTRA:         -14.211
REMARK INTER:                 -10.347
REMARK INTRA:                  -3.864
REMARK CONF_INDEPENDENT:        3.878
REMARK UNBOUND:                -3.864
REMARK  13 active torsions:
REMARK  status: ('A' for Active; 'I' for Inactive)
REMARK    1  A    between atoms: C_2  and  C_3 
REMARK    2  A    between atoms: C_3  and  C_4 
REMARK    3  A    between atoms: C_4  and  N_5 
REMARK       I    between atoms: N_5  and  C_6 
REMARK    4  A    between atoms: C_6  and  C_8 
REMARK    5  A    between atoms: C_8  and  C_9 
REMARK    6  A    between atoms: C_8  and  N_16 
REMARK    7  A    between atoms: C_12  and  O_13 
REMARK    8  A    between atoms: N_16  and  C_17 
REMARK       I    between atoms: N_16  and  C_20 
REMARK    9  A    between atoms: C_17  and  C_18 
REMARK   10  A    between atoms: C_20  and  C_22 
REMARK   11  A    between atoms: C_22  and  O_23 
REMARK   12  A    between atoms: C_22  and  C_24 
REMARK   13  A    between atoms: C_22  and  C_30 
ROOT
ATOM      1  N   UNL d   1      28.115 -15.174   0.614  0.00  0.00    -0.331 N 
ATOM      2  C   UNL d   1      27.039 -14.270   0.896  0.00  0.00     0.265 C 
ATOM      3  O   UNL d   1      25.904 -14.488   0.456  0.00  0.00    -0.269 OA
ENDROOT
BRANCH   1   4
ATOM      4  C   UNL d   1      27.780 -16.456  -0.184  0.00  0.00     0.212 C 
BRANCH   4   5
ATOM      5  C   UNL d   1      26.534 -17.406   0.123  0.00  0.00     0.245 C 
ATOM      6  N   UNL d   1      25.227 -17.131  -0.093  0.00  0.00    -0.359 N 
ATOM      7  H   UNL d   1      24.890 -16.202  -0.305  0.00  0.00     0.162 HD
ATOM      8  O   UNL d   1      26.592 -18.544   0.619  0.00  0.00    -0.271 OA
BRANCH   6   9
ATOM      9  C   UNL d   1      24.366 -18.200   0.428  0.00  0.00     0.122 C 
BRANCH   9  10
ATOM     10  C   UNL d   1      23.451 -18.738  -0.592  0.00  0.00     0.019 C 
BRANCH  10  11
ATOM     11  C   UNL d   1      22.146 -17.962  -0.560  0.00  0.00    -0.003 C 
ATOM     12  C   UNL d   1      21.055 -18.954  -0.867  0.00  0.00     0.005 C 
ENDBRANCH  10  11
ENDBRANCH   9  10
ENDBRANCH   6   9
ENDBRANCH   4   5
BRANCH   4  13
ATOM     13  C   UNL d   1      27.686 -16.072  -1.661  0.00  0.00    -0.026 A 
ATOM     14  C   UNL d   1      28.809 -16.231  -2.489  0.00  0.00     0.012 A 
ATOM     15  C   UNL d   1      28.734 -15.950  -3.849  0.00  0.00     0.037 A 
ATOM     16  C   UNL d   1      27.534 -15.489  -4.379  0.00  0.00     0.065 A 
ATOM     17  C   UNL d   1      26.415 -15.311  -3.574  0.00  0.00     0.037 A 
ATOM     18  C   UNL d   1      26.483 -15.608  -2.214  0.00  0.00     0.012 A 
BRANCH  16  19
ATOM     19  O   UNL d   1      27.408 -15.200  -5.705  0.00  0.00    -0.361 OA
ATOM     20  H   UNL d   1      27.107 -14.281  -5.794  0.00  0.00     0.217 HD
ENDBRANCH  16  19
ENDBRANCH   4  13
ENDBRANCH   1   4
BRANCH   1  21
ATOM     21  C   UNL d   1      29.476 -14.820   1.065  0.00  0.00     0.127 C 
BRANCH  21  22
ATOM     22  C   UNL d   1      30.617 -15.285   0.278  0.00  0.00     0.015 C 
ATOM     23  C   UNL d   1      31.167 -16.661   0.173  0.00  0.00     0.006 C 
ENDBRANCH  21  22
ENDBRANCH   1  21
BRANCH   2  24
ATOM     24  C   UNL d   1      27.352 -12.933   1.768  0.00  0.00     0.194 C 
BRANCH  24  25
ATOM     25  O   UNL d   1      26.280 -11.979   1.677  0.00  0.00    -0.371 OA
ATOM     26  H   UNL d   1      25.546 -12.342   1.183  0.00  0.00     0.212 HD
ENDBRANCH  24  25
BRANCH  24  27
ATOM     27  C   UNL d   1      27.619 -13.364   3.227  0.00  0.00    -0.010 A 
ATOM     28  C   UNL d   1      27.780 -12.356   4.207  0.00  0.00     0.011 A 
ATOM     29  C   UNL d   1      28.175 -12.663   5.499  0.00  0.00     0.001 A 
ATOM     30  C   UNL d   1      28.468 -13.981   5.827  0.00  0.00     0.000 A 
ATOM     31  C   UNL d   1      28.343 -14.991   4.871  0.00  0.00     0.001 A 
ATOM     32  C   UNL d   1      27.868 -14.699   3.593  0.00  0.00     0.011 A 
ENDBRANCH  24  27
BRANCH  24  33
ATOM     33  C   UNL d   1      28.526 -12.126   1.188  0.00  0.00    -0.010 A 
ATOM     34  C   UNL d   1      29.678 -11.803   1.931  0.00  0.00     0.011 A 
ATOM     35  C   UNL d   1      30.676 -10.990   1.418  0.00  0.00     0.001 A 
ATOM     36  C   UNL d   1      30.568 -10.513   0.122  0.00  0.00     0.000 A 
ATOM     37  C   UNL d   1      29.448 -10.820  -0.645  0.00  0.00     0.001 A 
ATOM     38  C   UNL d   1      28.436 -11.621  -0.121  0.00  0.00     0.011 A 
ENDBRANCH  24  33
ENDBRANCH   2  24
TORSDOF 13
ENDMDL
