MODEL 1
REMARK VINA RESULT:    -7.781      0.000      0.000
REMARK INTER + INTRA:         -13.492
REMARK INTER:                 -11.063
REMARK INTRA:                  -2.429
REMARK CONF_INDEPENDENT:        3.281
REMARK UNBOUND:                -2.429
REMARK  11 active torsions:
REMARK  status: ('A' for Active; 'I' for Inactive)
REMARK    1  A    between atoms: C_2  and  O_3 
REMARK    2  A    between atoms: O_3  and  C_4 
REMARK    3  A    between atoms: C_7  and  C_8 
REMARK       I    between atoms: C_8  and  N_10 
REMARK    4  A    between atoms: N_10  and  N_11 
REMARK       I    between atoms: N_11  and  C_12 
REMARK    5  A    between atoms: C_14  and  C_12 
REMARK    6  A    between atoms: C_14  and  N_19 
REMARK    7  A    between atoms: C_14  and  C_15 
REMARK    8  A    between atoms: C_15  and  C_16 
REMARK    9  A    between atoms: C_16  and  S_17 
REMARK       I    between atoms: N_19  and  C_20 
REMARK   10  A    between atoms: C_20  and  C_22 
REMARK   11  A    between atoms: C_30  and  O_31 
ROOT
ATOM      1  N   UNL d   1      26.860 -14.657   0.864  0.00  0.00    -0.265 N 
ATOM      2  C   UNL d   1      26.640 -15.829   0.155  0.00  0.00     0.259 C 
ATOM      3  O   UNL d   1      27.150 -16.884   0.542  0.00  0.00    -0.269 OA
ATOM      4  H   UNL d   1      26.342 -13.794   0.729  0.00  0.00     0.190 HD
ENDROOT
BRANCH   2   5
ATOM      5  C   UNL d   1      25.775 -15.699  -1.148  0.00  0.00     0.179 C 
BRANCH   5   6
ATOM      6  N   UNL d   1      26.642 -15.305  -2.281  0.00  0.00    -0.344 N 
ATOM      7  C   UNL d   1      26.113 -14.909  -3.503  0.00  0.00     0.254 C 
ATOM      8  O   UNL d   1      24.925 -14.813  -3.731  0.00  0.00    -0.268 OA
ATOM      9  H   UNL d   1      27.629 -15.521  -2.242  0.00  0.00     0.163 HD
BRANCH   7  10
ATOM     10  C   UNL d   1      27.084 -14.606  -4.595  0.00  0.00     0.053 A 
ATOM     11  C   UNL d   1      28.057 -15.579  -4.898  0.00  0.00     0.019 A 
ATOM     12  C   UNL d   1      29.107 -15.284  -5.777  0.00  0.00     0.001 A 
ATOM     13  C   UNL d   1      29.160 -14.042  -6.404  0.00  0.00     0.002 A 
ATOM     14  C   UNL d   1      28.188 -13.082  -6.124  0.00  0.00     0.025 A 
ATOM     15  C   UNL d   1      27.154 -13.357  -5.219  0.00  0.00     0.049 A 
ATOM     16 CL   UNL d   1      26.030 -12.082  -4.903  0.00  0.00    -0.083 Cl
ENDBRANCH   7  10
ENDBRANCH   5   6
BRANCH   5  17
ATOM     17  C   UNL d   1      25.056 -17.032  -1.466  0.00  0.00     0.045 C 
BRANCH  17  18
ATOM     18  C   UNL d   1      23.697 -17.168  -0.750  0.00  0.00     0.076 C 
BRANCH  18  19
ATOM     19  S   UNL d   1      23.131 -18.897  -0.941  0.00  0.00    -0.173 SA
ATOM     20  C   UNL d   1      21.330 -18.699  -0.851  0.00  0.00     0.089 C 
ENDBRANCH  18  19
ENDBRANCH  17  18
ENDBRANCH   5  17
ENDBRANCH   2   5
BRANCH   1  21
ATOM     21  N   UNL d   1      27.507 -14.761   2.111  0.00  0.00    -0.263 N 
ATOM     22  C   UNL d   1      27.410 -13.704   3.009  0.00  0.00     0.270 C 
ATOM     23  O   UNL d   1      26.706 -12.726   2.777  0.00  0.00    -0.266 OA
ATOM     24  H   UNL d   1      28.081 -15.594   2.221  0.00  0.00     0.190 HD
BRANCH  22  25
ATOM     25  C   UNL d   1      28.239 -13.773   4.263  0.00  0.00     0.036 A 
ATOM     26  C   UNL d   1      29.317 -14.657   4.353  0.00  0.00     0.020 A 
ATOM     27  C   UNL d   1      30.017 -14.819   5.573  0.00  0.00     0.040 A 
ATOM     28  C   UNL d   1      29.718 -14.053   6.725  0.00  0.00     0.102 A 
ATOM     29  C   UNL d   1      28.670 -13.110   6.600  0.00  0.00     0.102 A 
ATOM     30  C   UNL d   1      27.948 -13.006   5.386  0.00  0.00     0.056 A 
BRANCH  28  31
ATOM     31  O   UNL d   1      30.665 -14.200   7.731  0.00  0.00    -0.349 OA
BRANCH  31  32
ATOM     32  C   UNL d   1      30.245 -14.358   9.087  0.00  0.00     0.171 C 
ATOM     33  C   UNL d   1      31.068 -15.307   9.941  0.00  0.00     0.034 C 
ENDBRANCH  31  32
ENDBRANCH  28  31
BRANCH  29  34
ATOM     34  O   UNL d   1      28.178 -12.131   7.433  0.00  0.00    -0.353 OA
ATOM     35  C   UNL d   1      28.927 -10.962   7.514  0.00  0.00     0.210 C 
ENDBRANCH  29  34
ENDBRANCH  22  25
ENDBRANCH   1  21
TORSDOF 11
ENDMDL
MODEL 2
REMARK VINA RESULT:    -7.102      5.842      8.097
REMARK INTER + INTRA:         -13.004
REMARK INTER:                 -10.384
REMARK INTRA:                  -2.620
REMARK CONF_INDEPENDENT:        3.281
REMARK UNBOUND:                -2.620
REMARK  11 active torsions:
REMARK  status: ('A' for Active; 'I' for Inactive)
REMARK    1  A    between atoms: C_2  and  O_3 
REMARK    2  A    between atoms: O_3  and  C_4 
REMARK    3  A    between atoms: C_7  and  C_8 
REMARK       I    between atoms: C_8  and  N_10 
REMARK    4  A    between atoms: N_10  and  N_11 
REMARK       I    between atoms: N_11  and  C_12 
REMARK    5  A    between atoms: C_14  and  C_12 
REMARK    6  A    between atoms: C_14  and  N_19 
REMARK    7  A    between atoms: C_14  and  C_15 
REMARK    8  A    between atoms: C_15  and  C_16 
REMARK    9  A    between atoms: C_16  and  S_17 
REMARK       I    between atoms: N_19  and  C_20 
REMARK   10  A    between atoms: C_20  and  C_22 
REMARK   11  A    between atoms: C_30  and  O_31 
ROOT
ATOM      1  N   UNL d   1      27.445 -14.471  -4.102  0.00  0.00    -0.265 N 
ATOM      2  C   UNL d   1      27.608 -14.644  -5.470  0.00  0.00     0.259 C 
ATOM      3  O   UNL d   1      27.034 -15.574  -6.041  0.00  0.00    -0.269 OA
ATOM      4  H   UNL d   1      27.725 -13.641  -3.587  0.00  0.00     0.190 HD
ENDROOT
BRANCH   2   5
ATOM      5  C   UNL d   1      28.580 -13.640  -6.184  0.00  0.00     0.179 C 
BRANCH   5   6
ATOM      6  N   UNL d   1      29.511 -14.390  -7.057  0.00  0.00    -0.344 N 
ATOM      7  C   UNL d   1      30.513 -15.198  -6.534  0.00  0.00     0.254 C 
ATOM      8  O   UNL d   1      30.683 -15.390  -5.348  0.00  0.00    -0.268 OA
ATOM      9  H   UNL d   1      29.558 -14.156  -8.040  0.00  0.00     0.163 HD
BRANCH   7  10
ATOM     10  C   UNL d   1      31.439 -15.846  -7.509  0.00  0.00     0.053 A 
ATOM     11  C   UNL d   1      31.373 -17.248  -7.646  0.00  0.00     0.019 A 
ATOM     12  C   UNL d   1      32.335 -17.933  -8.399  0.00  0.00     0.001 A 
ATOM     13  C   UNL d   1      33.329 -17.224  -9.067  0.00  0.00     0.002 A 
ATOM     14  C   UNL d   1      33.387 -15.835  -8.952  0.00  0.00     0.025 A 
ATOM     15  C   UNL d   1      32.450 -15.144  -8.171  0.00  0.00     0.049 A 
ATOM     16 CL   UNL d   1      32.641 -13.431  -8.053  0.00  0.00    -0.083 Cl
ENDBRANCH   7  10
ENDBRANCH   5   6
BRANCH   5  17
ATOM     17  C   UNL d   1      27.786 -12.605  -7.017  0.00  0.00     0.045 C 
BRANCH  17  18
ATOM     18  C   UNL d   1      27.713 -11.220  -6.343  0.00  0.00     0.076 C 
BRANCH  18  19
ATOM     19  S   UNL d   1      25.948 -10.770  -6.171  0.00  0.00    -0.173 SA
ATOM     20  C   UNL d   1      25.801 -10.568  -4.374  0.00  0.00     0.089 C 
ENDBRANCH  18  19
ENDBRANCH  17  18
ENDBRANCH   5  17
ENDBRANCH   2   5
BRANCH   1  21
ATOM     21  N   UNL d   1      26.473 -15.258  -3.456  0.00  0.00    -0.263 N 
ATOM     22  C   UNL d   1      26.175 -15.000  -2.123  0.00  0.00     0.270 C 
ATOM     23  O   UNL d   1      26.674 -14.051  -1.525  0.00  0.00    -0.266 OA
ATOM     24  H   UNL d   1      26.116 -16.031  -4.014  0.00  0.00     0.190 HD
BRANCH  22  25
ATOM     25  C   UNL d   1      25.253 -15.954  -1.414  0.00  0.00     0.036 A 
ATOM     26  C   UNL d   1      23.876 -15.914  -1.646  0.00  0.00     0.020 A 
ATOM     27  C   UNL d   1      22.992 -16.718  -0.886  0.00  0.00     0.040 A 
ATOM     28  C   UNL d   1      23.453 -17.646   0.078  0.00  0.00     0.102 A 
ATOM     29  C   UNL d   1      24.855 -17.729   0.252  0.00  0.00     0.102 A 
ATOM     30  C   UNL d   1      25.715 -16.874  -0.480  0.00  0.00     0.056 A 
BRANCH  28  31
ATOM     31  O   UNL d   1      22.450 -18.491   0.536  0.00  0.00    -0.349 OA
BRANCH  31  32
ATOM     32  C   UNL d   1      21.592 -19.149  -0.396  0.00  0.00     0.171 C 
ATOM     33  C   UNL d   1      20.293 -19.707   0.159  0.00  0.00     0.034 C 
ENDBRANCH  31  32
ENDBRANCH  28  31
BRANCH  29  34
ATOM     34  O   UNL d   1      25.667 -18.564   0.986  0.00  0.00    -0.353 OA
ATOM     35  C   UNL d   1      27.007 -18.596   0.617  0.00  0.00     0.210 C 
ENDBRANCH  29  34
ENDBRANCH  22  25
ENDBRANCH   1  21
TORSDOF 11
ENDMDL
MODEL 3
REMARK VINA RESULT:    -7.055      2.439      4.547
REMARK INTER + INTRA:         -13.922
REMARK INTER:                 -10.337
REMARK INTRA:                  -3.585
REMARK CONF_INDEPENDENT:        3.281
REMARK UNBOUND:                -3.585
REMARK  11 active torsions:
REMARK  status: ('A' for Active; 'I' for Inactive)
REMARK    1  A    between atoms: C_2  and  O_3 
REMARK    2  A    between atoms: O_3  and  C_4 
REMARK    3  A    between atoms: C_7  and  C_8 
REMARK       I    between atoms: C_8  and  N_10 
REMARK    4  A    between atoms: N_10  and  N_11 
REMARK       I    between atoms: N_11  and  C_12 
REMARK    5  A    between atoms: C_14  and  C_12 
REMARK    6  A    between atoms: C_14  and  N_19 
REMARK    7  A    between atoms: C_14  and  C_15 
REMARK    8  A    between atoms: C_15  and  C_16 
REMARK    9  A    between atoms: C_16  and  S_17 
REMARK       I    between atoms: N_19  and  C_20 
REMARK   10  A    between atoms: C_20  and  C_22 
REMARK   11  A    between atoms: C_30  and  O_31 
ROOT
ATOM      1  N   UNL d   1      28.140 -14.600   0.952  0.00  0.00    -0.265 N 
ATOM      2  C   UNL d   1      28.984 -15.254   0.065  0.00  0.00     0.259 C 
ATOM      3  O   UNL d   1      30.120 -15.575   0.425  0.00  0.00    -0.269 OA
ATOM      4  H   UNL d   1      27.144 -14.465   0.808  0.00  0.00     0.190 HD
ENDROOT
BRANCH   2   5
ATOM      5  C   UNL d   1      28.421 -15.492  -1.380  0.00  0.00     0.179 C 
BRANCH   5   6
ATOM      6  N   UNL d   1      27.173 -16.283  -1.301  0.00  0.00    -0.344 N 
ATOM      7  C   UNL d   1      26.005 -15.754  -0.765  0.00  0.00     0.254 C 
ATOM      8  O   UNL d   1      25.896 -14.614  -0.364  0.00  0.00    -0.268 OA
ATOM      9  H   UNL d   1      27.215 -17.283  -1.446  0.00  0.00     0.163 HD
BRANCH   7  10
ATOM     10  C   UNL d   1      24.829 -16.667  -0.670  0.00  0.00     0.053 A 
ATOM     11  C   UNL d   1      23.585 -16.188  -1.127  0.00  0.00     0.019 A 
ATOM     12  C   UNL d   1      22.413 -16.920  -0.895  0.00  0.00     0.001 A 
ATOM     13  C   UNL d   1      22.481 -18.157  -0.261  0.00  0.00     0.002 A 
ATOM     14  C   UNL d   1      23.712 -18.646   0.177  0.00  0.00     0.025 A 
ATOM     15  C   UNL d   1      24.885 -17.904  -0.020  0.00  0.00     0.049 A 
ATOM     16 CL   UNL d   1      26.350 -18.575   0.605  0.00  0.00    -0.083 Cl
ENDBRANCH   7  10
ENDBRANCH   5   6
BRANCH   5  17
ATOM     17  C   UNL d   1      28.154 -14.144  -2.094  0.00  0.00     0.045 C 
BRANCH  17  18
ATOM     18  C   UNL d   1      28.124 -14.273  -3.630  0.00  0.00     0.076 C 
BRANCH  18  19
ATOM     19  S   UNL d   1      26.616 -15.201  -4.088  0.00  0.00    -0.173 SA
ATOM     20  C   UNL d   1      25.358 -13.895  -4.028  0.00  0.00     0.089 C 
ENDBRANCH  18  19
ENDBRANCH  17  18
ENDBRANCH   5  17
ENDBRANCH   2   5
BRANCH   1  21
ATOM     21  N   UNL d   1      28.555 -14.500   2.294  0.00  0.00    -0.263 N 
ATOM     22  C   UNL d   1      27.750 -13.817   3.198  0.00  0.00     0.270 C 
ATOM     23  O   UNL d   1      26.651 -13.376   2.874  0.00  0.00    -0.266 OA
ATOM     24  H   UNL d   1      29.482 -14.878   2.479  0.00  0.00     0.190 HD
BRANCH  22  25
ATOM     25  C   UNL d   1      28.291 -13.587   4.583  0.00  0.00     0.036 A 
ATOM     26  C   UNL d   1      28.918 -14.623   5.280  0.00  0.00     0.020 A 
ATOM     27  C   UNL d   1      29.311 -14.450   6.629  0.00  0.00     0.040 A 
ATOM     28  C   UNL d   1      29.162 -13.218   7.309  0.00  0.00     0.102 A 
ATOM     29  C   UNL d   1      28.590 -12.155   6.569  0.00  0.00     0.102 A 
ATOM     30  C   UNL d   1      28.155 -12.368   5.238  0.00  0.00     0.056 A 
BRANCH  28  31
ATOM     31  O   UNL d   1      29.817 -13.195   8.534  0.00  0.00    -0.349 OA
BRANCH  31  32
ATOM     32  C   UNL d   1      29.241 -13.852   9.663  0.00  0.00     0.171 C 
ATOM     33  C   UNL d   1      28.151 -13.095  10.402  0.00  0.00     0.034 C 
ENDBRANCH  31  32
ENDBRANCH  28  31
BRANCH  29  34
ATOM     34  O   UNL d   1      28.395 -10.819   6.835  0.00  0.00    -0.353 OA
ATOM     35  C   UNL d   1      29.425 -10.171   7.509  0.00  0.00     0.210 C 
ENDBRANCH  29  34
ENDBRANCH  22  25
ENDBRANCH   1  21
TORSDOF 11
ENDMDL
MODEL 4
REMARK VINA RESULT:    -6.842      6.147     11.327
REMARK INTER + INTRA:         -12.960
REMARK INTER:                 -10.123
REMARK INTRA:                  -2.836
REMARK CONF_INDEPENDENT:        3.281
REMARK UNBOUND:                -2.836
REMARK  11 active torsions:
REMARK  status: ('A' for Active; 'I' for Inactive)
REMARK    1  A    between atoms: C_2  and  O_3 
REMARK    2  A    between atoms: O_3  and  C_4 
REMARK    3  A    between atoms: C_7  and  C_8 
REMARK       I    between atoms: C_8  and  N_10 
REMARK    4  A    between atoms: N_10  and  N_11 
REMARK       I    between atoms: N_11  and  C_12 
REMARK    5  A    between atoms: C_14  and  C_12 
REMARK    6  A    between atoms: C_14  and  N_19 
REMARK    7  A    between atoms: C_14  and  C_15 
REMARK    8  A    between atoms: C_15  and  C_16 
REMARK    9  A    between atoms: C_16  and  S_17 
REMARK       I    between atoms: N_19  and  C_20 
REMARK   10  A    between atoms: C_20  and  C_22 
REMARK   11  A    between atoms: C_30  and  O_31 
ROOT
ATOM      1  N   UNL d   1      26.421 -12.358  -4.427  0.00  0.00    -0.265 N 
ATOM      2  C   UNL d   1      25.793 -13.588  -4.288  0.00  0.00     0.259 C 
ATOM      3  O   UNL d   1      24.619 -13.720  -4.644  0.00  0.00    -0.269 OA
ATOM      4  H   UNL d   1      27.422 -12.206  -4.335  0.00  0.00     0.190 HD
ENDROOT
BRANCH   2   5
ATOM      5  C   UNL d   1      26.641 -14.728  -3.621  0.00  0.00     0.179 C 
BRANCH   5   6
ATOM      6  N   UNL d   1      25.738 -15.695  -2.960  0.00  0.00    -0.344 N 
ATOM      7  C   UNL d   1      25.484 -15.643  -1.594  0.00  0.00     0.254 C 
ATOM      8  O   UNL d   1      25.936 -14.798  -0.850  0.00  0.00    -0.268 OA
ATOM      9  H   UNL d   1      25.461 -16.529  -3.460  0.00  0.00     0.163 HD
BRANCH   7  10
ATOM     10  C   UNL d   1      24.615 -16.715  -1.025  0.00  0.00     0.053 A 
ATOM     11  C   UNL d   1      23.230 -16.638  -1.271  0.00  0.00     0.019 A 
ATOM     12  C   UNL d   1      22.343 -17.500  -0.615  0.00  0.00     0.001 A 
ATOM     13  C   UNL d   1      22.834 -18.481   0.243  0.00  0.00     0.002 A 
ATOM     14  C   UNL d   1      24.206 -18.575   0.475  0.00  0.00     0.025 A 
ATOM     15  C   UNL d   1      25.098 -17.693  -0.151  0.00  0.00     0.049 A 
ATOM     16 CL   UNL d   1      26.772 -17.861   0.244  0.00  0.00    -0.083 Cl
ENDBRANCH   7  10
ENDBRANCH   5   6
BRANCH   5  17
ATOM     17  C   UNL d   1      27.516 -15.450  -4.675  0.00  0.00     0.045 C 
BRANCH  17  18
ATOM     18  C   UNL d   1      28.716 -14.602  -5.144  0.00  0.00     0.076 C 
BRANCH  18  19
ATOM     19  S   UNL d   1      28.194 -13.658  -6.621  0.00  0.00    -0.173 SA
ATOM     20  C   UNL d   1      29.786 -13.041  -7.235  0.00  0.00     0.089 C 
ENDBRANCH  18  19
ENDBRANCH  17  18
ENDBRANCH   5  17
ENDBRANCH   2   5
BRANCH   1  21
ATOM     21  N   UNL d   1      25.743 -11.358  -5.150  0.00  0.00    -0.263 N 
ATOM     22  C   UNL d   1      26.380 -10.143  -5.376  0.00  0.00     0.270 C 
ATOM     23  O   UNL d   1      27.544  -9.955  -5.038  0.00  0.00    -0.266 OA
ATOM     24  H   UNL d   1      24.779 -11.585  -5.383  0.00  0.00     0.190 HD
BRANCH  22  25
ATOM     25  C   UNL d   1      25.577  -9.039  -6.009  0.00  0.00     0.036 A 
ATOM     26  C   UNL d   1      26.030  -8.409  -7.170  0.00  0.00     0.020 A 
ATOM     27  C   UNL d   1      25.347  -7.285  -7.695  0.00  0.00     0.040 A 
ATOM     28  C   UNL d   1      24.147  -6.795  -7.125  0.00  0.00     0.102 A 
ATOM     29  C   UNL d   1      23.660  -7.487  -5.991  0.00  0.00     0.102 A 
ATOM     30  C   UNL d   1      24.391  -8.574  -5.452  0.00  0.00     0.056 A 
BRANCH  28  31
ATOM     31  O   UNL d   1      23.521  -5.843  -7.921  0.00  0.00    -0.349 OA
BRANCH  31  32
ATOM     32  C   UNL d   1      22.763  -6.254  -9.059  0.00  0.00     0.171 C 
ATOM     33  C   UNL d   1      21.253  -6.252  -8.901  0.00  0.00     0.034 C 
ENDBRANCH  31  32
ENDBRANCH  28  31
BRANCH  29  34
ATOM     34  O   UNL d   1      22.503  -7.389  -5.252  0.00  0.00    -0.353 OA
ATOM     35  C   UNL d   1      21.775  -6.213  -5.405  0.00  0.00     0.210 C 
ENDBRANCH  29  34
ENDBRANCH  22  25
ENDBRANCH   1  21
TORSDOF 11
ENDMDL
MODEL 5
REMARK VINA RESULT:    -6.795      5.670      8.002
REMARK INTER + INTRA:         -13.080
REMARK INTER:                 -10.077
REMARK INTRA:                  -3.003
REMARK CONF_INDEPENDENT:        3.281
REMARK UNBOUND:                -3.003
REMARK  11 active torsions:
REMARK  status: ('A' for Active; 'I' for Inactive)
REMARK    1  A    between atoms: C_2  and  O_3 
REMARK    2  A    between atoms: O_3  and  C_4 
REMARK    3  A    between atoms: C_7  and  C_8 
REMARK       I    between atoms: C_8  and  N_10 
REMARK    4  A    between atoms: N_10  and  N_11 
REMARK       I    between atoms: N_11  and  C_12 
REMARK    5  A    between atoms: C_14  and  C_12 
REMARK    6  A    between atoms: C_14  and  N_19 
REMARK    7  A    between atoms: C_14  and  C_15 
REMARK    8  A    between atoms: C_15  and  C_16 
REMARK    9  A    between atoms: C_16  and  S_17 
REMARK       I    between atoms: N_19  and  C_20 
REMARK   10  A    between atoms: C_20  and  C_22 
REMARK   11  A    between atoms: C_30  and  O_31 
ROOT
ATOM      1  N   UNL d   1      26.976 -14.074  -4.262  0.00  0.00    -0.265 N 
ATOM      2  C   UNL d   1      27.291 -14.292  -5.596  0.00  0.00     0.259 C 
ATOM      3  O   UNL d   1      27.033 -15.380  -6.116  0.00  0.00    -0.269 OA
ATOM      4  H   UNL d   1      26.982 -13.165  -3.807  0.00  0.00     0.190 HD
ENDROOT
BRANCH   2   5
ATOM      5  C   UNL d   1      28.017 -13.114  -6.337  0.00  0.00     0.179 C 
BRANCH   5   6
ATOM      6  N   UNL d   1      27.579 -11.823  -5.763  0.00  0.00    -0.344 N 
ATOM      7  C   UNL d   1      26.267 -11.611  -5.356  0.00  0.00     0.254 C 
ATOM      8  O   UNL d   1      25.397 -12.456  -5.396  0.00  0.00    -0.268 OA
ATOM      9  H   UNL d   1      28.181 -11.015  -5.854  0.00  0.00     0.163 HD
BRANCH   7  10
ATOM     10  C   UNL d   1      25.923 -10.246  -4.862  0.00  0.00     0.053 A 
ATOM     11  C   UNL d   1      25.343  -9.342  -5.774  0.00  0.00     0.019 A 
ATOM     12  C   UNL d   1      25.170  -7.996  -5.428  0.00  0.00     0.001 A 
ATOM     13  C   UNL d   1      25.518  -7.555  -4.154  0.00  0.00     0.002 A 
ATOM     14  C   UNL d   1      26.075  -8.449  -3.240  0.00  0.00     0.025 A 
ATOM     15  C   UNL d   1      26.284  -9.790  -3.590  0.00  0.00     0.049 A 
ATOM     16 CL   UNL d   1      27.027 -10.803  -2.403  0.00  0.00    -0.083 Cl
ENDBRANCH   7  10
ENDBRANCH   5   6
BRANCH   5  17
ATOM     17  C   UNL d   1      29.554 -13.256  -6.220  0.00  0.00     0.045 C 
BRANCH  17  18
ATOM     18  C   UNL d   1      30.055 -14.675  -6.556  0.00  0.00     0.076 C 
BRANCH  18  19
ATOM     19  S   UNL d   1      30.250 -15.590  -4.983  0.00  0.00    -0.173 SA
ATOM     20  C   UNL d   1      30.265 -17.308  -5.566  0.00  0.00     0.089 C 
ENDBRANCH  18  19
ENDBRANCH  17  18
ENDBRANCH   5  17
ENDBRANCH   2   5
BRANCH   1  21
ATOM     21  N   UNL d   1      26.197 -15.049  -3.608  0.00  0.00    -0.263 N 
ATOM     22  C   UNL d   1      25.730 -14.787  -2.325  0.00  0.00     0.270 C 
ATOM     23  O   UNL d   1      25.907 -13.699  -1.787  0.00  0.00    -0.266 OA
ATOM     24  H   UNL d   1      26.108 -15.927  -4.114  0.00  0.00     0.190 HD
BRANCH  22  25
ATOM     25  C   UNL d   1      25.040 -15.904  -1.590  0.00  0.00     0.036 A 
ATOM     26  C   UNL d   1      23.650 -16.036  -1.645  0.00  0.00     0.020 A 
ATOM     27  C   UNL d   1      22.986 -17.003  -0.852  0.00  0.00     0.040 A 
ATOM     28  C   UNL d   1      23.685 -17.922  -0.034  0.00  0.00     0.102 A 
ATOM     29  C   UNL d   1      25.097 -17.825  -0.043  0.00  0.00     0.102 A 
ATOM     30  C   UNL d   1      25.736 -16.813  -0.802  0.00  0.00     0.056 A 
BRANCH  28  31
ATOM     31  O   UNL d   1      22.868 -18.925   0.472  0.00  0.00    -0.349 OA
BRANCH  31  32
ATOM     32  C   UNL d   1      21.690 -19.309  -0.238  0.00  0.00     0.171 C 
ATOM     33  C   UNL d   1      20.523 -19.794   0.604  0.00  0.00     0.034 C 
ENDBRANCH  31  32
ENDBRANCH  28  31
BRANCH  29  34
ATOM     34  O   UNL d   1      26.099 -18.589   0.511  0.00  0.00    -0.353 OA
ATOM     35  C   UNL d   1      27.401 -18.180   0.243  0.00  0.00     0.210 C 
ENDBRANCH  29  34
ENDBRANCH  22  25
ENDBRANCH   1  21
TORSDOF 11
ENDMDL
MODEL 6
REMARK VINA RESULT:    -6.600      6.597     10.069
REMARK INTER + INTRA:         -12.943
REMARK INTER:                  -9.882
REMARK INTRA:                  -3.061
REMARK CONF_INDEPENDENT:        3.281
REMARK UNBOUND:                -3.061
REMARK  11 active torsions:
REMARK  status: ('A' for Active; 'I' for Inactive)
REMARK    1  A    between atoms: C_2  and  O_3 
REMARK    2  A    between atoms: O_3  and  C_4 
REMARK    3  A    between atoms: C_7  and  C_8 
REMARK       I    between atoms: C_8  and  N_10 
REMARK    4  A    between atoms: N_10  and  N_11 
REMARK       I    between atoms: N_11  and  C_12 
REMARK    5  A    between atoms: C_14  and  C_12 
REMARK    6  A    between atoms: C_14  and  N_19 
REMARK    7  A    between atoms: C_14  and  C_15 
REMARK    8  A    between atoms: C_15  and  C_16 
REMARK    9  A    between atoms: C_16  and  S_17 
REMARK       I    between atoms: N_19  and  C_20 
REMARK   10  A    between atoms: C_20  and  C_22 
REMARK   11  A    between atoms: C_30  and  O_31 
ROOT
ATOM      1  N   UNL d   1      26.059 -13.212  -4.276  0.00  0.00    -0.265 N 
ATOM      2  C   UNL d   1      25.161 -14.175  -3.838  0.00  0.00     0.259 C 
ATOM      3  O   UNL d   1      23.951 -13.932  -3.844  0.00  0.00    -0.269 OA
ATOM      4  H   UNL d   1      27.040 -13.386  -4.478  0.00  0.00     0.190 HD
ENDROOT
BRANCH   2   5
ATOM      5  C   UNL d   1      25.784 -15.514  -3.308  0.00  0.00     0.179 C 
BRANCH   5   6
ATOM      6  N   UNL d   1      27.215 -15.577  -3.683  0.00  0.00    -0.344 N 
ATOM      7  C   UNL d   1      27.632 -15.430  -5.000  0.00  0.00     0.254 C 
ATOM      8  O   UNL d   1      26.885 -15.201  -5.929  0.00  0.00    -0.268 OA
ATOM      9  H   UNL d   1      27.883 -15.935  -3.014  0.00  0.00     0.163 HD
BRANCH   7  10
ATOM     10  C   UNL d   1      29.092 -15.585  -5.270  0.00  0.00     0.053 A 
ATOM     11  C   UNL d   1      29.826 -16.449  -4.433  0.00  0.00     0.019 A 
ATOM     12  C   UNL d   1      31.224 -16.496  -4.512  0.00  0.00     0.001 A 
ATOM     13  C   UNL d   1      31.892 -15.729  -5.463  0.00  0.00     0.002 A 
ATOM     14  C   UNL d   1      31.169 -14.886  -6.307  0.00  0.00     0.025 A 
ATOM     15  C   UNL d   1      29.773 -14.807  -6.211  0.00  0.00     0.049 A 
ATOM     16 CL   UNL d   1      28.977 -13.695  -7.267  0.00  0.00    -0.083 Cl
ENDBRANCH   7  10
ENDBRANCH   5   6
BRANCH   5  17
ATOM     17  C   UNL d   1      25.631 -15.621  -1.771  0.00  0.00     0.045 C 
BRANCH  17  18
ATOM     18  C   UNL d   1      24.305 -16.281  -1.343  0.00  0.00     0.076 C 
BRANCH  18  19
ATOM     19  S   UNL d   1      24.699 -17.902  -0.593  0.00  0.00    -0.173 SA
ATOM     20  C   UNL d   1      23.066 -18.439  -0.016  0.00  0.00     0.089 C 
ENDBRANCH  18  19
ENDBRANCH  17  18
ENDBRANCH   5  17
ENDBRANCH   2   5
BRANCH   1  21
ATOM     21  N   UNL d   1      25.532 -12.061  -4.891  0.00  0.00    -0.263 N 
ATOM     22  C   UNL d   1      26.400 -11.177  -5.522  0.00  0.00     0.270 C 
ATOM     23  O   UNL d   1      27.599 -11.421  -5.630  0.00  0.00    -0.266 OA
ATOM     24  H   UNL d   1      24.534 -11.923  -4.746  0.00  0.00     0.190 HD
BRANCH  22  25
ATOM     25  C   UNL d   1      25.833  -9.880  -6.030  0.00  0.00     0.036 A 
ATOM     26  C   UNL d   1      26.384  -9.255  -7.151  0.00  0.00     0.020 A 
ATOM     27  C   UNL d   1      25.940  -7.972  -7.554  0.00  0.00     0.040 A 
ATOM     28  C   UNL d   1      24.880  -7.298  -6.900  0.00  0.00     0.102 A 
ATOM     29  C   UNL d   1      24.282  -7.974  -5.810  0.00  0.00     0.102 A 
ATOM     30  C   UNL d   1      24.781  -9.232  -5.392  0.00  0.00     0.056 A 
BRANCH  28  31
ATOM     31  O   UNL d   1      24.451  -6.171  -7.589  0.00  0.00    -0.349 OA
BRANCH  31  32
ATOM     32  C   UNL d   1      23.789  -6.314  -8.847  0.00  0.00     0.171 C 
ATOM     33  C   UNL d   1      22.356  -5.818  -8.916  0.00  0.00     0.034 C 
ENDBRANCH  31  32
ENDBRANCH  28  31
BRANCH  29  34
ATOM     34  O   UNL d   1      23.186  -7.706  -5.021  0.00  0.00    -0.353 OA
ATOM     35  C   UNL d   1      22.391  -6.637  -5.420  0.00  0.00     0.210 C 
ENDBRANCH  29  34
ENDBRANCH  22  25
ENDBRANCH   1  21
TORSDOF 11
ENDMDL
MODEL 7
REMARK VINA RESULT:    -6.447      2.701      4.744
REMARK INTER + INTRA:         -13.017
REMARK INTER:                  -9.728
REMARK INTRA:                  -3.288
REMARK CONF_INDEPENDENT:        3.281
REMARK UNBOUND:                -3.288
REMARK  11 active torsions:
REMARK  status: ('A' for Active; 'I' for Inactive)
REMARK    1  A    between atoms: C_2  and  O_3 
REMARK    2  A    between atoms: O_3  and  C_4 
REMARK    3  A    between atoms: C_7  and  C_8 
REMARK       I    between atoms: C_8  and  N_10 
REMARK    4  A    between atoms: N_10  and  N_11 
REMARK       I    between atoms: N_11  and  C_12 
REMARK    5  A    between atoms: C_14  and  C_12 
REMARK    6  A    between atoms: C_14  and  N_19 
REMARK    7  A    between atoms: C_14  and  C_15 
REMARK    8  A    between atoms: C_15  and  C_16 
REMARK    9  A    between atoms: C_16  and  S_17 
REMARK       I    between atoms: N_19  and  C_20 
REMARK   10  A    between atoms: C_20  and  C_22 
REMARK   11  A    between atoms: C_30  and  O_31 
ROOT
ATOM      1  N   UNL d   1      27.008 -13.460   0.834  0.00  0.00    -0.265 N 
ATOM      2  C   UNL d   1      27.049 -12.642  -0.286  0.00  0.00     0.259 C 
ATOM      3  O   UNL d   1      27.304 -11.441  -0.158  0.00  0.00    -0.269 OA
ATOM      4  H   UNL d   1      26.989 -14.476   0.808  0.00  0.00     0.190 HD
ENDROOT
BRANCH   2   5
ATOM      5  C   UNL d   1      26.705 -13.325  -1.656  0.00  0.00     0.179 C 
BRANCH   5   6
ATOM      6  N   UNL d   1      25.695 -14.386  -1.441  0.00  0.00    -0.344 N 
ATOM      7  C   UNL d   1      26.036 -15.621  -0.903  0.00  0.00     0.254 C 
ATOM      8  O   UNL d   1      27.153 -15.918  -0.534  0.00  0.00    -0.268 OA
ATOM      9  H   UNL d   1      24.787 -14.295  -1.876  0.00  0.00     0.163 HD
BRANCH   7  10
ATOM     10  C   UNL d   1      24.949 -16.638  -0.801  0.00  0.00     0.053 A 
ATOM     11  C   UNL d   1      23.642 -16.240  -1.145  0.00  0.00     0.019 A 
ATOM     12  C   UNL d   1      22.553 -17.085  -0.894  0.00  0.00     0.001 A 
ATOM     13  C   UNL d   1      22.766 -18.351  -0.356  0.00  0.00     0.002 A 
ATOM     14  C   UNL d   1      24.060 -18.759  -0.032  0.00  0.00     0.025 A 
ATOM     15  C   UNL d   1      25.151 -17.906  -0.247  0.00  0.00     0.049 A 
ATOM     16 CL   UNL d   1      26.705 -18.486   0.236  0.00  0.00    -0.083 Cl
ENDBRANCH   7  10
ENDBRANCH   5   6
BRANCH   5  17
ATOM     17  C   UNL d   1      26.176 -12.284  -2.672  0.00  0.00     0.045 C 
BRANCH  17  18
ATOM     18  C   UNL d   1      26.201 -12.795  -4.126  0.00  0.00     0.076 C 
BRANCH  18  19
ATOM     19  S   UNL d   1      24.905 -14.076  -4.295  0.00  0.00    -0.173 SA
ATOM     20  C   UNL d   1      25.903 -15.566  -4.564  0.00  0.00     0.089 C 
ENDBRANCH  18  19
ENDBRANCH  17  18
ENDBRANCH   5  17
ENDBRANCH   2   5
BRANCH   1  21
ATOM     21  N   UNL d   1      27.451 -12.916   2.055  0.00  0.00    -0.263 N 
ATOM     22  C   UNL d   1      27.783 -13.778   3.095  0.00  0.00     0.270 C 
ATOM     23  O   UNL d   1      27.782 -14.996   2.944  0.00  0.00    -0.266 OA
ATOM     24  H   UNL d   1      27.410 -11.901   2.105  0.00  0.00     0.190 HD
BRANCH  22  25
ATOM     25  C   UNL d   1      28.098 -13.170   4.434  0.00  0.00     0.036 A 
ATOM     26  C   UNL d   1      28.271 -13.982   5.558  0.00  0.00     0.020 A 
ATOM     27  C   UNL d   1      28.437 -13.410   6.843  0.00  0.00     0.040 A 
ATOM     28  C   UNL d   1      28.512 -12.011   7.045  0.00  0.00     0.102 A 
ATOM     29  C   UNL d   1      28.407 -11.201   5.888  0.00  0.00     0.102 A 
ATOM     30  C   UNL d   1      28.186 -11.795   4.622  0.00  0.00     0.056 A 
BRANCH  28  31
ATOM     31  O   UNL d   1      28.907 -11.672   8.333  0.00  0.00    -0.349 OA
BRANCH  31  32
ATOM     32  C   UNL d   1      28.533 -12.500   9.434  0.00  0.00     0.171 C 
ATOM     33  C   UNL d   1      29.222 -12.217  10.757  0.00  0.00     0.034 C 
ENDBRANCH  31  32
ENDBRANCH  28  31
BRANCH  29  34
ATOM     34  O   UNL d   1      28.545  -9.850   5.668  0.00  0.00    -0.353 OA
ATOM     35  C   UNL d   1      29.159  -9.123   6.682  0.00  0.00     0.210 C 
ENDBRANCH  29  34
ENDBRANCH  22  25
ENDBRANCH   1  21
TORSDOF 11
ENDMDL
MODEL 8
REMARK VINA RESULT:    -6.090      5.140     10.963
REMARK INTER + INTRA:         -12.958
REMARK INTER:                  -9.371
REMARK INTRA:                  -3.587
REMARK CONF_INDEPENDENT:        3.281
REMARK UNBOUND:                -3.587
REMARK  11 active torsions:
REMARK  status: ('A' for Active; 'I' for Inactive)
REMARK    1  A    between atoms: C_2  and  O_3 
REMARK    2  A    between atoms: O_3  and  C_4 
REMARK    3  A    between atoms: C_7  and  C_8 
REMARK       I    between atoms: C_8  and  N_10 
REMARK    4  A    between atoms: N_10  and  N_11 
REMARK       I    between atoms: N_11  and  C_12 
REMARK    5  A    between atoms: C_14  and  C_12 
REMARK    6  A    between atoms: C_14  and  N_19 
REMARK    7  A    between atoms: C_14  and  C_15 
REMARK    8  A    between atoms: C_15  and  C_16 
REMARK    9  A    between atoms: C_16  and  S_17 
REMARK       I    between atoms: N_19  and  C_20 
REMARK   10  A    between atoms: C_20  and  C_22 
REMARK   11  A    between atoms: C_30  and  O_31 
ROOT
ATOM      1  N   UNL d   1      28.371 -15.424  -4.485  0.00  0.00    -0.265 N 
ATOM      2  C   UNL d   1      27.101 -14.940  -4.768  0.00  0.00     0.259 C 
ATOM      3  O   UNL d   1      26.589 -15.170  -5.866  0.00  0.00    -0.269 OA
ATOM      4  H   UNL d   1      28.790 -15.442  -3.560  0.00  0.00     0.190 HD
ENDROOT
BRANCH   2   5
ATOM      5  C   UNL d   1      26.427 -14.070  -3.649  0.00  0.00     0.179 C 
BRANCH   5   6
ATOM      6  N   UNL d   1      25.625 -14.941  -2.761  0.00  0.00    -0.344 N 
ATOM      7  C   UNL d   1      26.170 -16.067  -2.154  0.00  0.00     0.254 C 
ATOM      8  O   UNL d   1      27.331 -16.403  -2.263  0.00  0.00    -0.268 OA
ATOM      9  H   UNL d   1      24.619 -14.842  -2.753  0.00  0.00     0.163 HD
BRANCH   7  10
ATOM     10  C   UNL d   1      25.248 -16.911  -1.340  0.00  0.00     0.053 A 
ATOM     11  C   UNL d   1      23.873 -16.866  -1.645  0.00  0.00     0.019 A 
ATOM     12  C   UNL d   1      22.938 -17.484  -0.805  0.00  0.00     0.001 A 
ATOM     13  C   UNL d   1      23.371 -18.200   0.308  0.00  0.00     0.002 A 
ATOM     14  C   UNL d   1      24.732 -18.265   0.605  0.00  0.00     0.025 A 
ATOM     15  C   UNL d   1      25.672 -17.619  -0.211  0.00  0.00     0.049 A 
ATOM     16 CL   UNL d   1      27.328 -17.718   0.272  0.00  0.00    -0.083 Cl
ENDBRANCH   7  10
ENDBRANCH   5   6
BRANCH   5  17
ATOM     17  C   UNL d   1      27.494 -13.309  -2.826  0.00  0.00     0.045 C 
BRANCH  17  18
ATOM     18  C   UNL d   1      27.024 -12.969  -1.398  0.00  0.00     0.076 C 
BRANCH  18  19
ATOM     19  S   UNL d   1      28.148 -13.804  -0.221  0.00  0.00    -0.173 SA
ATOM     20  C   UNL d   1      27.030 -14.143   1.167  0.00  0.00     0.089 C 
ENDBRANCH  18  19
ENDBRANCH  17  18
ENDBRANCH   5  17
ENDBRANCH   2   5
BRANCH   1  21
ATOM     21  N   UNL d   1      28.944 -16.325  -5.403  0.00  0.00    -0.263 N 
ATOM     22  C   UNL d   1      30.030 -17.095  -5.002  0.00  0.00     0.270 C 
ATOM     23  O   UNL d   1      30.443 -17.070  -3.846  0.00  0.00    -0.266 OA
ATOM     24  H   UNL d   1      28.555 -16.276  -6.342  0.00  0.00     0.190 HD
BRANCH  22  25
ATOM     25  C   UNL d   1      30.722 -17.928  -6.046  0.00  0.00     0.036 A 
ATOM     26  C   UNL d   1      30.742 -19.321  -5.943  0.00  0.00     0.020 A 
ATOM     27  C   UNL d   1      31.501 -20.101  -6.849  0.00  0.00     0.040 A 
ATOM     28  C   UNL d   1      32.205 -19.528  -7.935  0.00  0.00     0.102 A 
ATOM     29  C   UNL d   1      32.118 -18.122  -8.071  0.00  0.00     0.102 A 
ATOM     30  C   UNL d   1      31.398 -17.359  -7.119  0.00  0.00     0.056 A 
BRANCH  28  31
ATOM     31  O   UNL d   1      32.685 -20.478  -8.827  0.00  0.00    -0.349 OA
BRANCH  31  32
ATOM     32  C   UNL d   1      31.916 -20.828  -9.978  0.00  0.00     0.171 C 
ATOM     33  C   UNL d   1      30.611 -20.075 -10.172  0.00  0.00     0.034 C 
ENDBRANCH  31  32
ENDBRANCH  28  31
BRANCH  29  34
ATOM     34  O   UNL d   1      32.552 -17.239  -9.033  0.00  0.00    -0.353 OA
ATOM     35  C   UNL d   1      33.913 -16.951  -9.030  0.00  0.00     0.210 C 
ENDBRANCH  29  34
ENDBRANCH  22  25
ENDBRANCH   1  21
TORSDOF 11
ENDMDL
MODEL 9
REMARK VINA RESULT:    -6.027      4.705     10.438
REMARK INTER + INTRA:         -12.991
REMARK INTER:                  -9.308
REMARK INTRA:                  -3.683
REMARK CONF_INDEPENDENT:        3.281
REMARK UNBOUND:                -3.683
REMARK  11 active torsions:
REMARK  status: ('A' for Active; 'I' for Inactive)
REMARK    1  A    between atoms: C_2  and  O_3 
REMARK    2  A    between atoms: O_3  and  C_4 
REMARK    3  A    between atoms: C_7  and  C_8 
REMARK       I    between atoms: C_8  and  N_10 
REMARK    4  A    between atoms: N_10  and  N_11 
REMARK       I    between atoms: N_11  and  C_12 
REMARK    5  A    between atoms: C_14  and  C_12 
REMARK    6  A    between atoms: C_14  and  N_19 
REMARK    7  A    between atoms: C_14  and  C_15 
REMARK    8  A    between atoms: C_15  and  C_16 
REMARK    9  A    between atoms: C_16  and  S_17 
REMARK       I    between atoms: N_19  and  C_20 
REMARK   10  A    between atoms: C_20  and  C_22 
REMARK   11  A    between atoms: C_30  and  O_31 
ROOT
ATOM      1  N   UNL d   1      28.009 -14.805  -3.238  0.00  0.00    -0.265 N 
ATOM      2  C   UNL d   1      28.260 -14.098  -2.070  0.00  0.00     0.259 C 
ATOM      3  O   UNL d   1      29.424 -13.918  -1.702  0.00  0.00    -0.269 OA
ATOM      4  H   UNL d   1      27.109 -14.843  -3.709  0.00  0.00     0.190 HD
ENDROOT
BRANCH   2   5
ATOM      5  C   UNL d   1      27.001 -13.617  -1.267  0.00  0.00     0.179 C 
BRANCH   5   6
ATOM      6  N   UNL d   1      26.210 -14.791  -0.836  0.00  0.00    -0.344 N 
ATOM      7  C   UNL d   1      25.364 -15.464  -1.709  0.00  0.00     0.254 C 
ATOM      8  O   UNL d   1      25.232 -15.181  -2.882  0.00  0.00    -0.268 OA
ATOM      9  H   UNL d   1      26.121 -14.987   0.152  0.00  0.00     0.163 HD
BRANCH   7  10
ATOM     10  C   UNL d   1      24.561 -16.587  -1.144  0.00  0.00     0.053 A 
ATOM     11  C   UNL d   1      23.157 -16.502  -1.231  0.00  0.00     0.019 A 
ATOM     12  C   UNL d   1      22.346 -17.425  -0.559  0.00  0.00     0.001 A 
ATOM     13  C   UNL d   1      22.927 -18.471   0.153  0.00  0.00     0.002 A 
ATOM     14  C   UNL d   1      24.316 -18.573   0.227  0.00  0.00     0.025 A 
ATOM     15  C   UNL d   1      25.135 -17.633  -0.413  0.00  0.00     0.049 A 
ATOM     16 CL   UNL d   1      26.842 -17.819  -0.217  0.00  0.00    -0.083 Cl
ENDBRANCH   7  10
ENDBRANCH   5   6
BRANCH   5  17
ATOM     17  C   UNL d   1      27.422 -12.776  -0.037  0.00  0.00     0.045 C 
BRANCH  17  18
ATOM     18  C   UNL d   1      26.512 -13.004   1.187  0.00  0.00     0.076 C 
BRANCH  18  19
ATOM     19  S   UNL d   1      27.441 -14.012   2.399  0.00  0.00    -0.173 SA
ATOM     20  C   UNL d   1      28.676 -14.807   1.334  0.00  0.00     0.089 C 
ENDBRANCH  18  19
ENDBRANCH  17  18
ENDBRANCH   5  17
ENDBRANCH   2   5
BRANCH   1  21
ATOM     21  N   UNL d   1      29.110 -15.124  -4.056  0.00  0.00    -0.263 N 
ATOM     22  C   UNL d   1      28.878 -15.552  -5.359  0.00  0.00     0.270 C 
ATOM     23  O   UNL d   1      27.748 -15.574  -5.836  0.00  0.00    -0.266 OA
ATOM     24  H   UNL d   1      30.010 -15.094  -3.584  0.00  0.00     0.190 HD
BRANCH  22  25
ATOM     25  C   UNL d   1      30.057 -16.038  -6.156  0.00  0.00     0.036 A 
ATOM     26  C   UNL d   1      30.841 -15.139  -6.883  0.00  0.00     0.020 A 
ATOM     27  C   UNL d   1      31.870 -15.606  -7.738  0.00  0.00     0.040 A 
ATOM     28  C   UNL d   1      32.204 -16.977  -7.841  0.00  0.00     0.102 A 
ATOM     29  C   UNL d   1      31.450 -17.871  -7.044  0.00  0.00     0.102 A 
ATOM     30  C   UNL d   1      30.390 -17.386  -6.240  0.00  0.00     0.056 A 
BRANCH  28  31
ATOM     31  O   UNL d   1      33.381 -17.194  -8.546  0.00  0.00    -0.349 OA
BRANCH  31  32
ATOM     32  C   UNL d   1      33.372 -18.018  -9.712  0.00  0.00     0.171 C 
ATOM     33  C   UNL d   1      33.358 -19.518  -9.478  0.00  0.00     0.034 C 
ENDBRANCH  31  32
ENDBRANCH  28  31
BRANCH  29  34
ATOM     34  O   UNL d   1      31.548 -19.220  -6.789  0.00  0.00    -0.353 OA
ATOM     35  C   UNL d   1      30.505 -19.784  -6.062  0.00  0.00     0.210 C 
ENDBRANCH  29  34
ENDBRANCH  22  25
ENDBRANCH   1  21
TORSDOF 11
ENDMDL
