MODEL 1
REMARK VINA RESULT:    -7.782      0.000      0.000
REMARK INTER + INTRA:         -10.566
REMARK INTER:                  -9.273
REMARK INTRA:                  -1.293
REMARK CONF_INDEPENDENT:        1.492
REMARK UNBOUND:                -1.293
REMARK  5 active torsions:
REMARK  status: ('A' for Active; 'I' for Inactive)
REMARK    1  A    between atoms: N_1  and  C_2 
REMARK    2  A    between atoms: C_2  and  C_16 
REMARK    3  A    between atoms: N_3  and  O_4 
REMARK    4  A    between atoms: O_4  and  C_5 
REMARK       I    between atoms: C_5  and  N_7 
REMARK    5  A    between atoms: N_7  and  C_8 
ROOT
ATOM      1  O   UNL d   1      22.972 -18.995  -1.861  0.00  0.00    -0.154 OA
ENDROOT
BRANCH   1   2
ATOM      2  N   UNL d   1      22.124 -19.620  -0.886  0.00  0.00    -0.105 NA
ATOM      3  C   UNL d   1      20.997 -19.002  -0.664  0.00  0.00     0.159 C 
BRANCH   3   4
ATOM      4  N   UNL d   1      20.619 -17.835  -1.274  0.00  0.00    -0.382 N 
ATOM      5  H   UNL d   1      21.226 -17.033  -1.175  0.00  0.00     0.157 HD
ATOM      6  H   UNL d   1      19.652 -17.662  -1.517  0.00  0.00     0.157 HD
ENDBRANCH   3   4
BRANCH   3   7
ATOM      7  C   UNL d   1      20.016 -19.650   0.298  0.00  0.00     0.011 A 
ATOM      8  C   UNL d   1      20.221 -19.573   1.682  0.00  0.00     0.015 A 
ATOM      9  C   UNL d   1      19.444 -20.345   2.559  0.00  0.00     0.001 A 
ATOM     10  C   UNL d   1      18.406 -21.137   2.069  0.00  0.00     0.000 A 
ATOM     11  C   UNL d   1      18.154 -21.173   0.699  0.00  0.00     0.001 A 
ATOM     12  C   UNL d   1      18.955 -20.432  -0.184  0.00  0.00     0.015 A 
ENDBRANCH   3   7
ENDBRANCH   1   2
BRANCH   1  13
ATOM     13  C   UNL d   1      23.580 -17.875  -1.294  0.00  0.00     0.389 C 
ATOM     14  O   UNL d   1      23.179 -17.324  -0.263  0.00  0.00    -0.236 OA
ATOM     15  N   UNL d   1      24.658 -17.388  -2.043  0.00  0.00    -0.301 N 
ATOM     16  H   UNL d   1      24.767 -17.749  -2.981  0.00  0.00     0.171 HD
BRANCH  15  17
ATOM     17  C   UNL d   1      25.394 -16.233  -1.654  0.00  0.00     0.038 A 
ATOM     18  C   UNL d   1      26.086 -16.222  -0.438  0.00  0.00     0.031 A 
ATOM     19  C   UNL d   1      26.788 -15.091  -0.007  0.00  0.00     0.028 A 
ATOM     20  C   UNL d   1      26.793 -13.934  -0.781  0.00  0.00     0.055 A 
ATOM     21 CL   UNL d   1      27.660 -12.566  -0.176  0.00  0.00    -0.083 Cl
ATOM     22  C   UNL d   1      26.112 -13.927  -2.004  0.00  0.00     0.058 A 
ATOM     23 CL   UNL d   1      26.027 -12.497  -2.980  0.00  0.00    -0.082 Cl
ATOM     24  C   UNL d   1      25.444 -15.085  -2.459  0.00  0.00     0.055 A 
ENDBRANCH  15  17
ENDBRANCH   1  13
TORSDOF 5
ENDMDL
MODEL 2
REMARK VINA RESULT:    -7.411      1.464      2.324
REMARK INTER + INTRA:         -10.218
REMARK INTER:                  -8.902
REMARK INTRA:                  -1.316
REMARK CONF_INDEPENDENT:        1.492
REMARK UNBOUND:                -1.316
REMARK  5 active torsions:
REMARK  status: ('A' for Active; 'I' for Inactive)
REMARK    1  A    between atoms: N_1  and  C_2 
REMARK    2  A    between atoms: C_2  and  C_16 
REMARK    3  A    between atoms: N_3  and  O_4 
REMARK    4  A    between atoms: O_4  and  C_5 
REMARK       I    between atoms: C_5  and  N_7 
REMARK    5  A    between atoms: N_7  and  C_8 
ROOT
ATOM      1  O   UNL d   1      24.471 -17.962   0.074  0.00  0.00    -0.154 OA
ENDROOT
BRANCH   1   2
ATOM      2  N   UNL d   1      23.149 -18.279   0.538  0.00  0.00    -0.105 NA
ATOM      3  C   UNL d   1      22.351 -18.763  -0.372  0.00  0.00     0.159 C 
BRANCH   3   4
ATOM      4  N   UNL d   1      22.695 -18.950  -1.686  0.00  0.00    -0.382 N 
ATOM      5  H   UNL d   1      23.529 -18.492  -2.025  0.00  0.00     0.157 HD
ATOM      6  H   UNL d   1      22.006 -19.234  -2.370  0.00  0.00     0.157 HD
ENDBRANCH   3   4
BRANCH   3   7
ATOM      7  C   UNL d   1      20.962 -19.194   0.065  0.00  0.00     0.011 A 
ATOM      8  C   UNL d   1      20.657 -19.340   1.425  0.00  0.00     0.015 A 
ATOM      9  C   UNL d   1      19.454 -19.941   1.823  0.00  0.00     0.001 A 
ATOM     10  C   UNL d   1      18.511 -20.328   0.871  0.00  0.00     0.000 A 
ATOM     11  C   UNL d   1      18.778 -20.131  -0.482  0.00  0.00     0.001 A 
ATOM     12  C   UNL d   1      19.998 -19.566  -0.885  0.00  0.00     0.015 A 
ENDBRANCH   3   7
ENDBRANCH   1   2
BRANCH   1  13
ATOM     13  C   UNL d   1      24.403 -16.884  -0.810  0.00  0.00     0.389 C 
ATOM     14  O   UNL d   1      23.344 -16.414  -1.240  0.00  0.00    -0.236 OA
ATOM     15  N   UNL d   1      25.659 -16.422  -1.219  0.00  0.00    -0.301 N 
ATOM     16  H   UNL d   1      26.457 -17.007  -1.010  0.00  0.00     0.171 HD
BRANCH  15  17
ATOM     17  C   UNL d   1      25.810 -15.350  -2.144  0.00  0.00     0.038 A 
ATOM     18  C   UNL d   1      25.530 -15.553  -3.501  0.00  0.00     0.031 A 
ATOM     19  C   UNL d   1      25.704 -14.534  -4.443  0.00  0.00     0.028 A 
ATOM     20  C   UNL d   1      26.183 -13.288  -4.046  0.00  0.00     0.055 A 
ATOM     21 CL   UNL d   1      26.396 -12.083  -5.267  0.00  0.00    -0.083 Cl
ATOM     22  C   UNL d   1      26.461 -13.063  -2.692  0.00  0.00     0.058 A 
ATOM     23 CL   UNL d   1      27.122 -11.556  -2.147  0.00  0.00    -0.082 Cl
ATOM     24  C   UNL d   1      26.241 -14.079  -1.737  0.00  0.00     0.055 A 
ENDBRANCH  15  17
ENDBRANCH   1  13
TORSDOF 5
ENDMDL
MODEL 3
REMARK VINA RESULT:    -7.178      2.305      3.264
REMARK INTER + INTRA:         -10.073
REMARK INTER:                  -8.669
REMARK INTRA:                  -1.404
REMARK CONF_INDEPENDENT:        1.492
REMARK UNBOUND:                -1.404
REMARK  5 active torsions:
REMARK  status: ('A' for Active; 'I' for Inactive)
REMARK    1  A    between atoms: N_1  and  C_2 
REMARK    2  A    between atoms: C_2  and  C_16 
REMARK    3  A    between atoms: N_3  and  O_4 
REMARK    4  A    between atoms: O_4  and  C_5 
REMARK       I    between atoms: C_5  and  N_7 
REMARK    5  A    between atoms: N_7  and  C_8 
ROOT
ATOM      1  O   UNL d   1      23.929 -16.797   0.187  0.00  0.00    -0.154 OA
ENDROOT
BRANCH   1   2
ATOM      2  N   UNL d   1      22.609 -17.352   0.080  0.00  0.00    -0.105 NA
ATOM      3  C   UNL d   1      22.568 -18.641  -0.104  0.00  0.00     0.159 C 
BRANCH   3   4
ATOM      4  N   UNL d   1      23.674 -19.443  -0.216  0.00  0.00    -0.382 N 
ATOM      5  H   UNL d   1      23.662 -20.334   0.261  0.00  0.00     0.157 HD
ATOM      6  H   UNL d   1      24.577 -19.056  -0.459  0.00  0.00     0.157 HD
ENDBRANCH   3   4
BRANCH   3   7
ATOM      7  C   UNL d   1      21.203 -19.305  -0.147  0.00  0.00     0.011 A 
ATOM      8  C   UNL d   1      20.397 -19.202  -1.287  0.00  0.00     0.015 A 
ATOM      9  C   UNL d   1      19.060 -19.625  -1.253  0.00  0.00     0.001 A 
ATOM     10  C   UNL d   1      18.541 -20.229  -0.108  0.00  0.00     0.000 A 
ATOM     11  C   UNL d   1      19.353 -20.393   1.012  0.00  0.00     0.001 A 
ATOM     12  C   UNL d   1      20.680 -19.934   0.994  0.00  0.00     0.015 A 
ENDBRANCH   3   7
ENDBRANCH   1   2
BRANCH   1  13
ATOM     13  C   UNL d   1      24.497 -16.712  -1.085  0.00  0.00     0.389 C 
ATOM     14  O   UNL d   1      24.218 -17.476  -2.015  0.00  0.00    -0.236 OA
ATOM     15  N   UNL d   1      25.471 -15.712  -1.192  0.00  0.00    -0.301 N 
ATOM     16  H   UNL d   1      25.803 -15.298  -0.332  0.00  0.00     0.171 HD
BRANCH  15  17
ATOM     17  C   UNL d   1      26.193 -15.482  -2.397  0.00  0.00     0.038 A 
ATOM     18  C   UNL d   1      25.545 -14.929  -3.507  0.00  0.00     0.031 A 
ATOM     19  C   UNL d   1      26.214 -14.725  -4.718  0.00  0.00     0.028 A 
ATOM     20  C   UNL d   1      27.551 -15.091  -4.849  0.00  0.00     0.055 A 
ATOM     21 CL   UNL d   1      28.309 -14.832  -6.381  0.00  0.00    -0.083 Cl
ATOM     22  C   UNL d   1      28.220 -15.638  -3.748  0.00  0.00     0.058 A 
ATOM     23 CL   UNL d   1      29.864 -16.174  -3.867  0.00  0.00    -0.082 Cl
ATOM     24  C   UNL d   1      27.555 -15.800  -2.512  0.00  0.00     0.055 A 
ENDBRANCH  15  17
ENDBRANCH   1  13
TORSDOF 5
ENDMDL
MODEL 4
REMARK VINA RESULT:    -7.121      4.512      6.437
REMARK INTER + INTRA:          -9.724
REMARK INTER:                  -8.612
REMARK INTRA:                  -1.111
REMARK CONF_INDEPENDENT:        1.492
REMARK UNBOUND:                -1.111
REMARK  5 active torsions:
REMARK  status: ('A' for Active; 'I' for Inactive)
REMARK    1  A    between atoms: N_1  and  C_2 
REMARK    2  A    between atoms: C_2  and  C_16 
REMARK    3  A    between atoms: N_3  and  O_4 
REMARK    4  A    between atoms: O_4  and  C_5 
REMARK       I    between atoms: C_5  and  N_7 
REMARK    5  A    between atoms: N_7  and  C_8 
ROOT
ATOM      1  O   UNL d   1      27.625 -15.046   0.199  0.00  0.00    -0.154 OA
ENDROOT
BRANCH   1   2
ATOM      2  N   UNL d   1      26.323 -15.483  -0.219  0.00  0.00    -0.105 NA
ATOM      3  C   UNL d   1      26.109 -16.763  -0.096  0.00  0.00     0.159 C 
BRANCH   3   4
ATOM      4  N   UNL d   1      27.032 -17.662   0.371  0.00  0.00    -0.382 N 
ATOM      5  H   UNL d   1      27.939 -17.310   0.644  0.00  0.00     0.157 HD
ATOM      6  H   UNL d   1      26.963 -18.646   0.145  0.00  0.00     0.157 HD
ENDBRANCH   3   4
BRANCH   3   7
ATOM      7  C   UNL d   1      24.726 -17.284  -0.445  0.00  0.00     0.011 A 
ATOM      8  C   UNL d   1      23.697 -16.397  -0.787  0.00  0.00     0.015 A 
ATOM      9  C   UNL d   1      22.374 -16.851  -0.898  0.00  0.00     0.001 A 
ATOM     10  C   UNL d   1      22.080 -18.207  -0.748  0.00  0.00     0.000 A 
ATOM     11  C   UNL d   1      23.106 -19.107  -0.469  0.00  0.00     0.001 A 
ATOM     12  C   UNL d   1      24.424 -18.649  -0.318  0.00  0.00     0.015 A 
ENDBRANCH   3   7
ENDBRANCH   1   2
BRANCH   1  13
ATOM     13  C   UNL d   1      27.513 -14.351   1.404  0.00  0.00     0.389 C 
ATOM     14  O   UNL d   1      26.774 -13.375   1.569  0.00  0.00    -0.236 OA
ATOM     15  N   UNL d   1      28.373 -14.827   2.401  0.00  0.00    -0.301 N 
ATOM     16  H   UNL d   1      29.104 -15.464   2.114  0.00  0.00     0.171 HD
BRANCH  15  17
ATOM     17  C   UNL d   1      28.438 -14.235   3.694  0.00  0.00     0.038 A 
ATOM     18  C   UNL d   1      28.548 -15.046   4.830  0.00  0.00     0.031 A 
ATOM     19  C   UNL d   1      28.575 -14.501   6.118  0.00  0.00     0.028 A 
ATOM     20  C   UNL d   1      28.472 -13.124   6.296  0.00  0.00     0.055 A 
ATOM     21 CL   UNL d   1      28.489 -12.521   7.917  0.00  0.00    -0.083 Cl
ATOM     22  C   UNL d   1      28.369 -12.295   5.173  0.00  0.00     0.058 A 
ATOM     23 CL   UNL d   1      28.172 -10.580   5.334  0.00  0.00    -0.082 Cl
ATOM     24  C   UNL d   1      28.389 -12.844   3.872  0.00  0.00     0.055 A 
ENDBRANCH  15  17
ENDBRANCH   1  13
TORSDOF 5
ENDMDL
MODEL 5
REMARK VINA RESULT:    -6.328      4.873      6.805
REMARK INTER + INTRA:          -9.747
REMARK INTER:                  -7.820
REMARK INTRA:                  -1.927
REMARK CONF_INDEPENDENT:        1.492
REMARK UNBOUND:                -1.927
REMARK  5 active torsions:
REMARK  status: ('A' for Active; 'I' for Inactive)
REMARK    1  A    between atoms: N_1  and  C_2 
REMARK    2  A    between atoms: C_2  and  C_16 
REMARK    3  A    between atoms: N_3  and  O_4 
REMARK    4  A    between atoms: O_4  and  C_5 
REMARK       I    between atoms: C_5  and  N_7 
REMARK    5  A    between atoms: N_7  and  C_8 
ROOT
ATOM      1  O   UNL d   1      24.740 -14.046  -4.295  0.00  0.00    -0.154 OA
ENDROOT
BRANCH   1   2
ATOM      2  N   UNL d   1      24.780 -15.138  -3.363  0.00  0.00    -0.105 NA
ATOM      3  C   UNL d   1      25.452 -14.903  -2.271  0.00  0.00     0.159 C 
BRANCH   3   4
ATOM      4  N   UNL d   1      26.104 -13.728  -2.000  0.00  0.00    -0.382 N 
ATOM      5  H   UNL d   1      26.185 -13.050  -2.745  0.00  0.00     0.157 HD
ATOM      6  H   UNL d   1      26.760 -13.660  -1.234  0.00  0.00     0.157 HD
ENDBRANCH   3   4
BRANCH   3   7
ATOM      7  C   UNL d   1      25.471 -15.986  -1.207  0.00  0.00     0.011 A 
ATOM      8  C   UNL d   1      26.652 -16.286  -0.517  0.00  0.00     0.015 A 
ATOM      9  C   UNL d   1      26.727 -17.420   0.304  0.00  0.00     0.001 A 
ATOM     10  C   UNL d   1      25.601 -18.219   0.508  0.00  0.00     0.000 A 
ATOM     11  C   UNL d   1      24.403 -17.894  -0.126  0.00  0.00     0.001 A 
ATOM     12  C   UNL d   1      24.336 -16.781  -0.980  0.00  0.00     0.015 A 
ENDBRANCH   3   7
ENDBRANCH   1   2
BRANCH   1  13
ATOM     13  C   UNL d   1      26.021 -13.825  -4.802  0.00  0.00     0.389 C 
ATOM     14  O   UNL d   1      26.496 -12.702  -5.003  0.00  0.00    -0.236 OA
ATOM     15  N   UNL d   1      26.701 -15.005  -5.126  0.00  0.00    -0.301 N 
ATOM     16  H   UNL d   1      26.158 -15.857  -5.154  0.00  0.00     0.171 HD
BRANCH  15  17
ATOM     17  C   UNL d   1      28.010 -14.998  -5.687  0.00  0.00     0.038 A 
ATOM     18  C   UNL d   1      28.353 -14.039  -6.648  0.00  0.00     0.031 A 
ATOM     19  C   UNL d   1      29.617 -14.026  -7.248  0.00  0.00     0.028 A 
ATOM     20  C   UNL d   1      30.561 -14.992  -6.910  0.00  0.00     0.055 A 
ATOM     21 CL   UNL d   1      32.094 -14.931  -7.709  0.00  0.00    -0.083 Cl
ATOM     22  C   UNL d   1      30.240 -15.955  -5.946  0.00  0.00     0.058 A 
ATOM     23 CL   UNL d   1      31.349 -17.221  -5.532  0.00  0.00    -0.082 Cl
ATOM     24  C   UNL d   1      28.980 -15.937  -5.308  0.00  0.00     0.055 A 
ENDBRANCH  15  17
ENDBRANCH   1  13
TORSDOF 5
ENDMDL
MODEL 6
REMARK VINA RESULT:    -6.228      4.836      6.716
REMARK INTER + INTRA:          -9.683
REMARK INTER:                  -7.719
REMARK INTRA:                  -1.964
REMARK CONF_INDEPENDENT:        1.492
REMARK UNBOUND:                -1.964
REMARK  5 active torsions:
REMARK  status: ('A' for Active; 'I' for Inactive)
REMARK    1  A    between atoms: N_1  and  C_2 
REMARK    2  A    between atoms: C_2  and  C_16 
REMARK    3  A    between atoms: N_3  and  O_4 
REMARK    4  A    between atoms: O_4  and  C_5 
REMARK       I    between atoms: C_5  and  N_7 
REMARK    5  A    between atoms: N_7  and  C_8 
ROOT
ATOM      1  O   UNL d   1      24.771 -14.025  -4.341  0.00  0.00    -0.154 OA
ENDROOT
BRANCH   1   2
ATOM      2  N   UNL d   1      24.802 -15.200  -3.516  0.00  0.00    -0.105 NA
ATOM      3  C   UNL d   1      25.467 -15.070  -2.402  0.00  0.00     0.159 C 
BRANCH   3   4
ATOM      4  N   UNL d   1      26.119 -13.928  -2.016  0.00  0.00    -0.382 N 
ATOM      5  H   UNL d   1      26.282 -13.218  -2.717  0.00  0.00     0.157 HD
ATOM      6  H   UNL d   1      26.706 -13.915  -1.193  0.00  0.00     0.157 HD
ENDBRANCH   3   4
BRANCH   3   7
ATOM      7  C   UNL d   1      25.474 -16.249  -1.444  0.00  0.00     0.011 A 
ATOM      8  C   UNL d   1      24.286 -16.924  -1.137  0.00  0.00     0.015 A 
ATOM      9  C   UNL d   1      24.253 -17.865  -0.098  0.00  0.00     0.001 A 
ATOM     10  C   UNL d   1      25.420 -18.200   0.589  0.00  0.00     0.000 A 
ATOM     11  C   UNL d   1      26.620 -17.579   0.249  0.00  0.00     0.001 A 
ATOM     12  C   UNL d   1      26.649 -16.608  -0.764  0.00  0.00     0.015 A 
ENDBRANCH   3   7
ENDBRANCH   1   2
BRANCH   1  13
ATOM     13  C   UNL d   1      26.055 -13.765  -4.821  0.00  0.00     0.389 C 
ATOM     14  O   UNL d   1      26.542 -12.632  -4.905  0.00  0.00    -0.236 OA
ATOM     15  N   UNL d   1      26.724 -14.911  -5.266  0.00  0.00    -0.301 N 
ATOM     16  H   UNL d   1      26.173 -15.751  -5.382  0.00  0.00     0.171 HD
BRANCH  15  17
ATOM     17  C   UNL d   1      28.034 -14.859  -5.823  0.00  0.00     0.038 A 
ATOM     18  C   UNL d   1      29.014 -15.760  -5.391  0.00  0.00     0.031 A 
ATOM     19  C   UNL d   1      30.320 -15.713  -5.888  0.00  0.00     0.028 A 
ATOM     20  C   UNL d   1      30.679 -14.742  -6.820  0.00  0.00     0.055 A 
ATOM     21 CL   UNL d   1      32.317 -14.726  -7.374  0.00  0.00    -0.083 Cl
ATOM     22  C   UNL d   1      29.712 -13.835  -7.270  0.00  0.00     0.058 A 
ATOM     23 CL   UNL d   1      30.113 -12.565  -8.378  0.00  0.00    -0.082 Cl
ATOM     24  C   UNL d   1      28.382 -13.915  -6.801  0.00  0.00     0.055 A 
ENDBRANCH  15  17
ENDBRANCH   1  13
TORSDOF 5
ENDMDL
MODEL 7
REMARK VINA RESULT:    -6.185      5.582      7.501
REMARK INTER + INTRA:          -9.745
REMARK INTER:                  -7.676
REMARK INTRA:                  -2.069
REMARK CONF_INDEPENDENT:        1.492
REMARK UNBOUND:                -2.069
REMARK  5 active torsions:
REMARK  status: ('A' for Active; 'I' for Inactive)
REMARK    1  A    between atoms: N_1  and  C_2 
REMARK    2  A    between atoms: C_2  and  C_16 
REMARK    3  A    between atoms: N_3  and  O_4 
REMARK    4  A    between atoms: O_4  and  C_5 
REMARK       I    between atoms: C_5  and  N_7 
REMARK    5  A    between atoms: N_7  and  C_8 
ROOT
ATOM      1  O   UNL d   1      27.563 -14.062  -4.071  0.00  0.00    -0.154 OA
ENDROOT
BRANCH   1   2
ATOM      2  N   UNL d   1      27.164 -14.745  -2.873  0.00  0.00    -0.105 NA
ATOM      3  C   UNL d   1      26.179 -15.585  -3.023  0.00  0.00     0.159 C 
BRANCH   3   4
ATOM      4  N   UNL d   1      25.530 -15.816  -4.208  0.00  0.00    -0.382 N 
ATOM      5  H   UNL d   1      25.110 -16.724  -4.347  0.00  0.00     0.157 HD
ATOM      6  H   UNL d   1      25.737 -15.266  -5.032  0.00  0.00     0.157 HD
ENDBRANCH   3   4
BRANCH   3   7
ATOM      7  C   UNL d   1      25.757 -16.400  -1.813  0.00  0.00     0.011 A 
ATOM      8  C   UNL d   1      26.714 -16.879  -0.908  0.00  0.00     0.015 A 
ATOM      9  C   UNL d   1      26.355 -17.805   0.082  0.00  0.00     0.001 A 
ATOM     10  C   UNL d   1      25.025 -18.200   0.229  0.00  0.00     0.000 A 
ATOM     11  C   UNL d   1      24.055 -17.682  -0.627  0.00  0.00     0.001 A 
ATOM     12  C   UNL d   1      24.417 -16.786  -1.644  0.00  0.00     0.015 A 
ENDBRANCH   3   7
ENDBRANCH   1   2
BRANCH   1  13
ATOM     13  C   UNL d   1      28.091 -14.986  -4.974  0.00  0.00     0.389 C 
ATOM     14  O   UNL d   1      27.625 -15.191  -6.100  0.00  0.00    -0.236 OA
ATOM     15  N   UNL d   1      29.170 -15.713  -4.457  0.00  0.00    -0.301 N 
ATOM     16  H   UNL d   1      29.332 -15.652  -3.461  0.00  0.00     0.171 HD
BRANCH  15  17
ATOM     17  C   UNL d   1      29.830 -16.728  -5.206  0.00  0.00     0.038 A 
ATOM     18  C   UNL d   1      30.295 -16.454  -6.497  0.00  0.00     0.031 A 
ATOM     19  C   UNL d   1      30.914 -17.437  -7.276  0.00  0.00     0.028 A 
ATOM     20  C   UNL d   1      31.064 -18.730  -6.780  0.00  0.00     0.055 A 
ATOM     21 CL   UNL d   1      31.816 -19.901  -7.805  0.00  0.00    -0.083 Cl
ATOM     22  C   UNL d   1      30.612 -19.023  -5.488  0.00  0.00     0.058 A 
ATOM     23 CL   UNL d   1      30.711 -20.628  -4.841  0.00  0.00    -0.082 Cl
ATOM     24  C   UNL d   1      30.030 -18.016  -4.687  0.00  0.00     0.055 A 
ENDBRANCH  15  17
ENDBRANCH   1  13
TORSDOF 5
ENDMDL
MODEL 8
REMARK VINA RESULT:    -6.128      5.202      8.955
REMARK INTER + INTRA:          -9.894
REMARK INTER:                  -7.620
REMARK INTRA:                  -2.275
REMARK CONF_INDEPENDENT:        1.492
REMARK UNBOUND:                -2.275
REMARK  5 active torsions:
REMARK  status: ('A' for Active; 'I' for Inactive)
REMARK    1  A    between atoms: N_1  and  C_2 
REMARK    2  A    between atoms: C_2  and  C_16 
REMARK    3  A    between atoms: N_3  and  O_4 
REMARK    4  A    between atoms: O_4  and  C_5 
REMARK       I    between atoms: C_5  and  N_7 
REMARK    5  A    between atoms: N_7  and  C_8 
ROOT
ATOM      1  O   UNL d   1      27.833 -13.873  -5.102  0.00  0.00    -0.154 OA
ENDROOT
BRANCH   1   2
ATOM      2  N   UNL d   1      27.737 -12.641  -4.369  0.00  0.00    -0.105 NA
ATOM      3  C   UNL d   1      26.561 -12.081  -4.391  0.00  0.00     0.159 C 
BRANCH   3   4
ATOM      4  N   UNL d   1      25.477 -12.579  -5.065  0.00  0.00    -0.382 N 
ATOM      5  H   UNL d   1      25.549 -13.509  -5.454  0.00  0.00     0.157 HD
ATOM      6  H   UNL d   1      24.776 -11.963  -5.456  0.00  0.00     0.157 HD
ENDBRANCH   3   4
BRANCH   3   7
ATOM      7  C   UNL d   1      26.367 -10.817  -3.572  0.00  0.00     0.011 A 
ATOM      8  C   UNL d   1      25.539  -9.787  -4.037  0.00  0.00     0.015 A 
ATOM      9  C   UNL d   1      25.526  -8.540  -3.395  0.00  0.00     0.001 A 
ATOM     10  C   UNL d   1      26.278  -8.336  -2.238  0.00  0.00     0.000 A 
ATOM     11  C   UNL d   1      27.058  -9.373  -1.732  0.00  0.00     0.001 A 
ATOM     12  C   UNL d   1      27.103 -10.610  -2.394  0.00  0.00     0.015 A 
ENDBRANCH   3   7
ENDBRANCH   1   2
BRANCH   1  13
ATOM     13  C   UNL d   1      26.991 -14.821  -4.521  0.00  0.00     0.389 C 
ATOM     14  O   UNL d   1      26.268 -15.586  -5.168  0.00  0.00    -0.236 OA
ATOM     15  N   UNL d   1      26.991 -14.782  -3.122  0.00  0.00    -0.301 N 
ATOM     16  H   UNL d   1      27.423 -13.980  -2.683  0.00  0.00     0.171 HD
BRANCH  15  17
ATOM     17  C   UNL d   1      26.175 -15.646  -2.337  0.00  0.00     0.038 A 
ATOM     18  C   UNL d   1      24.782 -15.532  -2.392  0.00  0.00     0.031 A 
ATOM     19  C   UNL d   1      23.951 -16.338  -1.607  0.00  0.00     0.028 A 
ATOM     20  C   UNL d   1      24.504 -17.267  -0.729  0.00  0.00     0.055 A 
ATOM     21 CL   UNL d   1      23.419 -18.213   0.229  0.00  0.00    -0.083 Cl
ATOM     22  C   UNL d   1      25.896 -17.402  -0.665  0.00  0.00     0.058 A 
ATOM     23 CL   UNL d   1      26.646 -18.493   0.454  0.00  0.00    -0.082 Cl
ATOM     24  C   UNL d   1      26.731 -16.619  -1.493  0.00  0.00     0.055 A 
ENDBRANCH  15  17
ENDBRANCH   1  13
TORSDOF 5
ENDMDL
MODEL 9
REMARK VINA RESULT:    -6.070      4.178      5.567
REMARK INTER + INTRA:          -9.846
REMARK INTER:                  -7.562
REMARK INTRA:                  -2.284
REMARK CONF_INDEPENDENT:        1.492
REMARK UNBOUND:                -2.284
REMARK  5 active torsions:
REMARK  status: ('A' for Active; 'I' for Inactive)
REMARK    1  A    between atoms: N_1  and  C_2 
REMARK    2  A    between atoms: C_2  and  C_16 
REMARK    3  A    between atoms: N_3  and  O_4 
REMARK    4  A    between atoms: O_4  and  C_5 
REMARK       I    between atoms: C_5  and  N_7 
REMARK    5  A    between atoms: N_7  and  C_8 
ROOT
ATOM      1  O   UNL d   1      27.848 -16.225  -1.302  0.00  0.00    -0.154 OA
ENDROOT
BRANCH   1   2
ATOM      2  N   UNL d   1      26.435 -16.481  -1.329  0.00  0.00    -0.105 NA
ATOM      3  C   UNL d   1      26.024 -17.381  -0.481  0.00  0.00     0.159 C 
BRANCH   3   4
ATOM      4  N   UNL d   1      26.843 -18.071   0.374  0.00  0.00    -0.382 N 
ATOM      5  H   UNL d   1      27.796 -17.751   0.477  0.00  0.00     0.157 HD
ATOM      6  H   UNL d   1      26.643 -19.030   0.630  0.00  0.00     0.157 HD
ENDBRANCH   3   4
BRANCH   3   7
ATOM      7  C   UNL d   1      24.531 -17.645  -0.400  0.00  0.00     0.011 A 
ATOM      8  C   UNL d   1      24.042 -18.957  -0.352  0.00  0.00     0.015 A 
ATOM      9  C   UNL d   1      22.669 -19.209  -0.494  0.00  0.00     0.001 A 
ATOM     10  C   UNL d   1      21.766 -18.152  -0.606  0.00  0.00     0.000 A 
ATOM     11  C   UNL d   1      22.237 -16.841  -0.593  0.00  0.00     0.001 A 
ATOM     12  C   UNL d   1      23.614 -16.586  -0.490  0.00  0.00     0.015 A 
ENDBRANCH   3   7
ENDBRANCH   1   2
BRANCH   1  13
ATOM     13  C   UNL d   1      28.188 -15.646  -0.079  0.00  0.00     0.389 C 
ATOM     14  O   UNL d   1      29.177 -15.974   0.585  0.00  0.00    -0.236 OA
ATOM     15  N   UNL d   1      27.260 -14.696   0.363  0.00  0.00    -0.301 N 
ATOM     16  H   UNL d   1      26.371 -14.662  -0.117  0.00  0.00     0.171 HD
BRANCH  15  17
ATOM     17  C   UNL d   1      27.405 -14.012   1.604  0.00  0.00     0.038 A 
ATOM     18  C   UNL d   1      27.175 -12.633   1.673  0.00  0.00     0.031 A 
ATOM     19  C   UNL d   1      27.346 -11.923   2.866  0.00  0.00     0.028 A 
ATOM     20  C   UNL d   1      27.771 -12.582   4.017  0.00  0.00     0.055 A 
ATOM     21 CL   UNL d   1      27.983 -11.638   5.450  0.00  0.00    -0.083 Cl
ATOM     22  C   UNL d   1      27.998 -13.962   3.971  0.00  0.00     0.058 A 
ATOM     23 CL   UNL d   1      28.591 -14.825   5.352  0.00  0.00    -0.082 Cl
ATOM     24  C   UNL d   1      27.781 -14.684   2.776  0.00  0.00     0.055 A 
ENDBRANCH  15  17
ENDBRANCH   1  13
TORSDOF 5
ENDMDL
