MODEL 1
REMARK VINA RESULT:    -9.518      0.000      0.000
REMARK INTER + INTRA:         -13.082
REMARK INTER:                 -11.010
REMARK INTRA:                  -2.073
REMARK CONF_INDEPENDENT:        1.492
REMARK UNBOUND:                -2.073
REMARK  5 active torsions:
REMARK  status: ('A' for Active; 'I' for Inactive)
REMARK    1  A    between atoms: O_2  and  C_3 
REMARK    2  A    between atoms: C_13  and  C_14 
REMARK    3  A    between atoms: C_14  and  C_16 
REMARK    4  A    between atoms: C_22  and  C_23 
REMARK    5  A    between atoms: C_27  and  N_28 
ROOT
ATOM      1  C   UNL d   1      24.522 -17.374  -0.318  0.00  0.00     0.069 A 
ATOM      2  C   UNL d   1      25.228 -18.578  -0.144  0.00  0.00     0.039 A 
ATOM      3  C   UNL d   1      26.595 -18.561   0.102  0.00  0.00     0.033 A 
ATOM      4  C   UNL d   1      27.202 -17.328   0.127  0.00  0.00     0.044 A 
ATOM      5  C   UNL d   1      26.532 -16.109  -0.034  0.00  0.00     0.018 A 
ATOM      6  C   UNL d   1      25.171 -16.128  -0.270  0.00  0.00     0.049 A 
ATOM      7  C   UNL d   1      27.532 -14.969   0.093  0.00  0.00     0.249 C 
ATOM      8  C   UNL d   1      28.854 -15.782   0.109  0.00  0.00     0.264 C 
ATOM      9  O   UNL d   1      29.973 -15.328   0.016  0.00  0.00    -0.270 OA
ATOM     10  N   UNL d   1      28.552 -17.119   0.230  0.00  0.00    -0.324 N 
ATOM     11  C   UNL d   1      27.242 -14.066   1.324  0.00  0.00     0.122 C 
ATOM     12  C   UNL d   1      26.639 -12.713   0.685  0.00  0.00     0.065 C 
ATOM     13  C   UNL d   1      26.661 -12.893  -0.869  0.00  0.00     0.209 C 
ATOM     14  C   UNL d   1      27.117 -11.709  -1.741  0.00  0.00     0.109 C 
ATOM     15  S   UNL d   1      28.682 -12.167  -2.521  0.00  0.00    -0.140 SA
ATOM     16  C   UNL d   1      28.959 -13.584  -1.498  0.00  0.00     0.311 C 
ATOM     17  N   UNL d   1      27.580 -14.057  -1.127  0.00  0.00    -0.034 N 
ATOM     18  H   UNL d   1      29.259 -17.836   0.348  0.00  0.00     0.169 HD
ATOM     19  H   UNL d   1      27.278 -14.590  -1.951  0.00  0.00     0.283 HD
ENDROOT
BRANCH  11  20
ATOM     20  C   UNL d   1      28.374 -13.879   2.400  0.00  0.00     0.169 C 
ATOM     21  O   UNL d   1      29.550 -13.697   2.099  0.00  0.00    -0.292 OA
BRANCH  20  22
ATOM     22  C   UNL d   1      28.190 -13.665   3.854  0.00  0.00     0.028 C 
ATOM     23  C   UNL d   1      28.572 -14.515   4.877  0.00  0.00     0.018 C 
ATOM     24  C   UNL d   1      28.530 -14.191   6.212  0.00  0.00     0.020 C 
ATOM     25  C   UNL d   1      28.066 -12.950   6.518  0.00  0.00     0.116 C 
ATOM     26  N   UNL d   1      27.780 -12.023   5.579  0.00  0.00    -0.272 NA
ATOM     27  C   UNL d   1      27.906 -12.378   4.276  0.00  0.00     0.131 C 
ENDBRANCH  20  22
ENDBRANCH  11  20
BRANCH  12  28
ATOM     28  C   UNL d   1      27.302 -11.416   1.116  0.00  0.00    -0.049 C 
ATOM     29  C   UNL d   1      28.701 -11.289   1.009  0.00  0.00     0.007 C 
ATOM     30  C   UNL d   1      29.460 -10.260   1.517  0.00  0.00     0.003 C 
ATOM     31  C   UNL d   1      28.813  -9.328   2.279  0.00  0.00     0.036 C 
ATOM     32  C   UNL d   1      27.409  -9.367   2.366  0.00  0.00     0.103 C 
ATOM     33  C   UNL d   1      26.632 -10.361   1.723  0.00  0.00     0.043 C 
BRANCH  32  34
ATOM     34  N   UNL d   1      26.755  -8.390   3.230  0.00  0.00    -0.116 N 
ATOM     35  O   UNL d   1      27.030  -8.417   4.437  0.00  0.00    -0.532 OA
ATOM     36  O   UNL d   1      25.961  -7.603   2.699  0.00  0.00    -0.532 OA
ENDBRANCH  32  34
ENDBRANCH  12  28
BRANCH   1  37
ATOM     37  O   UNL d   1      23.194 -17.324  -0.645  0.00  0.00    -0.356 OA
ATOM     38  C   UNL d   1      22.527 -18.584  -0.590  0.00  0.00     0.210 C 
ENDBRANCH   1  37
TORSDOF 5
ENDMDL
MODEL 2
REMARK VINA RESULT:    -8.214      3.013      6.193
REMARK INTER + INTRA:         -11.472
REMARK INTER:                  -9.705
REMARK INTRA:                  -1.767
REMARK CONF_INDEPENDENT:        1.492
REMARK UNBOUND:                -1.767
REMARK  5 active torsions:
REMARK  status: ('A' for Active; 'I' for Inactive)
REMARK    1  A    between atoms: O_2  and  C_3 
REMARK    2  A    between atoms: C_13  and  C_14 
REMARK    3  A    between atoms: C_14  and  C_16 
REMARK    4  A    between atoms: C_22  and  C_23 
REMARK    5  A    between atoms: C_27  and  N_28 
ROOT
ATOM      1  C   UNL d   1      33.203 -17.017   1.962  0.00  0.00     0.069 A 
ATOM      2  C   UNL d   1      33.859 -15.919   2.548  0.00  0.00     0.039 A 
ATOM      3  C   UNL d   1      33.341 -14.636   2.410  0.00  0.00     0.033 A 
ATOM      4  C   UNL d   1      32.200 -14.511   1.655  0.00  0.00     0.044 A 
ATOM      5  C   UNL d   1      31.515 -15.580   1.064  0.00  0.00     0.018 A 
ATOM      6  C   UNL d   1      32.027 -16.855   1.211  0.00  0.00     0.049 A 
ATOM      7  C   UNL d   1      30.283 -15.048   0.345  0.00  0.00     0.249 C 
ATOM      8  C   UNL d   1      30.557 -13.524   0.451  0.00  0.00     0.264 C 
ATOM      9  O   UNL d   1      29.954 -12.649  -0.129  0.00  0.00    -0.270 OA
ATOM     10  N   UNL d   1      31.617 -13.321   1.305  0.00  0.00    -0.324 N 
ATOM     11  C   UNL d   1      28.963 -15.575   0.973  0.00  0.00     0.122 C 
ATOM     12  C   UNL d   1      28.423 -16.655  -0.097  0.00  0.00     0.065 C 
ATOM     13  C   UNL d   1      29.431 -16.655  -1.293  0.00  0.00     0.209 C 
ATOM     14  C   UNL d   1      28.872 -16.700  -2.727  0.00  0.00     0.109 C 
ATOM     15  S   UNL d   1      29.249 -15.119  -3.519  0.00  0.00    -0.140 SA
ATOM     16  C   UNL d   1      29.710 -14.299  -2.020  0.00  0.00     0.311 C 
ATOM     17  N   UNL d   1      30.241 -15.395  -1.138  0.00  0.00    -0.034 N 
ATOM     18  H   UNL d   1      31.922 -12.399   1.595  0.00  0.00     0.169 HD
ATOM     19  H   UNL d   1      31.202 -15.532  -1.474  0.00  0.00     0.283 HD
ENDROOT
BRANCH  11  20
ATOM     20  C   UNL d   1      27.909 -14.528   1.491  0.00  0.00     0.169 C 
ATOM     21  O   UNL d   1      26.946 -14.170   0.819  0.00  0.00    -0.292 OA
BRANCH  20  22
ATOM     22  C   UNL d   1      27.775 -14.013   2.873  0.00  0.00     0.028 C 
ATOM     23  C   UNL d   1      28.076 -14.684   4.045  0.00  0.00     0.018 C 
ATOM     24  C   UNL d   1      28.094 -14.101   5.290  0.00  0.00     0.020 C 
ATOM     25  C   UNL d   1      27.780 -12.779   5.343  0.00  0.00     0.116 C 
ATOM     26  N   UNL d   1      27.586 -12.028   4.239  0.00  0.00    -0.272 NA
ATOM     27  C   UNL d   1      27.647 -12.644   3.032  0.00  0.00     0.131 C 
ENDBRANCH  20  22
ENDBRANCH  11  20
BRANCH  12  28
ATOM     28  C   UNL d   1      26.988 -16.477  -0.562  0.00  0.00    -0.049 C 
ATOM     29  C   UNL d   1      25.998 -17.363  -0.093  0.00  0.00     0.007 C 
ATOM     30  C   UNL d   1      24.704 -17.444  -0.552  0.00  0.00     0.003 C 
ATOM     31  C   UNL d   1      24.375 -16.665  -1.627  0.00  0.00     0.036 C 
ATOM     32  C   UNL d   1      25.302 -15.716  -2.094  0.00  0.00     0.103 C 
ATOM     33  C   UNL d   1      26.586 -15.555  -1.519  0.00  0.00     0.043 C 
BRANCH  32  34
ATOM     34  N   UNL d   1      24.939 -14.938  -3.275  0.00  0.00    -0.116 N 
ATOM     35  O   UNL d   1      24.060 -14.077  -3.145  0.00  0.00    -0.532 OA
ATOM     36  O   UNL d   1      25.529 -15.200  -4.331  0.00  0.00    -0.532 OA
ENDBRANCH  32  34
ENDBRANCH  12  28
BRANCH   1  37
ATOM     37  O   UNL d   1      33.703 -18.290   1.990  0.00  0.00    -0.356 OA
ATOM     38  C   UNL d   1      32.801 -19.266   2.511  0.00  0.00     0.210 C 
ENDBRANCH   1  37
TORSDOF 5
ENDMDL
MODEL 3
REMARK VINA RESULT:    -8.067      2.503      3.696
REMARK INTER + INTRA:         -11.834
REMARK INTER:                  -9.558
REMARK INTRA:                  -2.276
REMARK CONF_INDEPENDENT:        1.492
REMARK UNBOUND:                -2.276
REMARK  5 active torsions:
REMARK  status: ('A' for Active; 'I' for Inactive)
REMARK    1  A    between atoms: O_2  and  C_3 
REMARK    2  A    between atoms: C_13  and  C_14 
REMARK    3  A    between atoms: C_14  and  C_16 
REMARK    4  A    between atoms: C_22  and  C_23 
REMARK    5  A    between atoms: C_27  and  N_28 
ROOT
ATOM      1  C   UNL d   1      23.081 -17.400  -0.610  0.00  0.00     0.069 A 
ATOM      2  C   UNL d   1      23.666 -18.383   0.209  0.00  0.00     0.039 A 
ATOM      3  C   UNL d   1      25.044 -18.418   0.389  0.00  0.00     0.033 A 
ATOM      4  C   UNL d   1      25.779 -17.481  -0.296  0.00  0.00     0.044 A 
ATOM      5  C   UNL d   1      25.233 -16.484  -1.113  0.00  0.00     0.018 A 
ATOM      6  C   UNL d   1      23.862 -16.445  -1.283  0.00  0.00     0.049 A 
ATOM      7  C   UNL d   1      26.357 -15.618  -1.665  0.00  0.00     0.249 C 
ATOM      8  C   UNL d   1      27.580 -16.455  -1.203  0.00  0.00     0.264 C 
ATOM      9  O   UNL d   1      28.729 -16.289  -1.549  0.00  0.00    -0.270 OA
ATOM     10  N   UNL d   1      27.148 -17.437  -0.343  0.00  0.00    -0.324 N 
ATOM     11  C   UNL d   1      26.272 -14.151  -1.160  0.00  0.00     0.122 C 
ATOM     12  C   UNL d   1      25.766 -13.322  -2.448  0.00  0.00     0.065 C 
ATOM     13  C   UNL d   1      25.635 -14.343  -3.625  0.00  0.00     0.209 C 
ATOM     14  C   UNL d   1      26.139 -13.927  -5.019  0.00  0.00     0.109 C 
ATOM     15  S   UNL d   1      27.573 -14.953  -5.418  0.00  0.00    -0.140 SA
ATOM     16  C   UNL d   1      27.783 -15.575  -3.774  0.00  0.00     0.311 C 
ATOM     17  N   UNL d   1      26.398 -15.564  -3.187  0.00  0.00    -0.034 N 
ATOM     18  H   UNL d   1      27.781 -18.053   0.154  0.00  0.00     0.169 HD
ATOM     19  H   UNL d   1      25.970 -16.420  -3.561  0.00  0.00     0.283 HD
ENDROOT
BRANCH  11  20
ATOM     20  C   UNL d   1      27.505 -13.550  -0.390  0.00  0.00     0.169 C 
ATOM     21  O   UNL d   1      28.663 -13.716  -0.764  0.00  0.00    -0.292 OA
BRANCH  20  22
ATOM     22  C   UNL d   1      27.469 -12.551   0.702  0.00  0.00     0.028 C 
ATOM     23  C   UNL d   1      27.387 -11.176   0.572  0.00  0.00     0.018 C 
ATOM     24  C   UNL d   1      27.186 -10.308   1.619  0.00  0.00     0.020 C 
ATOM     25  C   UNL d   1      27.075 -10.867   2.854  0.00  0.00     0.116 C 
ATOM     26  N   UNL d   1      27.030 -12.201   3.053  0.00  0.00    -0.272 NA
ATOM     27  C   UNL d   1      27.166 -13.010   1.973  0.00  0.00     0.131 C 
ENDBRANCH  20  22
ENDBRANCH  11  20
BRANCH  12  28
ATOM     28  C   UNL d   1      26.599 -12.111  -2.834  0.00  0.00    -0.049 C 
ATOM     29  C   UNL d   1      27.954 -12.290  -3.178  0.00  0.00     0.007 C 
ATOM     30  C   UNL d   1      28.874 -11.287  -3.375  0.00  0.00     0.003 C 
ATOM     31  C   UNL d   1      28.466 -10.007  -3.119  0.00  0.00     0.036 C 
ATOM     32  C   UNL d   1      27.110  -9.764  -2.837  0.00  0.00     0.103 C 
ATOM     33  C   UNL d   1      26.146 -10.800  -2.770  0.00  0.00     0.043 C 
BRANCH  32  34
ATOM     34  N   UNL d   1      26.718  -8.396  -2.517  0.00  0.00    -0.116 N 
ATOM     35  O   UNL d   1      26.164  -8.197  -1.428  0.00  0.00    -0.532 OA
ATOM     36  O   UNL d   1      26.958  -7.523  -3.362  0.00  0.00    -0.532 OA
ENDBRANCH  32  34
ENDBRANCH  12  28
BRANCH   1  37
ATOM     37  O   UNL d   1      21.744 -17.361  -0.895  0.00  0.00    -0.356 OA
ATOM     38  C   UNL d   1      21.105 -18.637  -0.895  0.00  0.00     0.210 C 
ENDBRANCH   1  37
TORSDOF 5
ENDMDL
MODEL 4
REMARK VINA RESULT:    -8.006      2.816      4.383
REMARK INTER + INTRA:         -11.750
REMARK INTER:                  -9.498
REMARK INTRA:                  -2.252
REMARK CONF_INDEPENDENT:        1.492
REMARK UNBOUND:                -2.252
REMARK  5 active torsions:
REMARK  status: ('A' for Active; 'I' for Inactive)
REMARK    1  A    between atoms: O_2  and  C_3 
REMARK    2  A    between atoms: C_13  and  C_14 
REMARK    3  A    between atoms: C_14  and  C_16 
REMARK    4  A    between atoms: C_22  and  C_23 
REMARK    5  A    between atoms: C_27  and  N_28 
ROOT
ATOM      1  C   UNL d   1      23.090 -17.451  -0.613  0.00  0.00     0.069 A 
ATOM      2  C   UNL d   1      23.688 -18.438   0.192  0.00  0.00     0.039 A 
ATOM      3  C   UNL d   1      25.067 -18.468   0.358  0.00  0.00     0.033 A 
ATOM      4  C   UNL d   1      25.791 -17.521  -0.325  0.00  0.00     0.044 A 
ATOM      5  C   UNL d   1      25.232 -16.520  -1.128  0.00  0.00     0.018 A 
ATOM      6  C   UNL d   1      23.860 -16.486  -1.285  0.00  0.00     0.049 A 
ATOM      7  C   UNL d   1      26.347 -15.644  -1.684  0.00  0.00     0.249 C 
ATOM      8  C   UNL d   1      27.578 -16.479  -1.241  0.00  0.00     0.264 C 
ATOM      9  O   UNL d   1      28.723 -16.304  -1.596  0.00  0.00    -0.270 OA
ATOM     10  N   UNL d   1      27.159 -17.471  -0.385  0.00  0.00    -0.324 N 
ATOM     11  C   UNL d   1      26.259 -14.182  -1.165  0.00  0.00     0.122 C 
ATOM     12  C   UNL d   1      25.737 -13.344  -2.440  0.00  0.00     0.065 C 
ATOM     13  C   UNL d   1      25.599 -14.355  -3.625  0.00  0.00     0.209 C 
ATOM     14  C   UNL d   1      26.088 -13.925  -5.020  0.00  0.00     0.109 C 
ATOM     15  S   UNL d   1      27.523 -14.940  -5.442  0.00  0.00    -0.140 SA
ATOM     16  C   UNL d   1      27.752 -15.575  -3.806  0.00  0.00     0.311 C 
ATOM     17  N   UNL d   1      26.373 -15.576  -3.205  0.00  0.00    -0.034 N 
ATOM     18  H   UNL d   1      27.801 -18.088   0.100  0.00  0.00     0.169 HD
ATOM     19  H   UNL d   1      25.946 -16.431  -3.583  0.00  0.00     0.283 HD
ENDROOT
BRANCH  11  20
ATOM     20  C   UNL d   1      27.497 -13.581  -0.402  0.00  0.00     0.169 C 
ATOM     21  O   UNL d   1      28.653 -13.743  -0.785  0.00  0.00    -0.292 OA
BRANCH  20  22
ATOM     22  C   UNL d   1      27.467 -12.587   0.695  0.00  0.00     0.028 C 
ATOM     23  C   UNL d   1      27.394 -11.211   0.571  0.00  0.00     0.018 C 
ATOM     24  C   UNL d   1      27.198 -10.347   1.622  0.00  0.00     0.020 C 
ATOM     25  C   UNL d   1      27.083 -10.910   2.854  0.00  0.00     0.116 C 
ATOM     26  N   UNL d   1      27.030 -12.245   3.048  0.00  0.00    -0.272 NA
ATOM     27  C   UNL d   1      27.161 -13.049   1.964  0.00  0.00     0.131 C 
ENDBRANCH  20  22
ENDBRANCH  11  20
BRANCH  12  28
ATOM     28  C   UNL d   1      26.560 -12.125  -2.824  0.00  0.00    -0.049 C 
ATOM     29  C   UNL d   1      25.905 -10.903  -3.073  0.00  0.00     0.007 C 
ATOM     30  C   UNL d   1      26.483  -9.770  -3.596  0.00  0.00     0.003 C 
ATOM     31  C   UNL d   1      27.785  -9.867  -4.004  0.00  0.00     0.036 C 
ATOM     32  C   UNL d   1      28.506 -11.041  -3.720  0.00  0.00     0.103 C 
ATOM     33  C   UNL d   1      27.929 -12.151  -3.058  0.00  0.00     0.043 C 
BRANCH  32  34
ATOM     34  N   UNL d   1      29.876 -11.131  -4.216  0.00  0.00    -0.116 N 
ATOM     35  O   UNL d   1      30.438 -10.077  -4.540  0.00  0.00    -0.532 OA
ATOM     36  O   UNL d   1      30.382 -12.259  -4.287  0.00  0.00    -0.532 OA
ENDBRANCH  32  34
ENDBRANCH  12  28
BRANCH   1  37
ATOM     37  O   UNL d   1      21.750 -17.416  -0.884  0.00  0.00    -0.356 OA
ATOM     38  C   UNL d   1      21.118 -18.696  -0.894  0.00  0.00     0.210 C 
ENDBRANCH   1  37
TORSDOF 5
ENDMDL
MODEL 5
REMARK VINA RESULT:    -7.886      2.742      5.660
REMARK INTER + INTRA:         -11.111
REMARK INTER:                  -9.377
REMARK INTRA:                  -1.734
REMARK CONF_INDEPENDENT:        1.492
REMARK UNBOUND:                -1.734
REMARK  5 active torsions:
REMARK  status: ('A' for Active; 'I' for Inactive)
REMARK    1  A    between atoms: O_2  and  C_3 
REMARK    2  A    between atoms: C_13  and  C_14 
REMARK    3  A    between atoms: C_14  and  C_16 
REMARK    4  A    between atoms: C_22  and  C_23 
REMARK    5  A    between atoms: C_27  and  N_28 
ROOT
ATOM      1  C   UNL d   1      31.937 -16.929  -0.403  0.00  0.00     0.069 A 
ATOM      2  C   UNL d   1      31.329 -18.107  -0.873  0.00  0.00     0.039 A 
ATOM      3  C   UNL d   1      29.944 -18.206  -0.936  0.00  0.00     0.033 A 
ATOM      4  C   UNL d   1      29.228 -17.122  -0.487  0.00  0.00     0.044 A 
ATOM      5  C   UNL d   1      29.798 -15.931  -0.020  0.00  0.00     0.018 A 
ATOM      6  C   UNL d   1      31.175 -15.833   0.033  0.00  0.00     0.049 A 
ATOM      7  C   UNL d   1      28.688 -14.957   0.351  0.00  0.00     0.249 C 
ATOM      8  C   UNL d   1      27.462 -15.902   0.229  0.00  0.00     0.264 C 
ATOM      9  O   UNL d   1      26.334 -15.658   0.597  0.00  0.00    -0.270 OA
ATOM     10  N   UNL d   1      27.865 -17.081  -0.354  0.00  0.00    -0.324 N 
ATOM     11  C   UNL d   1      28.695 -13.688  -0.546  0.00  0.00     0.122 C 
ATOM     12  C   UNL d   1      29.261 -12.528   0.421  0.00  0.00     0.065 C 
ATOM     13  C   UNL d   1      29.501 -13.179   1.822  0.00  0.00     0.209 C 
ATOM     14  C   UNL d   1      29.079 -12.396   3.079  0.00  0.00     0.109 C 
ATOM     15  S   UNL d   1      27.706 -13.285   3.850  0.00  0.00    -0.140 SA
ATOM     16  C   UNL d   1      27.405 -14.342   2.463  0.00  0.00     0.311 C 
ATOM     17  N   UNL d   1      28.747 -14.482   1.797  0.00  0.00    -0.034 N 
ATOM     18  H   UNL d   1      27.218 -17.817  -0.613  0.00  0.00     0.169 HD
ATOM     19  H   UNL d   1      29.224 -15.195   2.361  0.00  0.00     0.283 HD
ENDROOT
BRANCH  11  20
ATOM     20  C   UNL d   1      27.395 -13.338  -1.361  0.00  0.00     0.169 C 
ATOM     21  O   UNL d   1      26.655 -12.407  -1.057  0.00  0.00    -0.292 OA
BRANCH  20  22
ATOM     22  C   UNL d   1      27.001 -13.883  -2.679  0.00  0.00     0.028 C 
ATOM     23  C   UNL d   1      27.805 -14.570  -3.572  0.00  0.00     0.018 C 
ATOM     24  C   UNL d   1      27.346 -15.200  -4.704  0.00  0.00     0.020 C 
ATOM     25  C   UNL d   1      26.010 -15.117  -4.942  0.00  0.00     0.116 C 
ATOM     26  N   UNL d   1      25.142 -14.566  -4.067  0.00  0.00    -0.272 NA
ATOM     27  C   UNL d   1      25.647 -14.019  -2.932  0.00  0.00     0.131 C 
ENDBRANCH  20  22
ENDBRANCH  11  20
BRANCH  12  28
ATOM     28  C   UNL d   1      28.420 -11.266   0.516  0.00  0.00    -0.049 C 
ATOM     29  C   UNL d   1      28.865 -10.093  -0.125  0.00  0.00     0.007 C 
ATOM     30  C   UNL d   1      28.315  -8.840   0.013  0.00  0.00     0.003 C 
ATOM     31  C   UNL d   1      27.310  -8.698   0.930  0.00  0.00     0.036 C 
ATOM     32  C   UNL d   1      26.782  -9.846   1.550  0.00  0.00     0.103 C 
ATOM     33  C   UNL d   1      27.275 -11.148   1.293  0.00  0.00     0.043 C 
BRANCH  32  34
ATOM     34  N   UNL d   1      25.748  -9.654   2.561  0.00  0.00    -0.116 N 
ATOM     35  O   UNL d   1      24.575  -9.574   2.172  0.00  0.00    -0.532 OA
ATOM     36  O   UNL d   1      26.113  -9.575   3.741  0.00  0.00    -0.532 OA
ENDBRANCH  32  34
ENDBRANCH  12  28
BRANCH   1  37
ATOM     37  O   UNL d   1      33.289 -16.799  -0.238  0.00  0.00    -0.356 OA
ATOM     38  C   UNL d   1      33.705 -16.655   1.119  0.00  0.00     0.210 C 
ENDBRANCH   1  37
TORSDOF 5
ENDMDL
MODEL 6
REMARK VINA RESULT:    -7.765      2.995      7.262
REMARK INTER + INTRA:         -11.174
REMARK INTER:                  -9.256
REMARK INTRA:                  -1.917
REMARK CONF_INDEPENDENT:        1.492
REMARK UNBOUND:                -1.917
REMARK  5 active torsions:
REMARK  status: ('A' for Active; 'I' for Inactive)
REMARK    1  A    between atoms: O_2  and  C_3 
REMARK    2  A    between atoms: C_13  and  C_14 
REMARK    3  A    between atoms: C_14  and  C_16 
REMARK    4  A    between atoms: C_22  and  C_23 
REMARK    5  A    between atoms: C_27  and  N_28 
ROOT
ATOM      1  C   UNL d   1      29.058 -14.264   4.076  0.00  0.00     0.069 A 
ATOM      2  C   UNL d   1      27.967 -13.528   4.574  0.00  0.00     0.039 A 
ATOM      3  C   UNL d   1      27.031 -12.984   3.703  0.00  0.00     0.033 A 
ATOM      4  C   UNL d   1      27.254 -13.174   2.361  0.00  0.00     0.044 A 
ATOM      5  C   UNL d   1      28.322 -13.906   1.828  0.00  0.00     0.018 A 
ATOM      6  C   UNL d   1      29.247 -14.454   2.696  0.00  0.00     0.049 A 
ATOM      7  C   UNL d   1      28.209 -13.924   0.310  0.00  0.00     0.249 C 
ATOM      8  C   UNL d   1      27.059 -12.898   0.123  0.00  0.00     0.264 C 
ATOM      9  O   UNL d   1      26.700 -12.412  -0.926  0.00  0.00    -0.270 OA
ATOM     10  N   UNL d   1      26.515 -12.610   1.354  0.00  0.00    -0.324 N 
ATOM     11  C   UNL d   1      27.976 -15.356  -0.246  0.00  0.00     0.122 C 
ATOM     12  C   UNL d   1      29.391 -15.751  -0.913  0.00  0.00     0.065 C 
ATOM     13  C   UNL d   1      30.335 -14.516  -0.747  0.00  0.00     0.209 C 
ATOM     14  C   UNL d   1      31.222 -14.103  -1.936  0.00  0.00     0.109 C 
ATOM     15  S   UNL d   1      30.637 -12.499  -2.533  0.00  0.00    -0.140 SA
ATOM     16  C   UNL d   1      29.120 -12.537  -1.622  0.00  0.00     0.311 C 
ATOM     17  N   UNL d   1      29.432 -13.361  -0.403  0.00  0.00    -0.034 N 
ATOM     18  H   UNL d   1      25.693 -12.029   1.472  0.00  0.00     0.169 HD
ATOM     19  H   UNL d   1      29.905 -12.698   0.223  0.00  0.00     0.283 HD
ENDROOT
BRANCH  11  20
ATOM     20  C   UNL d   1      26.698 -15.622  -1.123  0.00  0.00     0.169 C 
ATOM     21  O   UNL d   1      26.459 -14.994  -2.151  0.00  0.00    -0.292 OA
BRANCH  20  22
ATOM     22  C   UNL d   1      25.757 -16.757  -0.998  0.00  0.00     0.028 C 
ATOM     23  C   UNL d   1      25.527 -17.530   0.126  0.00  0.00     0.018 C 
ATOM     24  C   UNL d   1      24.522 -18.461   0.236  0.00  0.00     0.020 C 
ATOM     25  C   UNL d   1      23.722 -18.619  -0.852  0.00  0.00     0.116 C 
ATOM     26  N   UNL d   1      23.807 -17.829  -1.944  0.00  0.00    -0.272 NA
ATOM     27  C   UNL d   1      24.776 -16.881  -1.968  0.00  0.00     0.131 C 
ENDBRANCH  20  22
ENDBRANCH  11  20
BRANCH  12  28
ATOM     28  C   UNL d   1      29.339 -16.239  -2.352  0.00  0.00    -0.049 C 
ATOM     29  C   UNL d   1      30.058 -17.396  -2.711  0.00  0.00     0.007 C 
ATOM     30  C   UNL d   1      30.254 -17.858  -3.992  0.00  0.00     0.003 C 
ATOM     31  C   UNL d   1      29.796 -17.073  -5.014  0.00  0.00     0.036 C 
ATOM     32  C   UNL d   1      29.016 -15.942  -4.713  0.00  0.00     0.103 C 
ATOM     33  C   UNL d   1      28.711 -15.556  -3.385  0.00  0.00     0.043 C 
BRANCH  32  34
ATOM     34  N   UNL d   1      28.588 -15.098  -5.824  0.00  0.00    -0.116 N 
ATOM     35  O   UNL d   1      29.424 -14.326  -6.311  0.00  0.00    -0.532 OA
ATOM     36  O   UNL d   1      27.413 -15.203  -6.198  0.00  0.00    -0.532 OA
ENDBRANCH  32  34
ENDBRANCH  12  28
BRANCH   1  37
ATOM     37  O   UNL d   1      30.057 -14.754   4.871  0.00  0.00    -0.356 OA
ATOM     38  C   UNL d   1      29.962 -14.366   6.241  0.00  0.00     0.210 C 
ENDBRANCH   1  37
TORSDOF 5
ENDMDL
MODEL 7
REMARK VINA RESULT:    -7.652      3.248      7.045
REMARK INTER + INTRA:         -11.461
REMARK INTER:                  -9.143
REMARK INTRA:                  -2.318
REMARK CONF_INDEPENDENT:        1.492
REMARK UNBOUND:                -2.318
REMARK  5 active torsions:
REMARK  status: ('A' for Active; 'I' for Inactive)
REMARK    1  A    between atoms: O_2  and  C_3 
REMARK    2  A    between atoms: C_13  and  C_14 
REMARK    3  A    between atoms: C_14  and  C_16 
REMARK    4  A    between atoms: C_22  and  C_23 
REMARK    5  A    between atoms: C_27  and  N_28 
ROOT
ATOM      1  C   UNL d   1      29.019 -13.661   4.708  0.00  0.00     0.069 A 
ATOM      2  C   UNL d   1      30.237 -13.016   4.991  0.00  0.00     0.039 A 
ATOM      3  C   UNL d   1      31.149 -12.759   3.974  0.00  0.00     0.033 A 
ATOM      4  C   UNL d   1      30.809 -13.196   2.717  0.00  0.00     0.044 A 
ATOM      5  C   UNL d   1      29.604 -13.833   2.395  0.00  0.00     0.018 A 
ATOM      6  C   UNL d   1      28.695 -14.079   3.406  0.00  0.00     0.049 A 
ATOM      7  C   UNL d   1      29.578 -14.129   0.902  0.00  0.00     0.249 C 
ATOM      8  C   UNL d   1      31.043 -13.765   0.539  0.00  0.00     0.264 C 
ATOM      9  O   UNL d   1      31.596 -13.996  -0.513  0.00  0.00    -0.270 OA
ATOM     10  N   UNL d   1      31.628 -13.146   1.619  0.00  0.00    -0.324 N 
ATOM     11  C   UNL d   1      28.452 -13.349   0.167  0.00  0.00     0.122 C 
ATOM     12  C   UNL d   1      27.348 -14.477  -0.166  0.00  0.00     0.065 C 
ATOM     13  C   UNL d   1      27.917 -15.839   0.350  0.00  0.00     0.209 C 
ATOM     14  C   UNL d   1      27.753 -17.088  -0.536  0.00  0.00     0.109 C 
ATOM     15  S   UNL d   1      29.397 -17.590  -1.097  0.00  0.00    -0.140 SA
ATOM     16  C   UNL d   1      30.196 -16.092  -0.598  0.00  0.00     0.311 C 
ATOM     17  N   UNL d   1      29.387 -15.604   0.573  0.00  0.00    -0.034 N 
ATOM     18  H   UNL d   1      32.557 -12.741   1.587  0.00  0.00     0.169 HD
ATOM     19  H   UNL d   1      29.736 -16.167   1.358  0.00  0.00     0.283 HD
ENDROOT
BRANCH  11  20
ATOM     20  C   UNL d   1      28.851 -12.399  -1.021  0.00  0.00     0.169 C 
ATOM     21  O   UNL d   1      29.847 -12.588  -1.715  0.00  0.00    -0.292 OA
BRANCH  20  22
ATOM     22  C   UNL d   1      28.022 -11.326  -1.616  0.00  0.00     0.028 C 
ATOM     23  C   UNL d   1      27.249 -11.407  -2.761  0.00  0.00     0.018 C 
ATOM     24  C   UNL d   1      26.368 -10.436  -3.173  0.00  0.00     0.020 C 
ATOM     25  C   UNL d   1      26.280  -9.328  -2.389  0.00  0.00     0.116 C 
ATOM     26  N   UNL d   1      26.911  -9.219  -1.201  0.00  0.00    -0.272 NA
ATOM     27  C   UNL d   1      27.716 -10.240  -0.814  0.00  0.00     0.131 C 
ENDBRANCH  20  22
ENDBRANCH  11  20
BRANCH  12  28
ATOM     28  C   UNL d   1      26.893 -14.562  -1.614  0.00  0.00    -0.049 C 
ATOM     29  C   UNL d   1      25.514 -14.575  -1.901  0.00  0.00     0.007 C 
ATOM     30  C   UNL d   1      24.949 -14.824  -3.131  0.00  0.00     0.003 C 
ATOM     31  C   UNL d   1      25.793 -15.189  -4.142  0.00  0.00     0.036 C 
ATOM     32  C   UNL d   1      27.183 -15.129  -3.930  0.00  0.00     0.103 C 
ATOM     33  C   UNL d   1      27.750 -14.739  -2.692  0.00  0.00     0.043 C 
BRANCH  32  34
ATOM     34  N   UNL d   1      28.054 -15.575  -5.012  0.00  0.00    -0.116 N 
ATOM     35  O   UNL d   1      27.779 -15.201  -6.160  0.00  0.00    -0.532 OA
ATOM     36  O   UNL d   1      29.006 -16.307  -4.711  0.00  0.00    -0.532 OA
ENDBRANCH  32  34
ENDBRANCH  12  28
BRANCH   1  37
ATOM     37  O   UNL d   1      28.118 -14.017   5.673  0.00  0.00    -0.356 OA
ATOM     38  C   UNL d   1      28.534 -13.722   7.005  0.00  0.00     0.210 C 
ENDBRANCH   1  37
TORSDOF 5
ENDMDL
MODEL 8
REMARK VINA RESULT:    -7.335      4.277      6.184
REMARK INTER + INTRA:         -11.145
REMARK INTER:                  -8.827
REMARK INTRA:                  -2.318
REMARK CONF_INDEPENDENT:        1.492
REMARK UNBOUND:                -2.318
REMARK  5 active torsions:
REMARK  status: ('A' for Active; 'I' for Inactive)
REMARK    1  A    between atoms: O_2  and  C_3 
REMARK    2  A    between atoms: C_13  and  C_14 
REMARK    3  A    between atoms: C_14  and  C_16 
REMARK    4  A    between atoms: C_22  and  C_23 
REMARK    5  A    between atoms: C_27  and  N_28 
ROOT
ATOM      1  C   UNL d   1      31.596 -19.690  -2.562  0.00  0.00     0.069 A 
ATOM      2  C   UNL d   1      32.094 -20.023  -1.289  0.00  0.00     0.039 A 
ATOM      3  C   UNL d   1      31.839 -19.201  -0.198  0.00  0.00     0.033 A 
ATOM      4  C   UNL d   1      31.120 -18.056  -0.444  0.00  0.00     0.044 A 
ATOM      5  C   UNL d   1      30.602 -17.696  -1.693  0.00  0.00     0.018 A 
ATOM      6  C   UNL d   1      30.849 -18.519  -2.775  0.00  0.00     0.049 A 
ATOM      7  C   UNL d   1      29.837 -16.386  -1.558  0.00  0.00     0.249 C 
ATOM      8  C   UNL d   1      30.233 -16.002  -0.107  0.00  0.00     0.264 C 
ATOM      9  O   UNL d   1      30.027 -14.936   0.430  0.00  0.00    -0.270 OA
ATOM     10  N   UNL d   1      30.879 -17.068   0.475  0.00  0.00    -0.324 N 
ATOM     11  C   UNL d   1      28.321 -16.557  -1.856  0.00  0.00     0.122 C 
ATOM     12  C   UNL d   1      28.125 -15.866  -3.300  0.00  0.00     0.065 C 
ATOM     13  C   UNL d   1      29.519 -15.299  -3.727  0.00  0.00     0.209 C 
ATOM     14  C   UNL d   1      29.578 -13.902  -4.372  0.00  0.00     0.109 C 
ATOM     15  S   UNL d   1      30.435 -12.799  -3.224  0.00  0.00    -0.140 SA
ATOM     16  C   UNL d   1      30.356 -13.911  -1.850  0.00  0.00     0.311 C 
ATOM     17  N   UNL d   1      30.349 -15.280  -2.472  0.00  0.00    -0.034 N 
ATOM     18  H   UNL d   1      31.155 -17.080   1.450  0.00  0.00     0.169 HD
ATOM     19  H   UNL d   1      31.339 -15.455  -2.682  0.00  0.00     0.283 HD
ENDROOT
BRANCH  11  20
ATOM     20  C   UNL d   1      27.287 -16.144  -0.744  0.00  0.00     0.169 C 
ATOM     21  O   UNL d   1      27.439 -15.153  -0.035  0.00  0.00    -0.292 OA
BRANCH  20  22
ATOM     22  C   UNL d   1      25.932 -16.704  -0.541  0.00  0.00     0.028 C 
ATOM     23  C   UNL d   1      24.736 -16.179  -0.996  0.00  0.00     0.018 C 
ATOM     24  C   UNL d   1      23.526 -16.827  -0.924  0.00  0.00     0.020 C 
ATOM     25  C   UNL d   1      23.534 -18.061  -0.353  0.00  0.00     0.116 C 
ATOM     26  N   UNL d   1      24.671 -18.691   0.014  0.00  0.00    -0.272 NA
ATOM     27  C   UNL d   1      25.844 -18.027  -0.144  0.00  0.00     0.131 C 
ENDBRANCH  20  22
ENDBRANCH  11  20
BRANCH  12  28
ATOM     28  C   UNL d   1      27.030 -14.817  -3.397  0.00  0.00    -0.049 C 
ATOM     29  C   UNL d   1      25.978 -15.005  -4.315  0.00  0.00     0.007 C 
ATOM     30  C   UNL d   1      25.019 -14.075  -4.645  0.00  0.00     0.003 C 
ATOM     31  C   UNL d   1      25.156 -12.824  -4.111  0.00  0.00     0.036 C 
ATOM     32  C   UNL d   1      26.147 -12.599  -3.139  0.00  0.00     0.103 C 
ATOM     33  C   UNL d   1      27.043 -13.609  -2.712  0.00  0.00     0.043 C 
BRANCH  32  34
ATOM     34  N   UNL d   1      26.300 -11.240  -2.628  0.00  0.00    -0.116 N 
ATOM     35  O   UNL d   1      27.109 -11.061  -1.708  0.00  0.00    -0.532 OA
ATOM     36  O   UNL d   1      25.601 -10.357  -3.143  0.00  0.00    -0.532 OA
ENDBRANCH  32  34
ENDBRANCH  12  28
BRANCH   1  37
ATOM     37  O   UNL d   1      31.880 -20.410  -3.690  0.00  0.00    -0.356 OA
ATOM     38  C   UNL d   1      30.794 -20.517  -4.609  0.00  0.00     0.210 C 
ENDBRANCH   1  37
TORSDOF 5
ENDMDL
MODEL 9
REMARK VINA RESULT:    -7.218      3.198      6.959
REMARK INTER + INTRA:         -10.733
REMARK INTER:                  -8.709
REMARK INTRA:                  -2.024
REMARK CONF_INDEPENDENT:        1.492
REMARK UNBOUND:                -2.024
REMARK  5 active torsions:
REMARK  status: ('A' for Active; 'I' for Inactive)
REMARK    1  A    between atoms: O_2  and  C_3 
REMARK    2  A    between atoms: C_13  and  C_14 
REMARK    3  A    between atoms: C_14  and  C_16 
REMARK    4  A    between atoms: C_22  and  C_23 
REMARK    5  A    between atoms: C_27  and  N_28 
ROOT
ATOM      1  C   UNL d   1      28.557 -13.439   4.511  0.00  0.00     0.069 A 
ATOM      2  C   UNL d   1      29.873 -13.732   4.915  0.00  0.00     0.039 A 
ATOM      3  C   UNL d   1      30.793 -14.231   4.002  0.00  0.00     0.033 A 
ATOM      4  C   UNL d   1      30.338 -14.449   2.724  0.00  0.00     0.044 A 
ATOM      5  C   UNL d   1      29.040 -14.163   2.283  0.00  0.00     0.018 A 
ATOM      6  C   UNL d   1      28.129 -13.657   3.191  0.00  0.00     0.049 A 
ATOM      7  C   UNL d   1      28.928 -14.504   0.803  0.00  0.00     0.249 C 
ATOM      8  C   UNL d   1      30.286 -15.228   0.600  0.00  0.00     0.264 C 
ATOM      9  O   UNL d   1      30.618 -15.860  -0.378  0.00  0.00    -0.270 OA
ATOM     10  N   UNL d   1      31.058 -15.051   1.725  0.00  0.00    -0.324 N 
ATOM     11  C   UNL d   1      28.658 -13.248  -0.071  0.00  0.00     0.122 C 
ATOM     12  C   UNL d   1      27.110 -13.396  -0.501  0.00  0.00     0.065 C 
ATOM     13  C   UNL d   1      26.594 -14.742   0.106  0.00  0.00     0.209 C 
ATOM     14  C   UNL d   1      25.705 -15.648  -0.764  0.00  0.00     0.109 C 
ATOM     15  S   UNL d   1      26.636 -17.155  -1.126  0.00  0.00    -0.140 SA
ATOM     16  C   UNL d   1      28.191 -16.515  -0.573  0.00  0.00     0.311 C 
ATOM     17  N   UNL d   1      27.830 -15.512   0.488  0.00  0.00    -0.034 N 
ATOM     18  H   UNL d   1      32.020 -15.362   1.788  0.00  0.00     0.169 HD
ATOM     19  H   UNL d   1      27.662 -16.090   1.320  0.00  0.00     0.283 HD
ENDROOT
BRANCH  11  20
ATOM     20  C   UNL d   1      29.668 -12.907  -1.227  0.00  0.00     0.169 C 
ATOM     21  O   UNL d   1      30.595 -12.114  -1.085  0.00  0.00    -0.292 OA
BRANCH  20  22
ATOM     22  C   UNL d   1      29.809 -13.616  -2.520  0.00  0.00     0.028 C 
ATOM     23  C   UNL d   1      29.811 -14.984  -2.724  0.00  0.00     0.018 C 
ATOM     24  C   UNL d   1      29.775 -15.584  -3.960  0.00  0.00     0.020 C 
ATOM     25  C   UNL d   1      29.746 -14.752  -5.035  0.00  0.00     0.116 C 
ATOM     26  N   UNL d   1      29.627 -13.412  -4.922  0.00  0.00    -0.272 NA
ATOM     27  C   UNL d   1      29.600 -12.881  -3.674  0.00  0.00     0.131 C 
ENDBRANCH  20  22
ENDBRANCH  11  20
BRANCH  12  28
ATOM     28  C   UNL d   1      26.815 -13.292  -1.988  0.00  0.00    -0.049 C 
ATOM     29  C   UNL d   1      26.299 -12.087  -2.504  0.00  0.00     0.007 C 
ATOM     30  C   UNL d   1      25.819 -11.896  -3.779  0.00  0.00     0.003 C 
ATOM     31  C   UNL d   1      25.745 -12.996  -4.588  0.00  0.00     0.036 C 
ATOM     32  C   UNL d   1      26.306 -14.209  -4.149  0.00  0.00     0.103 C 
ATOM     33  C   UNL d   1      26.918 -14.352  -2.880  0.00  0.00     0.043 C 
BRANCH  32  34
ATOM     34  N   UNL d   1      26.162 -15.375  -5.014  0.00  0.00    -0.116 N 
ATOM     35  O   UNL d   1      25.178 -16.104  -4.835  0.00  0.00    -0.532 OA
ATOM     36  O   UNL d   1      27.042 -15.563  -5.865  0.00  0.00    -0.532 OA
ENDBRANCH  32  34
ENDBRANCH  12  28
BRANCH   1  37
ATOM     37  O   UNL d   1      27.582 -13.025   5.376  0.00  0.00    -0.356 OA
ATOM     38  C   UNL d   1      28.010 -12.906   6.732  0.00  0.00     0.210 C 
ENDBRANCH   1  37
TORSDOF 5
ENDMDL
