MODEL 1
REMARK VINA RESULT:   -23.123      0.000      0.000
REMARK INTER + INTRA:         -25.011
REMARK INTER:                 -24.316
REMARK INTRA:                  -0.695
REMARK CONF_INDEPENDENT:        1.193
REMARK UNBOUND:                -0.695
REMARK  4 active torsions:
REMARK  status: ('A' for Active; 'I' for Inactive)
REMARK       I    between atoms: C_2  and  N_3 
REMARK    1  A    between atoms: C_17  and  C_2 
REMARK    2  A    between atoms: N_3  and  N_4 
REMARK    3  A    between atoms: N_4  and  S_5 
REMARK    4  A    between atoms: S_5  and  C_8 
ROOT
ATOM      1  O   UNL d   1      23.882 -16.140  -1.471  0.00  0.00    -0.269 OA
ATOM      2  C   UNL d   1      24.925 -16.765  -1.292  0.00  0.00     0.268 C 
ATOM      3  N   UNL d   1      25.058 -17.765  -0.328  0.00  0.00    -0.258 N 
ATOM      4  H   UNL d   1      25.956 -18.202  -0.122  0.00  0.00     0.190 HD
ENDROOT
BRANCH   3   5
ATOM      5  N   UNL d   1      23.941 -18.142   0.581  0.00  0.00    -0.220 N 
ATOM      6  H   UNL d   1      24.119 -17.971   1.576  0.00  0.00     0.200 HD
BRANCH   5   7
ATOM      7  S   UNL d   1      22.370 -17.801  -0.029  0.00  0.00     0.278 S 
ATOM      8  O   UNL d   1      22.166 -16.403   0.272  0.00  0.00    -0.199 OA
ATOM      9  O   UNL d   1      22.365 -18.296  -1.393  0.00  0.00    -0.199 OA
BRANCH   7  10
ATOM     10  C   UNL d   1      21.206 -18.740   0.896  0.00  0.00     0.112 A 
ATOM     11  C   UNL d   1      21.301 -18.950   2.287  0.00  0.00     0.028 A 
ATOM     12  C   UNL d   1      20.326 -19.673   3.027  0.00  0.00     0.004 A 
ATOM     13  C   UNL d   1      19.190 -20.264   2.446  0.00  0.00     0.035 A 
ATOM     14  C   UNL d   1      19.069 -20.121   1.045  0.00  0.00     0.098 A 
ATOM     15  N   UNL d   1      18.081 -20.635   0.298  0.00  0.00    -0.191 NA
ATOM     16  C   UNL d   1      20.096 -19.342   0.244  0.00  0.00     0.119 A 
ATOM     17  S   UNL d   1      18.405 -20.201  -1.270  0.00  0.00     0.117 SA
ATOM     18  N   UNL d   1      19.798 -19.325  -1.066  0.00  0.00    -0.190 NA
ENDBRANCH   7  10
ENDBRANCH   5   7
ENDBRANCH   3   5
BRANCH   2  19
ATOM     19  C   UNL d   1      26.219 -16.561  -2.122  0.00  0.00     0.246 C 
ATOM     20  C   UNL d   1      26.287 -15.119  -2.616  0.00  0.00     0.218 C 
ATOM     21  O   UNL d   1      27.259 -15.009  -3.670  0.00  0.00    -0.345 OA
ATOM     22  C   UNL d   1      28.423 -15.668  -3.352  0.00  0.00     0.102 A 
ATOM     23  C   UNL d   1      29.529 -15.419  -4.166  0.00  0.00     0.039 A 
ATOM     24  C   UNL d   1      28.521 -16.567  -2.279  0.00  0.00     0.103 A 
ATOM     25  C   UNL d   1      30.747 -16.046  -3.898  0.00  0.00     0.003 A 
ATOM     26  C   UNL d   1      30.853 -16.927  -2.820  0.00  0.00     0.003 A 
ATOM     27  C   UNL d   1      29.741 -17.186  -2.009  0.00  0.00     0.040 A 
ATOM     28  O   UNL d   1      27.450 -16.880  -1.465  0.00  0.00    -0.331 OA
ENDBRANCH   2  19
TORSDOF 4
ENDMDL
MODEL 2
REMARK VINA RESULT:   -23.079      2.625      3.366
REMARK INTER + INTRA:         -25.435
REMARK INTER:                 -24.272
REMARK INTRA:                  -1.163
REMARK CONF_INDEPENDENT:        1.193
REMARK UNBOUND:                -1.163
REMARK  4 active torsions:
REMARK  status: ('A' for Active; 'I' for Inactive)
REMARK       I    between atoms: C_2  and  N_3 
REMARK    1  A    between atoms: C_17  and  C_2 
REMARK    2  A    between atoms: N_3  and  N_4 
REMARK    3  A    between atoms: N_4  and  S_5 
REMARK    4  A    between atoms: S_5  and  C_8 
ROOT
ATOM      1  O   UNL d   1      25.966 -14.221  -1.219  0.00  0.00    -0.269 OA
ATOM      2  C   UNL d   1      26.505 -15.198  -1.733  0.00  0.00     0.268 C 
ATOM      3  N   UNL d   1      26.543 -16.454  -1.126  0.00  0.00    -0.258 N 
ATOM      4  H   UNL d   1      27.082 -17.227  -1.516  0.00  0.00     0.190 HD
ENDROOT
BRANCH   3   5
ATOM      5  N   UNL d   1      25.946 -16.704   0.214  0.00  0.00    -0.220 N 
ATOM      6  H   UNL d   1      25.713 -15.860   0.746  0.00  0.00     0.200 HD
BRANCH   5   7
ATOM      7  S   UNL d   1      24.850 -18.027   0.278  0.00  0.00     0.278 S 
ATOM      8  O   UNL d   1      25.381 -18.977  -0.673  0.00  0.00    -0.199 OA
ATOM      9  O   UNL d   1      24.712 -18.353   1.685  0.00  0.00    -0.199 OA
BRANCH   7  10
ATOM     10  C   UNL d   1      23.288 -17.475  -0.310  0.00  0.00     0.112 A 
ATOM     11  C   UNL d   1      23.036 -16.156  -0.740  0.00  0.00     0.028 A 
ATOM     12  C   UNL d   1      21.779 -15.738  -1.255  0.00  0.00     0.004 A 
ATOM     13  C   UNL d   1      20.664 -16.586  -1.366  0.00  0.00     0.035 A 
ATOM     14  C   UNL d   1      20.848 -17.911  -0.906  0.00  0.00     0.098 A 
ATOM     15  N   UNL d   1      19.905 -18.864  -0.895  0.00  0.00    -0.191 NA
ATOM     16  C   UNL d   1      22.188 -18.374  -0.365  0.00  0.00     0.119 A 
ATOM     17  S   UNL d   1      20.615 -20.218  -0.253  0.00  0.00     0.117 SA
ATOM     18  N   UNL d   1      22.153 -19.662   0.017  0.00  0.00    -0.190 NA
ENDBRANCH   7  10
ENDBRANCH   5   7
ENDBRANCH   3   5
BRANCH   2  19
ATOM     19  C   UNL d   1      27.184 -15.189  -3.128  0.00  0.00     0.246 C 
ATOM     20  C   UNL d   1      26.152 -14.841  -4.196  0.00  0.00     0.218 C 
ATOM     21  O   UNL d   1      26.659 -15.186  -5.496  0.00  0.00    -0.345 OA
ATOM     22  C   UNL d   1      27.960 -14.771  -5.655  0.00  0.00     0.102 A 
ATOM     23  C   UNL d   1      28.477 -14.809  -6.951  0.00  0.00     0.039 A 
ATOM     24  C   UNL d   1      28.760 -14.343  -4.585  0.00  0.00     0.103 A 
ATOM     25  C   UNL d   1      29.789 -14.393  -7.190  0.00  0.00     0.003 A 
ATOM     26  C   UNL d   1      30.582 -13.949  -6.129  0.00  0.00     0.003 A 
ATOM     27  C   UNL d   1      30.066 -13.921  -4.828  0.00  0.00     0.040 A 
ATOM     28  O   UNL d   1      28.312 -14.322  -3.278  0.00  0.00    -0.331 OA
ENDBRANCH   2  19
TORSDOF 4
ENDMDL
MODEL 3
REMARK VINA RESULT:   -22.987      1.328      2.055
REMARK INTER + INTRA:         -25.532
REMARK INTER:                 -24.180
REMARK INTRA:                  -1.352
REMARK CONF_INDEPENDENT:        1.193
REMARK UNBOUND:                -1.352
REMARK  4 active torsions:
REMARK  status: ('A' for Active; 'I' for Inactive)
REMARK       I    between atoms: C_2  and  N_3 
REMARK    1  A    between atoms: C_17  and  C_2 
REMARK    2  A    between atoms: N_3  and  N_4 
REMARK    3  A    between atoms: N_4  and  S_5 
REMARK    4  A    between atoms: S_5  and  C_8 
ROOT
ATOM      1  O   UNL d   1      26.807 -18.414   0.908  0.00  0.00    -0.269 OA
ATOM      2  C   UNL d   1      26.426 -17.577   0.093  0.00  0.00     0.268 C 
ATOM      3  N   UNL d   1      25.084 -17.407  -0.252  0.00  0.00    -0.258 N 
ATOM      4  H   UNL d   1      24.794 -16.781  -1.004  0.00  0.00     0.190 HD
ENDROOT
BRANCH   3   5
ATOM      5  N   UNL d   1      24.004 -18.249   0.330  0.00  0.00    -0.220 N 
ATOM      6  H   UNL d   1      24.154 -18.530   1.303  0.00  0.00     0.200 HD
BRANCH   5   7
ATOM      7  S   UNL d   1      22.412 -17.808  -0.147  0.00  0.00     0.278 S 
ATOM      8  O   UNL d   1      22.296 -16.420   0.237  0.00  0.00    -0.199 OA
ATOM      9  O   UNL d   1      22.287 -18.228  -1.530  0.00  0.00    -0.199 OA
BRANCH   7  10
ATOM     10  C   UNL d   1      21.272 -18.741   0.812  0.00  0.00     0.112 A 
ATOM     11  C   UNL d   1      21.407 -18.950   2.201  0.00  0.00     0.028 A 
ATOM     12  C   UNL d   1      20.451 -19.669   2.970  0.00  0.00     0.004 A 
ATOM     13  C   UNL d   1      19.298 -20.257   2.423  0.00  0.00     0.035 A 
ATOM     14  C   UNL d   1      19.136 -20.116   1.025  0.00  0.00     0.098 A 
ATOM     15  N   UNL d   1      18.126 -20.627   0.308  0.00  0.00    -0.191 NA
ATOM     16  C   UNL d   1      20.141 -19.341   0.194  0.00  0.00     0.119 A 
ATOM     17  S   UNL d   1      18.405 -20.197  -1.269  0.00  0.00     0.117 SA
ATOM     18  N   UNL d   1      19.806 -19.324  -1.107  0.00  0.00    -0.190 NA
ENDBRANCH   7  10
ENDBRANCH   5   7
ENDBRANCH   3   5
BRANCH   2  19
ATOM     19  C   UNL d   1      27.360 -16.577  -0.636  0.00  0.00     0.246 C 
ATOM     20  C   UNL d   1      28.596 -17.312  -1.146  0.00  0.00     0.218 C 
ATOM     21  O   UNL d   1      29.623 -16.364  -1.485  0.00  0.00    -0.345 OA
ATOM     22  C   UNL d   1      29.116 -15.312  -2.211  0.00  0.00     0.102 A 
ATOM     23  C   UNL d   1      30.044 -14.467  -2.823  0.00  0.00     0.039 A 
ATOM     24  C   UNL d   1      27.741 -15.063  -2.335  0.00  0.00     0.103 A 
ATOM     25  C   UNL d   1      29.602 -13.383  -3.585  0.00  0.00     0.003 A 
ATOM     26  C   UNL d   1      28.234 -13.143  -3.725  0.00  0.00     0.003 A 
ATOM     27  C   UNL d   1      27.304 -13.984  -3.102  0.00  0.00     0.040 A 
ATOM     28  O   UNL d   1      26.781 -15.843  -1.720  0.00  0.00    -0.331 OA
ENDBRANCH   2  19
TORSDOF 4
ENDMDL
MODEL 4
REMARK VINA RESULT:   -22.670      4.449      5.142
REMARK INTER + INTRA:         -25.507
REMARK INTER:                 -23.863
REMARK INTRA:                  -1.644
REMARK CONF_INDEPENDENT:        1.193
REMARK UNBOUND:                -1.644
REMARK  4 active torsions:
REMARK  status: ('A' for Active; 'I' for Inactive)
REMARK       I    between atoms: C_2  and  N_3 
REMARK    1  A    between atoms: C_17  and  C_2 
REMARK    2  A    between atoms: N_3  and  N_4 
REMARK    3  A    between atoms: N_4  and  S_5 
REMARK    4  A    between atoms: S_5  and  C_8 
ROOT
ATOM      1  O   UNL d   1      26.550 -14.667  -1.107  0.00  0.00    -0.269 OA
ATOM      2  C   UNL d   1      26.867 -15.115  -0.007  0.00  0.00     0.268 C 
ATOM      3  N   UNL d   1      26.686 -16.451   0.352  0.00  0.00    -0.258 N 
ATOM      4  H   UNL d   1      26.857 -16.784   1.301  0.00  0.00     0.190 HD
ENDROOT
BRANCH   3   5
ATOM      5  N   UNL d   1      26.069 -17.443  -0.571  0.00  0.00    -0.220 N 
ATOM      6  H   UNL d   1      26.724 -17.897  -1.215  0.00  0.00     0.200 HD
BRANCH   5   7
ATOM      7  S   UNL d   1      24.828 -18.404   0.131  0.00  0.00     0.278 S 
ATOM      8  O   UNL d   1      24.988 -19.700  -0.487  0.00  0.00    -0.199 OA
ATOM      9  O   UNL d   1      24.956 -18.222   1.564  0.00  0.00    -0.199 OA
BRANCH   7  10
ATOM     10  C   UNL d   1      23.276 -17.745  -0.366  0.00  0.00     0.112 A 
ATOM     11  C   UNL d   1      23.075 -16.393  -0.712  0.00  0.00     0.028 A 
ATOM     12  C   UNL d   1      21.823 -15.886  -1.156  0.00  0.00     0.004 A 
ATOM     13  C   UNL d   1      20.664 -16.673  -1.272  0.00  0.00     0.035 A 
ATOM     14  C   UNL d   1      20.798 -18.029  -0.895  0.00  0.00     0.098 A 
ATOM     15  N   UNL d   1      19.810 -18.935  -0.902  0.00  0.00    -0.191 NA
ATOM     16  C   UNL d   1      22.131 -18.586  -0.431  0.00  0.00     0.119 A 
ATOM     17  S   UNL d   1      20.474 -20.357  -0.364  0.00  0.00     0.117 SA
ATOM     18  N   UNL d   1      22.046 -19.890  -0.121  0.00  0.00    -0.190 NA
ENDBRANCH   7  10
ENDBRANCH   5   7
ENDBRANCH   3   5
BRANCH   2  19
ATOM     19  C   UNL d   1      27.536 -14.281   1.116  0.00  0.00     0.246 C 
ATOM     20  C   UNL d   1      26.689 -13.047   1.410  0.00  0.00     0.218 C 
ATOM     21  O   UNL d   1      27.460 -12.093   2.161  0.00  0.00    -0.345 OA
ATOM     22  C   UNL d   1      28.149 -12.698   3.186  0.00  0.00     0.102 A 
ATOM     23  C   UNL d   1      28.719 -11.856   4.142  0.00  0.00     0.039 A 
ATOM     24  C   UNL d   1      28.304 -14.088   3.284  0.00  0.00     0.103 A 
ATOM     25  C   UNL d   1      29.426 -12.400   5.217  0.00  0.00     0.003 A 
ATOM     26  C   UNL d   1      29.567 -13.785   5.326  0.00  0.00     0.003 A 
ATOM     27  C   UNL d   1      29.004 -14.629   4.362  0.00  0.00     0.040 A 
ATOM     28  O   UNL d   1      27.794 -14.966   2.346  0.00  0.00    -0.331 OA
ENDBRANCH   2  19
TORSDOF 4
ENDMDL
MODEL 5
REMARK VINA RESULT:   -22.287      3.216      4.592
REMARK INTER + INTRA:         -24.266
REMARK INTER:                 -23.480
REMARK INTRA:                  -0.787
REMARK CONF_INDEPENDENT:        1.193
REMARK UNBOUND:                -0.787
REMARK  4 active torsions:
REMARK  status: ('A' for Active; 'I' for Inactive)
REMARK       I    between atoms: C_2  and  N_3 
REMARK    1  A    between atoms: C_17  and  C_2 
REMARK    2  A    between atoms: N_3  and  N_4 
REMARK    3  A    between atoms: N_4  and  S_5 
REMARK    4  A    between atoms: S_5  and  C_8 
ROOT
ATOM      1  O   UNL d   1      25.294 -15.710  -3.330  0.00  0.00    -0.269 OA
ATOM      2  C   UNL d   1      25.818 -15.279  -2.305  0.00  0.00     0.268 C 
ATOM      3  N   UNL d   1      26.265 -16.106  -1.273  0.00  0.00    -0.258 N 
ATOM      4  H   UNL d   1      26.601 -15.730  -0.387  0.00  0.00     0.190 HD
ENDROOT
BRANCH   3   5
ATOM      5  N   UNL d   1      26.120 -17.586  -1.326  0.00  0.00    -0.220 N 
ATOM      6  H   UNL d   1      26.995 -18.099  -1.474  0.00  0.00     0.200 HD
BRANCH   5   7
ATOM      7  S   UNL d   1      24.979 -18.237  -0.217  0.00  0.00     0.278 S 
ATOM      8  O   UNL d   1      24.953 -19.650  -0.520  0.00  0.00    -0.199 OA
ATOM      9  O   UNL d   1      25.377 -17.745   1.088  0.00  0.00    -0.199 OA
BRANCH   7  10
ATOM     10  C   UNL d   1      23.400 -17.564  -0.595  0.00  0.00     0.112 A 
ATOM     11  C   UNL d   1      23.184 -16.206  -0.911  0.00  0.00     0.028 A 
ATOM     12  C   UNL d   1      21.907 -15.688  -1.259  0.00  0.00     0.004 A 
ATOM     13  C   UNL d   1      20.737 -16.466  -1.302  0.00  0.00     0.035 A 
ATOM     14  C   UNL d   1      20.889 -17.827  -0.950  0.00  0.00     0.098 A 
ATOM     15  N   UNL d   1      19.897 -18.727  -0.896  0.00  0.00    -0.191 NA
ATOM     16  C   UNL d   1      22.248 -18.397  -0.588  0.00  0.00     0.119 A 
ATOM     17  S   UNL d   1      20.587 -20.158  -0.422  0.00  0.00     0.117 SA
ATOM     18  N   UNL d   1      22.176 -19.704  -0.287  0.00  0.00    -0.190 NA
ENDBRANCH   7  10
ENDBRANCH   5   7
ENDBRANCH   3   5
BRANCH   2  19
ATOM     19  C   UNL d   1      26.087 -13.778  -2.025  0.00  0.00     0.246 C 
ATOM     20  C   UNL d   1      27.366 -13.632  -1.206  0.00  0.00     0.218 C 
ATOM     21  O   UNL d   1      27.431 -12.316  -0.631  0.00  0.00    -0.345 OA
ATOM     22  C   UNL d   1      27.107 -11.348  -1.552  0.00  0.00     0.102 A 
ATOM     23  C   UNL d   1      27.385 -10.027  -1.199  0.00  0.00     0.039 A 
ATOM     24  C   UNL d   1      26.508 -11.640  -2.787  0.00  0.00     0.103 A 
ATOM     25  C   UNL d   1      27.091  -8.991  -2.089  0.00  0.00     0.003 A 
ATOM     26  C   UNL d   1      26.512  -9.281  -3.326  0.00  0.00     0.003 A 
ATOM     27  C   UNL d   1      26.223 -10.605  -3.676  0.00  0.00     0.040 A 
ATOM     28  O   UNL d   1      26.176 -12.926  -3.171  0.00  0.00    -0.331 OA
ENDBRANCH   2  19
TORSDOF 4
ENDMDL
MODEL 6
REMARK VINA RESULT:   -21.377      3.794      4.884
REMARK INTER + INTRA:         -23.883
REMARK INTER:                 -22.570
REMARK INTRA:                  -1.313
REMARK CONF_INDEPENDENT:        1.193
REMARK UNBOUND:                -1.313
REMARK  4 active torsions:
REMARK  status: ('A' for Active; 'I' for Inactive)
REMARK       I    between atoms: C_2  and  N_3 
REMARK    1  A    between atoms: C_17  and  C_2 
REMARK    2  A    between atoms: N_3  and  N_4 
REMARK    3  A    between atoms: N_4  and  S_5 
REMARK    4  A    between atoms: S_5  and  C_8 
ROOT
ATOM      1  O   UNL d   1      26.853 -15.303  -2.344  0.00  0.00    -0.269 OA
ATOM      2  C   UNL d   1      26.913 -15.219  -1.120  0.00  0.00     0.268 C 
ATOM      3  N   UNL d   1      26.642 -16.292  -0.269  0.00  0.00    -0.258 N 
ATOM      4  H   UNL d   1      26.595 -16.180   0.744  0.00  0.00     0.190 HD
ENDROOT
BRANCH   3   5
ATOM      5  N   UNL d   1      26.235 -17.628  -0.784  0.00  0.00    -0.220 N 
ATOM      6  H   UNL d   1      27.007 -18.219  -1.107  0.00  0.00     0.200 HD
BRANCH   5   7
ATOM      7  S   UNL d   1      24.956 -18.376   0.089  0.00  0.00     0.278 S 
ATOM      8  O   UNL d   1      24.948 -19.739  -0.388  0.00  0.00    -0.199 OA
ATOM      9  O   UNL d   1      25.197 -18.058   1.484  0.00  0.00    -0.199 OA
BRANCH   7  10
ATOM     10  C   UNL d   1      23.445 -17.615  -0.390  0.00  0.00     0.112 A 
ATOM     11  C   UNL d   1      23.330 -16.251  -0.728  0.00  0.00     0.028 A 
ATOM     12  C   UNL d   1      22.109 -15.662  -1.158  0.00  0.00     0.004 A 
ATOM     13  C   UNL d   1      20.900 -16.372  -1.268  0.00  0.00     0.035 A 
ATOM     14  C   UNL d   1      20.950 -17.736  -0.898  0.00  0.00     0.098 A 
ATOM     15  N   UNL d   1      19.905 -18.576  -0.900  0.00  0.00    -0.191 NA
ATOM     16  C   UNL d   1      22.248 -18.380  -0.449  0.00  0.00     0.119 A 
ATOM     17  S   UNL d   1      20.480 -20.040  -0.375  0.00  0.00     0.117 SA
ATOM     18  N   UNL d   1      22.082 -19.678  -0.144  0.00  0.00    -0.190 NA
ENDBRANCH   7  10
ENDBRANCH   5   7
ENDBRANCH   3   5
BRANCH   2  19
ATOM     19  C   UNL d   1      27.326 -13.938  -0.350  0.00  0.00     0.246 C 
ATOM     20  C   UNL d   1      27.366 -12.755  -1.313  0.00  0.00     0.218 C 
ATOM     21  O   UNL d   1      28.090 -11.664  -0.717  0.00  0.00    -0.345 OA
ATOM     22  C   UNL d   1      27.707 -11.460   0.588  0.00  0.00     0.102 A 
ATOM     23  C   UNL d   1      28.137 -10.276   1.190  0.00  0.00     0.039 A 
ATOM     24  C   UNL d   1      26.937 -12.383   1.310  0.00  0.00     0.103 A 
ATOM     25  C   UNL d   1      27.779  -9.996   2.511  0.00  0.00     0.003 A 
ATOM     26  C   UNL d   1      26.997 -10.906   3.226  0.00  0.00     0.003 A 
ATOM     27  C   UNL d   1      26.574 -12.097   2.626  0.00  0.00     0.040 A 
ATOM     28  O   UNL d   1      26.517 -13.587   0.776  0.00  0.00    -0.331 OA
ENDBRANCH   2  19
TORSDOF 4
ENDMDL
