MODEL 1
REMARK VINA RESULT:    -8.191      0.000      0.000
REMARK INTER + INTRA:         -12.086
REMARK INTER:                 -10.578
REMARK INTRA:                  -1.508
REMARK CONF_INDEPENDENT:        2.386
REMARK UNBOUND:                -1.508
REMARK  8 active torsions:
REMARK  status: ('A' for Active; 'I' for Inactive)
REMARK    1  A    between atoms: C_2  and  C_3 
REMARK    2  A    between atoms: C_3  and  N_4 
REMARK       I    between atoms: N_4  and  C_5 
REMARK       I    between atoms: C_5  and  N_7 
REMARK    3  A    between atoms: N_7  and  N_8 
REMARK       I    between atoms: N_8  and  C_9 
REMARK    4  A    between atoms: C_9  and  C_11 
REMARK    5  A    between atoms: C_11  and  C_12 
REMARK    6  A    between atoms: C_12  and  C_13 
REMARK    7  A    between atoms: C_13  and  C_14 
REMARK    8  A    between atoms: C_14  and  C_16 
ROOT
ATOM      1  N   UNL d   1      23.853 -17.684  -0.472  0.00  0.00    -0.266 N 
ATOM      2  C   UNL d   1      25.212 -17.692  -0.180  0.00  0.00     0.236 C 
ATOM      3  O   UNL d   1      25.712 -18.575   0.517  0.00  0.00    -0.272 OA
ATOM      4  H   UNL d   1      23.389 -16.981  -1.043  0.00  0.00     0.190 HD
ENDROOT
BRANCH   2   5
ATOM      5  C   UNL d   1      26.041 -16.536  -0.776  0.00  0.00     0.105 C 
BRANCH   5   6
ATOM      6  C   UNL d   1      25.513 -16.099  -2.159  0.00  0.00     0.017 C 
BRANCH   6   7
ATOM      7  C   UNL d   1      25.474 -14.577  -2.372  0.00  0.00     0.084 C 
BRANCH   7   8
ATOM      8  C   UNL d   1      25.193 -14.214  -3.831  0.00  0.00     0.159 C 
ATOM      9  O   UNL d   1      24.065 -13.997  -4.271  0.00  0.00    -0.292 OA
BRANCH   8  10
ATOM     10  C   UNL d   1      26.348 -14.069  -4.757  0.00  0.00     0.010 A 
ATOM     11  C   UNL d   1      26.681 -12.822  -5.297  0.00  0.00     0.018 A 
ATOM     12  C   UNL d   1      27.777 -12.705  -6.155  0.00  0.00     0.043 A 
ATOM     13  C   UNL d   1      28.536 -13.830  -6.463  0.00  0.00     0.116 A 
ATOM     14  F   UNL d   1      29.583 -13.711  -7.288  0.00  0.00    -0.206 F 
ATOM     15  C   UNL d   1      28.224 -15.073  -5.923  0.00  0.00     0.043 A 
ATOM     16  C   UNL d   1      27.130 -15.195  -5.061  0.00  0.00     0.018 A 
ENDBRANCH   8  10
ENDBRANCH   7   8
ENDBRANCH   6   7
ENDBRANCH   5   6
ENDBRANCH   2   5
BRANCH   1  17
ATOM     17  N   UNL d   1      23.012 -18.729   0.047  0.00  0.00    -0.249 N 
ATOM     18  C   UNL d   1      21.655 -18.720  -0.231  0.00  0.00     0.334 C 
ATOM     19  N   UNL d   1      20.938 -19.770   0.316  0.00  0.00    -0.342 N 
ATOM     20  O   UNL d   1      21.135 -17.838  -0.916  0.00  0.00    -0.246 OA
ATOM     21  H   UNL d   1      21.413 -20.467   0.870  0.00  0.00     0.164 HD
ATOM     22  H   UNL d   1      23.478 -19.437   0.606  0.00  0.00     0.192 HD
BRANCH  19  23
ATOM     23  C   UNL d   1      19.491 -19.894   0.108  0.00  0.00     0.124 C 
BRANCH  23  24
ATOM     24  C   UNL d   1      18.714 -20.408   1.328  0.00  0.00     0.015 C 
ATOM     25  C   UNL d   1      17.800 -21.583   0.974  0.00  0.00     0.006 C 
ENDBRANCH  23  24
ENDBRANCH  19  23
ENDBRANCH   1  17
TORSDOF 8
ENDMDL
MODEL 2
REMARK VINA RESULT:    -8.160      1.011      1.264
REMARK INTER + INTRA:         -12.091
REMARK INTER:                 -10.546
REMARK INTRA:                  -1.545
REMARK CONF_INDEPENDENT:        2.386
REMARK UNBOUND:                -1.545
REMARK  8 active torsions:
REMARK  status: ('A' for Active; 'I' for Inactive)
REMARK    1  A    between atoms: C_2  and  C_3 
REMARK    2  A    between atoms: C_3  and  N_4 
REMARK       I    between atoms: N_4  and  C_5 
REMARK       I    between atoms: C_5  and  N_7 
REMARK    3  A    between atoms: N_7  and  N_8 
REMARK       I    between atoms: N_8  and  C_9 
REMARK    4  A    between atoms: C_9  and  C_11 
REMARK    5  A    between atoms: C_11  and  C_12 
REMARK    6  A    between atoms: C_12  and  C_13 
REMARK    7  A    between atoms: C_13  and  C_14 
REMARK    8  A    between atoms: C_14  and  C_16 
ROOT
ATOM      1  N   UNL d   1      23.787 -17.781  -0.696  0.00  0.00    -0.266 N 
ATOM      2  C   UNL d   1      25.141 -17.740  -0.385  0.00  0.00     0.236 C 
ATOM      3  O   UNL d   1      25.652 -18.576   0.360  0.00  0.00    -0.272 OA
ATOM      4  H   UNL d   1      23.314 -17.117  -1.306  0.00  0.00     0.190 HD
ENDROOT
BRANCH   2   5
ATOM      5  C   UNL d   1      25.950 -16.592  -1.024  0.00  0.00     0.105 C 
BRANCH   5   6
ATOM      6  C   UNL d   1      25.035 -15.516  -1.647  0.00  0.00     0.017 C 
BRANCH   6   7
ATOM      7  C   UNL d   1      25.785 -14.378  -2.356  0.00  0.00     0.084 C 
BRANCH   7   8
ATOM      8  C   UNL d   1      25.846 -14.594  -3.869  0.00  0.00     0.159 C 
ATOM      9  O   UNL d   1      24.878 -14.450  -4.614  0.00  0.00    -0.292 OA
BRANCH   8  10
ATOM     10  C   UNL d   1      27.155 -14.948  -4.479  0.00  0.00     0.010 A 
ATOM     11  C   UNL d   1      27.433 -14.633  -5.814  0.00  0.00     0.018 A 
ATOM     12  C   UNL d   1      28.674 -14.964  -6.364  0.00  0.00     0.043 A 
ATOM     13  C   UNL d   1      29.630 -15.601  -5.578  0.00  0.00     0.116 A 
ATOM     14  F   UNL d   1      30.815 -15.917  -6.113  0.00  0.00    -0.206 F 
ATOM     15  C   UNL d   1      29.372 -15.908  -4.247  0.00  0.00     0.043 A 
ATOM     16  C   UNL d   1      28.132 -15.576  -3.690  0.00  0.00     0.018 A 
ENDBRANCH   8  10
ENDBRANCH   7   8
ENDBRANCH   6   7
ENDBRANCH   5   6
ENDBRANCH   2   5
BRANCH   1  17
ATOM     17  N   UNL d   1      22.965 -18.821  -0.141  0.00  0.00    -0.249 N 
ATOM     18  C   UNL d   1      21.594 -18.797  -0.344  0.00  0.00     0.334 C 
ATOM     19  N   UNL d   1      20.898 -19.844   0.233  0.00  0.00    -0.342 N 
ATOM     20  O   UNL d   1      21.048 -17.905  -0.993  0.00  0.00    -0.246 OA
ATOM     21  H   UNL d   1      21.394 -20.550   0.755  0.00  0.00     0.164 HD
ATOM     22  H   UNL d   1      23.453 -19.539   0.387  0.00  0.00     0.192 HD
BRANCH  19  23
ATOM     23  C   UNL d   1      19.440 -19.952   0.103  0.00  0.00     0.124 C 
BRANCH  23  24
ATOM     24  C   UNL d   1      18.729 -20.511   1.343  0.00  0.00     0.015 C 
ATOM     25  C   UNL d   1      17.692 -21.575   0.980  0.00  0.00     0.006 C 
ENDBRANCH  23  24
ENDBRANCH  19  23
ENDBRANCH   1  17
TORSDOF 8
ENDMDL
MODEL 3
REMARK VINA RESULT:    -8.027      5.711      9.359
REMARK INTER + INTRA:         -11.769
REMARK INTER:                 -10.414
REMARK INTRA:                  -1.356
REMARK CONF_INDEPENDENT:        2.386
REMARK UNBOUND:                -1.356
REMARK  8 active torsions:
REMARK  status: ('A' for Active; 'I' for Inactive)
REMARK    1  A    between atoms: C_2  and  C_3 
REMARK    2  A    between atoms: C_3  and  N_4 
REMARK       I    between atoms: N_4  and  C_5 
REMARK       I    between atoms: C_5  and  N_7 
REMARK    3  A    between atoms: N_7  and  N_8 
REMARK       I    between atoms: N_8  and  C_9 
REMARK    4  A    between atoms: C_9  and  C_11 
REMARK    5  A    between atoms: C_11  and  C_12 
REMARK    6  A    between atoms: C_12  and  C_13 
REMARK    7  A    between atoms: C_13  and  C_14 
REMARK    8  A    between atoms: C_14  and  C_16 
ROOT
ATOM      1  N   UNL d   1      26.617 -16.561   0.240  0.00  0.00    -0.266 N 
ATOM      2  C   UNL d   1      26.124 -17.855   0.341  0.00  0.00     0.236 C 
ATOM      3  O   UNL d   1      26.625 -18.673   1.113  0.00  0.00    -0.272 OA
ATOM      4  H   UNL d   1      26.241 -15.846  -0.380  0.00  0.00     0.190 HD
ENDROOT
BRANCH   2   5
ATOM      5  C   UNL d   1      24.925 -18.199  -0.567  0.00  0.00     0.105 C 
BRANCH   5   6
ATOM      6  C   UNL d   1      23.938 -17.018  -0.693  0.00  0.00     0.017 C 
BRANCH   6   7
ATOM      7  C   UNL d   1      22.530 -17.306  -0.149  0.00  0.00     0.084 C 
BRANCH   7   8
ATOM      8  C   UNL d   1      21.902 -18.530  -0.818  0.00  0.00     0.159 C 
ATOM      9  O   UNL d   1      22.310 -19.009  -1.875  0.00  0.00    -0.292 OA
BRANCH   8  10
ATOM     10  C   UNL d   1      20.770 -19.207  -0.131  0.00  0.00     0.010 A 
ATOM     11  C   UNL d   1      20.744 -19.325   1.263  0.00  0.00     0.018 A 
ATOM     12  C   UNL d   1      19.666 -19.954   1.889  0.00  0.00     0.043 A 
ATOM     13  C   UNL d   1      18.618 -20.454   1.122  0.00  0.00     0.116 A 
ATOM     14  F   UNL d   1      17.589 -21.057   1.729  0.00  0.00    -0.206 F 
ATOM     15  C   UNL d   1      18.623 -20.332  -0.263  0.00  0.00     0.043 A 
ATOM     16  C   UNL d   1      19.700 -19.700  -0.895  0.00  0.00     0.018 A 
ENDBRANCH   8  10
ENDBRANCH   7   8
ENDBRANCH   6   7
ENDBRANCH   5   6
ENDBRANCH   2   5
BRANCH   1  17
ATOM     17  N   UNL d   1      27.733 -16.163   1.054  0.00  0.00    -0.249 N 
ATOM     18  C   UNL d   1      27.802 -14.867   1.541  0.00  0.00     0.334 C 
ATOM     19  N   UNL d   1      28.917 -14.590   2.312  0.00  0.00    -0.342 N 
ATOM     20  O   UNL d   1      26.930 -14.033   1.299  0.00  0.00    -0.246 OA
ATOM     21  H   UNL d   1      29.603 -15.311   2.481  0.00  0.00     0.164 HD
ATOM     22  H   UNL d   1      28.431 -16.880   1.231  0.00  0.00     0.192 HD
BRANCH  19  23
ATOM     23  C   UNL d   1      29.128 -13.261   2.897  0.00  0.00     0.124 C 
BRANCH  23  24
ATOM     24  C   UNL d   1      28.484 -13.062   4.277  0.00  0.00     0.015 C 
ATOM     25  C   UNL d   1      27.950 -14.374   4.855  0.00  0.00     0.006 C 
ENDBRANCH  23  24
ENDBRANCH  19  23
ENDBRANCH   1  17
TORSDOF 8
ENDMDL
MODEL 4
REMARK VINA RESULT:    -7.881      1.701      2.225
REMARK INTER + INTRA:         -11.791
REMARK INTER:                 -10.267
REMARK INTRA:                  -1.524
REMARK CONF_INDEPENDENT:        2.386
REMARK UNBOUND:                -1.524
REMARK  8 active torsions:
REMARK  status: ('A' for Active; 'I' for Inactive)
REMARK    1  A    between atoms: C_2  and  C_3 
REMARK    2  A    between atoms: C_3  and  N_4 
REMARK       I    between atoms: N_4  and  C_5 
REMARK       I    between atoms: C_5  and  N_7 
REMARK    3  A    between atoms: N_7  and  N_8 
REMARK       I    between atoms: N_8  and  C_9 
REMARK    4  A    between atoms: C_9  and  C_11 
REMARK    5  A    between atoms: C_11  and  C_12 
REMARK    6  A    between atoms: C_12  and  C_13 
REMARK    7  A    between atoms: C_13  and  C_14 
REMARK    8  A    between atoms: C_14  and  C_16 
ROOT
ATOM      1  N   UNL d   1      23.581 -17.661  -0.456  0.00  0.00    -0.266 N 
ATOM      2  C   UNL d   1      24.925 -17.582  -0.114  0.00  0.00     0.236 C 
ATOM      3  O   UNL d   1      25.459 -18.443   0.586  0.00  0.00    -0.272 OA
ATOM      4  H   UNL d   1      23.090 -16.979  -1.031  0.00  0.00     0.190 HD
ENDROOT
BRANCH   2   5
ATOM      5  C   UNL d   1      25.695 -16.361  -0.658  0.00  0.00     0.105 C 
BRANCH   5   6
ATOM      6  C   UNL d   1      25.304 -16.035  -2.116  0.00  0.00     0.017 C 
BRANCH   6   7
ATOM      7  C   UNL d   1      26.485 -15.637  -3.016  0.00  0.00     0.084 C 
BRANCH   7   8
ATOM      8  C   UNL d   1      26.014 -14.964  -4.307  0.00  0.00     0.159 C 
ATOM      9  O   UNL d   1      25.531 -15.580  -5.255  0.00  0.00    -0.292 OA
BRANCH   8  10
ATOM     10  C   UNL d   1      26.098 -13.482  -4.401  0.00  0.00     0.010 A 
ATOM     11  C   UNL d   1      25.431 -12.666  -3.482  0.00  0.00     0.018 A 
ATOM     12  C   UNL d   1      25.533 -11.276  -3.582  0.00  0.00     0.043 A 
ATOM     13  C   UNL d   1      26.305 -10.712  -4.593  0.00  0.00     0.116 A 
ATOM     14  F   UNL d   1      26.396  -9.380  -4.684  0.00  0.00    -0.206 F 
ATOM     15  C   UNL d   1      26.984 -11.511  -5.506  0.00  0.00     0.043 A 
ATOM     16  C   UNL d   1      26.887 -12.903  -5.408  0.00  0.00     0.018 A 
ENDBRANCH   8  10
ENDBRANCH   7   8
ENDBRANCH   6   7
ENDBRANCH   5   6
ENDBRANCH   2   5
BRANCH   1  17
ATOM     17  N   UNL d   1      22.795 -18.770   0.013  0.00  0.00    -0.249 N 
ATOM     18  C   UNL d   1      21.461 -18.870  -0.349  0.00  0.00     0.334 C 
ATOM     19  N   UNL d   1      20.798 -19.974   0.156  0.00  0.00    -0.342 N 
ATOM     20  O   UNL d   1      20.917 -18.032  -1.068  0.00  0.00    -0.246 OA
ATOM     21  H   UNL d   1      21.291 -20.632   0.741  0.00  0.00     0.164 HD
ATOM     22  H   UNL d   1      23.280 -19.440   0.603  0.00  0.00     0.192 HD
BRANCH  19  23
ATOM     23  C   UNL d   1      19.382 -20.214  -0.142  0.00  0.00     0.124 C 
BRANCH  23  24
ATOM     24  C   UNL d   1      18.582 -20.826   1.017  0.00  0.00     0.015 C 
ATOM     25  C   UNL d   1      19.166 -20.450   2.380  0.00  0.00     0.006 C 
ENDBRANCH  23  24
ENDBRANCH  19  23
ENDBRANCH   1  17
TORSDOF 8
ENDMDL
MODEL 5
REMARK VINA RESULT:    -7.264      4.710      6.407
REMARK INTER + INTRA:         -11.172
REMARK INTER:                  -9.650
REMARK INTRA:                  -1.522
REMARK CONF_INDEPENDENT:        2.386
REMARK UNBOUND:                -1.522
REMARK  8 active torsions:
REMARK  status: ('A' for Active; 'I' for Inactive)
REMARK    1  A    between atoms: C_2  and  C_3 
REMARK    2  A    between atoms: C_3  and  N_4 
REMARK       I    between atoms: N_4  and  C_5 
REMARK       I    between atoms: C_5  and  N_7 
REMARK    3  A    between atoms: N_7  and  N_8 
REMARK       I    between atoms: N_8  and  C_9 
REMARK    4  A    between atoms: C_9  and  C_11 
REMARK    5  A    between atoms: C_11  and  C_12 
REMARK    6  A    between atoms: C_12  and  C_13 
REMARK    7  A    between atoms: C_13  and  C_14 
REMARK    8  A    between atoms: C_14  and  C_16 
ROOT
ATOM      1  N   UNL d   1      23.905 -17.531  -0.320  0.00  0.00    -0.266 N 
ATOM      2  C   UNL d   1      25.268 -17.605  -0.061  0.00  0.00     0.236 C 
ATOM      3  O   UNL d   1      25.765 -18.593   0.481  0.00  0.00    -0.272 OA
ATOM      4  H   UNL d   1      23.443 -16.741  -0.765  0.00  0.00     0.190 HD
ENDROOT
BRANCH   2   5
ATOM      5  C   UNL d   1      26.108 -16.383  -0.487  0.00  0.00     0.105 C 
BRANCH   5   6
ATOM      6  C   UNL d   1      27.172 -16.016   0.570  0.00  0.00     0.017 C 
BRANCH   6   7
ATOM      7  C   UNL d   1      27.777 -14.613   0.401  0.00  0.00     0.084 C 
BRANCH   7   8
ATOM      8  C   UNL d   1      27.402 -13.688   1.559  0.00  0.00     0.159 C 
ATOM      9  O   UNL d   1      26.581 -12.778   1.462  0.00  0.00    -0.292 OA
BRANCH   8  10
ATOM     10  C   UNL d   1      28.025 -13.933   2.888  0.00  0.00     0.010 A 
ATOM     11  C   UNL d   1      29.411 -14.088   3.012  0.00  0.00     0.018 A 
ATOM     12  C   UNL d   1      29.977 -14.305   4.270  0.00  0.00     0.043 A 
ATOM     13  C   UNL d   1      29.159 -14.360   5.395  0.00  0.00     0.116 A 
ATOM     14  F   UNL d   1      29.709 -14.571   6.597  0.00  0.00    -0.206 F 
ATOM     15  C   UNL d   1      27.783 -14.195   5.288  0.00  0.00     0.043 A 
ATOM     16  C   UNL d   1      27.211 -13.974   4.031  0.00  0.00     0.018 A 
ENDBRANCH   8  10
ENDBRANCH   7   8
ENDBRANCH   6   7
ENDBRANCH   5   6
ENDBRANCH   2   5
BRANCH   1  17
ATOM     17  N   UNL d   1      23.055 -18.631   0.048  0.00  0.00    -0.249 N 
ATOM     18  C   UNL d   1      21.710 -18.602  -0.287  0.00  0.00     0.334 C 
ATOM     19  N   UNL d   1      20.983 -19.708   0.114  0.00  0.00    -0.342 N 
ATOM     20  O   UNL d   1      21.210 -17.655  -0.896  0.00  0.00    -0.246 OA
ATOM     21  H   UNL d   1      21.441 -20.457   0.611  0.00  0.00     0.164 HD
ATOM     22  H   UNL d   1      23.504 -19.392   0.548  0.00  0.00     0.192 HD
BRANCH  19  23
ATOM     23  C   UNL d   1      19.547 -19.820  -0.170  0.00  0.00     0.124 C 
BRANCH  23  24
ATOM     24  C   UNL d   1      18.827 -20.925   0.615  0.00  0.00     0.015 C 
ATOM     25  C   UNL d   1      18.485 -20.487   2.041  0.00  0.00     0.006 C 
ENDBRANCH  23  24
ENDBRANCH  19  23
ENDBRANCH   1  17
TORSDOF 8
ENDMDL
MODEL 6
REMARK VINA RESULT:    -7.219      4.246      9.787
REMARK INTER + INTRA:         -11.085
REMARK INTER:                  -9.606
REMARK INTRA:                  -1.480
REMARK CONF_INDEPENDENT:        2.386
REMARK UNBOUND:                -1.480
REMARK  8 active torsions:
REMARK  status: ('A' for Active; 'I' for Inactive)
REMARK    1  A    between atoms: C_2  and  C_3 
REMARK    2  A    between atoms: C_3  and  N_4 
REMARK       I    between atoms: N_4  and  C_5 
REMARK       I    between atoms: C_5  and  N_7 
REMARK    3  A    between atoms: N_7  and  N_8 
REMARK       I    between atoms: N_8  and  C_9 
REMARK    4  A    between atoms: C_9  and  C_11 
REMARK    5  A    between atoms: C_11  and  C_12 
REMARK    6  A    between atoms: C_12  and  C_13 
REMARK    7  A    between atoms: C_13  and  C_14 
REMARK    8  A    between atoms: C_14  and  C_16 
ROOT
ATOM      1  N   UNL d   1      25.463 -15.764  -2.138  0.00  0.00    -0.266 N 
ATOM      2  C   UNL d   1      26.105 -16.715  -1.356  0.00  0.00     0.236 C 
ATOM      3  O   UNL d   1      27.333 -16.788  -1.315  0.00  0.00    -0.272 OA
ATOM      4  H   UNL d   1      24.453 -15.659  -2.209  0.00  0.00     0.190 HD
ENDROOT
BRANCH   2   5
ATOM      5  C   UNL d   1      25.191 -17.665  -0.554  0.00  0.00     0.105 C 
BRANCH   5   6
ATOM      6  C   UNL d   1      23.778 -17.764  -1.169  0.00  0.00     0.017 C 
BRANCH   6   7
ATOM      7  C   UNL d   1      22.857 -18.785  -0.484  0.00  0.00     0.084 C 
BRANCH   7   8
ATOM      8  C   UNL d   1      21.382 -18.402  -0.621  0.00  0.00     0.159 C 
ATOM      9  O   UNL d   1      20.992 -17.426  -1.260  0.00  0.00    -0.292 OA
BRANCH   8  10
ATOM     10  C   UNL d   1      20.363 -19.281   0.011  0.00  0.00     0.010 A 
ATOM     11  C   UNL d   1      20.451 -19.623   1.366  0.00  0.00     0.018 A 
ATOM     12  C   UNL d   1      19.476 -20.441   1.942  0.00  0.00     0.043 A 
ATOM     13  C   UNL d   1      18.419 -20.907   1.166  0.00  0.00     0.116 A 
ATOM     14  F   UNL d   1      17.490 -21.692   1.725  0.00  0.00    -0.206 F 
ATOM     15  C   UNL d   1      18.312 -20.565  -0.177  0.00  0.00     0.043 A 
ATOM     16  C   UNL d   1      19.283 -19.744  -0.759  0.00  0.00     0.018 A 
ENDBRANCH   8  10
ENDBRANCH   7   8
ENDBRANCH   6   7
ENDBRANCH   5   6
ENDBRANCH   2   5
BRANCH   1  17
ATOM     17  N   UNL d   1      26.246 -14.842  -2.915  0.00  0.00    -0.249 N 
ATOM     18  C   UNL d   1      25.613 -13.935  -3.750  0.00  0.00     0.334 C 
ATOM     19  N   UNL d   1      26.459 -13.094  -4.451  0.00  0.00    -0.342 N 
ATOM     20  O   UNL d   1      24.386 -13.890  -3.852  0.00  0.00    -0.246 OA
ATOM     21  H   UNL d   1      27.457 -13.173  -4.331  0.00  0.00     0.164 HD
ATOM     22  H   UNL d   1      27.253 -14.910  -2.803  0.00  0.00     0.192 HD
BRANCH  19  23
ATOM     23  C   UNL d   1      25.933 -12.082  -5.375  0.00  0.00     0.124 C 
BRANCH  23  24
ATOM     24  C   UNL d   1      26.964 -11.532  -6.371  0.00  0.00     0.015 C 
ATOM     25  C   UNL d   1      28.117 -12.511  -6.603  0.00  0.00     0.006 C 
ENDBRANCH  23  24
ENDBRANCH  19  23
ENDBRANCH   1  17
TORSDOF 8
ENDMDL
MODEL 7
REMARK VINA RESULT:    -7.128      1.287      1.702
REMARK INTER + INTRA:         -11.931
REMARK INTER:                  -9.514
REMARK INTRA:                  -2.417
REMARK CONF_INDEPENDENT:        2.386
REMARK UNBOUND:                -2.417
REMARK  8 active torsions:
REMARK  status: ('A' for Active; 'I' for Inactive)
REMARK    1  A    between atoms: C_2  and  C_3 
REMARK    2  A    between atoms: C_3  and  N_4 
REMARK       I    between atoms: N_4  and  C_5 
REMARK       I    between atoms: C_5  and  N_7 
REMARK    3  A    between atoms: N_7  and  N_8 
REMARK       I    between atoms: N_8  and  C_9 
REMARK    4  A    between atoms: C_9  and  C_11 
REMARK    5  A    between atoms: C_11  and  C_12 
REMARK    6  A    between atoms: C_12  and  C_13 
REMARK    7  A    between atoms: C_13  and  C_14 
REMARK    8  A    between atoms: C_14  and  C_16 
ROOT
ATOM      1  N   UNL d   1      24.374 -18.363  -0.513  0.00  0.00    -0.266 N 
ATOM      2  C   UNL d   1      25.598 -18.207   0.126  0.00  0.00     0.236 C 
ATOM      3  O   UNL d   1      25.759 -18.558   1.295  0.00  0.00    -0.272 OA
ATOM      4  H   UNL d   1      24.186 -18.092  -1.476  0.00  0.00     0.190 HD
ENDROOT
BRANCH   2   5
ATOM      5  C   UNL d   1      26.726 -17.571  -0.713  0.00  0.00     0.105 C 
BRANCH   5   6
ATOM      6  C   UNL d   1      27.069 -16.144  -0.233  0.00  0.00     0.017 C 
BRANCH   6   7
ATOM      7  C   UNL d   1      26.008 -15.087  -0.579  0.00  0.00     0.084 C 
BRANCH   7   8
ATOM      8  C   UNL d   1      25.333 -15.376  -1.920  0.00  0.00     0.159 C 
ATOM      9  O   UNL d   1      24.357 -16.114  -2.043  0.00  0.00    -0.292 OA
BRANCH   8  10
ATOM     10  C   UNL d   1      25.852 -14.691  -3.134  0.00  0.00     0.010 A 
ATOM     11  C   UNL d   1      25.354 -13.442  -3.521  0.00  0.00     0.018 A 
ATOM     12  C   UNL d   1      25.865 -12.811  -4.658  0.00  0.00     0.043 A 
ATOM     13  C   UNL d   1      26.872 -13.426  -5.396  0.00  0.00     0.116 A 
ATOM     14  F   UNL d   1      27.354 -12.816  -6.485  0.00  0.00    -0.206 F 
ATOM     15  C   UNL d   1      27.385 -14.661  -5.015  0.00  0.00     0.043 A 
ATOM     16  C   UNL d   1      26.880 -15.296  -3.876  0.00  0.00     0.018 A 
ENDBRANCH   8  10
ENDBRANCH   7   8
ENDBRANCH   6   7
ENDBRANCH   5   6
ENDBRANCH   2   5
BRANCH   1  17
ATOM     17  N   UNL d   1      23.272 -18.948   0.201  0.00  0.00    -0.249 N 
ATOM     18  C   UNL d   1      22.079 -19.197  -0.458  0.00  0.00     0.334 C 
ATOM     19  N   UNL d   1      21.086 -19.762   0.321  0.00  0.00    -0.342 N 
ATOM     20  O   UNL d   1      21.927 -18.933  -1.651  0.00  0.00    -0.246 OA
ATOM     21  H   UNL d   1      21.262 -19.960   1.295  0.00  0.00     0.164 HD
ATOM     22  H   UNL d   1      23.438 -19.152   1.182  0.00  0.00     0.192 HD
BRANCH  19  23
ATOM     23  C   UNL d   1      19.768 -20.082  -0.239  0.00  0.00     0.124 C 
BRANCH  23  24
ATOM     24  C   UNL d   1      18.874 -20.928   0.679  0.00  0.00     0.015 C 
ATOM     25  C   UNL d   1      18.886 -20.416   2.121  0.00  0.00     0.006 C 
ENDBRANCH  23  24
ENDBRANCH  19  23
ENDBRANCH   1  17
TORSDOF 8
ENDMDL
MODEL 8
REMARK VINA RESULT:    -6.581      5.308      9.890
REMARK INTER + INTRA:         -10.547
REMARK INTER:                  -8.967
REMARK INTRA:                  -1.580
REMARK CONF_INDEPENDENT:        2.386
REMARK UNBOUND:                -1.580
REMARK  8 active torsions:
REMARK  status: ('A' for Active; 'I' for Inactive)
REMARK    1  A    between atoms: C_2  and  C_3 
REMARK    2  A    between atoms: C_3  and  N_4 
REMARK       I    between atoms: N_4  and  C_5 
REMARK       I    between atoms: C_5  and  N_7 
REMARK    3  A    between atoms: N_7  and  N_8 
REMARK       I    between atoms: N_8  and  C_9 
REMARK    4  A    between atoms: C_9  and  C_11 
REMARK    5  A    between atoms: C_11  and  C_12 
REMARK    6  A    between atoms: C_12  and  C_13 
REMARK    7  A    between atoms: C_13  and  C_14 
REMARK    8  A    between atoms: C_14  and  C_16 
ROOT
ATOM      1  N   UNL d   1      26.955 -17.057  -0.034  0.00  0.00    -0.266 N 
ATOM      2  C   UNL d   1      26.217 -18.085   0.538  0.00  0.00     0.236 C 
ATOM      3  O   UNL d   1      26.535 -18.575   1.622  0.00  0.00    -0.272 OA
ATOM      4  H   UNL d   1      26.737 -16.615  -0.925  0.00  0.00     0.190 HD
ENDROOT
BRANCH   2   5
ATOM      5  C   UNL d   1      24.990 -18.568  -0.262  0.00  0.00     0.105 C 
BRANCH   5   6
ATOM      6  C   UNL d   1      23.991 -17.423  -0.537  0.00  0.00     0.017 C 
BRANCH   6   7
ATOM      7  C   UNL d   1      22.603 -17.627   0.090  0.00  0.00     0.084 C 
BRANCH   7   8
ATOM      8  C   UNL d   1      21.766 -18.635  -0.700  0.00  0.00     0.159 C 
ATOM      9  O   UNL d   1      22.010 -18.957  -1.861  0.00  0.00    -0.292 OA
BRANCH   8  10
ATOM     10  C   UNL d   1      20.626 -19.297  -0.012  0.00  0.00     0.010 A 
ATOM     11  C   UNL d   1      20.576 -19.371   1.385  0.00  0.00     0.018 A 
ATOM     12  C   UNL d   1      19.490 -19.987   2.011  0.00  0.00     0.043 A 
ATOM     13  C   UNL d   1      18.460 -20.519   1.241  0.00  0.00     0.116 A 
ATOM     14  F   UNL d   1      17.424 -21.111   1.849  0.00  0.00    -0.206 F 
ATOM     15  C   UNL d   1      18.491 -20.443  -0.147  0.00  0.00     0.043 A 
ATOM     16  C   UNL d   1      19.574 -19.823  -0.779  0.00  0.00     0.018 A 
ENDBRANCH   8  10
ENDBRANCH   7   8
ENDBRANCH   6   7
ENDBRANCH   5   6
ENDBRANCH   2   5
BRANCH   1  17
ATOM     17  N   UNL d   1      28.114 -16.551   0.651  0.00  0.00    -0.249 N 
ATOM     18  C   UNL d   1      28.838 -15.507   0.098  0.00  0.00     0.334 C 
ATOM     19  N   UNL d   1      29.933 -15.097   0.838  0.00  0.00    -0.342 N 
ATOM     20  O   UNL d   1      28.522 -14.989  -0.974  0.00  0.00    -0.246 OA
ATOM     21  H   UNL d   1      30.149 -15.555   1.711  0.00  0.00     0.164 HD
ATOM     22  H   UNL d   1      28.341 -17.003   1.531  0.00  0.00     0.192 HD
BRANCH  19  23
ATOM     23  C   UNL d   1      30.796 -14.003   0.379  0.00  0.00     0.124 C 
BRANCH  23  24
ATOM     24  C   UNL d   1      31.526 -14.277  -0.943  0.00  0.00     0.015 C 
ATOM     25  C   UNL d   1      31.160 -13.257  -2.023  0.00  0.00     0.006 C 
ENDBRANCH  23  24
ENDBRANCH  19  23
ENDBRANCH   1  17
TORSDOF 8
ENDMDL
MODEL 9
REMARK VINA RESULT:    -5.322      5.019      7.626
REMARK INTER + INTRA:         -10.520
REMARK INTER:                  -7.708
REMARK INTRA:                  -2.812
REMARK CONF_INDEPENDENT:        2.386
REMARK UNBOUND:                -2.812
REMARK  8 active torsions:
REMARK  status: ('A' for Active; 'I' for Inactive)
REMARK    1  A    between atoms: C_2  and  C_3 
REMARK    2  A    between atoms: C_3  and  N_4 
REMARK       I    between atoms: N_4  and  C_5 
REMARK       I    between atoms: C_5  and  N_7 
REMARK    3  A    between atoms: N_7  and  N_8 
REMARK       I    between atoms: N_8  and  C_9 
REMARK    4  A    between atoms: C_9  and  C_11 
REMARK    5  A    between atoms: C_11  and  C_12 
REMARK    6  A    between atoms: C_12  and  C_13 
REMARK    7  A    between atoms: C_13  and  C_14 
REMARK    8  A    between atoms: C_14  and  C_16 
ROOT
ATOM      1  N   UNL d   1      28.756 -14.749   0.017  0.00  0.00    -0.266 N 
ATOM      2  C   UNL d   1      29.441 -15.528  -0.907  0.00  0.00     0.236 C 
ATOM      3  O   UNL d   1      30.066 -16.532  -0.561  0.00  0.00    -0.272 OA
ATOM      4  H   UNL d   1      28.225 -13.912  -0.214  0.00  0.00     0.190 HD
ENDROOT
BRANCH   2   5
ATOM      5  C   UNL d   1      29.373 -15.060  -2.375  0.00  0.00     0.105 C 
BRANCH   5   6
ATOM      6  C   UNL d   1      28.213 -15.731  -3.142  0.00  0.00     0.017 C 
BRANCH   6   7
ATOM      7  C   UNL d   1      26.910 -14.917  -3.162  0.00  0.00     0.084 C 
BRANCH   7   8
ATOM      8  C   UNL d   1      26.280 -14.820  -1.771  0.00  0.00     0.159 C 
ATOM      9  O   UNL d   1      26.309 -13.800  -1.083  0.00  0.00    -0.292 OA
BRANCH   8  10
ATOM     10  C   UNL d   1      25.553 -16.004  -1.241  0.00  0.00     0.010 A 
ATOM     11  C   UNL d   1      24.243 -16.282  -1.646  0.00  0.00     0.018 A 
ATOM     12  C   UNL d   1      23.583 -17.406  -1.145  0.00  0.00     0.043 A 
ATOM     13  C   UNL d   1      24.235 -18.248  -0.250  0.00  0.00     0.116 A 
ATOM     14  F   UNL d   1      23.595 -19.322   0.228  0.00  0.00    -0.206 F 
ATOM     15  C   UNL d   1      25.542 -17.992   0.151  0.00  0.00     0.043 A 
ATOM     16  C   UNL d   1      26.209 -16.869  -0.350  0.00  0.00     0.018 A 
ENDBRANCH   8  10
ENDBRANCH   7   8
ENDBRANCH   6   7
ENDBRANCH   5   6
ENDBRANCH   2   5
BRANCH   1  17
ATOM     17  N   UNL d   1      28.772 -15.121   1.406  0.00  0.00    -0.249 N 
ATOM     18  C   UNL d   1      28.043 -14.381   2.324  0.00  0.00     0.334 C 
ATOM     19  N   UNL d   1      28.127 -14.824   3.632  0.00  0.00    -0.342 N 
ATOM     20  O   UNL d   1      27.374 -13.403   1.989  0.00  0.00    -0.246 OA
ATOM     21  H   UNL d   1      28.690 -15.632   3.854  0.00  0.00     0.164 HD
ATOM     22  H   UNL d   1      29.334 -15.933   1.642  0.00  0.00     0.192 HD
BRANCH  19  23
ATOM     23  C   UNL d   1      27.410 -14.141   4.715  0.00  0.00     0.124 C 
BRANCH  23  24
ATOM     24  C   UNL d   1      28.300 -13.687   5.881  0.00  0.00     0.015 C 
ATOM     25  C   UNL d   1      29.650 -14.407   5.886  0.00  0.00     0.006 C 
ENDBRANCH  23  24
ENDBRANCH  19  23
ENDBRANCH   1  17
TORSDOF 8
ENDMDL
