MODEL 1
REMARK VINA RESULT:    -7.665      0.000      0.000
REMARK INTER + INTRA:         -10.129
REMARK INTER:                  -9.454
REMARK INTRA:                  -0.675
REMARK CONF_INDEPENDENT:        1.790
REMARK UNBOUND:                -0.675
REMARK  6 active torsions:
REMARK  status: ('A' for Active; 'I' for Inactive)
REMARK    1  A    between atoms: C_2  and  C_3 
REMARK       I    between atoms: C_2  and  N_18 
REMARK    2  A    between atoms: C_3  and  N_4 
REMARK       I    between atoms: N_4  and  C_5 
REMARK       I    between atoms: C_5  and  N_7 
REMARK    3  A    between atoms: N_7  and  C_8 
REMARK    4  A    between atoms: C_8  and  C_9 
REMARK    5  A    between atoms: C_13  and  N_14 
REMARK    6  A    between atoms: N_18  and  C_19 
ROOT
ATOM      1  N   UNL d   1      22.452 -17.919   0.387  0.00  0.00    -0.334 N 
ATOM      2  C   UNL d   1      23.630 -17.974  -0.310  0.00  0.00     0.316 C 
ATOM      3  O   UNL d   1      23.942 -18.935  -1.011  0.00  0.00    -0.247 OA
ATOM      4  N   UNL d   1      24.429 -16.870  -0.174  0.00  0.00    -0.339 N 
ATOM      5  H   UNL d   1      22.206 -17.122   0.960  0.00  0.00     0.164 HD
ATOM      6  H   UNL d   1      24.158 -16.146   0.473  0.00  0.00     0.164 HD
ENDROOT
BRANCH   1   7
ATOM      7  C   UNL d   1      21.485 -19.023   0.326  0.00  0.00     0.227 C 
BRANCH   7   8
ATOM      8  C   UNL d   1      20.261 -18.741  -0.565  0.00  0.00     0.235 C 
ATOM      9  O   UNL d   1      20.182 -17.734  -1.271  0.00  0.00    -0.272 OA
ATOM     10  N   UNL d   1      19.222 -19.652  -0.551  0.00  0.00    -0.355 N 
ATOM     11  H   UNL d   1      18.435 -19.402  -1.142  0.00  0.00     0.162 HD
BRANCH  10  12
ATOM     12  C   UNL d   1      19.137 -20.846   0.228  0.00  0.00     0.084 A 
ATOM     13  C   UNL d   1      18.804 -20.818   1.701  0.00  0.00     0.027 A 
ATOM     14  C   UNL d   1      17.799 -21.333   0.713  0.00  0.00     0.027 A 
ENDBRANCH  10  12
ENDBRANCH   7   8
ENDBRANCH   1   7
BRANCH   4  15
ATOM     15  C   UNL d   1      25.719 -16.779  -0.864  0.00  0.00     0.162 C 
BRANCH  15  16
ATOM     16  C   UNL d   1      25.706 -15.849  -2.063  0.00  0.00    -0.038 A 
ATOM     17  C   UNL d   1      24.699 -14.879  -2.222  0.00  0.00     0.009 A 
ATOM     18  C   UNL d   1      24.619 -14.106  -3.389  0.00  0.00     0.003 A 
ATOM     19  C   UNL d   1      25.596 -14.225  -4.379  0.00  0.00     0.036 A 
ATOM     20  C   UNL d   1      26.638 -15.140  -4.196  0.00  0.00     0.103 A 
ATOM     21  C   UNL d   1      26.708 -15.929  -3.039  0.00  0.00     0.045 A 
BRANCH  20  22
ATOM     22  N   UNL d   1      27.635 -15.337  -5.254  0.00  0.00    -0.116 N 
ATOM     23  O   UNL d   1      27.409 -14.834  -6.364  0.00  0.00    -0.532 OA
ATOM     24  O   UNL d   1      28.635 -16.018  -4.982  0.00  0.00    -0.532 OA
ENDBRANCH  20  22
ENDBRANCH  15  16
ENDBRANCH   4  15
TORSDOF 6
ENDMDL
MODEL 2
REMARK VINA RESULT:    -7.057      1.464      2.022
REMARK INTER + INTRA:          -9.427
REMARK INTER:                  -8.846
REMARK INTRA:                  -0.580
REMARK CONF_INDEPENDENT:        1.790
REMARK UNBOUND:                -0.580
REMARK  6 active torsions:
REMARK  status: ('A' for Active; 'I' for Inactive)
REMARK    1  A    between atoms: C_2  and  C_3 
REMARK       I    between atoms: C_2  and  N_18 
REMARK    2  A    between atoms: C_3  and  N_4 
REMARK       I    between atoms: N_4  and  C_5 
REMARK       I    between atoms: C_5  and  N_7 
REMARK    3  A    between atoms: N_7  and  C_8 
REMARK    4  A    between atoms: C_8  and  C_9 
REMARK    5  A    between atoms: C_13  and  N_14 
REMARK    6  A    between atoms: N_18  and  C_19 
ROOT
ATOM      1  N   UNL d   1      23.252 -18.987  -0.410  0.00  0.00    -0.334 N 
ATOM      2  C   UNL d   1      23.856 -17.765  -0.552  0.00  0.00     0.316 C 
ATOM      3  O   UNL d   1      23.431 -16.899  -1.315  0.00  0.00    -0.247 OA
ATOM      4  N   UNL d   1      24.964 -17.579   0.231  0.00  0.00    -0.339 N 
ATOM      5  H   UNL d   1      23.611 -19.691   0.222  0.00  0.00     0.164 HD
ATOM      6  H   UNL d   1      25.311 -18.349   0.781  0.00  0.00     0.164 HD
ENDROOT
BRANCH   1   7
ATOM      7  C   UNL d   1      22.044 -19.325  -1.172  0.00  0.00     0.227 C 
BRANCH   7   8
ATOM      8  C   UNL d   1      20.818 -18.457  -0.832  0.00  0.00     0.235 C 
ATOM      9  O   UNL d   1      20.685 -17.312  -1.269  0.00  0.00    -0.272 OA
ATOM     10  N   UNL d   1      19.852 -18.990  -0.001  0.00  0.00    -0.355 N 
ATOM     11  H   UNL d   1      19.079 -18.363   0.203  0.00  0.00     0.162 HD
BRANCH  10  12
ATOM     12  C   UNL d   1      19.865 -20.280   0.614  0.00  0.00     0.084 A 
ATOM     13  C   UNL d   1      19.727 -20.455   2.108  0.00  0.00     0.027 A 
ATOM     14  C   UNL d   1      18.600 -20.846   1.198  0.00  0.00     0.027 A 
ENDBRANCH  10  12
ENDBRANCH   7   8
ENDBRANCH   1   7
BRANCH   4  15
ATOM     15  C   UNL d   1      25.715 -16.321   0.195  0.00  0.00     0.162 C 
BRANCH  15  16
ATOM     16  C   UNL d   1      26.503 -16.116  -1.086  0.00  0.00    -0.038 A 
ATOM     17  C   UNL d   1      27.908 -16.194  -1.097  0.00  0.00     0.009 A 
ATOM     18  C   UNL d   1      28.640 -15.884  -2.252  0.00  0.00     0.003 A 
ATOM     19  C   UNL d   1      27.978 -15.576  -3.441  0.00  0.00     0.036 A 
ATOM     20  C   UNL d   1      26.580 -15.563  -3.455  0.00  0.00     0.103 A 
ATOM     21  C   UNL d   1      25.846 -15.853  -2.295  0.00  0.00     0.045 A 
BRANCH  20  22
ATOM     22  N   UNL d   1      25.861 -15.171  -4.672  0.00  0.00    -0.116 N 
ATOM     23  O   UNL d   1      26.294 -15.582  -5.758  0.00  0.00    -0.532 OA
ATOM     24  O   UNL d   1      24.874 -14.431  -4.544  0.00  0.00    -0.532 OA
ENDBRANCH  20  22
ENDBRANCH  15  16
ENDBRANCH   4  15
TORSDOF 6
ENDMDL
MODEL 3
REMARK VINA RESULT:    -6.380      2.869      9.482
REMARK INTER + INTRA:          -8.988
REMARK INTER:                  -8.170
REMARK INTRA:                  -0.818
REMARK CONF_INDEPENDENT:        1.790
REMARK UNBOUND:                -0.818
REMARK  6 active torsions:
REMARK  status: ('A' for Active; 'I' for Inactive)
REMARK    1  A    between atoms: C_2  and  C_3 
REMARK       I    between atoms: C_2  and  N_18 
REMARK    2  A    between atoms: C_3  and  N_4 
REMARK       I    between atoms: N_4  and  C_5 
REMARK       I    between atoms: C_5  and  N_7 
REMARK    3  A    between atoms: N_7  and  C_8 
REMARK    4  A    between atoms: C_8  and  C_9 
REMARK    5  A    between atoms: C_13  and  N_14 
REMARK    6  A    between atoms: N_18  and  C_19 
ROOT
ATOM      1  N   UNL d   1      27.129 -14.711  -4.527  0.00  0.00    -0.334 N 
ATOM      2  C   UNL d   1      25.910 -14.572  -3.915  0.00  0.00     0.316 C 
ATOM      3  O   UNL d   1      24.997 -13.907  -4.399  0.00  0.00    -0.247 OA
ATOM      4  N   UNL d   1      25.786 -15.241  -2.726  0.00  0.00    -0.339 N 
ATOM      5  H   UNL d   1      27.873 -15.263  -4.118  0.00  0.00     0.164 HD
ATOM      6  H   UNL d   1      26.592 -15.709  -2.340  0.00  0.00     0.164 HD
ENDROOT
BRANCH   1   7
ATOM      7  C   UNL d   1      27.405 -14.065  -5.816  0.00  0.00     0.227 C 
BRANCH   7   8
ATOM      8  C   UNL d   1      28.627 -14.635  -6.560  0.00  0.00     0.235 C 
ATOM      9  O   UNL d   1      29.165 -15.692  -6.222  0.00  0.00    -0.272 OA
ATOM     10  N   UNL d   1      29.130 -13.922  -7.631  0.00  0.00    -0.355 N 
ATOM     11  H   UNL d   1      29.947 -14.338  -8.067  0.00  0.00     0.162 HD
BRANCH  10  12
ATOM     12  C   UNL d   1      28.649 -12.673  -8.132  0.00  0.00     0.084 A 
ATOM     13  C   UNL d   1      29.458 -11.832  -9.090  0.00  0.00     0.027 A 
ATOM     14  C   UNL d   1      28.233 -12.552  -9.572  0.00  0.00     0.027 A 
ENDBRANCH  10  12
ENDBRANCH   7   8
ENDBRANCH   1   7
BRANCH   4  15
ATOM     15  C   UNL d   1      24.540 -15.193  -1.957  0.00  0.00     0.162 C 
BRANCH  15  16
ATOM     16  C   UNL d   1      24.190 -16.505  -1.279  0.00  0.00    -0.038 A 
ATOM     17  C   UNL d   1      25.183 -17.307  -0.686  0.00  0.00     0.009 A 
ATOM     18  C   UNL d   1      24.875 -18.574  -0.170  0.00  0.00     0.003 A 
ATOM     19  C   UNL d   1      23.555 -19.025  -0.156  0.00  0.00     0.036 A 
ATOM     20  C   UNL d   1      22.552 -18.204  -0.683  0.00  0.00     0.103 A 
ATOM     21  C   UNL d   1      22.861 -16.945  -1.219  0.00  0.00     0.045 A 
BRANCH  20  22
ATOM     22  N   UNL d   1      21.168 -18.685  -0.748  0.00  0.00    -0.116 N 
ATOM     23  O   UNL d   1      20.976 -19.908  -0.677  0.00  0.00    -0.532 OA
ATOM     24  O   UNL d   1      20.272 -17.841  -0.895  0.00  0.00    -0.532 OA
ENDBRANCH  20  22
ENDBRANCH  15  16
ENDBRANCH   4  15
TORSDOF 6
ENDMDL
MODEL 4
REMARK VINA RESULT:    -6.334      2.455      2.628
REMARK INTER + INTRA:          -8.749
REMARK INTER:                  -8.124
REMARK INTRA:                  -0.625
REMARK CONF_INDEPENDENT:        1.790
REMARK UNBOUND:                -0.625
REMARK  6 active torsions:
REMARK  status: ('A' for Active; 'I' for Inactive)
REMARK    1  A    between atoms: C_2  and  C_3 
REMARK       I    between atoms: C_2  and  N_18 
REMARK    2  A    between atoms: C_3  and  N_4 
REMARK       I    between atoms: N_4  and  C_5 
REMARK       I    between atoms: C_5  and  N_7 
REMARK    3  A    between atoms: N_7  and  C_8 
REMARK    4  A    between atoms: C_8  and  C_9 
REMARK    5  A    between atoms: C_13  and  N_14 
REMARK    6  A    between atoms: N_18  and  C_19 
ROOT
ATOM      1  N   UNL d   1      22.258 -18.006   0.525  0.00  0.00    -0.334 N 
ATOM      2  C   UNL d   1      23.289 -18.099  -0.374  0.00  0.00     0.316 C 
ATOM      3  O   UNL d   1      23.409 -19.046  -1.149  0.00  0.00    -0.247 OA
ATOM      4  N   UNL d   1      24.169 -17.051  -0.348  0.00  0.00    -0.339 N 
ATOM      5  H   UNL d   1      22.170 -17.221   1.158  0.00  0.00     0.164 HD
ATOM      6  H   UNL d   1      24.065 -16.340   0.360  0.00  0.00     0.164 HD
ENDROOT
BRANCH   1   7
ATOM      7  C   UNL d   1      21.226 -19.047   0.602  0.00  0.00     0.227 C 
BRANCH   7   8
ATOM      8  C   UNL d   1      20.125 -18.927  -0.468  0.00  0.00     0.235 C 
ATOM      9  O   UNL d   1      20.092 -17.991  -1.270  0.00  0.00    -0.272 OA
ATOM     10  N   UNL d   1      19.147 -19.901  -0.510  0.00  0.00    -0.355 N 
ATOM     11  H   UNL d   1      18.439 -19.756  -1.222  0.00  0.00     0.162 HD
BRANCH  10  12
ATOM     12  C   UNL d   1      19.020 -21.028   0.360  0.00  0.00     0.084 A 
ATOM     13  C   UNL d   1      18.425 -20.907   1.743  0.00  0.00     0.027 A 
ATOM     14  C   UNL d   1      17.661 -21.600   0.653  0.00  0.00     0.027 A 
ENDBRANCH  10  12
ENDBRANCH   7   8
ENDBRANCH   1   7
BRANCH   4  15
ATOM     15  C   UNL d   1      25.321 -17.006  -1.253  0.00  0.00     0.162 C 
BRANCH  15  16
ATOM     16  C   UNL d   1      25.649 -15.612  -1.755  0.00  0.00    -0.038 A 
ATOM     17  C   UNL d   1      25.353 -15.224  -3.076  0.00  0.00     0.009 A 
ATOM     18  C   UNL d   1      25.768 -13.980  -3.573  0.00  0.00     0.003 A 
ATOM     19  C   UNL d   1      26.406 -13.066  -2.735  0.00  0.00     0.036 A 
ATOM     20  C   UNL d   1      26.642 -13.418  -1.402  0.00  0.00     0.103 A 
ATOM     21  C   UNL d   1      26.248 -14.670  -0.908  0.00  0.00     0.045 A 
BRANCH  20  22
ATOM     22  N   UNL d   1      27.377 -12.505  -0.520  0.00  0.00    -0.116 N 
ATOM     23  O   UNL d   1      26.971 -12.371   0.643  0.00  0.00    -0.532 OA
ATOM     24  O   UNL d   1      28.349 -11.901  -1.000  0.00  0.00    -0.532 OA
ENDBRANCH  20  22
ENDBRANCH  15  16
ENDBRANCH   4  15
TORSDOF 6
ENDMDL
MODEL 5
REMARK VINA RESULT:    -6.117      5.111      8.063
REMARK INTER + INTRA:          -8.584
REMARK INTER:                  -7.907
REMARK INTRA:                  -0.677
REMARK CONF_INDEPENDENT:        1.790
REMARK UNBOUND:                -0.677
REMARK  6 active torsions:
REMARK  status: ('A' for Active; 'I' for Inactive)
REMARK    1  A    between atoms: C_2  and  C_3 
REMARK       I    between atoms: C_2  and  N_18 
REMARK    2  A    between atoms: C_3  and  N_4 
REMARK       I    between atoms: N_4  and  C_5 
REMARK       I    between atoms: C_5  and  N_7 
REMARK    3  A    between atoms: N_7  and  C_8 
REMARK    4  A    between atoms: C_8  and  C_9 
REMARK    5  A    between atoms: C_13  and  N_14 
REMARK    6  A    between atoms: N_18  and  C_19 
ROOT
ATOM      1  N   UNL d   1      29.491 -14.712   1.836  0.00  0.00    -0.334 N 
ATOM      2  C   UNL d   1      29.142 -15.036   0.551  0.00  0.00     0.316 C 
ATOM      3  O   UNL d   1      28.775 -14.196  -0.269  0.00  0.00    -0.247 OA
ATOM      4  N   UNL d   1      29.242 -16.367   0.247  0.00  0.00    -0.339 N 
ATOM      5  H   UNL d   1      29.792 -15.413   2.501  0.00  0.00     0.164 HD
ATOM      6  H   UNL d   1      29.475 -17.021   0.979  0.00  0.00     0.164 HD
ENDROOT
BRANCH   1   7
ATOM      7  C   UNL d   1      29.449 -13.321   2.303  0.00  0.00     0.227 C 
BRANCH   7   8
ATOM      8  C   UNL d   1      30.535 -12.968   3.336  0.00  0.00     0.235 C 
ATOM      9  O   UNL d   1      31.433 -12.158   3.092  0.00  0.00    -0.272 OA
ATOM     10  N   UNL d   1      30.494 -13.596   4.566  0.00  0.00    -0.355 N 
ATOM     11  H   UNL d   1      31.247 -13.338   5.196  0.00  0.00     0.162 HD
BRANCH  10  12
ATOM     12  C   UNL d   1      29.549 -14.576   4.998  0.00  0.00     0.084 A 
ATOM     13  C   UNL d   1      28.768 -14.423   6.281  0.00  0.00     0.027 A 
ATOM     14  C   UNL d   1      28.077 -14.268   4.959  0.00  0.00     0.027 A 
ENDBRANCH  10  12
ENDBRANCH   7   8
ENDBRANCH   1   7
BRANCH   4  15
ATOM     15  C   UNL d   1      28.908 -16.867  -1.089  0.00  0.00     0.162 C 
BRANCH  15  16
ATOM     16  C   UNL d   1      27.480 -16.576  -1.512  0.00  0.00    -0.038 A 
ATOM     17  C   UNL d   1      26.390 -16.953  -0.705  0.00  0.00     0.009 A 
ATOM     18  C   UNL d   1      25.071 -16.794  -1.153  0.00  0.00     0.003 A 
ATOM     19  C   UNL d   1      24.815 -16.174  -2.376  0.00  0.00     0.036 A 
ATOM     20  C   UNL d   1      25.892 -15.735  -3.152  0.00  0.00     0.103 A 
ATOM     21  C   UNL d   1      27.213 -15.912  -2.716  0.00  0.00     0.045 A 
BRANCH  20  22
ATOM     22  N   UNL d   1      25.652 -15.146  -4.475  0.00  0.00    -0.116 N 
ATOM     23  O   UNL d   1      24.778 -14.273  -4.570  0.00  0.00    -0.532 OA
ATOM     24  O   UNL d   1      26.323 -15.576  -5.425  0.00  0.00    -0.532 OA
ENDBRANCH  20  22
ENDBRANCH  15  16
ENDBRANCH   4  15
TORSDOF 6
ENDMDL
MODEL 6
REMARK VINA RESULT:    -6.108      2.804      9.153
REMARK INTER + INTRA:          -8.542
REMARK INTER:                  -7.898
REMARK INTRA:                  -0.644
REMARK CONF_INDEPENDENT:        1.790
REMARK UNBOUND:                -0.644
REMARK  6 active torsions:
REMARK  status: ('A' for Active; 'I' for Inactive)
REMARK    1  A    between atoms: C_2  and  C_3 
REMARK       I    between atoms: C_2  and  N_18 
REMARK    2  A    between atoms: C_3  and  N_4 
REMARK       I    between atoms: N_4  and  C_5 
REMARK       I    between atoms: C_5  and  N_7 
REMARK    3  A    between atoms: N_7  and  C_8 
REMARK    4  A    between atoms: C_8  and  C_9 
REMARK    5  A    between atoms: C_13  and  N_14 
REMARK    6  A    between atoms: N_18  and  C_19 
ROOT
ATOM      1  N   UNL d   1      28.341 -15.376  -3.623  0.00  0.00    -0.334 N 
ATOM      2  C   UNL d   1      26.987 -15.435  -3.417  0.00  0.00     0.316 C 
ATOM      3  O   UNL d   1      26.215 -15.950  -4.224  0.00  0.00    -0.247 OA
ATOM      4  N   UNL d   1      26.563 -14.886  -2.237  0.00  0.00    -0.339 N 
ATOM      5  H   UNL d   1      28.966 -14.950  -2.951  0.00  0.00     0.164 HD
ATOM      6  H   UNL d   1      27.230 -14.410  -1.649  0.00  0.00     0.164 HD
ENDROOT
BRANCH   1   7
ATOM      7  C   UNL d   1      28.946 -15.939  -4.837  0.00  0.00     0.227 C 
BRANCH   7   8
ATOM      8  C   UNL d   1      28.569 -15.197  -6.133  0.00  0.00     0.235 C 
ATOM      9  O   UNL d   1      27.405 -14.882  -6.392  0.00  0.00    -0.272 OA
ATOM     10  N   UNL d   1      29.577 -14.893  -7.028  0.00  0.00    -0.355 N 
ATOM     11  H   UNL d   1      29.263 -14.423  -7.871  0.00  0.00     0.162 HD
BRANCH  10  12
ATOM     12  C   UNL d   1      30.963 -15.212  -6.898  0.00  0.00     0.084 A 
ATOM     13  C   UNL d   1      31.607 -16.320  -7.697  0.00  0.00     0.027 A 
ATOM     14  C   UNL d   1      31.915 -14.887  -8.017  0.00  0.00     0.027 A 
ENDBRANCH  10  12
ENDBRANCH   7   8
ENDBRANCH   1   7
BRANCH   4  15
ATOM     15  C   UNL d   1      25.143 -14.878  -1.872  0.00  0.00     0.162 C 
BRANCH  15  16
ATOM     16  C   UNL d   1      24.687 -16.142  -1.167  0.00  0.00    -0.038 A 
ATOM     17  C   UNL d   1      25.577 -16.903  -0.386  0.00  0.00     0.009 A 
ATOM     18  C   UNL d   1      25.187 -18.133   0.162  0.00  0.00     0.003 A 
ATOM     19  C   UNL d   1      23.874 -18.583   0.015  0.00  0.00     0.036 A 
ATOM     20  C   UNL d   1      22.966 -17.799  -0.703  0.00  0.00     0.103 A 
ATOM     21  C   UNL d   1      23.360 -16.578  -1.270  0.00  0.00     0.045 A 
BRANCH  20  22
ATOM     22  N   UNL d   1      21.601 -18.284  -0.936  0.00  0.00    -0.116 N 
ATOM     23  O   UNL d   1      21.447 -19.493  -1.160  0.00  0.00    -0.532 OA
ATOM     24  O   UNL d   1      20.683 -17.450  -0.918  0.00  0.00    -0.532 OA
ENDBRANCH  20  22
ENDBRANCH  15  16
ENDBRANCH   4  15
TORSDOF 6
ENDMDL
MODEL 7
REMARK VINA RESULT:    -6.070      5.669      7.064
REMARK INTER + INTRA:          -8.651
REMARK INTER:                  -7.860
REMARK INTRA:                  -0.791
REMARK CONF_INDEPENDENT:        1.790
REMARK UNBOUND:                -0.791
REMARK  6 active torsions:
REMARK  status: ('A' for Active; 'I' for Inactive)
REMARK    1  A    between atoms: C_2  and  C_3 
REMARK       I    between atoms: C_2  and  N_18 
REMARK    2  A    between atoms: C_3  and  N_4 
REMARK       I    between atoms: N_4  and  C_5 
REMARK       I    between atoms: C_5  and  N_7 
REMARK    3  A    between atoms: N_7  and  C_8 
REMARK    4  A    between atoms: C_8  and  C_9 
REMARK    5  A    between atoms: C_13  and  N_14 
REMARK    6  A    between atoms: N_18  and  C_19 
ROOT
ATOM      1  N   UNL d   1      27.864 -16.184   0.752  0.00  0.00    -0.334 N 
ATOM      2  C   UNL d   1      27.406 -15.018   1.307  0.00  0.00     0.316 C 
ATOM      3  O   UNL d   1      26.342 -14.498   0.974  0.00  0.00    -0.247 OA
ATOM      4  N   UNL d   1      28.219 -14.482   2.270  0.00  0.00    -0.339 N 
ATOM      5  H   UNL d   1      28.741 -16.603   1.036  0.00  0.00     0.164 HD
ATOM      6  H   UNL d   1      29.115 -14.910   2.449  0.00  0.00     0.164 HD
ENDROOT
BRANCH   1   7
ATOM      7  C   UNL d   1      27.091 -16.884  -0.281  0.00  0.00     0.227 C 
BRANCH   7   8
ATOM      8  C   UNL d   1      26.437 -18.194   0.197  0.00  0.00     0.235 C 
ATOM      9  O   UNL d   1      27.028 -18.993   0.926  0.00  0.00    -0.272 OA
ATOM     10  N   UNL d   1      25.150 -18.470  -0.222  0.00  0.00    -0.355 N 
ATOM     11  H   UNL d   1      24.780 -19.356   0.109  0.00  0.00     0.162 HD
BRANCH  10  12
ATOM     12  C   UNL d   1      24.339 -17.673  -1.087  0.00  0.00     0.084 A 
ATOM     13  C   UNL d   1      22.865 -17.465  -0.834  0.00  0.00     0.027 A 
ATOM     14  C   UNL d   1      23.830 -16.337  -0.619  0.00  0.00     0.027 A 
ENDBRANCH  10  12
ENDBRANCH   7   8
ENDBRANCH   1   7
BRANCH   4  15
ATOM     15  C   UNL d   1      27.861 -13.239   2.959  0.00  0.00     0.162 C 
BRANCH  15  16
ATOM     16  C   UNL d   1      27.635 -12.066   2.024  0.00  0.00    -0.038 A 
ATOM     17  C   UNL d   1      28.192 -12.045   0.732  0.00  0.00     0.009 A 
ATOM     18  C   UNL d   1      28.085 -10.909  -0.084  0.00  0.00     0.003 A 
ATOM     19  C   UNL d   1      27.344  -9.807   0.343  0.00  0.00     0.036 A 
ATOM     20  C   UNL d   1      26.730  -9.847   1.599  0.00  0.00     0.103 A 
ATOM     21  C   UNL d   1      26.854 -10.974   2.424  0.00  0.00     0.045 A 
BRANCH  20  22
ATOM     22  N   UNL d   1      26.008  -8.672   2.101  0.00  0.00    -0.116 N 
ATOM     23  O   UNL d   1      25.155  -8.158   1.362  0.00  0.00    -0.532 OA
ATOM     24  O   UNL d   1      26.310  -8.249   3.226  0.00  0.00    -0.532 OA
ENDBRANCH  20  22
ENDBRANCH  15  16
ENDBRANCH   4  15
TORSDOF 6
ENDMDL
MODEL 8
REMARK VINA RESULT:    -5.916      5.816      8.322
REMARK INTER + INTRA:          -8.624
REMARK INTER:                  -7.706
REMARK INTRA:                  -0.919
REMARK CONF_INDEPENDENT:        1.790
REMARK UNBOUND:                -0.919
REMARK  6 active torsions:
REMARK  status: ('A' for Active; 'I' for Inactive)
REMARK    1  A    between atoms: C_2  and  C_3 
REMARK       I    between atoms: C_2  and  N_18 
REMARK    2  A    between atoms: C_3  and  N_4 
REMARK       I    between atoms: N_4  and  C_5 
REMARK       I    between atoms: C_5  and  N_7 
REMARK    3  A    between atoms: N_7  and  C_8 
REMARK    4  A    between atoms: C_8  and  C_9 
REMARK    5  A    between atoms: C_13  and  N_14 
REMARK    6  A    between atoms: N_18  and  C_19 
ROOT
ATOM      1  N   UNL d   1      28.526 -14.603   3.177  0.00  0.00    -0.334 N 
ATOM      2  C   UNL d   1      28.429 -14.269   1.851  0.00  0.00     0.316 C 
ATOM      3  O   UNL d   1      28.011 -13.177   1.471  0.00  0.00    -0.247 OA
ATOM      4  N   UNL d   1      28.842 -15.243   0.983  0.00  0.00    -0.339 N 
ATOM      5  H   UNL d   1      28.872 -15.505   3.477  0.00  0.00     0.164 HD
ATOM      6  H   UNL d   1      29.104 -16.147   1.348  0.00  0.00     0.164 HD
ENDROOT
BRANCH   1   7
ATOM      7  C   UNL d   1      28.134 -13.653   4.226  0.00  0.00     0.227 C 
BRANCH   7   8
ATOM      8  C   UNL d   1      28.165 -14.237   5.651  0.00  0.00     0.235 C 
ATOM      9  O   UNL d   1      28.155 -15.452   5.861  0.00  0.00    -0.272 OA
ATOM     10  N   UNL d   1      28.194 -13.357   6.716  0.00  0.00    -0.355 N 
ATOM     11  H   UNL d   1      28.192 -13.801   7.629  0.00  0.00     0.162 HD
BRANCH  10  12
ATOM     12  C   UNL d   1      28.177 -11.930   6.650  0.00  0.00     0.084 A 
ATOM     13  C   UNL d   1      28.867 -11.074   7.686  0.00  0.00     0.027 A 
ATOM     14  C   UNL d   1      29.434 -11.180   6.301  0.00  0.00     0.027 A 
ENDBRANCH  10  12
ENDBRANCH   7   8
ENDBRANCH   1   7
BRANCH   4  15
ATOM     15  C   UNL d   1      28.804 -15.033  -0.467  0.00  0.00     0.162 C 
BRANCH  15  16
ATOM     16  C   UNL d   1      27.510 -15.487  -1.116  0.00  0.00    -0.038 A 
ATOM     17  C   UNL d   1      26.624 -16.354  -0.448  0.00  0.00     0.009 A 
ATOM     18  C   UNL d   1      25.492 -16.870  -1.095  0.00  0.00     0.003 A 
ATOM     19  C   UNL d   1      25.176 -16.459  -2.390  0.00  0.00     0.036 A 
ATOM     20  C   UNL d   1      26.015 -15.546  -3.036  0.00  0.00     0.103 A 
ATOM     21  C   UNL d   1      27.160 -15.045  -2.398  0.00  0.00     0.045 A 
BRANCH  20  22
ATOM     22  N   UNL d   1      25.746 -15.155  -4.425  0.00  0.00    -0.116 N 
ATOM     23  O   UNL d   1      24.751 -14.450  -4.645  0.00  0.00    -0.532 OA
ATOM     24  O   UNL d   1      26.518 -15.575  -5.300  0.00  0.00    -0.532 OA
ENDBRANCH  20  22
ENDBRANCH  15  16
ENDBRANCH   4  15
TORSDOF 6
ENDMDL
MODEL 9
REMARK VINA RESULT:    -5.744      6.213      7.685
REMARK INTER + INTRA:          -8.488
REMARK INTER:                  -7.534
REMARK INTRA:                  -0.954
REMARK CONF_INDEPENDENT:        1.790
REMARK UNBOUND:                -0.954
REMARK  6 active torsions:
REMARK  status: ('A' for Active; 'I' for Inactive)
REMARK    1  A    between atoms: C_2  and  C_3 
REMARK       I    between atoms: C_2  and  N_18 
REMARK    2  A    between atoms: C_3  and  N_4 
REMARK       I    between atoms: N_4  and  C_5 
REMARK       I    between atoms: C_5  and  N_7 
REMARK    3  A    between atoms: N_7  and  C_8 
REMARK    4  A    between atoms: C_8  and  C_9 
REMARK    5  A    between atoms: C_13  and  N_14 
REMARK    6  A    between atoms: N_18  and  C_19 
ROOT
ATOM      1  N   UNL d   1      27.546 -16.106   0.882  0.00  0.00    -0.334 N 
ATOM      2  C   UNL d   1      27.867 -14.773   0.902  0.00  0.00     0.316 C 
ATOM      3  O   UNL d   1      27.226 -13.927   0.280  0.00  0.00    -0.247 OA
ATOM      4  N   UNL d   1      28.951 -14.456   1.676  0.00  0.00    -0.339 N 
ATOM      5  H   UNL d   1      28.081 -16.792   1.399  0.00  0.00     0.164 HD
ATOM      6  H   UNL d   1      29.483 -15.199   2.102  0.00  0.00     0.164 HD
ENDROOT
BRANCH   1   7
ATOM      7  C   UNL d   1      26.398 -16.595   0.108  0.00  0.00     0.227 C 
BRANCH   7   8
ATOM      8  C   UNL d   1      26.069 -18.082   0.338  0.00  0.00     0.235 C 
ATOM      9  O   UNL d   1      26.835 -18.837   0.941  0.00  0.00    -0.272 OA
ATOM     10  N   UNL d   1      24.878 -18.571  -0.163  0.00  0.00    -0.355 N 
ATOM     11  H   UNL d   1      24.727 -19.562   0.002  0.00  0.00     0.162 HD
BRANCH  10  12
ATOM     12  C   UNL d   1      23.898 -17.846  -0.908  0.00  0.00     0.084 A 
ATOM     13  C   UNL d   1      22.438 -18.232  -0.896  0.00  0.00     0.027 A 
ATOM     14  C   UNL d   1      22.892 -16.989  -0.189  0.00  0.00     0.027 A 
ENDBRANCH  10  12
ENDBRANCH   7   8
ENDBRANCH   1   7
BRANCH   4  15
ATOM     15  C   UNL d   1      29.413 -13.071   1.802  0.00  0.00     0.162 C 
BRANCH  15  16
ATOM     16  C   UNL d   1      28.782 -12.319   2.959  0.00  0.00    -0.038 A 
ATOM     17  C   UNL d   1      28.921 -12.771   4.285  0.00  0.00     0.009 A 
ATOM     18  C   UNL d   1      28.237 -12.145   5.337  0.00  0.00     0.003 A 
ATOM     19  C   UNL d   1      27.472 -11.004   5.096  0.00  0.00     0.036 A 
ATOM     20  C   UNL d   1      27.384 -10.509   3.791  0.00  0.00     0.103 A 
ATOM     21  C   UNL d   1      28.050 -11.145   2.734  0.00  0.00     0.045 A 
BRANCH  20  22
ATOM     22  N   UNL d   1      26.526  -9.354   3.500  0.00  0.00    -0.116 N 
ATOM     23  O   UNL d   1      25.360  -9.574   3.143  0.00  0.00    -0.532 OA
ATOM     24  O   UNL d   1      27.028  -8.225   3.606  0.00  0.00    -0.532 OA
ENDBRANCH  20  22
ENDBRANCH  15  16
ENDBRANCH   4  15
TORSDOF 6
ENDMDL
