MODEL 1
REMARK VINA RESULT:    -7.355      0.000      0.000
REMARK INTER + INTRA:          -9.616
REMARK INTER:                  -8.548
REMARK INTRA:                  -1.068
REMARK CONF_INDEPENDENT:        1.193
REMARK UNBOUND:                -1.068
REMARK  4 active torsions:
REMARK  status: ('A' for Active; 'I' for Inactive)
REMARK    1  A    between atoms: C_2  and  C_3 
REMARK    2  A    between atoms: C_3  and  C_4 
REMARK       I    between atoms: C_4  and  N_6 
REMARK    3  A    between atoms: N_6  and  N_7 
REMARK       I    between atoms: N_7  and  C_8 
REMARK    4  A    between atoms: C_8  and  C_10 
ROOT
ATOM      1  N   UNL d   1      22.428 -18.200  -1.228  0.00  0.00    -0.263 N 
ATOM      2  C   UNL d   1      23.279 -17.111  -1.012  0.00  0.00     0.270 C 
ATOM      3  O   UNL d   1      22.880 -15.978  -1.241  0.00  0.00    -0.266 OA
ATOM      4  H   UNL d   1      21.632 -17.981  -1.827  0.00  0.00     0.190 HD
ENDROOT
BRANCH   1   5
ATOM      5  N   UNL d   1      22.009 -19.056  -0.136  0.00  0.00    -0.267 N 
ATOM      6  C   UNL d   1      20.640 -19.327  -0.069  0.00  0.00     0.236 C 
ATOM      7  O   UNL d   1      19.810 -18.577  -0.575  0.00  0.00    -0.272 OA
ATOM      8  H   UNL d   1      22.703 -19.700   0.232  0.00  0.00     0.190 HD
BRANCH   6   9
ATOM      9  C   UNL d   1      20.243 -20.655   0.597  0.00  0.00     0.104 C 
BRANCH   9  10
ATOM     10  C   UNL d   1      18.912 -20.515   1.353  0.00  0.00     0.005 C 
ATOM     11  C   UNL d   1      17.884 -21.575   0.980  0.00  0.00     0.005 C 
ENDBRANCH   9  10
ENDBRANCH   6   9
ENDBRANCH   1   5
BRANCH   2  12
ATOM     12  C   UNL d   1      24.742 -17.340  -0.659  0.00  0.00     0.039 A 
ATOM     13  C   UNL d   1      25.022 -18.200   0.432  0.00  0.00     0.017 A 
ATOM     14  C   UNL d   1      26.340 -18.436   0.861  0.00  0.00     0.001 A 
ATOM     15  C   UNL d   1      27.404 -17.837   0.202  0.00  0.00     0.001 A 
ATOM     16  C   UNL d   1      27.149 -16.984  -0.860  0.00  0.00     0.007 A 
ATOM     17  C   UNL d   1      25.837 -16.696  -1.272  0.00  0.00    -0.046 A 
ATOM     18  C   UNL d   1      25.733 -15.703  -2.380  0.00  0.00     0.049 C 
ENDBRANCH   2  12
TORSDOF 4
ENDMDL
MODEL 2
REMARK VINA RESULT:    -6.450      1.810      2.866
REMARK INTER + INTRA:          -8.398
REMARK INTER:                  -7.643
REMARK INTRA:                  -0.755
REMARK CONF_INDEPENDENT:        1.193
REMARK UNBOUND:                -0.755
REMARK  4 active torsions:
REMARK  status: ('A' for Active; 'I' for Inactive)
REMARK    1  A    between atoms: C_2  and  C_3 
REMARK    2  A    between atoms: C_3  and  C_4 
REMARK       I    between atoms: C_4  and  N_6 
REMARK    3  A    between atoms: N_6  and  N_7 
REMARK       I    between atoms: N_7  and  C_8 
REMARK    4  A    between atoms: C_8  and  C_10 
ROOT
ATOM      1  N   UNL d   1      23.656 -18.043   0.604  0.00  0.00    -0.263 N 
ATOM      2  C   UNL d   1      24.751 -17.959  -0.261  0.00  0.00     0.270 C 
ATOM      3  O   UNL d   1      25.437 -18.950  -0.467  0.00  0.00    -0.266 OA
ATOM      4  H   UNL d   1      23.683 -18.861   1.214  0.00  0.00     0.190 HD
ENDROOT
BRANCH   1   5
ATOM      5  N   UNL d   1      22.305 -17.817   0.133  0.00  0.00    -0.267 N 
ATOM      6  C   UNL d   1      21.845 -18.707  -0.842  0.00  0.00     0.236 C 
ATOM      7  O   UNL d   1      22.621 -19.325  -1.566  0.00  0.00    -0.272 OA
ATOM      8  H   UNL d   1      21.671 -17.344   0.771  0.00  0.00     0.190 HD
BRANCH   6   9
ATOM      9  C   UNL d   1      20.324 -18.928  -0.895  0.00  0.00     0.104 C 
BRANCH   9  10
ATOM     10  C   UNL d   1      19.909 -20.113  -0.010  0.00  0.00     0.005 C 
ATOM     11  C   UNL d   1      20.000 -19.821   1.483  0.00  0.00     0.005 C 
ENDBRANCH   9  10
ENDBRANCH   6   9
ENDBRANCH   1   5
BRANCH   2  12
ATOM     12  C   UNL d   1      25.192 -16.609  -0.809  0.00  0.00     0.039 A 
ATOM     13  C   UNL d   1      24.420 -16.047  -1.857  0.00  0.00     0.017 A 
ATOM     14  C   UNL d   1      24.776 -14.827  -2.458  0.00  0.00     0.001 A 
ATOM     15  C   UNL d   1      25.893 -14.133  -2.016  0.00  0.00     0.001 A 
ATOM     16  C   UNL d   1      26.667 -14.672  -1.000  0.00  0.00     0.007 A 
ATOM     17  C   UNL d   1      26.356 -15.914  -0.421  0.00  0.00    -0.046 A 
ATOM     18  C   UNL d   1      27.330 -16.386   0.606  0.00  0.00     0.049 C 
ENDBRANCH   2  12
TORSDOF 4
ENDMDL
MODEL 3
REMARK VINA RESULT:    -6.283      1.174      2.010
REMARK INTER + INTRA:          -8.411
REMARK INTER:                  -7.476
REMARK INTRA:                  -0.935
REMARK CONF_INDEPENDENT:        1.193
REMARK UNBOUND:                -0.935
REMARK  4 active torsions:
REMARK  status: ('A' for Active; 'I' for Inactive)
REMARK    1  A    between atoms: C_2  and  C_3 
REMARK    2  A    between atoms: C_3  and  C_4 
REMARK       I    between atoms: C_4  and  N_6 
REMARK    3  A    between atoms: N_6  and  N_7 
REMARK       I    between atoms: N_7  and  C_8 
REMARK    4  A    between atoms: C_8  and  C_10 
ROOT
ATOM      1  N   UNL d   1      21.481 -17.885  -1.109  0.00  0.00    -0.263 N 
ATOM      2  C   UNL d   1      22.381 -16.836  -0.894  0.00  0.00     0.270 C 
ATOM      3  O   UNL d   1      22.038 -15.687  -1.130  0.00  0.00    -0.266 OA
ATOM      4  H   UNL d   1      20.700 -17.630  -1.714  0.00  0.00     0.190 HD
ENDROOT
BRANCH   1   5
ATOM      5  N   UNL d   1      21.016 -18.715  -0.017  0.00  0.00    -0.267 N 
ATOM      6  C   UNL d   1      19.947 -19.565  -0.313  0.00  0.00     0.236 C 
ATOM      7  O   UNL d   1      19.174 -19.329  -1.237  0.00  0.00    -0.272 OA
ATOM      8  H   UNL d   1      21.690 -18.933   0.711  0.00  0.00     0.190 HD
BRANCH   6   9
ATOM      9  C   UNL d   1      19.848 -20.849   0.527  0.00  0.00     0.104 C 
BRANCH   9  10
ATOM     10  C   UNL d   1      19.074 -20.596   1.830  0.00  0.00     0.005 C 
ATOM     11  C   UNL d   1      19.972 -20.357   3.037  0.00  0.00     0.005 C 
ENDBRANCH   9  10
ENDBRANCH   6   9
ENDBRANCH   1   5
BRANCH   2  12
ATOM     12  C   UNL d   1      23.829 -17.133  -0.531  0.00  0.00     0.039 A 
ATOM     13  C   UNL d   1      24.716 -16.031  -0.433  0.00  0.00     0.017 A 
ATOM     14  C   UNL d   1      26.081 -16.210  -0.149  0.00  0.00     0.001 A 
ATOM     15  C   UNL d   1      26.586 -17.485   0.062  0.00  0.00     0.001 A 
ATOM     16  C   UNL d   1      25.737 -18.576  -0.041  0.00  0.00     0.007 A 
ATOM     17  C   UNL d   1      24.381 -18.421  -0.373  0.00  0.00    -0.046 A 
ATOM     18  C   UNL d   1      23.623 -19.698  -0.517  0.00  0.00     0.049 C 
ENDBRANCH   2  12
TORSDOF 4
ENDMDL
MODEL 4
REMARK VINA RESULT:    -6.020      1.859      2.713
REMARK INTER + INTRA:          -8.303
REMARK INTER:                  -7.213
REMARK INTRA:                  -1.090
REMARK CONF_INDEPENDENT:        1.193
REMARK UNBOUND:                -1.090
REMARK  4 active torsions:
REMARK  status: ('A' for Active; 'I' for Inactive)
REMARK    1  A    between atoms: C_2  and  C_3 
REMARK    2  A    between atoms: C_3  and  C_4 
REMARK       I    between atoms: C_4  and  N_6 
REMARK    3  A    between atoms: N_6  and  N_7 
REMARK       I    between atoms: N_7  and  C_8 
REMARK    4  A    between atoms: C_8  and  C_10 
ROOT
ATOM      1  N   UNL d   1      24.304 -17.699  -1.749  0.00  0.00    -0.263 N 
ATOM      2  C   UNL d   1      25.094 -16.581  -2.031  0.00  0.00     0.270 C 
ATOM      3  O   UNL d   1      25.153 -16.155  -3.175  0.00  0.00    -0.266 OA
ATOM      4  H   UNL d   1      24.057 -18.241  -2.578  0.00  0.00     0.190 HD
ENDROOT
BRANCH   1   5
ATOM      5  N   UNL d   1      23.167 -17.612  -0.855  0.00  0.00    -0.267 N 
ATOM      6  C   UNL d   1      22.221 -18.635  -0.973  0.00  0.00     0.236 C 
ATOM      7  O   UNL d   1      22.101 -19.283  -2.010  0.00  0.00    -0.272 OA
ATOM      8  H   UNL d   1      23.309 -17.110   0.016  0.00  0.00     0.190 HD
BRANCH   6   9
ATOM      9  C   UNL d   1      21.405 -18.954   0.290  0.00  0.00     0.104 C 
BRANCH   9  10
ATOM     10  C   UNL d   1      19.963 -19.344  -0.070  0.00  0.00     0.005 C 
ATOM     11  C   UNL d   1      19.502 -20.644   0.575  0.00  0.00     0.005 C 
ENDBRANCH   9  10
ENDBRANCH   6   9
ENDBRANCH   1   5
BRANCH   2  12
ATOM     12  C   UNL d   1      26.008 -16.000  -0.961  0.00  0.00     0.039 A 
ATOM     13  C   UNL d   1      26.304 -14.616  -1.037  0.00  0.00     0.017 A 
ATOM     14  C   UNL d   1      27.175 -14.000  -0.121  0.00  0.00     0.001 A 
ATOM     15  C   UNL d   1      27.752 -14.744   0.897  0.00  0.00     0.001 A 
ATOM     16  C   UNL d   1      27.484 -16.101   0.982  0.00  0.00     0.007 A 
ATOM     17  C   UNL d   1      26.656 -16.745   0.046  0.00  0.00    -0.046 A 
ATOM     18  C   UNL d   1      26.530 -18.219   0.234  0.00  0.00     0.049 C 
ENDBRANCH   2  12
TORSDOF 4
ENDMDL
MODEL 5
REMARK VINA RESULT:    -5.984      1.707      2.674
REMARK INTER + INTRA:          -8.062
REMARK INTER:                  -7.177
REMARK INTRA:                  -0.885
REMARK CONF_INDEPENDENT:        1.193
REMARK UNBOUND:                -0.885
REMARK  4 active torsions:
REMARK  status: ('A' for Active; 'I' for Inactive)
REMARK    1  A    between atoms: C_2  and  C_3 
REMARK    2  A    between atoms: C_3  and  C_4 
REMARK       I    between atoms: C_4  and  N_6 
REMARK    3  A    between atoms: N_6  and  N_7 
REMARK       I    between atoms: N_7  and  C_8 
REMARK    4  A    between atoms: C_8  and  C_10 
ROOT
ATOM      1  N   UNL d   1      23.902 -18.229   0.471  0.00  0.00    -0.263 N 
ATOM      2  C   UNL d   1      25.258 -18.024   0.194  0.00  0.00     0.270 C 
ATOM      3  O   UNL d   1      26.105 -18.506   0.932  0.00  0.00    -0.266 OA
ATOM      4  H   UNL d   1      23.726 -18.532   1.429  0.00  0.00     0.190 HD
ENDROOT
BRANCH   1   5
ATOM      5  N   UNL d   1      23.047 -18.954  -0.447  0.00  0.00    -0.267 N 
ATOM      6  C   UNL d   1      21.704 -19.054  -0.074  0.00  0.00     0.236 C 
ATOM      7  O   UNL d   1      21.352 -18.956   1.099  0.00  0.00    -0.272 OA
ATOM      8  H   UNL d   1      23.338 -18.980  -1.419  0.00  0.00     0.190 HD
BRANCH   6   9
ATOM      9  C   UNL d   1      20.691 -19.208  -1.220  0.00  0.00     0.104 C 
BRANCH   9  10
ATOM     10  C   UNL d   1      19.257 -19.309  -0.678  0.00  0.00     0.005 C 
ATOM     11  C   UNL d   1      19.026 -20.520   0.216  0.00  0.00     0.005 C 
ENDBRANCH   9  10
ENDBRANCH   6   9
ENDBRANCH   1   5
BRANCH   2  12
ATOM     12  C   UNL d   1      25.676 -17.070  -0.916  0.00  0.00     0.039 A 
ATOM     13  C   UNL d   1      27.050 -17.042  -1.268  0.00  0.00     0.017 A 
ATOM     14  C   UNL d   1      27.538 -16.160  -2.248  0.00  0.00     0.001 A 
ATOM     15  C   UNL d   1      26.669 -15.306  -2.911  0.00  0.00     0.001 A 
ATOM     16  C   UNL d   1      25.324 -15.312  -2.573  0.00  0.00     0.007 A 
ATOM     17  C   UNL d   1      24.825 -16.149  -1.561  0.00  0.00    -0.046 A 
ATOM     18  C   UNL d   1      23.372 -15.979  -1.269  0.00  0.00     0.049 C 
ENDBRANCH   2  12
TORSDOF 4
ENDMDL
MODEL 6
REMARK VINA RESULT:    -5.700      4.136      7.456
REMARK INTER + INTRA:          -7.681
REMARK INTER:                  -6.893
REMARK INTRA:                  -0.788
REMARK CONF_INDEPENDENT:        1.193
REMARK UNBOUND:                -0.788
REMARK  4 active torsions:
REMARK  status: ('A' for Active; 'I' for Inactive)
REMARK    1  A    between atoms: C_2  and  C_3 
REMARK    2  A    between atoms: C_3  and  C_4 
REMARK       I    between atoms: C_4  and  N_6 
REMARK    3  A    between atoms: N_6  and  N_7 
REMARK       I    between atoms: N_7  and  C_8 
REMARK    4  A    between atoms: C_8  and  C_10 
ROOT
ATOM      1  N   UNL d   1      27.014 -14.825  -3.066  0.00  0.00    -0.263 N 
ATOM      2  C   UNL d   1      25.724 -15.316  -2.844  0.00  0.00     0.270 C 
ATOM      3  O   UNL d   1      24.778 -14.824  -3.442  0.00  0.00    -0.266 OA
ATOM      4  H   UNL d   1      27.027 -13.903  -3.505  0.00  0.00     0.190 HD
ENDROOT
BRANCH   1   5
ATOM      5  N   UNL d   1      28.052 -15.662  -3.634  0.00  0.00    -0.267 N 
ATOM      6  C   UNL d   1      28.210 -15.575  -5.020  0.00  0.00     0.236 C 
ATOM      7  O   UNL d   1      27.297 -15.200  -5.750  0.00  0.00    -0.272 OA
ATOM      8  H   UNL d   1      28.819 -15.918  -3.021  0.00  0.00     0.190 HD
BRANCH   6   9
ATOM      9  C   UNL d   1      29.613 -15.892  -5.564  0.00  0.00     0.104 C 
BRANCH   9  10
ATOM     10  C   UNL d   1      30.153 -17.200  -4.963  0.00  0.00     0.005 C 
ATOM     11  C   UNL d   1      30.495 -18.255  -6.007  0.00  0.00     0.005 C 
ENDBRANCH   9  10
ENDBRANCH   6   9
ENDBRANCH   1   5
BRANCH   2  12
ATOM     12  C   UNL d   1      25.473 -16.337  -1.743  0.00  0.00     0.039 A 
ATOM     13  C   UNL d   1      24.169 -16.884  -1.645  0.00  0.00     0.017 A 
ATOM     14  C   UNL d   1      23.830 -17.798  -0.633  0.00  0.00     0.001 A 
ATOM     15  C   UNL d   1      24.785 -18.200   0.289  0.00  0.00     0.001 A 
ATOM     16  C   UNL d   1      26.063 -17.669   0.217  0.00  0.00     0.007 A 
ATOM     17  C   UNL d   1      26.407 -16.716  -0.757  0.00  0.00    -0.046 A 
ATOM     18  C   UNL d   1      27.799 -16.189  -0.651  0.00  0.00     0.049 C 
ENDBRANCH   2  12
TORSDOF 4
ENDMDL
MODEL 7
REMARK VINA RESULT:    -5.659      1.873      3.103
REMARK INTER + INTRA:          -7.771
REMARK INTER:                  -6.852
REMARK INTRA:                  -0.918
REMARK CONF_INDEPENDENT:        1.193
REMARK UNBOUND:                -0.918
REMARK  4 active torsions:
REMARK  status: ('A' for Active; 'I' for Inactive)
REMARK    1  A    between atoms: C_2  and  C_3 
REMARK    2  A    between atoms: C_3  and  C_4 
REMARK       I    between atoms: C_4  and  N_6 
REMARK    3  A    between atoms: N_6  and  N_7 
REMARK       I    between atoms: N_7  and  C_8 
REMARK    4  A    between atoms: C_8  and  C_10 
ROOT
ATOM      1  N   UNL d   1      24.392 -17.677   0.144  0.00  0.00    -0.263 N 
ATOM      2  C   UNL d   1      25.723 -17.438  -0.213  0.00  0.00     0.270 C 
ATOM      3  O   UNL d   1      26.625 -17.859   0.497  0.00  0.00    -0.266 OA
ATOM      4  H   UNL d   1      24.277 -17.947   1.122  0.00  0.00     0.190 HD
ENDROOT
BRANCH   1   5
ATOM      5  N   UNL d   1      23.517 -18.468  -0.698  0.00  0.00    -0.267 N 
ATOM      6  C   UNL d   1      22.220 -18.660  -0.213  0.00  0.00     0.236 C 
ATOM      7  O   UNL d   1      21.962 -18.578   0.985  0.00  0.00    -0.272 OA
ATOM      8  H   UNL d   1      23.727 -18.480  -1.691  0.00  0.00     0.190 HD
BRANCH   6   9
ATOM      9  C   UNL d   1      21.129 -18.894  -1.270  0.00  0.00     0.104 C 
BRANCH   9  10
ATOM     10  C   UNL d   1      19.740 -18.979  -0.618  0.00  0.00     0.005 C 
ATOM     11  C   UNL d   1      19.452 -20.326   0.032  0.00  0.00     0.005 C 
ENDBRANCH   9  10
ENDBRANCH   6   9
ENDBRANCH   1   5
BRANCH   2  12
ATOM     12  C   UNL d   1      26.048 -16.516  -1.380  0.00  0.00     0.039 A 
ATOM     13  C   UNL d   1      24.962 -15.883  -2.034  0.00  0.00     0.017 A 
ATOM     14  C   UNL d   1      25.160 -15.051  -3.150  0.00  0.00     0.001 A 
ATOM     15  C   UNL d   1      26.443 -14.818  -3.624  0.00  0.00     0.001 A 
ATOM     16  C   UNL d   1      27.517 -15.436  -3.005  0.00  0.00     0.007 A 
ATOM     17  C   UNL d   1      27.335 -16.310  -1.920  0.00  0.00    -0.046 A 
ATOM     18  C   UNL d   1      28.585 -16.951  -1.416  0.00  0.00     0.049 C 
ENDBRANCH   2  12
TORSDOF 4
ENDMDL
MODEL 8
REMARK VINA RESULT:    -5.407      2.371      3.239
REMARK INTER + INTRA:          -7.679
REMARK INTER:                  -6.600
REMARK INTRA:                  -1.079
REMARK CONF_INDEPENDENT:        1.193
REMARK UNBOUND:                -1.079
REMARK  4 active torsions:
REMARK  status: ('A' for Active; 'I' for Inactive)
REMARK    1  A    between atoms: C_2  and  C_3 
REMARK    2  A    between atoms: C_3  and  C_4 
REMARK       I    between atoms: C_4  and  N_6 
REMARK    3  A    between atoms: N_6  and  N_7 
REMARK       I    between atoms: N_7  and  C_8 
REMARK    4  A    between atoms: C_8  and  C_10 
ROOT
ATOM      1  N   UNL d   1      24.771 -17.142  -2.018  0.00  0.00    -0.263 N 
ATOM      2  C   UNL d   1      25.323 -15.950  -2.498  0.00  0.00     0.270 C 
ATOM      3  O   UNL d   1      25.305 -15.715  -3.697  0.00  0.00    -0.266 OA
ATOM      4  H   UNL d   1      24.647 -17.851  -2.741  0.00  0.00     0.190 HD
ENDROOT
BRANCH   1   5
ATOM      5  N   UNL d   1      23.632 -17.138  -1.123  0.00  0.00    -0.267 N 
ATOM      6  C   UNL d   1      22.888 -18.321  -1.082  0.00  0.00     0.236 C 
ATOM      7  O   UNL d   1      22.894 -19.117  -2.017  0.00  0.00    -0.272 OA
ATOM      8  H   UNL d   1      23.675 -16.502  -0.332  0.00  0.00     0.190 HD
BRANCH   6   9
ATOM      9  C   UNL d   1      22.135 -18.604   0.229  0.00  0.00     0.104 C 
BRANCH   9  10
ATOM     10  C   UNL d   1      20.953 -19.556  -0.011  0.00  0.00     0.005 C 
ATOM     11  C   UNL d   1      19.862 -18.964  -0.893  0.00  0.00     0.005 C 
ENDBRANCH   9  10
ENDBRANCH   6   9
ENDBRANCH   1   5
BRANCH   2  12
ATOM     12  C   UNL d   1      26.092 -15.030  -1.560  0.00  0.00     0.039 A 
ATOM     13  C   UNL d   1      26.489 -15.561  -0.306  0.00  0.00     0.017 A 
ATOM     14  C   UNL d   1      27.162 -14.773   0.644  0.00  0.00     0.001 A 
ATOM     15  C   UNL d   1      27.470 -13.451   0.359  0.00  0.00     0.001 A 
ATOM     16  C   UNL d   1      27.080 -12.911  -0.856  0.00  0.00     0.007 A 
ATOM     17  C   UNL d   1      26.363 -13.667  -1.798  0.00  0.00    -0.046 A 
ATOM     18  C   UNL d   1      25.955 -12.917  -3.022  0.00  0.00     0.049 C 
ENDBRANCH   2  12
TORSDOF 4
ENDMDL
MODEL 9
REMARK VINA RESULT:    -5.373      2.390      4.072
REMARK INTER + INTRA:          -7.637
REMARK INTER:                  -6.566
REMARK INTRA:                  -1.071
REMARK CONF_INDEPENDENT:        1.193
REMARK UNBOUND:                -1.071
REMARK  4 active torsions:
REMARK  status: ('A' for Active; 'I' for Inactive)
REMARK    1  A    between atoms: C_2  and  C_3 
REMARK    2  A    between atoms: C_3  and  C_4 
REMARK       I    between atoms: C_4  and  N_6 
REMARK    3  A    between atoms: N_6  and  N_7 
REMARK       I    between atoms: N_7  and  C_8 
REMARK    4  A    between atoms: C_8  and  C_10 
ROOT
ATOM      1  N   UNL d   1      25.114 -16.769  -0.717  0.00  0.00    -0.263 N 
ATOM      2  C   UNL d   1      26.230 -16.392  -1.470  0.00  0.00     0.270 C 
ATOM      3  O   UNL d   1      27.318 -16.897  -1.233  0.00  0.00    -0.266 OA
ATOM      4  H   UNL d   1      25.354 -17.233   0.160  0.00  0.00     0.190 HD
ENDROOT
BRANCH   1   5
ATOM      5  N   UNL d   1      23.976 -17.423  -1.331  0.00  0.00    -0.267 N 
ATOM      6  C   UNL d   1      23.151 -18.146  -0.465  0.00  0.00     0.236 C 
ATOM      7  O   UNL d   1      23.566 -18.580   0.606  0.00  0.00    -0.272 OA
ATOM      8  H   UNL d   1      23.625 -17.015  -2.192  0.00  0.00     0.190 HD
BRANCH   6   9
ATOM      9  C   UNL d   1      21.681 -18.292  -0.892  0.00  0.00     0.104 C 
BRANCH   9  10
ATOM     10  C   UNL d   1      20.963 -19.349  -0.039  0.00  0.00     0.005 C 
ATOM     11  C   UNL d   1      19.525 -19.607  -0.470  0.00  0.00     0.005 C 
ENDBRANCH   9  10
ENDBRANCH   6   9
ENDBRANCH   1   5
BRANCH   2  12
ATOM     12  C   UNL d   1      26.132 -15.241  -2.461  0.00  0.00     0.039 A 
ATOM     13  C   UNL d   1      25.903 -15.569  -3.822  0.00  0.00     0.017 A 
ATOM     14  C   UNL d   1      25.844 -14.578  -4.816  0.00  0.00     0.001 A 
ATOM     15  C   UNL d   1      25.990 -13.241  -4.475  0.00  0.00     0.001 A 
ATOM     16  C   UNL d   1      26.224 -12.901  -3.152  0.00  0.00     0.007 A 
ATOM     17  C   UNL d   1      26.338 -13.881  -2.152  0.00  0.00    -0.046 A 
ATOM     18  C   UNL d   1      26.665 -13.354  -0.795  0.00  0.00     0.049 C 
ENDBRANCH   2  12
TORSDOF 4
ENDMDL
