MODEL 1
REMARK VINA RESULT:    -9.728      0.000      0.000
REMARK INTER + INTRA:         -12.716
REMARK INTER:                 -11.518
REMARK INTRA:                  -1.198
REMARK CONF_INDEPENDENT:        1.790
REMARK UNBOUND:                -1.198
REMARK  6 active torsions:
REMARK  status: ('A' for Active; 'I' for Inactive)
REMARK    1  A    between atoms: C_4  and  C_5 
REMARK       I    between atoms: C_5  and  N_7 
REMARK    2  A    between atoms: N_7  and  C_8 
REMARK    3  A    between atoms: C_10  and  C_11 
REMARK    4  A    between atoms: C_14  and  C_15 
REMARK       I    between atoms: C_15  and  N_16 
REMARK    5  A    between atoms: N_24  and  C_25 
REMARK    6  A    between atoms: C_25  and  C_26 
ROOT
ATOM      1  C   UNL d   1      24.754 -14.897  -2.417  0.00  0.00     0.258 C 
ATOM      2  O   UNL d   1      23.544 -14.708  -2.482  0.00  0.00    -0.267 OA
ATOM      3  N   UNL d   1      25.348 -15.937  -1.732  0.00  0.00    -0.301 N 
ATOM      4  H   UNL d   1      26.296 -15.881  -1.404  0.00  0.00     0.171 HD
ENDROOT
BRANCH   1   5
ATOM      5  C   UNL d   1      25.656 -13.888  -3.040  0.00  0.00     0.049 A 
ATOM      6  C   UNL d   1      25.888 -12.614  -2.505  0.00  0.00     0.044 A 
ATOM      7  C   UNL d   1      26.755 -11.740  -3.149  0.00  0.00     0.034 A 
ATOM      8  C   UNL d   1      27.012 -10.380  -2.547  0.00  0.00     0.070 C 
ATOM      9  N   UNL d   1      27.402 -12.043  -4.291  0.00  0.00    -0.234 NA
ATOM     10  C   UNL d   1      27.188 -13.284  -4.783  0.00  0.00     0.159 A 
ATOM     11  N   UNL d   1      27.756 -13.890  -5.894  0.00  0.00    -0.247 N 
ATOM     12  C   UNL d   1      26.340 -14.228  -4.225  0.00  0.00     0.046 A 
ATOM     13  N   UNL d   1      27.286 -15.148  -6.102  0.00  0.00    -0.182 NA
ATOM     14  C   UNL d   1      26.435 -15.337  -5.093  0.00  0.00     0.155 A 
BRANCH  11  15
ATOM     15  C   UNL d   1      28.762 -13.409  -6.842  0.00  0.00     0.199 C 
BRANCH  15  16
ATOM     16  C   UNL d   1      28.269 -12.329  -7.737  0.00  0.00     0.002 A 
ATOM     17  C   UNL d   1      27.786 -11.081  -7.388  0.00  0.00     0.017 A 
ATOM     18  C   UNL d   1      27.188 -10.421  -8.494  0.00  0.00     0.008 A 
ATOM     19  C   UNL d   1      27.343 -11.135  -9.661  0.00  0.00     0.050 A 
ATOM     20  S   UNL d   1      28.158 -12.613  -9.418  0.00  0.00    -0.105 SA
ENDBRANCH  15  16
ENDBRANCH  11  15
ENDBRANCH   1   5
BRANCH   3  21
ATOM     21  C   UNL d   1      24.555 -16.861  -1.104  0.00  0.00     0.173 A 
ATOM     22  N   UNL d   1      23.281 -17.107  -1.279  0.00  0.00    -0.223 NA
ATOM     23  C   UNL d   1      22.898 -18.110  -0.410  0.00  0.00     0.078 A 
ATOM     24  C   UNL d   1      23.885 -18.575   0.435  0.00  0.00     0.086 A 
ATOM     25  S   UNL d   1      25.376 -17.819   0.045  0.00  0.00    -0.061 SA
BRANCH  23  26
ATOM     26  C   UNL d   1      21.529 -18.614  -0.457  0.00  0.00     0.011 A 
ATOM     27  C   UNL d   1      20.498 -18.204  -1.270  0.00  0.00     0.102 A 
ATOM     28  N   UNL d   1      19.390 -18.952  -0.951  0.00  0.00    -0.361 N 
ATOM     29  C   UNL d   1      19.676 -19.818   0.087  0.00  0.00     0.101 A 
ATOM     30  H   UNL d   1      18.497 -18.872  -1.415  0.00  0.00     0.165 HD
ATOM     31  C   UNL d   1      21.013 -19.610   0.401  0.00  0.00     0.050 A 
BRANCH  29  32
ATOM     32  C   UNL d   1      18.785 -20.760   0.725  0.00  0.00     0.266 C 
ATOM     33  N   UNL d   1      17.699 -21.184   0.018  0.00  0.00    -0.365 N 
ATOM     34  H   UNL d   1      17.468 -20.915  -0.923  0.00  0.00     0.159 HD
ATOM     35  H   UNL d   1      17.107 -21.858   0.486  0.00  0.00     0.159 HD
ATOM     36  O   UNL d   1      18.950 -21.193   1.866  0.00  0.00    -0.266 OA
ENDBRANCH  29  32
ENDBRANCH  23  26
ENDBRANCH   3  21
TORSDOF 6
ENDMDL
MODEL 2
REMARK VINA RESULT:    -9.694      1.397      2.136
REMARK INTER + INTRA:         -12.394
REMARK INTER:                 -11.484
REMARK INTRA:                  -0.909
REMARK CONF_INDEPENDENT:        1.790
REMARK UNBOUND:                -0.909
REMARK  6 active torsions:
REMARK  status: ('A' for Active; 'I' for Inactive)
REMARK    1  A    between atoms: C_4  and  C_5 
REMARK       I    between atoms: C_5  and  N_7 
REMARK    2  A    between atoms: N_7  and  C_8 
REMARK    3  A    between atoms: C_10  and  C_11 
REMARK    4  A    between atoms: C_14  and  C_15 
REMARK       I    between atoms: C_15  and  N_16 
REMARK    5  A    between atoms: N_24  and  C_25 
REMARK    6  A    between atoms: C_25  and  C_26 
ROOT
ATOM      1  C   UNL d   1      24.644 -14.974  -2.465  0.00  0.00     0.258 C 
ATOM      2  O   UNL d   1      23.435 -14.775  -2.427  0.00  0.00    -0.267 OA
ATOM      3  N   UNL d   1      25.280 -16.049  -1.879  0.00  0.00    -0.301 N 
ATOM      4  H   UNL d   1      26.251 -16.015  -1.624  0.00  0.00     0.171 HD
ENDROOT
BRANCH   1   5
ATOM      5  C   UNL d   1      25.505 -13.941  -3.107  0.00  0.00     0.049 A 
ATOM      6  C   UNL d   1      25.673 -12.644  -2.603  0.00  0.00     0.044 A 
ATOM      7  C   UNL d   1      26.505 -11.748  -3.262  0.00  0.00     0.034 A 
ATOM      8  C   UNL d   1      26.693 -10.362  -2.694  0.00  0.00     0.070 C 
ATOM      9  N   UNL d   1      27.175 -12.049  -4.391  0.00  0.00    -0.234 NA
ATOM     10  C   UNL d   1      27.023 -13.312  -4.852  0.00  0.00     0.159 A 
ATOM     11  N   UNL d   1      27.628 -13.919  -5.942  0.00  0.00    -0.247 N 
ATOM     12  C   UNL d   1      26.214 -14.279  -4.277  0.00  0.00     0.046 A 
ATOM     13  N   UNL d   1      27.218 -15.202  -6.122  0.00  0.00    -0.182 NA
ATOM     14  C   UNL d   1      26.368 -15.404  -5.115  0.00  0.00     0.155 A 
BRANCH  11  15
ATOM     15  C   UNL d   1      28.620 -13.416  -6.895  0.00  0.00     0.199 C 
BRANCH  15  16
ATOM     16  C   UNL d   1      29.870 -14.219  -6.933  0.00  0.00     0.002 A 
ATOM     17  C   UNL d   1      31.024 -13.974  -7.655  0.00  0.00     0.017 A 
ATOM     18  C   UNL d   1      31.909 -15.083  -7.623  0.00  0.00     0.008 A 
ATOM     19  C   UNL d   1      31.455 -16.077  -6.787  0.00  0.00     0.050 A 
ATOM     20  S   UNL d   1      29.946 -15.700  -6.085  0.00  0.00    -0.105 SA
ENDBRANCH  15  16
ENDBRANCH  11  15
ENDBRANCH   1   5
BRANCH   3  21
ATOM     21  C   UNL d   1      24.529 -16.999  -1.237  0.00  0.00     0.173 A 
ATOM     22  N   UNL d   1      23.240 -17.214  -1.306  0.00  0.00    -0.223 NA
ATOM     23  C   UNL d   1      22.918 -18.263  -0.467  0.00  0.00     0.078 A 
ATOM     24  C   UNL d   1      23.969 -18.795   0.252  0.00  0.00     0.086 A 
ATOM     25  S   UNL d   1      25.432 -18.039  -0.230  0.00  0.00    -0.061 SA
BRANCH  23  26
ATOM     26  C   UNL d   1      21.540 -18.743  -0.417  0.00  0.00     0.011 A 
ATOM     27  C   UNL d   1      20.502 -18.442  -1.267  0.00  0.00     0.102 A 
ATOM     28  N   UNL d   1      19.388 -19.112  -0.822  0.00  0.00    -0.361 N 
ATOM     29  C   UNL d   1      19.677 -19.814   0.332  0.00  0.00     0.101 A 
ATOM     30  H   UNL d   1      18.488 -19.087  -1.279  0.00  0.00     0.165 HD
ATOM     31  C   UNL d   1      21.023 -19.586   0.592  0.00  0.00     0.050 A 
BRANCH  29  32
ATOM     32  C   UNL d   1      18.782 -20.630   1.119  0.00  0.00     0.266 C 
ATOM     33  N   UNL d   1      17.920 -21.449   0.454  0.00  0.00    -0.365 N 
ATOM     34  H   UNL d   1      17.861 -21.554  -0.544  0.00  0.00     0.159 HD
ATOM     35  H   UNL d   1      17.321 -22.022   1.035  0.00  0.00     0.159 HD
ATOM     36  O   UNL d   1      18.754 -20.623   2.351  0.00  0.00    -0.266 OA
ENDBRANCH  29  32
ENDBRANCH  23  26
ENDBRANCH   3  21
TORSDOF 6
ENDMDL
MODEL 3
REMARK VINA RESULT:    -9.384      3.539     10.353
REMARK INTER + INTRA:         -12.151
REMARK INTER:                 -11.174
REMARK INTRA:                  -0.977
REMARK CONF_INDEPENDENT:        1.790
REMARK UNBOUND:                -0.977
REMARK  6 active torsions:
REMARK  status: ('A' for Active; 'I' for Inactive)
REMARK    1  A    between atoms: C_4  and  C_5 
REMARK       I    between atoms: C_5  and  N_7 
REMARK    2  A    between atoms: N_7  and  C_8 
REMARK    3  A    between atoms: C_10  and  C_11 
REMARK    4  A    between atoms: C_14  and  C_15 
REMARK       I    between atoms: C_15  and  N_16 
REMARK    5  A    between atoms: N_24  and  C_25 
REMARK    6  A    between atoms: C_25  and  C_26 
ROOT
ATOM      1  C   UNL d   1      25.747 -14.330  -3.004  0.00  0.00     0.258 C 
ATOM      2  O   UNL d   1      25.048 -14.424  -4.006  0.00  0.00    -0.267 OA
ATOM      3  N   UNL d   1      26.516 -13.230  -2.684  0.00  0.00    -0.301 N 
ATOM      4  H   UNL d   1      27.317 -13.302  -2.081  0.00  0.00     0.171 HD
ENDROOT
BRANCH   1   5
ATOM      5  C   UNL d   1      25.852 -15.518  -2.109  0.00  0.00     0.049 A 
ATOM      6  C   UNL d   1      27.068 -16.111  -1.742  0.00  0.00     0.044 A 
ATOM      7  C   UNL d   1      27.072 -17.212  -0.894  0.00  0.00     0.034 A 
ATOM      8  C   UNL d   1      28.391 -17.825  -0.490  0.00  0.00     0.070 C 
ATOM      9  N   UNL d   1      25.952 -17.767  -0.391  0.00  0.00    -0.234 NA
ATOM     10  C   UNL d   1      24.788 -17.169  -0.734  0.00  0.00     0.159 A 
ATOM     11  N   UNL d   1      23.499 -17.476  -0.326  0.00  0.00    -0.247 N 
ATOM     12  C   UNL d   1      24.672 -16.075  -1.577  0.00  0.00     0.046 A 
ATOM     13  N   UNL d   1      22.564 -16.671  -0.895  0.00  0.00    -0.182 NA
ATOM     14  C   UNL d   1      23.283 -15.834  -1.645  0.00  0.00     0.155 A 
BRANCH  11  15
ATOM     15  C   UNL d   1      23.001 -18.492   0.603  0.00  0.00     0.199 C 
BRANCH  15  16
ATOM     16  C   UNL d   1      21.596 -18.900   0.342  0.00  0.00     0.002 A 
ATOM     17  C   UNL d   1      20.644 -19.325   1.251  0.00  0.00     0.017 A 
ATOM     18  C   UNL d   1      19.498 -19.855   0.603  0.00  0.00     0.008 A 
ATOM     19  C   UNL d   1      19.568 -19.707  -0.764  0.00  0.00     0.050 A 
ATOM     20  S   UNL d   1      21.027 -18.980  -1.267  0.00  0.00    -0.105 SA
ENDBRANCH  15  16
ENDBRANCH  11  15
ENDBRANCH   1   5
BRANCH   3  21
ATOM     21  C   UNL d   1      26.485 -12.134  -3.505  0.00  0.00     0.173 A 
ATOM     22  N   UNL d   1      25.871 -10.991  -3.329  0.00  0.00    -0.223 NA
ATOM     23  C   UNL d   1      26.100 -10.189  -4.430  0.00  0.00     0.078 A 
ATOM     24  C   UNL d   1      26.852 -10.760  -5.437  0.00  0.00     0.086 A 
ATOM     25  S   UNL d   1      27.396 -12.309  -4.938  0.00  0.00    -0.061 SA
BRANCH  23  26
ATOM     26  C   UNL d   1      25.574  -8.827  -4.446  0.00  0.00     0.011 A 
ATOM     27  C   UNL d   1      26.197  -7.670  -4.042  0.00  0.00     0.102 A 
ATOM     28  N   UNL d   1      25.314  -6.633  -4.226  0.00  0.00    -0.361 N 
ATOM     29  C   UNL d   1      24.108  -7.106  -4.707  0.00  0.00     0.101 A 
ATOM     30  H   UNL d   1      25.524  -5.665  -4.032  0.00  0.00     0.165 HD
ATOM     31  C   UNL d   1      24.265  -8.480  -4.846  0.00  0.00     0.050 A 
BRANCH  29  32
ATOM     32  C   UNL d   1      22.919  -6.347  -5.017  0.00  0.00     0.266 C 
ATOM     33  N   UNL d   1      21.780  -7.039  -5.300  0.00  0.00    -0.365 N 
ATOM     34  H   UNL d   1      21.684  -8.040  -5.294  0.00  0.00     0.159 HD
ATOM     35  H   UNL d   1      20.961  -6.477  -5.493  0.00  0.00     0.159 HD
ATOM     36  O   UNL d   1      22.881  -5.116  -5.044  0.00  0.00    -0.266 OA
ENDBRANCH  29  32
ENDBRANCH  23  26
ENDBRANCH   3  21
TORSDOF 6
ENDMDL
MODEL 4
REMARK VINA RESULT:    -9.333      2.971      4.092
REMARK INTER + INTRA:         -12.249
REMARK INTER:                 -11.123
REMARK INTRA:                  -1.127
REMARK CONF_INDEPENDENT:        1.790
REMARK UNBOUND:                -1.127
REMARK  6 active torsions:
REMARK  status: ('A' for Active; 'I' for Inactive)
REMARK    1  A    between atoms: C_4  and  C_5 
REMARK       I    between atoms: C_5  and  N_7 
REMARK    2  A    between atoms: N_7  and  C_8 
REMARK    3  A    between atoms: C_10  and  C_11 
REMARK    4  A    between atoms: C_14  and  C_15 
REMARK       I    between atoms: C_15  and  N_16 
REMARK    5  A    between atoms: N_24  and  C_25 
REMARK    6  A    between atoms: C_25  and  C_26 
ROOT
ATOM      1  C   UNL d   1      26.105 -14.674  -4.040  0.00  0.00     0.258 C 
ATOM      2  O   UNL d   1      25.157 -15.307  -4.490  0.00  0.00    -0.267 OA
ATOM      3  N   UNL d   1      26.682 -14.899  -2.807  0.00  0.00    -0.301 N 
ATOM      4  H   UNL d   1      27.195 -14.182  -2.324  0.00  0.00     0.171 HD
ENDROOT
BRANCH   1   5
ATOM      5  C   UNL d   1      26.617 -13.520  -4.831  0.00  0.00     0.049 A 
ATOM      6  C   UNL d   1      27.411 -13.654  -5.978  0.00  0.00     0.044 A 
ATOM      7  C   UNL d   1      27.837 -12.521  -6.661  0.00  0.00     0.034 A 
ATOM      8  C   UNL d   1      28.672 -12.682  -7.908  0.00  0.00     0.070 C 
ATOM      9  N   UNL d   1      27.534 -11.265  -6.278  0.00  0.00    -0.234 NA
ATOM     10  C   UNL d   1      26.747 -11.152  -5.184  0.00  0.00     0.159 A 
ATOM     11  N   UNL d   1      26.228 -10.007  -4.599  0.00  0.00    -0.247 N 
ATOM     12  C   UNL d   1      26.276 -12.214  -4.428  0.00  0.00     0.046 A 
ATOM     13  N   UNL d   1      25.491 -10.272  -3.489  0.00  0.00    -0.182 NA
ATOM     14  C   UNL d   1      25.530 -11.602  -3.397  0.00  0.00     0.155 A 
BRANCH  11  15
ATOM     15  C   UNL d   1      26.335  -8.598  -4.985  0.00  0.00     0.199 C 
BRANCH  15  16
ATOM     16  C   UNL d   1      25.020  -7.938  -5.197  0.00  0.00     0.002 A 
ATOM     17  C   UNL d   1      24.057  -8.230  -6.145  0.00  0.00     0.017 A 
ATOM     18  C   UNL d   1      23.047  -7.234  -6.193  0.00  0.00     0.008 A 
ATOM     19  C   UNL d   1      23.212  -6.290  -5.205  0.00  0.00     0.050 A 
ATOM     20  S   UNL d   1      24.603  -6.572  -4.259  0.00  0.00    -0.105 SA
ENDBRANCH  15  16
ENDBRANCH  11  15
ENDBRANCH   1   5
BRANCH   3  21
ATOM     21  C   UNL d   1      26.209 -15.920  -2.025  0.00  0.00     0.173 A 
ATOM     22  N   UNL d   1      24.970 -16.271  -1.791  0.00  0.00    -0.223 NA
ATOM     23  C   UNL d   1      24.968 -17.346  -0.923  0.00  0.00     0.078 A 
ATOM     24  C   UNL d   1      26.210 -17.761  -0.486  0.00  0.00     0.086 A 
ATOM     25  S   UNL d   1      27.430 -16.855  -1.285  0.00  0.00    -0.061 SA
BRANCH  23  26
ATOM     26  C   UNL d   1      23.700 -17.970  -0.557  0.00  0.00     0.011 A 
ATOM     27  C   UNL d   1      23.301 -18.426   0.677  0.00  0.00     0.102 A 
ATOM     28  N   UNL d   1      22.037 -18.949   0.542  0.00  0.00    -0.361 N 
ATOM     29  C   UNL d   1      21.624 -18.875  -0.775  0.00  0.00     0.101 A 
ATOM     30  H   UNL d   1      21.495 -19.332   1.302  0.00  0.00     0.165 HD
ATOM     31  C   UNL d   1      22.661 -18.264  -1.468  0.00  0.00     0.050 A 
BRANCH  29  32
ATOM     32  C   UNL d   1      20.371 -19.327  -1.336  0.00  0.00     0.266 C 
ATOM     33  N   UNL d   1      19.229 -19.040  -0.650  0.00  0.00    -0.365 N 
ATOM     34  H   UNL d   1      19.174 -18.521   0.209  0.00  0.00     0.159 HD
ATOM     35  H   UNL d   1      18.368 -19.352  -1.080  0.00  0.00     0.159 HD
ATOM     36  O   UNL d   1      20.281 -19.956  -2.391  0.00  0.00    -0.266 OA
ENDBRANCH  29  32
ENDBRANCH  23  26
ENDBRANCH   3  21
TORSDOF 6
ENDMDL
MODEL 5
REMARK VINA RESULT:    -9.277      6.817      9.658
REMARK INTER + INTRA:         -12.145
REMARK INTER:                 -11.067
REMARK INTRA:                  -1.079
REMARK CONF_INDEPENDENT:        1.790
REMARK UNBOUND:                -1.079
REMARK  6 active torsions:
REMARK  status: ('A' for Active; 'I' for Inactive)
REMARK    1  A    between atoms: C_4  and  C_5 
REMARK       I    between atoms: C_5  and  N_7 
REMARK    2  A    between atoms: N_7  and  C_8 
REMARK    3  A    between atoms: C_10  and  C_11 
REMARK    4  A    between atoms: C_14  and  C_15 
REMARK       I    between atoms: C_15  and  N_16 
REMARK    5  A    between atoms: N_24  and  C_25 
REMARK    6  A    between atoms: C_25  and  C_26 
ROOT
ATOM      1  C   UNL d   1      27.780 -14.270   1.867  0.00  0.00     0.258 C 
ATOM      2  O   UNL d   1      26.657 -13.778   1.855  0.00  0.00    -0.267 OA
ATOM      3  N   UNL d   1      28.164 -15.366   1.122  0.00  0.00    -0.301 N 
ATOM      4  H   UNL d   1      28.938 -15.946   1.395  0.00  0.00     0.171 HD
ENDROOT
BRANCH   1   5
ATOM      5  C   UNL d   1      28.781 -13.708   2.818  0.00  0.00     0.049 A 
ATOM      6  C   UNL d   1      29.709 -12.715   2.475  0.00  0.00     0.044 A 
ATOM      7  C   UNL d   1      30.600 -12.242   3.431  0.00  0.00     0.034 A 
ATOM      8  C   UNL d   1      31.577 -11.156   3.053  0.00  0.00     0.070 C 
ATOM      9  N   UNL d   1      30.638 -12.693   4.700  0.00  0.00    -0.234 NA
ATOM     10  C   UNL d   1      29.721 -13.634   5.022  0.00  0.00     0.159 A 
ATOM     11  N   UNL d   1      29.483 -14.232   6.250  0.00  0.00    -0.247 N 
ATOM     12  C   UNL d   1      28.795 -14.178   4.146  0.00  0.00     0.046 A 
ATOM     13  N   UNL d   1      28.489 -15.158   6.199  0.00  0.00    -0.182 NA
ATOM     14  C   UNL d   1      28.086 -15.116   4.928  0.00  0.00     0.155 A 
BRANCH  11  15
ATOM     15  C   UNL d   1      30.104 -14.022   7.559  0.00  0.00     0.199 C 
BRANCH  15  16
ATOM     16  C   UNL d   1      29.130 -13.727   8.641  0.00  0.00     0.002 A 
ATOM     17  C   UNL d   1      28.545 -12.515   8.962  0.00  0.00     0.017 A 
ATOM     18  C   UNL d   1      27.855 -12.576  10.201  0.00  0.00     0.008 A 
ATOM     19  C   UNL d   1      27.838 -13.853  10.716  0.00  0.00     0.050 A 
ATOM     20  S   UNL d   1      28.692 -14.961   9.739  0.00  0.00    -0.105 SA
ENDBRANCH  15  16
ENDBRANCH  11  15
ENDBRANCH   1   5
BRANCH   3  21
ATOM     21  C   UNL d   1      27.259 -15.943   0.270  0.00  0.00     0.173 A 
ATOM     22  N   UNL d   1      25.979 -16.151   0.447  0.00  0.00    -0.223 NA
ATOM     23  C   UNL d   1      25.472 -16.783  -0.672  0.00  0.00     0.078 A 
ATOM     24  C   UNL d   1      26.392 -17.076  -1.659  0.00  0.00     0.086 A 
ATOM     25  S   UNL d   1      27.921 -16.429  -1.226  0.00  0.00    -0.061 SA
BRANCH  23  26
ATOM     26  C   UNL d   1      24.042 -17.066  -0.749  0.00  0.00     0.011 A 
ATOM     27  C   UNL d   1      23.004 -16.174  -0.882  0.00  0.00     0.102 A 
ATOM     28  N   UNL d   1      21.833 -16.893  -0.895  0.00  0.00    -0.361 N 
ATOM     29  C   UNL d   1      22.093 -18.240  -0.731  0.00  0.00     0.101 A 
ATOM     30  H   UNL d   1      20.916 -16.485  -1.007  0.00  0.00     0.165 HD
ATOM     31  C   UNL d   1      23.474 -18.354  -0.638  0.00  0.00     0.050 A 
BRANCH  29  32
ATOM     32  C   UNL d   1      21.140 -19.324  -0.673  0.00  0.00     0.266 C 
ATOM     33  N   UNL d   1      21.027 -20.007   0.500  0.00  0.00    -0.365 N 
ATOM     34  H   UNL d   1      21.535 -19.812   1.346  0.00  0.00     0.159 HD
ATOM     35  H   UNL d   1      20.336 -20.747   0.513  0.00  0.00     0.159 HD
ATOM     36  O   UNL d   1      20.433 -19.666  -1.623  0.00  0.00    -0.266 OA
ENDBRANCH  29  32
ENDBRANCH  23  26
ENDBRANCH   3  21
TORSDOF 6
ENDMDL
MODEL 6
REMARK VINA RESULT:    -9.254      1.150      2.103
REMARK INTER + INTRA:         -12.260
REMARK INTER:                 -11.044
REMARK INTRA:                  -1.217
REMARK CONF_INDEPENDENT:        1.790
REMARK UNBOUND:                -1.217
REMARK  6 active torsions:
REMARK  status: ('A' for Active; 'I' for Inactive)
REMARK    1  A    between atoms: C_4  and  C_5 
REMARK       I    between atoms: C_5  and  N_7 
REMARK    2  A    between atoms: N_7  and  C_8 
REMARK    3  A    between atoms: C_10  and  C_11 
REMARK    4  A    between atoms: C_14  and  C_15 
REMARK       I    between atoms: C_15  and  N_16 
REMARK    5  A    between atoms: N_24  and  C_25 
REMARK    6  A    between atoms: C_25  and  C_26 
ROOT
ATOM      1  C   UNL d   1      25.363 -15.543  -2.889  0.00  0.00     0.258 C 
ATOM      2  O   UNL d   1      24.298 -14.952  -2.751  0.00  0.00    -0.267 OA
ATOM      3  N   UNL d   1      25.701 -16.710  -2.235  0.00  0.00    -0.301 N 
ATOM      4  H   UNL d   1      26.659 -16.977  -2.090  0.00  0.00     0.171 HD
ENDROOT
BRANCH   1   5
ATOM      5  C   UNL d   1      26.407 -14.918  -3.749  0.00  0.00     0.049 A 
ATOM      6  C   UNL d   1      27.574 -15.575  -4.160  0.00  0.00     0.044 A 
ATOM      7  C   UNL d   1      28.489 -14.917  -4.972  0.00  0.00     0.034 A 
ATOM      8  C   UNL d   1      29.730 -15.646  -5.425  0.00  0.00     0.070 C 
ATOM      9  N   UNL d   1      28.328 -13.649  -5.398  0.00  0.00    -0.234 NA
ATOM     10  C   UNL d   1      27.185 -13.035  -5.014  0.00  0.00     0.159 A 
ATOM     11  N   UNL d   1      26.723 -11.770  -5.343  0.00  0.00    -0.247 N 
ATOM     12  C   UNL d   1      26.213 -13.597  -4.201  0.00  0.00     0.046 A 
ATOM     13  N   UNL d   1      25.536 -11.475  -4.753  0.00  0.00    -0.182 NA
ATOM     14  C   UNL d   1      25.242 -12.581  -4.068  0.00  0.00     0.155 A 
BRANCH  11  15
ATOM     15  C   UNL d   1      27.289 -10.737  -6.213  0.00  0.00     0.199 C 
BRANCH  15  16
ATOM     16  C   UNL d   1      27.347 -11.129  -7.645  0.00  0.00     0.002 A 
ATOM     17  C   UNL d   1      26.531 -10.713  -8.681  0.00  0.00     0.017 A 
ATOM     18  C   UNL d   1      26.739 -11.484  -9.856  0.00  0.00     0.008 A 
ATOM     19  C   UNL d   1      27.781 -12.370  -9.708  0.00  0.00     0.050 A 
ATOM     20  S   UNL d   1      28.471 -12.313  -8.149  0.00  0.00    -0.105 SA
ENDBRANCH  15  16
ENDBRANCH  11  15
ENDBRANCH   1   5
BRANCH   3  21
ATOM     21  C   UNL d   1      24.787 -17.294  -1.397  0.00  0.00     0.173 A 
ATOM     22  N   UNL d   1      23.531 -17.585  -1.624  0.00  0.00    -0.223 NA
ATOM     23  C   UNL d   1      22.990 -18.143  -0.482  0.00  0.00     0.078 A 
ATOM     24  C   UNL d   1      23.842 -18.226   0.601  0.00  0.00     0.086 A 
ATOM     25  S   UNL d   1      25.409 -17.701   0.139  0.00  0.00    -0.061 SA
BRANCH  23  26
ATOM     26  C   UNL d   1      21.610 -18.618  -0.501  0.00  0.00     0.011 A 
ATOM     27  C   UNL d   1      20.565 -18.164  -1.270  0.00  0.00     0.102 A 
ATOM     28  N   UNL d   1      19.451 -18.897  -0.938  0.00  0.00    -0.361 N 
ATOM     29  C   UNL d   1      19.749 -19.797   0.067  0.00  0.00     0.101 A 
ATOM     30  H   UNL d   1      18.546 -18.786  -1.372  0.00  0.00     0.165 HD
ATOM     31  C   UNL d   1      21.099 -19.625   0.346  0.00  0.00     0.050 A 
BRANCH  29  32
ATOM     32  C   UNL d   1      18.858 -20.737   0.707  0.00  0.00     0.266 C 
ATOM     33  N   UNL d   1      17.747 -21.126   0.019  0.00  0.00    -0.365 N 
ATOM     34  H   UNL d   1      17.497 -20.832  -0.909  0.00  0.00     0.159 HD
ATOM     35  H   UNL d   1      17.154 -21.801   0.487  0.00  0.00     0.159 HD
ATOM     36  O   UNL d   1      19.044 -21.200   1.833  0.00  0.00    -0.266 OA
ENDBRANCH  29  32
ENDBRANCH  23  26
ENDBRANCH   3  21
TORSDOF 6
ENDMDL
MODEL 7
REMARK VINA RESULT:    -9.127      1.955      2.914
REMARK INTER + INTRA:         -11.956
REMARK INTER:                 -10.917
REMARK INTRA:                  -1.039
REMARK CONF_INDEPENDENT:        1.790
REMARK UNBOUND:                -1.039
REMARK  6 active torsions:
REMARK  status: ('A' for Active; 'I' for Inactive)
REMARK    1  A    between atoms: C_4  and  C_5 
REMARK       I    between atoms: C_5  and  N_7 
REMARK    2  A    between atoms: N_7  and  C_8 
REMARK    3  A    between atoms: C_10  and  C_11 
REMARK    4  A    between atoms: C_14  and  C_15 
REMARK       I    between atoms: C_15  and  N_16 
REMARK    5  A    between atoms: N_24  and  C_25 
REMARK    6  A    between atoms: C_25  and  C_26 
ROOT
ATOM      1  C   UNL d   1      25.152 -15.544  -2.866  0.00  0.00     0.258 C 
ATOM      2  O   UNL d   1      24.079 -14.980  -2.679  0.00  0.00    -0.267 OA
ATOM      3  N   UNL d   1      25.529 -16.729  -2.268  0.00  0.00    -0.301 N 
ATOM      4  H   UNL d   1      26.495 -16.982  -2.157  0.00  0.00     0.171 HD
ENDROOT
BRANCH   1   5
ATOM      5  C   UNL d   1      26.161 -14.865  -3.727  0.00  0.00     0.049 A 
ATOM      6  C   UNL d   1      27.210 -15.533  -4.374  0.00  0.00     0.044 A 
ATOM      7  C   UNL d   1      28.100 -14.819  -5.166  0.00  0.00     0.034 A 
ATOM      8  C   UNL d   1      29.210 -15.556  -5.875  0.00  0.00     0.070 C 
ATOM      9  N   UNL d   1      28.024 -13.487  -5.354  0.00  0.00    -0.234 NA
ATOM     10  C   UNL d   1      26.994 -12.859  -4.744  0.00  0.00     0.159 A 
ATOM     11  N   UNL d   1      26.630 -11.522  -4.804  0.00  0.00    -0.247 N 
ATOM     12  C   UNL d   1      26.057 -13.473  -3.928  0.00  0.00     0.046 A 
ATOM     13  N   UNL d   1      25.543 -11.240  -4.038  0.00  0.00    -0.182 NA
ATOM     14  C   UNL d   1      25.210 -12.421  -3.517  0.00  0.00     0.155 A 
BRANCH  11  15
ATOM     15  C   UNL d   1      27.206 -10.402  -5.549  0.00  0.00     0.199 C 
BRANCH  15  16
ATOM     16  C   UNL d   1      26.381  -9.167  -5.502  0.00  0.00     0.002 A 
ATOM     17  C   UNL d   1      26.704  -7.942  -4.948  0.00  0.00     0.017 A 
ATOM     18  C   UNL d   1      25.576  -7.081  -4.883  0.00  0.00     0.008 A 
ATOM     19  C   UNL d   1      24.474  -7.635  -5.492  0.00  0.00     0.050 A 
ATOM     20  S   UNL d   1      24.779  -9.201  -6.094  0.00  0.00    -0.105 SA
ENDBRANCH  15  16
ENDBRANCH  11  15
ENDBRANCH   1   5
BRANCH   3  21
ATOM     21  C   UNL d   1      24.648 -17.363  -1.432  0.00  0.00     0.173 A 
ATOM     22  N   UNL d   1      23.381 -17.632  -1.622  0.00  0.00    -0.223 NA
ATOM     23  C   UNL d   1      22.886 -18.263  -0.497  0.00  0.00     0.078 A 
ATOM     24  C   UNL d   1      23.784 -18.424   0.539  0.00  0.00     0.086 A 
ATOM     25  S   UNL d   1      25.334 -17.877   0.044  0.00  0.00    -0.061 SA
BRANCH  23  26
ATOM     26  C   UNL d   1      21.502 -18.728  -0.487  0.00  0.00     0.011 A 
ATOM     27  C   UNL d   1      20.455 -18.302  -1.269  0.00  0.00     0.102 A 
ATOM     28  N   UNL d   1      19.339 -19.011  -0.898  0.00  0.00    -0.361 N 
ATOM     29  C   UNL d   1      19.637 -19.867   0.145  0.00  0.00     0.101 A 
ATOM     30  H   UNL d   1      18.432 -18.913  -1.331  0.00  0.00     0.165 HD
ATOM     31  C   UNL d   1      20.989 -19.693   0.408  0.00  0.00     0.050 A 
BRANCH  29  32
ATOM     32  C   UNL d   1      18.743 -20.771   0.831  0.00  0.00     0.266 C 
ATOM     33  N   UNL d   1      17.667 -21.246   0.140  0.00  0.00    -0.365 N 
ATOM     34  H   UNL d   1      17.447 -21.039  -0.819  0.00  0.00     0.159 HD
ATOM     35  H   UNL d   1      17.073 -21.892   0.643  0.00  0.00     0.159 HD
ATOM     36  O   UNL d   1      18.896 -21.131   1.999  0.00  0.00    -0.266 OA
ENDBRANCH  29  32
ENDBRANCH  23  26
ENDBRANCH   3  21
TORSDOF 6
ENDMDL
MODEL 8
REMARK VINA RESULT:    -9.118      2.396      3.178
REMARK INTER + INTRA:         -11.969
REMARK INTER:                 -10.908
REMARK INTRA:                  -1.061
REMARK CONF_INDEPENDENT:        1.790
REMARK UNBOUND:                -1.061
REMARK  6 active torsions:
REMARK  status: ('A' for Active; 'I' for Inactive)
REMARK    1  A    between atoms: C_4  and  C_5 
REMARK       I    between atoms: C_5  and  N_7 
REMARK    2  A    between atoms: N_7  and  C_8 
REMARK    3  A    between atoms: C_10  and  C_11 
REMARK    4  A    between atoms: C_14  and  C_15 
REMARK       I    between atoms: C_15  and  N_16 
REMARK    5  A    between atoms: N_24  and  C_25 
REMARK    6  A    between atoms: C_25  and  C_26 
ROOT
ATOM      1  C   UNL d   1      25.904 -14.398  -3.952  0.00  0.00     0.258 C 
ATOM      2  O   UNL d   1      24.780 -14.825  -4.193  0.00  0.00    -0.267 OA
ATOM      3  N   UNL d   1      26.703 -14.835  -2.916  0.00  0.00    -0.301 N 
ATOM      4  H   UNL d   1      27.433 -14.261  -2.532  0.00  0.00     0.171 HD
ENDROOT
BRANCH   1   5
ATOM      5  C   UNL d   1      26.414 -13.264  -4.774  0.00  0.00     0.049 A 
ATOM      6  C   UNL d   1      26.007 -11.934  -4.605  0.00  0.00     0.044 A 
ATOM      7  C   UNL d   1      26.544 -10.938  -5.411  0.00  0.00     0.034 A 
ATOM      8  C   UNL d   1      26.113  -9.507  -5.201  0.00  0.00     0.070 C 
ATOM      9  N   UNL d   1      27.452 -11.174  -6.378  0.00  0.00    -0.234 NA
ATOM     10  C   UNL d   1      27.854 -12.459  -6.514  0.00  0.00     0.159 A 
ATOM     11  N   UNL d   1      28.809 -12.986  -7.370  0.00  0.00    -0.247 N 
ATOM     12  C   UNL d   1      27.378 -13.526  -5.769  0.00  0.00     0.046 A 
ATOM     13  N   UNL d   1      28.937 -14.333  -7.246  0.00  0.00    -0.182 NA
ATOM     14  C   UNL d   1      28.070 -14.644  -6.282  0.00  0.00     0.155 A 
BRANCH  11  15
ATOM     15  C   UNL d   1      29.685 -12.339  -8.348  0.00  0.00     0.199 C 
BRANCH  15  16
ATOM     16  C   UNL d   1      31.064 -12.893  -8.371  0.00  0.00     0.002 A 
ATOM     17  C   UNL d   1      31.897 -13.073  -9.460  0.00  0.00     0.017 A 
ATOM     18  C   UNL d   1      33.040 -13.847  -9.126  0.00  0.00     0.008 A 
ATOM     19  C   UNL d   1      33.094 -14.124  -7.779  0.00  0.00     0.050 A 
ATOM     20  S   UNL d   1      31.752 -13.501  -6.930  0.00  0.00    -0.105 SA
ENDBRANCH  15  16
ENDBRANCH  11  15
ENDBRANCH   1   5
BRANCH   3  21
ATOM     21  C   UNL d   1      26.252 -15.844  -2.106  0.00  0.00     0.173 A 
ATOM     22  N   UNL d   1      25.020 -16.209  -1.855  0.00  0.00    -0.223 NA
ATOM     23  C   UNL d   1      25.041 -17.261  -0.960  0.00  0.00     0.078 A 
ATOM     24  C   UNL d   1      26.293 -17.644  -0.521  0.00  0.00     0.086 A 
ATOM     25  S   UNL d   1      27.492 -16.740  -1.350  0.00  0.00    -0.061 SA
BRANCH  23  26
ATOM     26  C   UNL d   1      23.785 -17.895  -0.570  0.00  0.00     0.011 A 
ATOM     27  C   UNL d   1      23.434 -18.404   0.659  0.00  0.00     0.102 A 
ATOM     28  N   UNL d   1      22.163 -18.916   0.553  0.00  0.00    -0.361 N 
ATOM     29  C   UNL d   1      21.697 -18.783  -0.741  0.00  0.00     0.101 A 
ATOM     30  H   UNL d   1      21.651 -19.330   1.317  0.00  0.00     0.165 HD
ATOM     31  C   UNL d   1      22.709 -18.146  -1.449  0.00  0.00     0.050 A 
BRANCH  29  32
ATOM     32  C   UNL d   1      20.421 -19.205  -1.270  0.00  0.00     0.266 C 
ATOM     33  N   UNL d   1      19.315 -18.993  -0.503  0.00  0.00    -0.365 N 
ATOM     34  H   UNL d   1      19.301 -18.547   0.399  0.00  0.00     0.159 HD
ATOM     35  H   UNL d   1      18.435 -19.281  -0.910  0.00  0.00     0.159 HD
ATOM     36  O   UNL d   1      20.280 -19.748  -2.367  0.00  0.00    -0.266 OA
ENDBRANCH  29  32
ENDBRANCH  23  26
ENDBRANCH   3  21
TORSDOF 6
ENDMDL
MODEL 9
REMARK VINA RESULT:    -9.117      2.124      2.607
REMARK INTER + INTRA:         -12.050
REMARK INTER:                 -10.907
REMARK INTRA:                  -1.143
REMARK CONF_INDEPENDENT:        1.790
REMARK UNBOUND:                -1.143
REMARK  6 active torsions:
REMARK  status: ('A' for Active; 'I' for Inactive)
REMARK    1  A    between atoms: C_4  and  C_5 
REMARK       I    between atoms: C_5  and  N_7 
REMARK    2  A    between atoms: N_7  and  C_8 
REMARK    3  A    between atoms: C_10  and  C_11 
REMARK    4  A    between atoms: C_14  and  C_15 
REMARK       I    between atoms: C_15  and  N_16 
REMARK    5  A    between atoms: N_24  and  C_25 
REMARK    6  A    between atoms: C_25  and  C_26 
ROOT
ATOM      1  C   UNL d   1      25.447 -15.187  -1.979  0.00  0.00     0.258 C 
ATOM      2  O   UNL d   1      25.166 -15.785  -3.012  0.00  0.00    -0.267 OA
ATOM      3  N   UNL d   1      25.068 -15.586  -0.714  0.00  0.00    -0.301 N 
ATOM      4  H   UNL d   1      25.000 -14.935   0.048  0.00  0.00     0.171 HD
ENDROOT
BRANCH   1   5
ATOM      5  C   UNL d   1      26.169 -13.888  -2.095  0.00  0.00     0.049 A 
ATOM      6  C   UNL d   1      27.025 -13.381  -1.108  0.00  0.00     0.044 A 
ATOM      7  C   UNL d   1      27.665 -12.164  -1.305  0.00  0.00     0.034 A 
ATOM      8  C   UNL d   1      28.602 -11.644  -0.243  0.00  0.00     0.070 C 
ATOM      9  N   UNL d   1      27.509 -11.414  -2.413  0.00  0.00    -0.234 NA
ATOM     10  C   UNL d   1      26.699 -11.926  -3.368  0.00  0.00     0.159 A 
ATOM     11  N   UNL d   1      26.400 -11.415  -4.622  0.00  0.00    -0.247 N 
ATOM     12  C   UNL d   1      26.008 -13.124  -3.269  0.00  0.00     0.046 A 
ATOM     13  N   UNL d   1      25.525 -12.194  -5.310  0.00  0.00    -0.182 NA
ATOM     14  C   UNL d   1      25.297 -13.216  -4.484  0.00  0.00     0.155 A 
BRANCH  11  15
ATOM     15  C   UNL d   1      26.875 -10.212  -5.308  0.00  0.00     0.199 C 
BRANCH  15  16
ATOM     16  C   UNL d   1      25.839  -9.156  -5.443  0.00  0.00     0.002 A 
ATOM     17  C   UNL d   1      24.777  -8.883  -4.599  0.00  0.00     0.017 A 
ATOM     18  C   UNL d   1      23.868  -7.959  -5.180  0.00  0.00     0.008 A 
ATOM     19  C   UNL d   1      24.328  -7.477  -6.384  0.00  0.00     0.050 A 
ATOM     20  S   UNL d   1      25.820  -8.168  -6.837  0.00  0.00    -0.105 SA
ENDBRANCH  15  16
ENDBRANCH  11  15
ENDBRANCH   1   5
BRANCH   3  21
ATOM     21  C   UNL d   1      24.361 -16.751  -0.567  0.00  0.00     0.173 A 
ATOM     22  N   UNL d   1      23.065 -16.936  -0.597  0.00  0.00    -0.223 NA
ATOM     23  C   UNL d   1      22.802 -18.275  -0.377  0.00  0.00     0.078 A 
ATOM     24  C   UNL d   1      23.908 -19.069  -0.146  0.00  0.00     0.086 A 
ATOM     25  S   UNL d   1      25.334 -18.133  -0.331  0.00  0.00    -0.061 SA
BRANCH  23  26
ATOM     26  C   UNL d   1      21.424 -18.752  -0.430  0.00  0.00     0.011 A 
ATOM     27  C   UNL d   1      20.414 -18.345  -1.270  0.00  0.00     0.102 A 
ATOM     28  N   UNL d   1      19.286 -19.060  -0.946  0.00  0.00    -0.361 N 
ATOM     29  C   UNL d   1      19.538 -19.899   0.123  0.00  0.00     0.101 A 
ATOM     30  H   UNL d   1      18.401 -18.976  -1.425  0.00  0.00     0.165 HD
ATOM     31  C   UNL d   1      20.874 -19.709   0.451  0.00  0.00     0.050 A 
BRANCH  29  32
ATOM     32  C   UNL d   1      18.618 -20.802   0.775  0.00  0.00     0.266 C 
ATOM     33  N   UNL d   1      17.530 -21.219   0.069  0.00  0.00    -0.365 N 
ATOM     34  H   UNL d   1      17.316 -20.971  -0.882  0.00  0.00     0.159 HD
ATOM     35  H   UNL d   1      16.917 -21.867   0.547  0.00  0.00     0.159 HD
ATOM     36  O   UNL d   1      18.760 -21.208   1.930  0.00  0.00    -0.266 OA
ENDBRANCH  29  32
ENDBRANCH  23  26
ENDBRANCH   3  21
TORSDOF 6
ENDMDL
