MODEL 1
REMARK VINA RESULT:    -8.881      0.000      0.000
REMARK INTER + INTRA:         -11.127
REMARK INTER:                 -10.075
REMARK INTRA:                  -1.053
REMARK CONF_INDEPENDENT:        1.193
REMARK UNBOUND:                -1.053
REMARK  4 active torsions:
REMARK  status: ('A' for Active; 'I' for Inactive)
REMARK    1  A    between atoms: C_4  and  N_5 
REMARK    2  A    between atoms: C_10  and  C_11 
REMARK    3  A    between atoms: C_15  and  C_14 
REMARK    4  A    between atoms: C_17  and  O_18 
ROOT
ATOM      1  C   UNL d   1      29.219 -16.016  -0.825  0.00  0.00     0.267 C 
ATOM      2  N   UNL d   1      28.468 -15.523  -2.018  0.00  0.00    -0.233 NA
ATOM      3  C   UNL d   1      27.231 -15.862  -2.054  0.00  0.00     0.173 C 
ATOM      4  C   UNL d   1      26.574 -16.714  -1.095  0.00  0.00     0.057 A 
ATOM      5  C   UNL d   1      27.375 -17.442  -0.249  0.00  0.00     0.087 A 
ATOM      6  S   UNL d   1      26.467 -18.418   0.814  0.00  0.00    -0.074 SA
ATOM      7  C   UNL d   1      24.987 -17.861   0.158  0.00  0.00     0.018 A 
ATOM      8  C   UNL d   1      25.188 -16.934  -0.854  0.00  0.00    -0.024 A 
ATOM      9  C   UNL d   1      24.051 -16.307  -1.608  0.00  0.00     0.068 C 
ATOM     10  C   UNL d   1      22.724 -16.520  -0.872  0.00  0.00     0.239 C 
ATOM     11  N   UNL d   1      22.579 -17.983  -0.457  0.00  0.00    -0.070 N 
ATOM     12  C   UNL d   1      22.638 -18.929  -1.633  0.00  0.00     0.270 C 
ATOM     13  C   UNL d   1      23.634 -18.337   0.605  0.00  0.00     0.281 C 
ATOM     14  N   UNL d   1      28.720 -17.314  -0.317  0.00  0.00    -0.355 N 
ATOM     15  H   UNL d   1      21.652 -18.092  -0.026  0.00  0.00     0.279 HD
ATOM     16  H   UNL d   1      29.359 -17.829   0.279  0.00  0.00     0.162 HD
ENDROOT
BRANCH   1  17
ATOM     17  C   UNL d   1      29.158 -14.909   0.224  0.00  0.00     0.098 A 
ATOM     18  C   UNL d   1      29.956 -14.735   1.338  0.00  0.00     0.040 A 
ATOM     19  C   UNL d   1      29.510 -13.593   2.001  0.00  0.00     0.041 A 
ATOM     20  C   UNL d   1      28.471 -13.077   1.256  0.00  0.00     0.086 A 
ATOM     21  O   UNL d   1      28.223 -13.888   0.167  0.00  0.00    -0.310 OA
BRANCH  20  22
ATOM     22  C   UNL d   1      27.719 -11.838   1.463  0.00  0.00     0.004 A 
ATOM     23  C   UNL d   1      27.256 -11.491   2.742  0.00  0.00     0.017 A 
ATOM     24  C   UNL d   1      26.692 -10.229   2.987  0.00  0.00     0.037 A 
ATOM     25  C   UNL d   1      26.577  -9.302   1.946  0.00  0.00     0.103 A 
ATOM     26  C   UNL d   1      27.045  -9.620   0.665  0.00  0.00     0.043 A 
ATOM     27  C   UNL d   1      27.625 -10.881   0.418  0.00  0.00    -0.047 A 
ATOM     28  C   UNL d   1      28.157 -11.168  -0.964  0.00  0.00     0.049 C 
BRANCH  25  29
ATOM     29  N   UNL d   1      25.963  -7.987   2.186  0.00  0.00    -0.116 N 
ATOM     30  O   UNL d   1      25.155  -7.564   1.355  0.00  0.00    -0.532 OA
ATOM     31  O   UNL d   1      26.296  -7.379   3.220  0.00  0.00    -0.532 OA
ENDBRANCH  25  29
ENDBRANCH  20  22
ENDBRANCH   1  17
BRANCH   3  32
ATOM     32  O   UNL d   1      26.441 -15.395  -3.040  0.00  0.00    -0.344 OA
ATOM     33  H   UNL d   1      26.981 -14.807  -3.595  0.00  0.00     0.219 HD
ENDBRANCH   3  32
TORSDOF 4
ENDMDL
MODEL 2
REMARK VINA RESULT:    -8.498      3.419      7.685
REMARK INTER + INTRA:         -10.582
REMARK INTER:                  -9.691
REMARK INTRA:                  -0.891
REMARK CONF_INDEPENDENT:        1.193
REMARK UNBOUND:                -0.891
REMARK  4 active torsions:
REMARK  status: ('A' for Active; 'I' for Inactive)
REMARK    1  A    between atoms: C_4  and  N_5 
REMARK    2  A    between atoms: C_10  and  C_11 
REMARK    3  A    between atoms: C_15  and  C_14 
REMARK    4  A    between atoms: C_17  and  O_18 
ROOT
ATOM      1  C   UNL d   1      29.080 -14.289  -0.274  0.00  0.00     0.267 C 
ATOM      2  N   UNL d   1      30.389 -14.594   0.377  0.00  0.00    -0.233 NA
ATOM      3  C   UNL d   1      30.402 -14.458   1.653  0.00  0.00     0.173 C 
ATOM      4  C   UNL d   1      29.301 -13.975   2.448  0.00  0.00     0.057 A 
ATOM      5  C   UNL d   1      28.271 -13.354   1.784  0.00  0.00     0.087 A 
ATOM      6  S   UNL d   1      27.052 -12.817   2.848  0.00  0.00    -0.074 SA
ATOM      7  C   UNL d   1      27.888 -13.429   4.211  0.00  0.00     0.018 A 
ATOM      8  C   UNL d   1      29.080 -14.042   3.852  0.00  0.00    -0.024 A 
ATOM      9  C   UNL d   1      30.011 -14.642   4.865  0.00  0.00     0.068 C 
ATOM     10  C   UNL d   1      29.308 -14.825   6.215  0.00  0.00     0.239 C 
ATOM     11  N   UNL d   1      28.568 -13.546   6.602  0.00  0.00    -0.070 N 
ATOM     12  C   UNL d   1      29.485 -12.349   6.691  0.00  0.00     0.270 C 
ATOM     13  C   UNL d   1      27.405 -13.294   5.627  0.00  0.00     0.281 C 
ATOM     14  N   UNL d   1      28.306 -13.247   0.436  0.00  0.00    -0.355 N 
ATOM     15  H   UNL d   1      28.166 -13.691   7.537  0.00  0.00     0.279 HD
ATOM     16  H   UNL d   1      27.576 -12.795  -0.105  0.00  0.00     0.162 HD
ENDROOT
BRANCH   1  17
ATOM     17  C   UNL d   1      28.326 -15.611  -0.389  0.00  0.00     0.098 A 
ATOM     18  C   UNL d   1      28.831 -16.896  -0.346  0.00  0.00     0.040 A 
ATOM     19  C   UNL d   1      27.762 -17.774  -0.513  0.00  0.00     0.041 A 
ATOM     20  C   UNL d   1      26.624 -17.004  -0.619  0.00  0.00     0.086 A 
ATOM     21  O   UNL d   1      26.953 -15.665  -0.568  0.00  0.00    -0.310 OA
BRANCH  20  22
ATOM     22  C   UNL d   1      25.228 -17.437  -0.712  0.00  0.00     0.004 A 
ATOM     23  C   UNL d   1      24.791 -18.584  -0.032  0.00  0.00     0.017 A 
ATOM     24  C   UNL d   1      23.427 -18.909   0.032  0.00  0.00     0.037 A 
ATOM     25  C   UNL d   1      22.484 -18.089  -0.597  0.00  0.00     0.103 A 
ATOM     26  C   UNL d   1      22.895 -16.931  -1.270  0.00  0.00     0.043 A 
ATOM     27  C   UNL d   1      24.262 -16.594  -1.324  0.00  0.00    -0.047 A 
ATOM     28  C   UNL d   1      24.659 -15.316  -2.020  0.00  0.00     0.049 C 
BRANCH  25  29
ATOM     29  N   UNL d   1      21.054 -18.435  -0.559  0.00  0.00    -0.116 N 
ATOM     30  O   UNL d   1      20.282 -17.787  -1.270  0.00  0.00    -0.532 OA
ATOM     31  O   UNL d   1      20.711 -19.368   0.189  0.00  0.00    -0.532 OA
ENDBRANCH  25  29
ENDBRANCH  20  22
ENDBRANCH   1  17
BRANCH   3  32
ATOM     32  O   UNL d   1      31.505 -14.794   2.348  0.00  0.00    -0.344 OA
ATOM     33  H   UNL d   1      31.317 -15.626   2.814  0.00  0.00     0.219 HD
ENDBRANCH   3  32
TORSDOF 4
ENDMDL
MODEL 3
REMARK VINA RESULT:    -8.429      2.819      4.684
REMARK INTER + INTRA:         -10.913
REMARK INTER:                  -9.623
REMARK INTRA:                  -1.290
REMARK CONF_INDEPENDENT:        1.193
REMARK UNBOUND:                -1.290
REMARK  4 active torsions:
REMARK  status: ('A' for Active; 'I' for Inactive)
REMARK    1  A    between atoms: C_4  and  N_5 
REMARK    2  A    between atoms: C_10  and  C_11 
REMARK    3  A    between atoms: C_15  and  C_14 
REMARK    4  A    between atoms: C_17  and  O_18 
ROOT
ATOM      1  C   UNL d   1      25.587 -13.443  -5.020  0.00  0.00     0.267 C 
ATOM      2  N   UNL d   1      24.550 -13.947  -4.072  0.00  0.00    -0.233 NA
ATOM      3  C   UNL d   1      25.008 -14.615  -3.077  0.00  0.00     0.173 C 
ATOM      4  C   UNL d   1      26.393 -14.958  -2.872  0.00  0.00     0.057 A 
ATOM      5  C   UNL d   1      27.241 -14.811  -3.943  0.00  0.00     0.087 A 
ATOM      6  S   UNL d   1      28.839 -15.271  -3.565  0.00  0.00    -0.074 SA
ATOM      7  C   UNL d   1      28.410 -15.658  -1.954  0.00  0.00     0.018 A 
ATOM      8  C   UNL d   1      27.064 -15.429  -1.709  0.00  0.00    -0.024 A 
ATOM      9  C   UNL d   1      26.430 -15.709  -0.377  0.00  0.00     0.068 C 
ATOM     10  C   UNL d   1      27.496 -15.886   0.710  0.00  0.00     0.239 C 
ATOM     11  N   UNL d   1      28.588 -16.841   0.228  0.00  0.00    -0.070 N 
ATOM     12  C   UNL d   1      28.046 -18.200  -0.145  0.00  0.00     0.270 C 
ATOM     13  C   UNL d   1      29.369 -16.205  -0.934  0.00  0.00     0.281 C 
ATOM     14  N   UNL d   1      26.769 -14.329  -5.116  0.00  0.00    -0.355 N 
ATOM     15  H   UNL d   1      29.244 -16.979   1.008  0.00  0.00     0.279 HD
ATOM     16  H   UNL d   1      27.348 -14.204  -5.940  0.00  0.00     0.162 HD
ENDROOT
BRANCH   1  17
ATOM     17  C   UNL d   1      25.944 -12.028  -4.573  0.00  0.00     0.098 A 
ATOM     18  C   UNL d   1      26.282 -10.939  -5.353  0.00  0.00     0.040 A 
ATOM     19  C   UNL d   1      26.541  -9.871  -4.495  0.00  0.00     0.041 A 
ATOM     20  C   UNL d   1      26.321 -10.325  -3.213  0.00  0.00     0.086 A 
ATOM     21  O   UNL d   1      25.974 -11.660  -3.237  0.00  0.00    -0.310 OA
BRANCH  20  22
ATOM     22  C   UNL d   1      26.362  -9.577  -1.955  0.00  0.00     0.004 A 
ATOM     23  C   UNL d   1      25.545  -8.450  -1.770  0.00  0.00     0.017 A 
ATOM     24  C   UNL d   1      25.443  -7.832  -0.514  0.00  0.00     0.037 A 
ATOM     25  C   UNL d   1      26.169  -8.333   0.572  0.00  0.00     0.103 A 
ATOM     26  C   UNL d   1      26.979  -9.465   0.415  0.00  0.00     0.043 A 
ATOM     27  C   UNL d   1      27.074 -10.096  -0.841  0.00  0.00    -0.047 A 
ATOM     28  C   UNL d   1      27.922 -11.338  -0.958  0.00  0.00     0.049 C 
BRANCH  25  29
ATOM     29  N   UNL d   1      26.090  -7.676   1.886  0.00  0.00    -0.116 N 
ATOM     30  O   UNL d   1      26.589  -8.256   2.855  0.00  0.00    -0.532 OA
ATOM     31  O   UNL d   1      25.524  -6.570   1.940  0.00  0.00    -0.532 OA
ENDBRANCH  25  29
ENDBRANCH  20  22
ENDBRANCH   1  17
BRANCH   3  32
ATOM     32  O   UNL d   1      24.166 -15.039  -2.115  0.00  0.00    -0.344 OA
ATOM     33  H   UNL d   1      23.832 -15.912  -2.380  0.00  0.00     0.219 HD
ENDBRANCH   3  32
TORSDOF 4
ENDMDL
MODEL 4
REMARK VINA RESULT:    -7.769      2.132      3.057
REMARK INTER + INTRA:         -10.062
REMARK INTER:                  -8.962
REMARK INTRA:                  -1.100
REMARK CONF_INDEPENDENT:        1.193
REMARK UNBOUND:                -1.100
REMARK  4 active torsions:
REMARK  status: ('A' for Active; 'I' for Inactive)
REMARK    1  A    between atoms: C_4  and  N_5 
REMARK    2  A    between atoms: C_10  and  C_11 
REMARK    3  A    between atoms: C_15  and  C_14 
REMARK    4  A    between atoms: C_17  and  O_18 
ROOT
ATOM      1  C   UNL d   1      28.337 -14.233  -4.697  0.00  0.00     0.267 C 
ATOM      2  N   UNL d   1      26.912 -14.236  -5.145  0.00  0.00    -0.233 NA
ATOM      3  C   UNL d   1      26.100 -14.841  -4.357  0.00  0.00     0.173 C 
ATOM      4  C   UNL d   1      26.477 -15.552  -3.161  0.00  0.00     0.057 A 
ATOM      5  C   UNL d   1      27.809 -15.847  -2.999  0.00  0.00     0.087 A 
ATOM      6  S   UNL d   1      28.106 -16.705  -1.556  0.00  0.00    -0.074 SA
ATOM      7  C   UNL d   1      26.449 -16.675  -1.126  0.00  0.00     0.018 A 
ATOM      8  C   UNL d   1      25.683 -16.009  -2.072  0.00  0.00    -0.024 A 
ATOM      9  C   UNL d   1      24.195 -15.863  -1.942  0.00  0.00     0.068 C 
ATOM     10  C   UNL d   1      23.737 -16.177  -0.513  0.00  0.00     0.239 C 
ATOM     11  N   UNL d   1      24.366 -17.485  -0.034  0.00  0.00    -0.070 N 
ATOM     12  C   UNL d   1      24.019 -18.655  -0.923  0.00  0.00     0.270 C 
ATOM     13  C   UNL d   1      25.887 -17.316   0.111  0.00  0.00     0.281 C 
ATOM     14  N   UNL d   1      28.707 -15.441  -3.926  0.00  0.00    -0.355 N 
ATOM     15  H   UNL d   1      23.983 -17.688   0.899  0.00  0.00     0.279 HD
ATOM     16  H   UNL d   1      29.701 -15.634  -3.860  0.00  0.00     0.162 HD
ENDROOT
BRANCH   1  17
ATOM     17  C   UNL d   1      28.551 -12.942  -3.913  0.00  0.00     0.098 A 
ATOM     18  C   UNL d   1      29.485 -11.948  -4.132  0.00  0.00     0.040 A 
ATOM     19  C   UNL d   1      29.305 -10.978  -3.147  0.00  0.00     0.041 A 
ATOM     20  C   UNL d   1      28.243 -11.386  -2.371  0.00  0.00     0.086 A 
ATOM     21  O   UNL d   1      27.777 -12.608  -2.813  0.00  0.00    -0.310 OA
BRANCH  20  22
ATOM     22  C   UNL d   1      27.589 -10.683  -1.265  0.00  0.00     0.004 A 
ATOM     23  C   UNL d   1      27.693 -11.168   0.048  0.00  0.00     0.017 A 
ATOM     24  C   UNL d   1      27.224 -10.413   1.134  0.00  0.00     0.037 A 
ATOM     25  C   UNL d   1      26.634  -9.164   0.914  0.00  0.00     0.103 A 
ATOM     26  C   UNL d   1      26.532  -8.653  -0.386  0.00  0.00     0.043 A 
ATOM     27  C   UNL d   1      27.014  -9.402  -1.478  0.00  0.00    -0.047 A 
ATOM     28  C   UNL d   1      26.926  -8.798  -2.858  0.00  0.00     0.049 C 
BRANCH  25  29
ATOM     29  N   UNL d   1      26.115  -8.377   2.044  0.00  0.00    -0.116 N 
ATOM     30  O   UNL d   1      26.290  -8.814   3.184  0.00  0.00    -0.532 OA
ATOM     31  O   UNL d   1      25.530  -7.311   1.778  0.00  0.00    -0.532 OA
ENDBRANCH  25  29
ENDBRANCH  20  22
ENDBRANCH   1  17
BRANCH   3  32
ATOM     32  O   UNL d   1      24.780 -14.825  -4.620  0.00  0.00    -0.344 OA
ATOM     33  H   UNL d   1      24.570 -13.963  -5.018  0.00  0.00     0.219 HD
ENDBRANCH   3  32
TORSDOF 4
ENDMDL
MODEL 5
REMARK VINA RESULT:    -7.179      4.434      7.677
REMARK INTER + INTRA:          -9.354
REMARK INTER:                  -8.372
REMARK INTRA:                  -0.981
REMARK CONF_INDEPENDENT:        1.193
REMARK UNBOUND:                -0.981
REMARK  4 active torsions:
REMARK  status: ('A' for Active; 'I' for Inactive)
REMARK    1  A    between atoms: C_4  and  N_5 
REMARK    2  A    between atoms: C_10  and  C_11 
REMARK    3  A    between atoms: C_15  and  C_14 
REMARK    4  A    between atoms: C_17  and  O_18 
ROOT
ATOM      1  C   UNL d   1      31.048 -16.075  -1.185  0.00  0.00     0.267 C 
ATOM      2  N   UNL d   1      30.908 -17.245  -2.103  0.00  0.00    -0.233 NA
ATOM      3  C   UNL d   1      31.235 -18.375  -1.590  0.00  0.00     0.173 C 
ATOM      4  C   UNL d   1      31.777 -18.562  -0.268  0.00  0.00     0.057 A 
ATOM      5  C   UNL d   1      32.241 -17.446   0.384  0.00  0.00     0.087 A 
ATOM      6  S   UNL d   1      32.871 -17.817   1.925  0.00  0.00    -0.074 SA
ATOM      7  C   UNL d   1      32.512 -19.481   1.736  0.00  0.00     0.018 A 
ATOM      8  C   UNL d   1      31.910 -19.743   0.514  0.00  0.00    -0.024 A 
ATOM      9  C   UNL d   1      31.515 -21.129   0.095  0.00  0.00     0.068 C 
ATOM     10  C   UNL d   1      31.502 -22.082   1.296  0.00  0.00     0.239 C 
ATOM     11  N   UNL d   1      32.788 -21.925   2.107  0.00  0.00    -0.070 N 
ATOM     12  C   UNL d   1      34.027 -22.195   1.287  0.00  0.00     0.270 C 
ATOM     13  C   UNL d   1      32.833 -20.534   2.759  0.00  0.00     0.281 C 
ATOM     14  N   UNL d   1      32.146 -16.231  -0.205  0.00  0.00    -0.355 N 
ATOM     15  H   UNL d   1      32.764 -22.624   2.861  0.00  0.00     0.279 HD
ATOM     16  H   UNL d   1      32.476 -15.375   0.227  0.00  0.00     0.162 HD
ENDROOT
BRANCH   1  17
ATOM     17  C   UNL d   1      29.689 -15.869  -0.523  0.00  0.00     0.098 A 
ATOM     18  C   UNL d   1      29.337 -14.953   0.450  0.00  0.00     0.040 A 
ATOM     19  C   UNL d   1      27.992 -15.157   0.753  0.00  0.00     0.041 A 
ATOM     20  C   UNL d   1      27.546 -16.170  -0.068  0.00  0.00     0.086 A 
ATOM     21  O   UNL d   1      28.584 -16.639  -0.847  0.00  0.00    -0.310 OA
BRANCH  20  22
ATOM     22  C   UNL d   1      26.190 -16.702  -0.216  0.00  0.00     0.004 A 
ATOM     23  C   UNL d   1      25.212 -15.975  -0.912  0.00  0.00     0.017 A 
ATOM     24  C   UNL d   1      23.965 -16.547  -1.213  0.00  0.00     0.037 A 
ATOM     25  C   UNL d   1      23.682 -17.855  -0.808  0.00  0.00     0.103 A 
ATOM     26  C   UNL d   1      24.648 -18.606  -0.125  0.00  0.00     0.043 A 
ATOM     27  C   UNL d   1      25.905 -18.039   0.167  0.00  0.00    -0.047 A 
ATOM     28  C   UNL d   1      26.933 -18.895   0.866  0.00  0.00     0.049 C 
BRANCH  25  29
ATOM     29  N   UNL d   1      22.370 -18.455  -1.095  0.00  0.00    -0.116 N 
ATOM     30  O   UNL d   1      21.404 -18.086  -0.421  0.00  0.00    -0.532 OA
ATOM     31  O   UNL d   1      22.313 -19.300  -2.005  0.00  0.00    -0.532 OA
ENDBRANCH  25  29
ENDBRANCH  20  22
ENDBRANCH   1  17
BRANCH   3  32
ATOM     32  O   UNL d   1      31.061 -19.504  -2.302  0.00  0.00    -0.344 OA
ATOM     33  H   UNL d   1      30.609 -20.146  -1.730  0.00  0.00     0.219 HD
ENDBRANCH   3  32
TORSDOF 4
ENDMDL
MODEL 6
REMARK VINA RESULT:    -7.096      7.072     10.408
REMARK INTER + INTRA:          -9.232
REMARK INTER:                  -8.289
REMARK INTRA:                  -0.943
REMARK CONF_INDEPENDENT:        1.193
REMARK UNBOUND:                -0.943
REMARK  4 active torsions:
REMARK  status: ('A' for Active; 'I' for Inactive)
REMARK    1  A    between atoms: C_4  and  N_5 
REMARK    2  A    between atoms: C_10  and  C_11 
REMARK    3  A    between atoms: C_15  and  C_14 
REMARK    4  A    between atoms: C_17  and  O_18 
ROOT
ATOM      1  C   UNL d   1      28.563 -13.693   8.936  0.00  0.00     0.267 C 
ATOM      2  N   UNL d   1      28.643 -12.416   9.705  0.00  0.00    -0.233 NA
ATOM      3  C   UNL d   1      29.820 -12.103  10.109  0.00  0.00     0.173 C 
ATOM      4  C   UNL d   1      31.001 -12.912   9.938  0.00  0.00     0.057 A 
ATOM      5  C   UNL d   1      30.815 -14.224   9.576  0.00  0.00     0.087 A 
ATOM      6  S   UNL d   1      32.291 -15.065   9.430  0.00  0.00    -0.074 SA
ATOM      7  C   UNL d   1      33.195 -13.670   9.837  0.00  0.00     0.018 A 
ATOM      8  C   UNL d   1      32.376 -12.575  10.072  0.00  0.00    -0.024 A 
ATOM      9  C   UNL d   1      32.922 -11.234  10.468  0.00  0.00     0.068 C 
ATOM     10  C   UNL d   1      34.428 -11.153  10.195  0.00  0.00     0.239 C 
ATOM     11  N   UNL d   1      35.131 -12.395  10.743  0.00  0.00    -0.070 N 
ATOM     12  C   UNL d   1      34.916 -12.576  12.227  0.00  0.00     0.270 C 
ATOM     13  C   UNL d   1      34.693 -13.640   9.953  0.00  0.00     0.281 C 
ATOM     14  N   UNL d   1      29.564 -14.695   9.363  0.00  0.00    -0.355 N 
ATOM     15  H   UNL d   1      36.141 -12.269  10.596  0.00  0.00     0.279 HD
ATOM     16  H   UNL d   1      29.368 -15.654   9.098  0.00  0.00     0.162 HD
ENDROOT
BRANCH   1  17
ATOM     17  C   UNL d   1      28.685 -13.327   7.459  0.00  0.00     0.098 A 
ATOM     18  C   UNL d   1      29.286 -14.044   6.442  0.00  0.00     0.040 A 
ATOM     19  C   UNL d   1      29.162 -13.298   5.271  0.00  0.00     0.041 A 
ATOM     20  C   UNL d   1      28.457 -12.159   5.594  0.00  0.00     0.086 A 
ATOM     21  O   UNL d   1      28.173 -12.146   6.945  0.00  0.00    -0.310 OA
BRANCH  20  22
ATOM     22  C   UNL d   1      27.977 -11.094   4.711  0.00  0.00     0.004 A 
ATOM     23  C   UNL d   1      27.199 -11.400   3.584  0.00  0.00     0.017 A 
ATOM     24  C   UNL d   1      26.587 -10.384   2.832  0.00  0.00     0.037 A 
ATOM     25  C   UNL d   1      26.760  -9.046   3.198  0.00  0.00     0.103 A 
ATOM     26  C   UNL d   1      27.521  -8.716   4.327  0.00  0.00     0.043 A 
ATOM     27  C   UNL d   1      28.125  -9.734   5.092  0.00  0.00    -0.047 A 
ATOM     28  C   UNL d   1      28.900  -9.341   6.325  0.00  0.00     0.049 C 
BRANCH  25  29
ATOM     29  N   UNL d   1      26.146  -7.972   2.401  0.00  0.00    -0.116 N 
ATOM     30  O   UNL d   1      26.259  -6.812   2.806  0.00  0.00    -0.532 OA
ATOM     31  O   UNL d   1      25.548  -8.301   1.361  0.00  0.00    -0.532 OA
ENDBRANCH  25  29
ENDBRANCH  20  22
ENDBRANCH   1  17
BRANCH   3  32
ATOM     32  O   UNL d   1      30.019 -10.927  10.734  0.00  0.00    -0.344 OA
ATOM     33  H   UNL d   1      29.309 -10.819  11.390  0.00  0.00     0.219 HD
ENDBRANCH   3  32
TORSDOF 4
ENDMDL
MODEL 7
REMARK VINA RESULT:    -7.049      3.969      7.163
REMARK INTER + INTRA:          -9.436
REMARK INTER:                  -8.243
REMARK INTRA:                  -1.194
REMARK CONF_INDEPENDENT:        1.193
REMARK UNBOUND:                -1.194
REMARK  4 active torsions:
REMARK  status: ('A' for Active; 'I' for Inactive)
REMARK    1  A    between atoms: C_4  and  N_5 
REMARK    2  A    between atoms: C_10  and  C_11 
REMARK    3  A    between atoms: C_15  and  C_14 
REMARK    4  A    between atoms: C_17  and  O_18 
ROOT
ATOM      1  C   UNL d   1      30.812 -15.419  -0.428  0.00  0.00     0.267 C 
ATOM      2  N   UNL d   1      31.084 -13.998  -0.795  0.00  0.00    -0.233 NA
ATOM      3  C   UNL d   1      30.893 -13.714  -2.032  0.00  0.00     0.173 C 
ATOM      4  C   UNL d   1      30.523 -14.661  -3.054  0.00  0.00     0.057 A 
ATOM      5  C   UNL d   1      30.659 -15.994  -2.754  0.00  0.00     0.087 A 
ATOM      6  S   UNL d   1      30.207 -16.996  -4.058  0.00  0.00    -0.074 SA
ATOM      7  C   UNL d   1      29.810 -15.646  -5.034  0.00  0.00     0.018 A 
ATOM      8  C   UNL d   1      30.013 -14.448  -4.365  0.00  0.00    -0.024 A 
ATOM      9  C   UNL d   1      29.760 -13.116  -5.009  0.00  0.00     0.068 C 
ATOM     10  C   UNL d   1      28.917 -13.273  -6.280  0.00  0.00     0.239 C 
ATOM     11  N   UNL d   1      29.487 -14.388  -7.156  0.00  0.00    -0.070 N 
ATOM     12  C   UNL d   1      30.922 -14.137  -7.554  0.00  0.00     0.270 C 
ATOM     13  C   UNL d   1      29.325 -15.746  -6.453  0.00  0.00     0.281 C 
ATOM     14  N   UNL d   1      31.091 -16.369  -1.528  0.00  0.00    -0.355 N 
ATOM     15  H   UNL d   1      28.932 -14.415  -8.021  0.00  0.00     0.279 HD
ATOM     16  H   UNL d   1      31.214 -17.338  -1.253  0.00  0.00     0.162 HD
ENDROOT
BRANCH   1  17
ATOM     17  C   UNL d   1      29.365 -15.481   0.054  0.00  0.00     0.098 A 
ATOM     18  C   UNL d   1      28.781 -14.808   1.110  0.00  0.00     0.040 A 
ATOM     19  C   UNL d   1      27.445 -15.201   1.171  0.00  0.00     0.041 A 
ATOM     20  C   UNL d   1      27.237 -16.079   0.130  0.00  0.00     0.086 A 
ATOM     21  O   UNL d   1      28.416 -16.283  -0.559  0.00  0.00    -0.310 OA
BRANCH  20  22
ATOM     22  C   UNL d   1      25.988 -16.707  -0.307  0.00  0.00     0.004 A 
ATOM     23  C   UNL d   1      25.476 -17.822   0.375  0.00  0.00     0.017 A 
ATOM     24  C   UNL d   1      24.198 -18.322   0.080  0.00  0.00     0.037 A 
ATOM     25  C   UNL d   1      23.422 -17.714  -0.912  0.00  0.00     0.103 A 
ATOM     26  C   UNL d   1      23.905 -16.592  -1.595  0.00  0.00     0.043 A 
ATOM     27  C   UNL d   1      25.182 -16.078  -1.293  0.00  0.00    -0.047 A 
ATOM     28  C   UNL d   1      25.649 -14.841  -2.020  0.00  0.00     0.049 C 
BRANCH  25  29
ATOM     29  N   UNL d   1      22.092 -18.248  -1.247  0.00  0.00    -0.116 N 
ATOM     30  O   UNL d   1      21.102 -17.600  -0.896  0.00  0.00    -0.532 OA
ATOM     31  O   UNL d   1      22.047 -19.324  -1.868  0.00  0.00    -0.532 OA
ENDBRANCH  25  29
ENDBRANCH  20  22
ENDBRANCH   1  17
BRANCH   3  32
ATOM     32  O   UNL d   1      31.023 -12.441  -2.451  0.00  0.00    -0.344 OA
ATOM     33  H   UNL d   1      31.781 -12.407  -3.058  0.00  0.00     0.219 HD
ENDBRANCH   3  32
TORSDOF 4
ENDMDL
MODEL 8
REMARK VINA RESULT:    -6.929      3.217      7.448
REMARK INTER + INTRA:          -9.231
REMARK INTER:                  -8.122
REMARK INTRA:                  -1.109
REMARK CONF_INDEPENDENT:        1.193
REMARK UNBOUND:                -1.109
REMARK  4 active torsions:
REMARK  status: ('A' for Active; 'I' for Inactive)
REMARK    1  A    between atoms: C_4  and  N_5 
REMARK    2  A    between atoms: C_10  and  C_11 
REMARK    3  A    between atoms: C_15  and  C_14 
REMARK    4  A    between atoms: C_17  and  O_18 
ROOT
ATOM      1  C   UNL d   1      28.962 -11.616  -0.213  0.00  0.00     0.267 C 
ATOM      2  N   UNL d   1      30.370 -11.874   0.209  0.00  0.00    -0.233 NA
ATOM      3  C   UNL d   1      30.497 -12.390   1.377  0.00  0.00     0.173 C 
ATOM      4  C   UNL d   1      29.415 -12.651   2.293  0.00  0.00     0.057 A 
ATOM      5  C   UNL d   1      28.208 -12.054   2.025  0.00  0.00     0.087 A 
ATOM      6  S   UNL d   1      27.029 -12.432   3.198  0.00  0.00    -0.074 SA
ATOM      7  C   UNL d   1      28.127 -13.414   4.071  0.00  0.00     0.018 A 
ATOM      8  C   UNL d   1      29.374 -13.457   3.465  0.00  0.00    -0.024 A 
ATOM      9  C   UNL d   1      30.522 -14.232   4.044  0.00  0.00     0.068 C 
ATOM     10  C   UNL d   1      30.032 -15.226   5.104  0.00  0.00     0.239 C 
ATOM     11  N   UNL d   1      29.082 -14.532   6.078  0.00  0.00    -0.070 N 
ATOM     12  C   UNL d   1      29.722 -13.356   6.776  0.00  0.00     0.270 C 
ATOM     13  C   UNL d   1      27.789 -14.122   5.352  0.00  0.00     0.281 C 
ATOM     14  N   UNL d   1      28.065 -11.288   0.918  0.00  0.00    -0.355 N 
ATOM     15  H   UNL d   1      28.830 -15.215   6.804  0.00  0.00     0.279 HD
ATOM     16  H   UNL d   1      27.199 -10.820   0.673  0.00  0.00     0.162 HD
ENDROOT
BRANCH   1  17
ATOM     17  C   UNL d   1      28.502 -12.844  -0.994  0.00  0.00     0.098 A 
ATOM     18  C   UNL d   1      29.034 -13.373  -2.154  0.00  0.00     0.040 A 
ATOM     19  C   UNL d   1      28.268 -14.485  -2.499  0.00  0.00     0.041 A 
ATOM     20  C   UNL d   1      27.307 -14.628  -1.522  0.00  0.00     0.086 A 
ATOM     21  O   UNL d   1      27.420 -13.611  -0.595  0.00  0.00    -0.310 OA
BRANCH  20  22
ATOM     22  C   UNL d   1      26.312 -15.690  -1.362  0.00  0.00     0.004 A 
ATOM     23  C   UNL d   1      26.515 -16.721  -0.431  0.00  0.00     0.017 A 
ATOM     24  C   UNL d   1      25.495 -17.642  -0.141  0.00  0.00     0.037 A 
ATOM     25  C   UNL d   1      24.261 -17.544  -0.792  0.00  0.00     0.103 A 
ATOM     26  C   UNL d   1      24.030 -16.516  -1.714  0.00  0.00     0.043 A 
ATOM     27  C   UNL d   1      25.046 -15.581  -1.997  0.00  0.00    -0.047 A 
ATOM     28  C   UNL d   1      24.744 -14.462  -2.963  0.00  0.00     0.049 C 
BRANCH  25  29
ATOM     29  N   UNL d   1      23.196 -18.521  -0.516  0.00  0.00    -0.116 N 
ATOM     30  O   UNL d   1      22.898 -19.321  -1.406  0.00  0.00    -0.532 OA
ATOM     31  O   UNL d   1      22.659 -18.480   0.606  0.00  0.00    -0.532 OA
ENDBRANCH  25  29
ENDBRANCH  20  22
ENDBRANCH   1  17
BRANCH   3  32
ATOM     32  O   UNL d   1      31.719 -12.746   1.819  0.00  0.00    -0.344 OA
ATOM     33  H   UNL d   1      31.893 -13.649   1.506  0.00  0.00     0.219 HD
ENDBRANCH   3  32
TORSDOF 4
ENDMDL
MODEL 9
REMARK VINA RESULT:    -6.849      2.379      3.021
REMARK INTER + INTRA:          -9.413
REMARK INTER:                  -8.043
REMARK INTRA:                  -1.370
REMARK CONF_INDEPENDENT:        1.193
REMARK UNBOUND:                -1.370
REMARK  4 active torsions:
REMARK  status: ('A' for Active; 'I' for Inactive)
REMARK    1  A    between atoms: C_4  and  N_5 
REMARK    2  A    between atoms: C_10  and  C_11 
REMARK    3  A    between atoms: C_15  and  C_14 
REMARK    4  A    between atoms: C_17  and  O_18 
ROOT
ATOM      1  C   UNL d   1      30.828 -15.764   0.273  0.00  0.00     0.267 C 
ATOM      2  N   UNL d   1      31.224 -14.928  -0.899  0.00  0.00    -0.233 NA
ATOM      3  C   UNL d   1      30.283 -14.700  -1.742  0.00  0.00     0.173 C 
ATOM      4  C   UNL d   1      28.950 -15.243  -1.666  0.00  0.00     0.057 A 
ATOM      5  C   UNL d   1      28.747 -16.292  -0.804  0.00  0.00     0.087 A 
ATOM      6  S   UNL d   1      27.135 -16.845  -0.833  0.00  0.00    -0.074 SA
ATOM      7  C   UNL d   1      26.689 -15.669  -1.995  0.00  0.00     0.018 A 
ATOM      8  C   UNL d   1      27.760 -14.860  -2.347  0.00  0.00    -0.024 A 
ATOM      9  C   UNL d   1      27.638 -13.764  -3.364  0.00  0.00     0.068 C 
ATOM     10  C   UNL d   1      26.167 -13.429  -3.635  0.00  0.00     0.239 C 
ATOM     11  N   UNL d   1      25.370 -14.711  -3.874  0.00  0.00    -0.070 N 
ATOM     12  C   UNL d   1      25.904 -15.519  -5.032  0.00  0.00     0.270 C 
ATOM     13  C   UNL d   1      25.312 -15.544  -2.583  0.00  0.00     0.281 C 
ATOM     14  N   UNL d   1      29.770 -16.749  -0.045  0.00  0.00    -0.355 N 
ATOM     15  H   UNL d   1      24.408 -14.437  -4.113  0.00  0.00     0.279 HD
ATOM     16  H   UNL d   1      29.679 -17.523   0.605  0.00  0.00     0.162 HD
ENDROOT
BRANCH   1  17
ATOM     17  C   UNL d   1      30.423 -14.801   1.385  0.00  0.00     0.098 A 
ATOM     18  C   UNL d   1      30.894 -14.739   2.683  0.00  0.00     0.040 A 
ATOM     19  C   UNL d   1      30.213 -13.708   3.328  0.00  0.00     0.041 A 
ATOM     20  C   UNL d   1      29.368 -13.142   2.399  0.00  0.00     0.086 A 
ATOM     21  O   UNL d   1      29.465 -13.817   1.199  0.00  0.00    -0.310 OA
BRANCH  20  22
ATOM     22  C   UNL d   1      28.504 -11.968   2.539  0.00  0.00     0.004 A 
ATOM     23  C   UNL d   1      29.012 -10.768   3.059  0.00  0.00     0.017 A 
ATOM     24  C   UNL d   1      28.248  -9.590   3.034  0.00  0.00     0.037 A 
ATOM     25  C   UNL d   1      26.958  -9.606   2.494  0.00  0.00     0.103 A 
ATOM     26  C   UNL d   1      26.435 -10.789   1.956  0.00  0.00     0.043 A 
ATOM     27  C   UNL d   1      27.204 -11.970   1.967  0.00  0.00    -0.047 A 
ATOM     28  C   UNL d   1      26.622 -13.212   1.338  0.00  0.00     0.049 C 
BRANCH  25  29
ATOM     29  N   UNL d   1      26.139  -8.384   2.487  0.00  0.00    -0.116 N 
ATOM     30  O   UNL d   1      26.474  -7.457   3.230  0.00  0.00    -0.532 OA
ATOM     31  O   UNL d   1      25.155  -8.358   1.726  0.00  0.00    -0.532 OA
ENDBRANCH  25  29
ENDBRANCH  20  22
ENDBRANCH   1  17
BRANCH   3  32
ATOM     32  O   UNL d   1      30.510 -13.883  -2.788  0.00  0.00    -0.344 OA
ATOM     33  H   UNL d   1      31.473 -13.783  -2.880  0.00  0.00     0.219 HD
ENDBRANCH   3  32
TORSDOF 4
ENDMDL
