MODEL 1
REMARK VINA RESULT:   -10.880      0.000      0.000
REMARK INTER + INTRA:         -14.863
REMARK INTER:                 -12.968
REMARK INTRA:                  -1.895
REMARK CONF_INDEPENDENT:        2.088
REMARK UNBOUND:                -1.895
REMARK  7 active torsions:
REMARK  status: ('A' for Active; 'I' for Inactive)
REMARK    1  A    between atoms: C_2  and  C_4 
REMARK    2  A    between atoms: C_7  and  N_8 
REMARK       I    between atoms: N_8  and  C_9 
REMARK       I    between atoms: C_9  and  N_11 
REMARK    3  A    between atoms: N_11  and  C_12 
REMARK    4  A    between atoms: C_15  and  N_16 
REMARK    5  A    between atoms: C_21  and  C_22 
REMARK       I    between atoms: C_22  and  N_24 
REMARK    6  A    between atoms: C_25  and  N_24 
REMARK    7  A    between atoms: C_25  and  C_27 
ROOT
ATOM      1  C   UNL d   1      28.574 -13.872   1.829  0.00  0.00     0.037 C 
ATOM      2  C   UNL d   1      27.958 -12.686   1.511  0.00  0.00     0.032 C 
ATOM      3  C   UNL d   1      27.171 -12.595   0.313  0.00  0.00     0.032 C 
ATOM      4  C   UNL d   1      26.999 -13.641  -0.644  0.00  0.00     0.046 C 
ATOM      5  C   UNL d   1      27.582 -14.866  -0.279  0.00  0.00     0.060 C 
ATOM      6  C   UNL d   1      28.260 -14.921   0.980  0.00  0.00     0.049 C 
ENDROOT
BRANCH   1   7
ATOM      7  N   UNL d   1      29.429 -14.167   2.968  0.00  0.00    -0.309 N 
ATOM      8  C   UNL d   1      28.945 -13.956   4.274  0.00  0.00     0.325 C 
ATOM      9  N   UNL d   1      29.876 -14.016   5.314  0.00  0.00    -0.309 N 
ATOM     10  O   UNL d   1      27.748 -13.727   4.467  0.00  0.00    -0.247 OA
ATOM     11  H   UNL d   1      30.739 -14.518   5.159  0.00  0.00     0.170 HD
ATOM     12  H   UNL d   1      30.118 -14.894   2.856  0.00  0.00     0.170 HD
BRANCH   9  13
ATOM     13  C   UNL d   1      29.566 -13.715   6.699  0.00  0.00     0.036 A 
ATOM     14  C   UNL d   1      30.227 -14.381   7.739  0.00  0.00     0.030 A 
ATOM     15  C   UNL d   1      29.830 -14.200   9.083  0.00  0.00     0.010 A 
ATOM     16  C   UNL d   1      28.833 -13.281   9.440  0.00  0.00    -0.055 A 
ATOM     17  C   UNL d   1      28.223 -12.564   8.418  0.00  0.00     0.010 A 
ATOM     18  C   UNL d   1      28.589 -12.783   7.081  0.00  0.00     0.030 A 
BRANCH  16  19
ATOM     19  C   UNL d   1      28.427 -13.049  10.885  0.00  0.00     0.010 C 
ATOM     20  C   UNL d   1      28.269 -14.381  11.619  0.00  0.00     0.015 C 
ATOM     21  C   UNL d   1      29.451 -12.156  11.593  0.00  0.00     0.015 C 
ENDBRANCH  16  19
ENDBRANCH   9  13
ENDBRANCH   1   7
BRANCH   5  22
ATOM     22  C   UNL d   1      27.603 -16.086  -1.196  0.00  0.00     0.254 C 
ATOM     23  O   UNL d   1      28.506 -16.358  -1.985  0.00  0.00    -0.268 OA
ATOM     24  N   UNL d   1      26.612 -17.038  -1.202  0.00  0.00    -0.349 N 
ATOM     25  H   UNL d   1      26.844 -17.739  -1.889  0.00  0.00     0.163 HD
BRANCH  24  26
ATOM     26  C   UNL d   1      25.706 -17.382  -0.136  0.00  0.00     0.114 C 
ATOM     27  C   UNL d   1      26.245 -18.575   0.668  0.00  0.00     0.037 C 
BRANCH  26  28
ATOM     28  C   UNL d   1      24.298 -17.739  -0.506  0.00  0.00    -0.036 C 
ATOM     29  C   UNL d   1      23.416 -16.681  -0.820  0.00  0.00     0.009 C 
ATOM     30  C   UNL d   1      22.057 -16.918  -0.895  0.00  0.00     0.001 C 
ATOM     31  C   UNL d   1      21.593 -18.225  -0.787  0.00  0.00     0.000 C 
ATOM     32  C   UNL d   1      22.476 -19.283  -0.573  0.00  0.00     0.001 C 
ATOM     33  C   UNL d   1      23.828 -19.041  -0.431  0.00  0.00     0.009 C 
ENDBRANCH  26  28
ENDBRANCH  24  26
ENDBRANCH   5  22
BRANCH   4  34
ATOM     34  N   UNL d   1      26.279 -13.364  -1.793  0.00  0.00    -0.380 N 
ATOM     35  C   UNL d   1      25.315 -14.241  -2.464  0.00  0.00     0.123 C 
ATOM     36  C   UNL d   1      25.610 -14.051  -3.952  0.00  0.00     0.021 C 
ATOM     37  C   UNL d   1      25.945 -12.570  -4.028  0.00  0.00     0.021 C 
ATOM     38  C   UNL d   1      26.629 -12.250  -2.685  0.00  0.00     0.123 C 
ENDBRANCH   4  34
TORSDOF 7
ENDMDL
MODEL 2
REMARK VINA RESULT:   -10.524      1.158      1.581
REMARK INTER + INTRA:         -14.042
REMARK INTER:                 -12.612
REMARK INTRA:                  -1.430
REMARK CONF_INDEPENDENT:        2.088
REMARK UNBOUND:                -1.430
REMARK  7 active torsions:
REMARK  status: ('A' for Active; 'I' for Inactive)
REMARK    1  A    between atoms: C_2  and  C_4 
REMARK    2  A    between atoms: C_7  and  N_8 
REMARK       I    between atoms: N_8  and  C_9 
REMARK       I    between atoms: C_9  and  N_11 
REMARK    3  A    between atoms: N_11  and  C_12 
REMARK    4  A    between atoms: C_15  and  N_16 
REMARK    5  A    between atoms: C_21  and  C_22 
REMARK       I    between atoms: C_22  and  N_24 
REMARK    6  A    between atoms: C_25  and  N_24 
REMARK    7  A    between atoms: C_25  and  C_27 
ROOT
ATOM      1  C   UNL d   1      28.074 -13.888   0.734  0.00  0.00     0.037 C 
ATOM      2  C   UNL d   1      28.103 -12.548   0.433  0.00  0.00     0.032 C 
ATOM      3  C   UNL d   1      27.549 -12.090  -0.810  0.00  0.00     0.032 C 
ATOM      4  C   UNL d   1      26.994 -12.927  -1.826  0.00  0.00     0.046 C 
ATOM      5  C   UNL d   1      26.915 -14.286  -1.482  0.00  0.00     0.060 C 
ATOM      6  C   UNL d   1      27.385 -14.663  -0.184  0.00  0.00     0.049 C 
ENDROOT
BRANCH   1   7
ATOM      7  N   UNL d   1      28.600 -14.559   1.914  0.00  0.00    -0.309 N 
ATOM      8  C   UNL d   1      28.385 -13.997   3.187  0.00  0.00     0.325 C 
ATOM      9  N   UNL d   1      29.111 -14.536   4.251  0.00  0.00    -0.309 N 
ATOM     10  O   UNL d   1      27.587 -13.066   3.332  0.00  0.00    -0.247 OA
ATOM     11  H   UNL d   1      29.480 -15.472   4.156  0.00  0.00     0.170 HD
ATOM     12  H   UNL d   1      28.694 -15.562   1.875  0.00  0.00     0.170 HD
BRANCH   9  13
ATOM     13  C   UNL d   1      29.091 -14.003   5.600  0.00  0.00     0.036 A 
ATOM     14  C   UNL d   1      30.013 -14.450   6.557  0.00  0.00     0.030 A 
ATOM     15  C   UNL d   1      29.908 -14.046   7.907  0.00  0.00     0.010 A 
ATOM     16  C   UNL d   1      28.947 -13.114   8.326  0.00  0.00    -0.055 A 
ATOM     17  C   UNL d   1      28.076 -12.612   7.366  0.00  0.00     0.010 A 
ATOM     18  C   UNL d   1      28.156 -13.053   6.036  0.00  0.00     0.030 A 
BRANCH  16  19
ATOM     19  C   UNL d   1      28.853 -12.643   9.766  0.00  0.00     0.010 C 
ATOM     20  C   UNL d   1      28.175 -13.702  10.636  0.00  0.00     0.015 C 
ATOM     21  C   UNL d   1      30.242 -12.299  10.310  0.00  0.00     0.015 C 
ENDBRANCH  16  19
ENDBRANCH   9  13
ENDBRANCH   1   7
BRANCH   5  22
ATOM     22  C   UNL d   1      26.447 -15.367  -2.453  0.00  0.00     0.254 C 
ATOM     23  O   UNL d   1      26.871 -15.514  -3.598  0.00  0.00    -0.268 OA
ATOM     24  N   UNL d   1      25.517 -16.322  -2.123  0.00  0.00    -0.349 N 
ATOM     25  H   UNL d   1      25.369 -16.918  -2.923  0.00  0.00     0.163 HD
BRANCH  24  26
ATOM     26  C   UNL d   1      25.187 -16.823  -0.812  0.00  0.00     0.114 C 
ATOM     27  C   UNL d   1      26.260 -17.807  -0.323  0.00  0.00     0.037 C 
BRANCH  26  28
ATOM     28  C   UNL d   1      23.875 -17.530  -0.648  0.00  0.00    -0.036 C 
ATOM     29  C   UNL d   1      23.906 -18.920  -0.403  0.00  0.00     0.009 C 
ATOM     30  C   UNL d   1      22.748 -19.666  -0.520  0.00  0.00     0.001 C 
ATOM     31  C   UNL d   1      21.544 -19.009  -0.750  0.00  0.00     0.000 C 
ATOM     32  C   UNL d   1      21.501 -17.623  -0.895  0.00  0.00     0.001 C 
ATOM     33  C   UNL d   1      22.665 -16.882  -0.846  0.00  0.00     0.009 C 
ENDBRANCH  26  28
ENDBRANCH  24  26
ENDBRANCH   5  22
BRANCH   4  34
ATOM     34  N   UNL d   1      26.580 -12.335  -3.007  0.00  0.00    -0.380 N 
ATOM     35  C   UNL d   1      25.498 -12.783  -3.888  0.00  0.00     0.123 C 
ATOM     36  C   UNL d   1      26.058 -12.585  -5.296  0.00  0.00     0.021 C 
ATOM     37  C   UNL d   1      26.855 -11.299  -5.149  0.00  0.00     0.021 C 
ATOM     38  C   UNL d   1      27.397 -11.333  -3.707  0.00  0.00     0.123 C 
ENDBRANCH   4  34
TORSDOF 7
ENDMDL
MODEL 3
REMARK VINA RESULT:    -9.893      6.644     11.081
REMARK INTER + INTRA:         -13.735
REMARK INTER:                 -11.981
REMARK INTRA:                  -1.755
REMARK CONF_INDEPENDENT:        2.088
REMARK UNBOUND:                -1.755
REMARK  7 active torsions:
REMARK  status: ('A' for Active; 'I' for Inactive)
REMARK    1  A    between atoms: C_2  and  C_4 
REMARK    2  A    between atoms: C_7  and  N_8 
REMARK       I    between atoms: N_8  and  C_9 
REMARK       I    between atoms: C_9  and  N_11 
REMARK    3  A    between atoms: N_11  and  C_12 
REMARK    4  A    between atoms: C_15  and  N_16 
REMARK    5  A    between atoms: C_21  and  C_22 
REMARK       I    between atoms: C_22  and  N_24 
REMARK    6  A    between atoms: C_25  and  N_24 
REMARK    7  A    between atoms: C_25  and  C_27 
ROOT
ATOM      1  C   UNL d   1      26.840 -11.302  -4.189  0.00  0.00     0.037 C 
ATOM      2  C   UNL d   1      28.204 -11.208  -4.323  0.00  0.00     0.032 C 
ATOM      3  C   UNL d   1      28.965 -12.378  -4.662  0.00  0.00     0.032 C 
ATOM      4  C   UNL d   1      28.429 -13.692  -4.831  0.00  0.00     0.046 C 
ATOM      5  C   UNL d   1      27.029 -13.764  -4.751  0.00  0.00     0.060 C 
ATOM      6  C   UNL d   1      26.320 -12.543  -4.520  0.00  0.00     0.049 C 
ENDROOT
BRANCH   1   7
ATOM      7  N   UNL d   1      25.894 -10.256  -3.828  0.00  0.00    -0.309 N 
ATOM      8  C   UNL d   1      25.155  -9.609  -4.837  0.00  0.00     0.325 C 
ATOM      9  N   UNL d   1      24.454  -8.457  -4.472  0.00  0.00    -0.309 N 
ATOM     10  O   UNL d   1      25.144 -10.056  -5.988  0.00  0.00    -0.247 OA
ATOM     11  H   UNL d   1      24.223  -8.323  -3.497  0.00  0.00     0.170 HD
ATOM     12  H   UNL d   1      25.461 -10.315  -2.920  0.00  0.00     0.170 HD
BRANCH   9  13
ATOM     13  C   UNL d   1      23.736  -7.613  -5.408  0.00  0.00     0.036 A 
ATOM     14  C   UNL d   1      22.501  -7.052  -5.059  0.00  0.00     0.030 A 
ATOM     15  C   UNL d   1      21.729  -6.350  -6.012  0.00  0.00     0.010 A 
ATOM     16  C   UNL d   1      22.205  -6.103  -7.309  0.00  0.00    -0.055 A 
ATOM     17  C   UNL d   1      23.461  -6.596  -7.638  0.00  0.00     0.010 A 
ATOM     18  C   UNL d   1      24.202  -7.332  -6.701  0.00  0.00     0.030 A 
BRANCH  16  19
ATOM     19  C   UNL d   1      21.400  -5.316  -8.328  0.00  0.00     0.010 C 
ATOM     20  C   UNL d   1      22.058  -5.389  -9.706  0.00  0.00     0.015 C 
ATOM     21  C   UNL d   1      19.958  -5.828  -8.385  0.00  0.00     0.015 C 
ENDBRANCH  16  19
ENDBRANCH   9  13
ENDBRANCH   1   7
BRANCH   5  22
ATOM     22  C   UNL d   1      26.257 -15.080  -4.804  0.00  0.00     0.254 C 
ATOM     23  O   UNL d   1      26.230 -15.841  -5.770  0.00  0.00    -0.268 OA
ATOM     24  N   UNL d   1      25.534 -15.570  -3.744  0.00  0.00    -0.349 N 
ATOM     25  H   UNL d   1      25.113 -16.444  -4.018  0.00  0.00     0.163 HD
BRANCH  24  26
ATOM     26  C   UNL d   1      25.722 -15.299  -2.341  0.00  0.00     0.114 C 
ATOM     27  C   UNL d   1      27.215 -15.304  -1.984  0.00  0.00     0.037 C 
BRANCH  26  28
ATOM     28  C   UNL d   1      25.060 -16.219  -1.360  0.00  0.00    -0.036 C 
ATOM     29  C   UNL d   1      25.890 -17.077  -0.605  0.00  0.00     0.009 C 
ATOM     30  C   UNL d   1      25.334 -18.127   0.100  0.00  0.00     0.001 C 
ATOM     31  C   UNL d   1      23.949 -18.242   0.157  0.00  0.00     0.000 C 
ATOM     32  C   UNL d   1      23.127 -17.335  -0.510  0.00  0.00     0.001 C 
ATOM     33  C   UNL d   1      23.681 -16.325  -1.270  0.00  0.00     0.009 C 
ENDBRANCH  26  28
ENDBRANCH  24  26
ENDBRANCH   5  22
BRANCH   4  34
ATOM     34  N   UNL d   1      29.311 -14.731  -5.071  0.00  0.00    -0.380 N 
ATOM     35  C   UNL d   1      30.116 -14.945  -6.276  0.00  0.00     0.123 C 
ATOM     36  C   UNL d   1      30.030 -16.451  -6.520  0.00  0.00     0.021 C 
ATOM     37  C   UNL d   1      30.051 -17.009  -5.105  0.00  0.00     0.021 C 
ATOM     38  C   UNL d   1      29.319 -15.953  -4.255  0.00  0.00     0.123 C 
ENDBRANCH   4  34
TORSDOF 7
ENDMDL
MODEL 4
REMARK VINA RESULT:    -9.806      6.707      9.072
REMARK INTER + INTRA:         -13.563
REMARK INTER:                 -11.894
REMARK INTRA:                  -1.669
REMARK CONF_INDEPENDENT:        2.088
REMARK UNBOUND:                -1.669
REMARK  7 active torsions:
REMARK  status: ('A' for Active; 'I' for Inactive)
REMARK    1  A    between atoms: C_2  and  C_4 
REMARK    2  A    between atoms: C_7  and  N_8 
REMARK       I    between atoms: N_8  and  C_9 
REMARK       I    between atoms: C_9  and  N_11 
REMARK    3  A    between atoms: N_11  and  C_12 
REMARK    4  A    between atoms: C_15  and  N_16 
REMARK    5  A    between atoms: C_21  and  C_22 
REMARK       I    between atoms: C_22  and  N_24 
REMARK    6  A    between atoms: C_25  and  N_24 
REMARK    7  A    between atoms: C_25  and  C_27 
ROOT
ATOM      1  C   UNL d   1      26.795 -13.263  -3.594  0.00  0.00     0.037 C 
ATOM      2  C   UNL d   1      26.320 -11.975  -3.646  0.00  0.00     0.032 C 
ATOM      3  C   UNL d   1      26.470 -11.212  -4.853  0.00  0.00     0.032 C 
ATOM      4  C   UNL d   1      27.135 -11.659  -6.036  0.00  0.00     0.046 C 
ATOM      5  C   UNL d   1      27.562 -12.996  -5.994  0.00  0.00     0.060 C 
ATOM      6  C   UNL d   1      27.285 -13.736  -4.801  0.00  0.00     0.049 C 
ENDROOT
BRANCH   1   7
ATOM      7  N   UNL d   1      26.771 -14.189  -2.473  0.00  0.00    -0.309 N 
ATOM      8  C   UNL d   1      25.713 -15.112  -2.356  0.00  0.00     0.325 C 
ATOM      9  N   UNL d   1      25.602 -15.803  -1.147  0.00  0.00    -0.309 N 
ATOM     10  O   UNL d   1      24.928 -15.284  -3.294  0.00  0.00    -0.247 OA
ATOM     11  H   UNL d   1      26.421 -15.881  -0.561  0.00  0.00     0.170 HD
ATOM     12  H   UNL d   1      27.657 -14.469  -2.081  0.00  0.00     0.170 HD
BRANCH   9  13
ATOM     13  C   UNL d   1      24.511 -16.702  -0.824  0.00  0.00     0.036 A 
ATOM     14  C   UNL d   1      24.767 -18.026  -0.445  0.00  0.00     0.030 A 
ATOM     15  C   UNL d   1      23.710 -18.947  -0.269  0.00  0.00     0.010 A 
ATOM     16  C   UNL d   1      22.366 -18.555  -0.370  0.00  0.00    -0.055 A 
ATOM     17  C   UNL d   1      22.105 -17.225  -0.675  0.00  0.00     0.010 A 
ATOM     18  C   UNL d   1      23.161 -16.327  -0.894  0.00  0.00     0.030 A 
BRANCH  16  19
ATOM     19  C   UNL d   1      21.222 -19.528  -0.143  0.00  0.00     0.010 C 
ATOM     20  C   UNL d   1      20.654 -19.371   1.267  0.00  0.00     0.015 C 
ATOM     21  C   UNL d   1      20.129 -19.325  -1.196  0.00  0.00     0.015 C 
ENDBRANCH  16  19
ENDBRANCH   9  13
ENDBRANCH   1   7
BRANCH   5  22
ATOM     22  C   UNL d   1      28.378 -13.648  -7.108  0.00  0.00     0.254 C 
ATOM     23  O   UNL d   1      28.532 -13.177  -8.233  0.00  0.00    -0.268 OA
ATOM     24  N   UNL d   1      29.062 -14.827  -6.945  0.00  0.00    -0.349 N 
ATOM     25  H   UNL d   1      29.518 -15.057  -7.815  0.00  0.00     0.163 HD
BRANCH  24  26
ATOM     26  C   UNL d   1      29.569 -15.399  -5.723  0.00  0.00     0.114 C 
ATOM     27  C   UNL d   1      30.755 -14.580  -5.195  0.00  0.00     0.037 C 
BRANCH  26  28
ATOM     28  C   UNL d   1      30.035 -16.823  -5.762  0.00  0.00    -0.036 C 
ATOM     29  C   UNL d   1      30.094 -17.526  -4.538  0.00  0.00     0.009 C 
ATOM     30  C   UNL d   1      30.770 -18.729  -4.468  0.00  0.00     0.001 C 
ATOM     31  C   UNL d   1      31.271 -19.290  -5.638  0.00  0.00     0.000 C 
ATOM     32  C   UNL d   1      31.127 -18.640  -6.863  0.00  0.00     0.001 C 
ATOM     33  C   UNL d   1      30.511 -17.406  -6.926  0.00  0.00     0.009 C 
ENDBRANCH  26  28
ENDBRANCH  24  26
ENDBRANCH   5  22
BRANCH   4  34
ATOM     34  N   UNL d   1      27.270 -10.768  -7.086  0.00  0.00    -0.380 N 
ATOM     35  C   UNL d   1      26.438 -10.689  -8.289  0.00  0.00     0.123 C 
ATOM     36  C   UNL d   1      27.436 -10.432  -9.418  0.00  0.00     0.021 C 
ATOM     37  C   UNL d   1      28.447  -9.511  -8.752  0.00  0.00     0.021 C 
ATOM     38  C   UNL d   1      28.488  -9.970  -7.281  0.00  0.00     0.123 C 
ENDBRANCH   4  34
TORSDOF 7
ENDMDL
MODEL 5
REMARK VINA RESULT:    -9.631      2.189      3.190
REMARK INTER + INTRA:         -13.417
REMARK INTER:                 -11.719
REMARK INTRA:                  -1.697
REMARK CONF_INDEPENDENT:        2.088
REMARK UNBOUND:                -1.697
REMARK  7 active torsions:
REMARK  status: ('A' for Active; 'I' for Inactive)
REMARK    1  A    between atoms: C_2  and  C_4 
REMARK    2  A    between atoms: C_7  and  N_8 
REMARK       I    between atoms: N_8  and  C_9 
REMARK       I    between atoms: C_9  and  N_11 
REMARK    3  A    between atoms: N_11  and  C_12 
REMARK    4  A    between atoms: C_15  and  N_16 
REMARK    5  A    between atoms: C_21  and  C_22 
REMARK       I    between atoms: C_22  and  N_24 
REMARK    6  A    between atoms: C_25  and  N_24 
REMARK    7  A    between atoms: C_25  and  C_27 
ROOT
ATOM      1  C   UNL d   1      27.510 -12.510  -0.618  0.00  0.00     0.037 C 
ATOM      2  C   UNL d   1      28.728 -12.587  -1.249  0.00  0.00     0.032 C 
ATOM      3  C   UNL d   1      28.817 -13.193  -2.547  0.00  0.00     0.032 C 
ATOM      4  C   UNL d   1      27.730 -13.793  -3.255  0.00  0.00     0.046 C 
ATOM      5  C   UNL d   1      26.481 -13.656  -2.629  0.00  0.00     0.060 C 
ATOM      6  C   UNL d   1      26.443 -12.945  -1.388  0.00  0.00     0.049 C 
ENDROOT
BRANCH   1   7
ATOM      7  N   UNL d   1      27.207 -11.967   0.698  0.00  0.00    -0.309 N 
ATOM      8  C   UNL d   1      27.912 -12.437   1.823  0.00  0.00     0.325 C 
ATOM      9  N   UNL d   1      27.422 -12.073   3.079  0.00  0.00    -0.309 N 
ATOM     10  O   UNL d   1      28.916 -13.143   1.681  0.00  0.00    -0.247 OA
ATOM     11  H   UNL d   1      26.830 -11.256   3.145  0.00  0.00     0.170 HD
ATOM     12  H   UNL d   1      26.870 -11.018   0.743  0.00  0.00     0.170 HD
BRANCH   9  13
ATOM     13  C   UNL d   1      27.961 -12.560   4.334  0.00  0.00     0.036 A 
ATOM     14  C   UNL d   1      28.125 -13.934   4.554  0.00  0.00     0.030 A 
ATOM     15  C   UNL d   1      28.511 -14.424   5.822  0.00  0.00     0.010 A 
ATOM     16  C   UNL d   1      28.838 -13.560   6.878  0.00  0.00    -0.055 A 
ATOM     17  C   UNL d   1      28.747 -12.193   6.643  0.00  0.00     0.010 A 
ATOM     18  C   UNL d   1      28.318 -11.715   5.395  0.00  0.00     0.030 A 
BRANCH  16  19
ATOM     19  C   UNL d   1      29.294 -14.076   8.231  0.00  0.00     0.010 C 
ATOM     20  C   UNL d   1      30.802 -13.890   8.399  0.00  0.00     0.015 C 
ATOM     21  C   UNL d   1      28.530 -13.373   9.358  0.00  0.00     0.015 C 
ENDBRANCH  16  19
ENDBRANCH   9  13
ENDBRANCH   1   7
BRANCH   5  22
ATOM     22  C   UNL d   1      25.205 -14.304  -3.161  0.00  0.00     0.254 C 
ATOM     23  O   UNL d   1      24.780 -14.183  -4.308  0.00  0.00    -0.268 OA
ATOM     24  N   UNL d   1      24.413 -15.132  -2.404  0.00  0.00    -0.349 N 
ATOM     25  H   UNL d   1      23.631 -15.432  -2.966  0.00  0.00     0.163 HD
BRANCH  24  26
ATOM     26  C   UNL d   1      24.793 -15.927  -1.264  0.00  0.00     0.114 C 
ATOM     27  C   UNL d   1      26.170 -16.570  -1.488  0.00  0.00     0.037 C 
BRANCH  26  28
ATOM     28  C   UNL d   1      23.879 -17.043  -0.857  0.00  0.00    -0.036 C 
ATOM     29  C   UNL d   1      24.460 -18.306  -0.604  0.00  0.00     0.009 C 
ATOM     30  C   UNL d   1      23.655 -19.425  -0.501  0.00  0.00     0.001 C 
ATOM     31  C   UNL d   1      22.273 -19.266  -0.520  0.00  0.00     0.000 C 
ATOM     32  C   UNL d   1      21.699 -18.004  -0.673  0.00  0.00     0.001 C 
ATOM     33  C   UNL d   1      22.501 -16.893  -0.844  0.00  0.00     0.009 C 
ENDBRANCH  26  28
ENDBRANCH  24  26
ENDBRANCH   5  22
BRANCH   4  34
ATOM     34  N   UNL d   1      28.000 -14.413  -4.462  0.00  0.00    -0.380 N 
ATOM     35  C   UNL d   1      28.614 -15.729  -4.661  0.00  0.00     0.123 C 
ATOM     36  C   UNL d   1      29.569 -15.521  -5.837  0.00  0.00     0.021 C 
ATOM     37  C   UNL d   1      28.790 -14.558  -6.719  0.00  0.00     0.021 C 
ATOM     38  C   UNL d   1      27.991 -13.680  -5.736  0.00  0.00     0.123 C 
ENDBRANCH   4  34
TORSDOF 7
ENDMDL
MODEL 6
REMARK VINA RESULT:    -9.505      1.347      2.148
REMARK INTER + INTRA:         -13.533
REMARK INTER:                 -11.593
REMARK INTRA:                  -1.940
REMARK CONF_INDEPENDENT:        2.088
REMARK UNBOUND:                -1.940
REMARK  7 active torsions:
REMARK  status: ('A' for Active; 'I' for Inactive)
REMARK    1  A    between atoms: C_2  and  C_4 
REMARK    2  A    between atoms: C_7  and  N_8 
REMARK       I    between atoms: N_8  and  C_9 
REMARK       I    between atoms: C_9  and  N_11 
REMARK    3  A    between atoms: N_11  and  C_12 
REMARK    4  A    between atoms: C_15  and  N_16 
REMARK    5  A    between atoms: C_21  and  C_22 
REMARK       I    between atoms: C_22  and  N_24 
REMARK    6  A    between atoms: C_25  and  N_24 
REMARK    7  A    between atoms: C_25  and  C_27 
ROOT
ATOM      1  C   UNL d   1      28.127 -13.848   0.796  0.00  0.00     0.037 C 
ATOM      2  C   UNL d   1      27.767 -12.529   0.670  0.00  0.00     0.032 C 
ATOM      3  C   UNL d   1      27.405 -12.012  -0.620  0.00  0.00     0.032 C 
ATOM      4  C   UNL d   1      27.430 -12.751  -1.843  0.00  0.00     0.046 C 
ATOM      5  C   UNL d   1      27.740 -14.113  -1.694  0.00  0.00     0.060 C 
ATOM      6  C   UNL d   1      27.985 -14.589  -0.367  0.00  0.00     0.049 C 
ENDROOT
BRANCH   1   7
ATOM      7  N   UNL d   1      28.552 -14.558   1.992  0.00  0.00    -0.309 N 
ATOM      8  C   UNL d   1      28.387 -13.954   3.254  0.00  0.00     0.325 C 
ATOM      9  N   UNL d   1      29.029 -14.559   4.338  0.00  0.00    -0.309 N 
ATOM     10  O   UNL d   1      27.705 -12.932   3.373  0.00  0.00    -0.247 OA
ATOM     11  H   UNL d   1      29.284 -15.534   4.262  0.00  0.00     0.170 HD
ATOM     12  H   UNL d   1      28.526 -15.566   1.970  0.00  0.00     0.170 HD
BRANCH   9  13
ATOM     13  C   UNL d   1      29.053 -14.006   5.678  0.00  0.00     0.036 A 
ATOM     14  C   UNL d   1      29.996 -14.450   6.615  0.00  0.00     0.030 A 
ATOM     15  C   UNL d   1      29.935 -14.025   7.961  0.00  0.00     0.010 A 
ATOM     16  C   UNL d   1      28.997 -13.074   8.393  0.00  0.00    -0.055 A 
ATOM     17  C   UNL d   1      28.105 -12.576   7.451  0.00  0.00     0.010 A 
ATOM     18  C   UNL d   1      28.142 -13.038   6.126  0.00  0.00     0.030 A 
BRANCH  16  19
ATOM     19  C   UNL d   1      28.949 -12.581   9.828  0.00  0.00     0.010 C 
ATOM     20  C   UNL d   1      27.908 -13.360  10.631  0.00  0.00     0.015 C 
ATOM     21  C   UNL d   1      30.332 -12.689  10.479  0.00  0.00     0.015 C 
ENDBRANCH  16  19
ENDBRANCH   9  13
ENDBRANCH   1   7
BRANCH   5  22
ATOM     22  C   UNL d   1      27.918 -15.062  -2.876  0.00  0.00     0.254 C 
ATOM     23  O   UNL d   1      29.001 -15.438  -3.319  0.00  0.00    -0.268 OA
ATOM     24  N   UNL d   1      26.863 -15.629  -3.548  0.00  0.00    -0.349 N 
ATOM     25  H   UNL d   1      27.227 -16.211  -4.287  0.00  0.00     0.163 HD
BRANCH  24  26
ATOM     26  C   UNL d   1      25.530 -15.879  -3.060  0.00  0.00     0.114 C 
ATOM     27  C   UNL d   1      24.836 -14.562  -2.683  0.00  0.00     0.037 C 
BRANCH  26  28
ATOM     28  C   UNL d   1      25.382 -16.778  -1.870  0.00  0.00    -0.036 C 
ATOM     29  C   UNL d   1      24.072 -17.103  -1.453  0.00  0.00     0.009 C 
ATOM     30  C   UNL d   1      23.869 -17.688  -0.218  0.00  0.00     0.001 C 
ATOM     31  C   UNL d   1      24.972 -18.064   0.541  0.00  0.00     0.000 C 
ATOM     32  C   UNL d   1      26.269 -17.830   0.084  0.00  0.00     0.001 C 
ATOM     33  C   UNL d   1      26.475 -17.186  -1.119  0.00  0.00     0.009 C 
ENDBRANCH  26  28
ENDBRANCH  24  26
ENDBRANCH   5  22
BRANCH   4  34
ATOM     34  N   UNL d   1      27.134 -12.081  -3.017  0.00  0.00    -0.380 N 
ATOM     35  C   UNL d   1      25.805 -11.727  -3.520  0.00  0.00     0.123 C 
ATOM     36  C   UNL d   1      25.886 -12.009  -5.020  0.00  0.00     0.021 C 
ATOM     37  C   UNL d   1      27.307 -11.580  -5.353  0.00  0.00     0.021 C 
ATOM     38  C   UNL d   1      28.124 -11.910  -4.089  0.00  0.00     0.123 C 
ENDBRANCH   4  34
TORSDOF 7
ENDMDL
MODEL 7
REMARK VINA RESULT:    -9.307      1.834      2.706
REMARK INTER + INTRA:         -13.316
REMARK INTER:                 -11.395
REMARK INTRA:                  -1.921
REMARK CONF_INDEPENDENT:        2.088
REMARK UNBOUND:                -1.921
REMARK  7 active torsions:
REMARK  status: ('A' for Active; 'I' for Inactive)
REMARK    1  A    between atoms: C_2  and  C_4 
REMARK    2  A    between atoms: C_7  and  N_8 
REMARK       I    between atoms: N_8  and  C_9 
REMARK       I    between atoms: C_9  and  N_11 
REMARK    3  A    between atoms: N_11  and  C_12 
REMARK    4  A    between atoms: C_15  and  N_16 
REMARK    5  A    between atoms: C_21  and  C_22 
REMARK       I    between atoms: C_22  and  N_24 
REMARK    6  A    between atoms: C_25  and  N_24 
REMARK    7  A    between atoms: C_25  and  C_27 
ROOT
ATOM      1  C   UNL d   1      26.855 -13.158  -0.346  0.00  0.00     0.037 C 
ATOM      2  C   UNL d   1      26.791 -12.470  -1.533  0.00  0.00     0.032 C 
ATOM      3  C   UNL d   1      27.121 -13.140  -2.759  0.00  0.00     0.032 C 
ATOM      4  C   UNL d   1      27.576 -14.491  -2.867  0.00  0.00     0.046 C 
ATOM      5  C   UNL d   1      27.579 -15.202  -1.656  0.00  0.00     0.060 C 
ATOM      6  C   UNL d   1      27.134 -14.508  -0.486  0.00  0.00     0.049 C 
ENDROOT
BRANCH   1   7
ATOM      7  N   UNL d   1      26.592 -12.666   0.998  0.00  0.00    -0.309 N 
ATOM      8  C   UNL d   1      27.505 -12.948   2.033  0.00  0.00     0.325 C 
ATOM      9  N   UNL d   1      27.092 -12.673   3.338  0.00  0.00    -0.309 N 
ATOM     10  O   UNL d   1      28.615 -13.422   1.774  0.00  0.00    -0.247 OA
ATOM     11  H   UNL d   1      26.348 -12.003   3.476  0.00  0.00     0.170 HD
ATOM     12  H   UNL d   1      26.063 -11.812   1.085  0.00  0.00     0.170 HD
BRANCH   9  13
ATOM     13  C   UNL d   1      27.862 -13.005   4.521  0.00  0.00     0.036 A 
ATOM     14  C   UNL d   1      28.193 -14.337   4.806  0.00  0.00     0.030 A 
ATOM     15  C   UNL d   1      28.815 -14.684   6.026  0.00  0.00     0.010 A 
ATOM     16  C   UNL d   1      29.214 -13.710   6.954  0.00  0.00    -0.055 A 
ATOM     17  C   UNL d   1      28.954 -12.381   6.643  0.00  0.00     0.010 A 
ATOM     18  C   UNL d   1      28.293 -12.047   5.451  0.00  0.00     0.030 A 
BRANCH  16  19
ATOM     19  C   UNL d   1      29.920 -14.069   8.249  0.00  0.00     0.010 C 
ATOM     20  C   UNL d   1      30.797 -12.911   8.724  0.00  0.00     0.015 C 
ATOM     21  C   UNL d   1      28.902 -14.458   9.325  0.00  0.00     0.015 C 
ENDBRANCH  16  19
ENDBRANCH   9  13
ENDBRANCH   1   7
BRANCH   5  22
ATOM     22  C   UNL d   1      28.118 -16.624  -1.524  0.00  0.00     0.254 C 
ATOM     23  O   UNL d   1      29.210 -17.004  -1.943  0.00  0.00    -0.268 OA
ATOM     24  N   UNL d   1      27.437 -17.628  -0.880  0.00  0.00    -0.349 N 
ATOM     25  H   UNL d   1      27.988 -18.472  -0.927  0.00  0.00     0.163 HD
BRANCH  24  26
ATOM     26  C   UNL d   1      26.444 -17.504   0.157  0.00  0.00     0.114 C 
ATOM     27  C   UNL d   1      26.656 -18.573   1.239  0.00  0.00     0.037 C 
BRANCH  26  28
ATOM     28  C   UNL d   1      25.003 -17.602  -0.244  0.00  0.00    -0.036 C 
ATOM     29  C   UNL d   1      24.343 -16.409  -0.612  0.00  0.00     0.009 C 
ATOM     30  C   UNL d   1      22.965 -16.390  -0.719  0.00  0.00     0.001 C 
ATOM     31  C   UNL d   1      22.262 -17.583  -0.587  0.00  0.00     0.000 C 
ATOM     32  C   UNL d   1      22.926 -18.780  -0.319  0.00  0.00     0.001 C 
ATOM     33  C   UNL d   1      24.295 -18.790  -0.145  0.00  0.00     0.009 C 
ENDBRANCH  26  28
ENDBRANCH  24  26
ENDBRANCH   5  22
BRANCH   4  34
ATOM     34  N   UNL d   1      27.936 -14.961  -4.117  0.00  0.00    -0.380 N 
ATOM     35  C   UNL d   1      29.156 -15.693  -4.467  0.00  0.00     0.123 C 
ATOM     36  C   UNL d   1      29.579 -15.094  -5.809  0.00  0.00     0.021 C 
ATOM     37  C   UNL d   1      28.241 -14.855  -6.491  0.00  0.00     0.021 C 
ATOM     38  C   UNL d   1      27.272 -14.503  -5.345  0.00  0.00     0.123 C 
ENDBRANCH   4  34
TORSDOF 7
ENDMDL
MODEL 8
REMARK VINA RESULT:    -8.929      4.136      8.973
REMARK INTER + INTRA:         -13.559
REMARK INTER:                 -11.017
REMARK INTRA:                  -2.542
REMARK CONF_INDEPENDENT:        2.088
REMARK UNBOUND:                -2.542
REMARK  7 active torsions:
REMARK  status: ('A' for Active; 'I' for Inactive)
REMARK    1  A    between atoms: C_2  and  C_4 
REMARK    2  A    between atoms: C_7  and  N_8 
REMARK       I    between atoms: N_8  and  C_9 
REMARK       I    between atoms: C_9  and  N_11 
REMARK    3  A    between atoms: N_11  and  C_12 
REMARK    4  A    between atoms: C_15  and  N_16 
REMARK    5  A    between atoms: C_21  and  C_22 
REMARK       I    between atoms: C_22  and  N_24 
REMARK    6  A    between atoms: C_25  and  N_24 
REMARK    7  A    between atoms: C_25  and  C_27 
ROOT
ATOM      1  C   UNL d   1      26.442 -16.737  -0.925  0.00  0.00     0.037 C 
ATOM      2  C   UNL d   1      27.604 -17.409  -0.634  0.00  0.00     0.032 C 
ATOM      3  C   UNL d   1      28.679 -16.714   0.018  0.00  0.00     0.032 C 
ATOM      4  C   UNL d   1      28.679 -15.328   0.363  0.00  0.00     0.046 C 
ATOM      5  C   UNL d   1      27.465 -14.667   0.116  0.00  0.00     0.060 C 
ATOM      6  C   UNL d   1      26.395 -15.442  -0.435  0.00  0.00     0.049 C 
ENDROOT
BRANCH   1   7
ATOM      7  N   UNL d   1      25.254 -17.239  -1.599  0.00  0.00    -0.309 N 
ATOM      8  C   UNL d   1      24.095 -17.520  -0.849  0.00  0.00     0.325 C 
ATOM      9  N   UNL d   1      23.076 -18.226  -1.492  0.00  0.00    -0.309 N 
ATOM     10  O   UNL d   1      24.008 -17.152   0.326  0.00  0.00    -0.247 OA
ATOM     11  H   UNL d   1      23.046 -18.212  -2.502  0.00  0.00     0.170 HD
ATOM     12  H   UNL d   1      25.113 -16.965  -2.558  0.00  0.00     0.170 HD
BRANCH   9  13
ATOM     13  C   UNL d   1      21.870 -18.690  -0.835  0.00  0.00     0.036 A 
ATOM     14  C   UNL d   1      21.784 -18.716   0.563  0.00  0.00     0.030 A 
ATOM     15  C   UNL d   1      20.673 -19.301   1.210  0.00  0.00     0.010 A 
ATOM     16  C   UNL d   1      19.572 -19.789   0.489  0.00  0.00    -0.055 A 
ATOM     17  C   UNL d   1      19.620 -19.700  -0.896  0.00  0.00     0.010 A 
ATOM     18  C   UNL d   1      20.747 -19.160  -1.534  0.00  0.00     0.030 A 
BRANCH  16  19
ATOM     19  C   UNL d   1      18.355 -20.382   1.177  0.00  0.00     0.010 C 
ATOM     20  C   UNL d   1      18.038 -21.766   0.611  0.00  0.00     0.015 C 
ATOM     21  C   UNL d   1      18.574 -20.450   2.691  0.00  0.00     0.015 C 
ENDBRANCH  16  19
ENDBRANCH   9  13
ENDBRANCH   1   7
BRANCH   5  22
ATOM     22  C   UNL d   1      27.276 -13.165   0.318  0.00  0.00     0.254 C 
ATOM     23  O   UNL d   1      27.245 -12.601   1.410  0.00  0.00    -0.268 OA
ATOM     24  N   UNL d   1      27.157 -12.278  -0.723  0.00  0.00    -0.349 N 
ATOM     25  H   UNL d   1      27.038 -11.351  -0.344  0.00  0.00     0.163 HD
BRANCH  24  26
ATOM     26  C   UNL d   1      27.649 -12.419  -2.071  0.00  0.00     0.114 C 
ATOM     27  C   UNL d   1      27.535 -11.088  -2.830  0.00  0.00     0.037 C 
BRANCH  26  28
ATOM     28  C   UNL d   1      26.999 -13.448  -2.945  0.00  0.00    -0.036 C 
ATOM     29  C   UNL d   1      27.829 -14.432  -3.526  0.00  0.00     0.009 C 
ATOM     30  C   UNL d   1      27.343 -15.226  -4.547  0.00  0.00     0.001 C 
ATOM     31  C   UNL d   1      26.001 -15.128  -4.897  0.00  0.00     0.000 C 
ATOM     32  C   UNL d   1      25.157 -14.223  -4.255  0.00  0.00     0.001 C 
ATOM     33  C   UNL d   1      25.655 -13.381  -3.281  0.00  0.00     0.009 C 
ENDBRANCH  26  28
ENDBRANCH  24  26
ENDBRANCH   5  22
BRANCH   4  34
ATOM     34  N   UNL d   1      29.831 -14.791   0.910  0.00  0.00    -0.380 N 
ATOM     35  C   UNL d   1      29.930 -13.936   2.096  0.00  0.00     0.123 C 
ATOM     36  C   UNL d   1      30.965 -12.879   1.709  0.00  0.00     0.021 C 
ATOM     37  C   UNL d   1      31.956 -13.684   0.884  0.00  0.00     0.021 C 
ATOM     38  C   UNL d   1      31.101 -14.751   0.171  0.00  0.00     0.123 C 
ENDBRANCH   4  34
TORSDOF 7
ENDMDL
