MODEL 1
REMARK VINA RESULT:    -8.153      0.000      0.000
REMARK INTER + INTRA:         -10.831
REMARK INTER:                  -9.943
REMARK INTRA:                  -0.888
REMARK CONF_INDEPENDENT:        1.790
REMARK UNBOUND:                -0.888
REMARK  6 active torsions:
REMARK  status: ('A' for Active; 'I' for Inactive)
REMARK    1  A    between atoms: C_2  and  N_15 
REMARK    2  A    between atoms: C_3  and  C_4 
REMARK       I    between atoms: C_4  and  N_6 
REMARK    3  A    between atoms: N_6  and  C_7 
REMARK    4  A    between atoms: N_15  and  N_16 
REMARK       I    between atoms: N_16  and  C_17 
REMARK    5  A    between atoms: C_17  and  C_19 
REMARK       I    between atoms: C_19  and  N_21 
REMARK    6  A    between atoms: N_21  and  C_22 
ROOT
ATOM      1  N   UNL d   1      31.184 -21.234   2.228  0.00  0.00    -0.302 N 
ATOM      2  H   UNL d   1      31.154 -20.253   1.931  0.00  0.00     0.186 HD
ENDROOT
BRANCH   1   3
ATOM      3  C   UNL d   1      30.628 -22.186   1.348  0.00  0.00     0.027 C 
ATOM      4  C   UNL d   1      29.114 -22.385   1.523  0.00  0.00     0.070 C 
ATOM      5  C   UNL d   1      31.336 -22.870   0.408  0.00  0.00     0.100 C 
BRANCH   5   6
ATOM      6  C   UNL d   1      30.773 -23.931  -0.494  0.00  0.00     0.247 C 
ATOM      7  O   UNL d   1      30.660 -25.096  -0.119  0.00  0.00    -0.268 OA
ATOM      8  N   UNL d   1      30.478 -23.562  -1.800  0.00  0.00    -0.323 N 
ATOM      9  H   UNL d   1      31.038 -22.823  -2.207  0.00  0.00     0.169 HD
BRANCH   8  10
ATOM     10  C   UNL d   1      29.935 -24.550  -2.680  0.00  0.00     0.042 A 
ATOM     11  C   UNL d   1      28.789 -25.251  -2.269  0.00  0.00     0.030 A 
ATOM     12  C   UNL d   1      28.156 -26.145  -3.139  0.00  0.00     0.004 A 
ATOM     13  C   UNL d   1      28.678 -26.369  -4.409  0.00  0.00     0.024 A 
ATOM     14  C   UNL d   1      29.838 -25.706  -4.817  0.00  0.00     0.042 A 
ATOM     15 CL   UNL d   1      30.413 -26.075  -6.410  0.00  0.00    -0.084 Cl
ATOM     16  C   UNL d   1      30.496 -24.796  -3.964  0.00  0.00    -0.013 A 
ATOM     17  C   UNL d   1      31.798 -24.152  -4.379  0.00  0.00     0.052 C 
ENDBRANCH   8  10
ENDBRANCH   5   6
ENDBRANCH   1   3
BRANCH   1  18
ATOM     18  N   UNL d   1      31.712 -21.468   3.520  0.00  0.00    -0.262 N 
ATOM     19  C   UNL d   1      30.904 -21.598   4.657  0.00  0.00     0.328 C 
ATOM     20  O   UNL d   1      29.675 -21.575   4.685  0.00  0.00    -0.261 OA
ATOM     21  H   UNL d   1      32.721 -21.512   3.628  0.00  0.00     0.190 HD
BRANCH  19  22
ATOM     22  C   UNL d   1      31.728 -21.790   5.977  0.00  0.00     0.315 C 
ATOM     23  O   UNL d   1      31.141 -21.575   7.036  0.00  0.00    -0.262 OA
ATOM     24  N   UNL d   1      33.085 -22.129   5.849  0.00  0.00    -0.319 N 
ATOM     25  H   UNL d   1      33.491 -22.076   4.918  0.00  0.00     0.169 HD
BRANCH  24  26
ATOM     26  C   UNL d   1      33.954 -22.326   6.967  0.00  0.00     0.036 A 
ATOM     27  C   UNL d   1      34.340 -23.612   7.357  0.00  0.00     0.030 A 
ATOM     28  C   UNL d   1      35.186 -23.824   8.458  0.00  0.00     0.011 A 
ATOM     29  C   UNL d   1      35.655 -22.753   9.227  0.00  0.00    -0.040 A 
ATOM     30  C   UNL d   1      36.533 -23.023  10.424  0.00  0.00     0.050 C 
ATOM     31  C   UNL d   1      35.273 -21.460   8.837  0.00  0.00     0.042 A 
ATOM     32 CL   UNL d   1      35.764 -20.084   9.767  0.00  0.00    -0.084 Cl
ATOM     33  C   UNL d   1      34.461 -21.243   7.698  0.00  0.00     0.053 A 
ENDBRANCH  24  26
ENDBRANCH  19  22
ENDBRANCH   1  18
TORSDOF 6
ENDMDL
MODEL 2
REMARK VINA RESULT:    -8.133      5.807     10.976
REMARK INTER + INTRA:         -10.912
REMARK INTER:                  -9.923
REMARK INTRA:                  -0.989
REMARK CONF_INDEPENDENT:        1.790
REMARK UNBOUND:                -0.989
REMARK  6 active torsions:
REMARK  status: ('A' for Active; 'I' for Inactive)
REMARK    1  A    between atoms: C_2  and  N_15 
REMARK    2  A    between atoms: C_3  and  C_4 
REMARK       I    between atoms: C_4  and  N_6 
REMARK    3  A    between atoms: N_6  and  C_7 
REMARK    4  A    between atoms: N_15  and  N_16 
REMARK       I    between atoms: N_16  and  C_17 
REMARK    5  A    between atoms: C_17  and  C_19 
REMARK       I    between atoms: C_19  and  N_21 
REMARK    6  A    between atoms: N_21  and  C_22 
ROOT
ATOM      1  N   UNL d   1      32.874 -18.068   0.999  0.00  0.00    -0.302 N 
ATOM      2  H   UNL d   1      33.643 -17.545   0.566  0.00  0.00     0.186 HD
ENDROOT
BRANCH   1   3
ATOM      3  C   UNL d   1      33.221 -19.012   1.989  0.00  0.00     0.027 C 
ATOM      4  C   UNL d   1      34.473 -19.836   1.650  0.00  0.00     0.070 C 
ATOM      5  C   UNL d   1      32.540 -19.190   3.153  0.00  0.00     0.100 C 
BRANCH   5   6
ATOM      6  C   UNL d   1      32.858 -20.232   4.188  0.00  0.00     0.247 C 
ATOM      7  O   UNL d   1      31.967 -20.820   4.798  0.00  0.00    -0.268 OA
ATOM      8  N   UNL d   1      34.196 -20.431   4.498  0.00  0.00    -0.323 N 
ATOM      9  H   UNL d   1      34.814 -19.634   4.404  0.00  0.00     0.169 HD
BRANCH   8  10
ATOM     10  C   UNL d   1      34.529 -21.420   5.476  0.00  0.00     0.042 A 
ATOM     11  C   UNL d   1      34.014 -21.273   6.775  0.00  0.00     0.030 A 
ATOM     12  C   UNL d   1      34.217 -22.271   7.734  0.00  0.00     0.004 A 
ATOM     13  C   UNL d   1      34.960 -23.403   7.415  0.00  0.00     0.024 A 
ATOM     14  C   UNL d   1      35.509 -23.545   6.138  0.00  0.00     0.042 A 
ATOM     15 CL   UNL d   1      36.432 -24.984   5.855  0.00  0.00    -0.084 Cl
ATOM     16  C   UNL d   1      35.317 -22.559   5.149  0.00  0.00    -0.013 A 
ATOM     17  C   UNL d   1      35.988 -22.677   3.800  0.00  0.00     0.052 C 
ENDBRANCH   8  10
ENDBRANCH   5   6
ENDBRANCH   1   3
BRANCH   1  18
ATOM     18  N   UNL d   1      31.586 -17.812   0.473  0.00  0.00    -0.262 N 
ATOM     19  C   UNL d   1      31.376 -17.045  -0.679  0.00  0.00     0.328 C 
ATOM     20  O   UNL d   1      32.246 -16.545  -1.391  0.00  0.00    -0.261 OA
ATOM     21  H   UNL d   1      30.780 -18.178   0.972  0.00  0.00     0.190 HD
BRANCH  19  22
ATOM     22  C   UNL d   1      29.858 -16.855  -1.024  0.00  0.00     0.315 C 
ATOM     23  O   UNL d   1      29.593 -16.175  -2.012  0.00  0.00    -0.262 OA
ATOM     24  N   UNL d   1      28.921 -17.422  -0.145  0.00  0.00    -0.319 N 
ATOM     25  H   UNL d   1      29.271 -17.781   0.740  0.00  0.00     0.169 HD
BRANCH  24  26
ATOM     26  C   UNL d   1      27.507 -17.319  -0.332  0.00  0.00     0.036 A 
ATOM     27  C   UNL d   1      26.635 -18.218   0.288  0.00  0.00     0.030 A 
ATOM     28  C   UNL d   1      25.244 -18.138   0.108  0.00  0.00     0.011 A 
ATOM     29  C   UNL d   1      24.678 -17.167  -0.726  0.00  0.00    -0.040 A 
ATOM     30  C   UNL d   1      23.182 -17.134  -0.923  0.00  0.00     0.050 C 
ATOM     31  C   UNL d   1      25.549 -16.259  -1.348  0.00  0.00     0.042 A 
ATOM     32 CL   UNL d   1      24.934 -15.062  -2.439  0.00  0.00    -0.084 Cl
ATOM     33  C   UNL d   1      26.946 -16.310  -1.127  0.00  0.00     0.053 A 
ENDBRANCH  24  26
ENDBRANCH  19  22
ENDBRANCH   1  18
TORSDOF 6
ENDMDL
MODEL 3
REMARK VINA RESULT:    -8.071      5.592     11.430
REMARK INTER + INTRA:         -10.919
REMARK INTER:                  -9.861
REMARK INTRA:                  -1.058
REMARK CONF_INDEPENDENT:        1.790
REMARK UNBOUND:                -1.058
REMARK  6 active torsions:
REMARK  status: ('A' for Active; 'I' for Inactive)
REMARK    1  A    between atoms: C_2  and  N_15 
REMARK    2  A    between atoms: C_3  and  C_4 
REMARK       I    between atoms: C_4  and  N_6 
REMARK    3  A    between atoms: N_6  and  C_7 
REMARK    4  A    between atoms: N_15  and  N_16 
REMARK       I    between atoms: N_16  and  C_17 
REMARK    5  A    between atoms: C_17  and  C_19 
REMARK       I    between atoms: C_19  and  N_21 
REMARK    6  A    between atoms: N_21  and  C_22 
ROOT
ATOM      1  N   UNL d   1      33.152 -18.702   1.356  0.00  0.00    -0.302 N 
ATOM      2  H   UNL d   1      33.950 -18.229   0.918  0.00  0.00     0.186 HD
ENDROOT
BRANCH   1   3
ATOM      3  C   UNL d   1      33.428 -19.514   2.476  0.00  0.00     0.027 C 
ATOM      4  C   UNL d   1      34.693 -20.373   2.325  0.00  0.00     0.070 C 
ATOM      5  C   UNL d   1      32.672 -19.546   3.607  0.00  0.00     0.100 C 
BRANCH   5   6
ATOM      6  C   UNL d   1      32.914 -20.450   4.782  0.00  0.00     0.247 C 
ATOM      7  O   UNL d   1      31.982 -20.944   5.413  0.00  0.00    -0.268 OA
ATOM      8  N   UNL d   1      34.231 -20.624   5.187  0.00  0.00    -0.323 N 
ATOM      9  H   UNL d   1      34.868 -19.854   5.025  0.00  0.00     0.169 HD
BRANCH   8  10
ATOM     10  C   UNL d   1      34.492 -21.484   6.300  0.00  0.00     0.042 A 
ATOM     11  C   UNL d   1      34.155 -22.843   6.186  0.00  0.00     0.030 A 
ATOM     12  C   UNL d   1      34.494 -23.744   7.201  0.00  0.00     0.004 A 
ATOM     13  C   UNL d   1      35.139 -23.291   8.347  0.00  0.00     0.024 A 
ATOM     14  C   UNL d   1      35.447 -21.936   8.491  0.00  0.00     0.042 A 
ATOM     15 CL   UNL d   1      36.232 -21.479   9.966  0.00  0.00    -0.084 Cl
ATOM     16  C   UNL d   1      35.123 -21.005   7.483  0.00  0.00    -0.013 A 
ATOM     17  C   UNL d   1      35.378 -19.529   7.683  0.00  0.00     0.052 C 
ENDBRANCH   8  10
ENDBRANCH   5   6
ENDBRANCH   1   3
BRANCH   1  18
ATOM     18  N   UNL d   1      31.905 -18.524   0.712  0.00  0.00    -0.262 N 
ATOM     19  C   UNL d   1      31.632 -17.435  -0.125  0.00  0.00     0.328 C 
ATOM     20  O   UNL d   1      32.417 -16.542  -0.440  0.00  0.00    -0.261 OA
ATOM     21  H   UNL d   1      31.170 -19.202   0.890  0.00  0.00     0.190 HD
BRANCH  19  22
ATOM     22  C   UNL d   1      30.161 -17.431  -0.668  0.00  0.00     0.315 C 
ATOM     23  O   UNL d   1      30.007 -17.687  -1.860  0.00  0.00    -0.262 OA
ATOM     24  N   UNL d   1      29.141 -17.075   0.230  0.00  0.00    -0.319 N 
ATOM     25  H   UNL d   1      29.426 -16.690   1.127  0.00  0.00     0.169 HD
BRANCH  24  26
ATOM     26  C   UNL d   1      27.759 -17.022  -0.132  0.00  0.00     0.036 A 
ATOM     27  C   UNL d   1      26.823 -17.852   0.491  0.00  0.00     0.030 A 
ATOM     28  C   UNL d   1      25.463 -17.820   0.142  0.00  0.00     0.011 A 
ATOM     29  C   UNL d   1      24.995 -16.970  -0.868  0.00  0.00    -0.040 A 
ATOM     30  C   UNL d   1      23.533 -16.989  -1.240  0.00  0.00     0.050 C 
ATOM     31  C   UNL d   1      25.931 -16.132  -1.493  0.00  0.00     0.042 A 
ATOM     32 CL   UNL d   1      25.445 -15.092  -2.790  0.00  0.00    -0.084 Cl
ATOM     33  C   UNL d   1      27.293 -16.130  -1.107  0.00  0.00     0.053 A 
ENDBRANCH  24  26
ENDBRANCH  19  22
ENDBRANCH   1  18
TORSDOF 6
ENDMDL
MODEL 4
REMARK VINA RESULT:    -7.952      9.636     14.405
REMARK INTER + INTRA:         -11.380
REMARK INTER:                  -9.742
REMARK INTRA:                  -1.637
REMARK CONF_INDEPENDENT:        1.790
REMARK UNBOUND:                -1.637
REMARK  6 active torsions:
REMARK  status: ('A' for Active; 'I' for Inactive)
REMARK    1  A    between atoms: C_2  and  N_15 
REMARK    2  A    between atoms: C_3  and  C_4 
REMARK       I    between atoms: C_4  and  N_6 
REMARK    3  A    between atoms: N_6  and  C_7 
REMARK    4  A    between atoms: N_15  and  N_16 
REMARK       I    between atoms: N_16  and  C_17 
REMARK    5  A    between atoms: C_17  and  C_19 
REMARK       I    between atoms: C_19  and  N_21 
REMARK    6  A    between atoms: N_21  and  C_22 
ROOT
ATOM      1  N   UNL d   1      27.349 -16.178  -0.409  0.00  0.00    -0.302 N 
ATOM      2  H   UNL d   1      27.914 -16.312  -1.255  0.00  0.00     0.186 HD
ENDROOT
BRANCH   1   3
ATOM      3  C   UNL d   1      27.793 -15.203   0.508  0.00  0.00     0.027 C 
ATOM      4  C   UNL d   1      28.308 -13.915  -0.155  0.00  0.00     0.070 C 
ATOM      5  C   UNL d   1      27.767 -15.350   1.860  0.00  0.00     0.100 C 
BRANCH   5   6
ATOM      6  C   UNL d   1      28.293 -14.348   2.848  0.00  0.00     0.247 C 
ATOM      7  O   UNL d   1      29.500 -14.155   2.983  0.00  0.00    -0.268 OA
ATOM      8  N   UNL d   1      27.367 -13.722   3.672  0.00  0.00    -0.323 N 
ATOM      9  H   UNL d   1      26.531 -14.245   3.906  0.00  0.00     0.169 HD
BRANCH   8  10
ATOM     10  C   UNL d   1      27.838 -12.759   4.618  0.00  0.00     0.042 A 
ATOM     11  C   UNL d   1      27.747 -11.397   4.285  0.00  0.00     0.030 A 
ATOM     12  C   UNL d   1      28.089 -10.415   5.222  0.00  0.00     0.004 A 
ATOM     13  C   UNL d   1      28.555 -10.784   6.479  0.00  0.00     0.024 A 
ATOM     14  C   UNL d   1      28.687 -12.136   6.810  0.00  0.00     0.042 A 
ATOM     15 CL   UNL d   1      29.295 -12.482   8.395  0.00  0.00    -0.084 Cl
ATOM     16  C   UNL d   1      28.345 -13.147   5.890  0.00  0.00    -0.013 A 
ATOM     17  C   UNL d   1      28.574 -14.604   6.223  0.00  0.00     0.052 C 
ENDBRANCH   8  10
ENDBRANCH   5   6
ENDBRANCH   1   3
BRANCH   1  18
ATOM     18  N   UNL d   1      26.250 -17.057  -0.260  0.00  0.00    -0.262 N 
ATOM     19  C   UNL d   1      25.000 -16.813  -0.841  0.00  0.00     0.328 C 
ATOM     20  O   UNL d   1      24.705 -15.866  -1.569  0.00  0.00    -0.261 OA
ATOM     21  H   UNL d   1      26.369 -17.884   0.318  0.00  0.00     0.190 HD
BRANCH  19  22
ATOM     22  C   UNL d   1      23.931 -17.902  -0.479  0.00  0.00     0.315 C 
ATOM     23  O   UNL d   1      24.350 -19.023  -0.200  0.00  0.00    -0.262 OA
ATOM     24  N   UNL d   1      22.578 -17.531  -0.561  0.00  0.00    -0.319 N 
ATOM     25  H   UNL d   1      22.367 -16.638  -0.999  0.00  0.00     0.169 HD
BRANCH  24  26
ATOM     26  C   UNL d   1      21.501 -18.423  -0.267  0.00  0.00     0.036 A 
ATOM     27  C   UNL d   1      20.597 -18.808  -1.261  0.00  0.00     0.030 A 
ATOM     28  C   UNL d   1      19.527 -19.676  -0.988  0.00  0.00     0.011 A 
ATOM     29  C   UNL d   1      19.309 -20.171   0.303  0.00  0.00    -0.040 A 
ATOM     30  C   UNL d   1      18.128 -21.073   0.566  0.00  0.00     0.050 C 
ATOM     31  C   UNL d   1      20.216 -19.791   1.305  0.00  0.00     0.042 A 
ATOM     32 CL   UNL d   1      19.985 -20.313   2.940  0.00  0.00    -0.084 Cl
ATOM     33  C   UNL d   1      21.322 -18.956   1.018  0.00  0.00     0.053 A 
ENDBRANCH  24  26
ENDBRANCH  19  22
ENDBRANCH   1  18
TORSDOF 6
ENDMDL
MODEL 5
REMARK VINA RESULT:    -7.506      9.915     12.385
REMARK INTER + INTRA:         -11.055
REMARK INTER:                  -9.296
REMARK INTRA:                  -1.759
REMARK CONF_INDEPENDENT:        1.790
REMARK UNBOUND:                -1.759
REMARK  6 active torsions:
REMARK  status: ('A' for Active; 'I' for Inactive)
REMARK    1  A    between atoms: C_2  and  N_15 
REMARK    2  A    between atoms: C_3  and  C_4 
REMARK       I    between atoms: C_4  and  N_6 
REMARK    3  A    between atoms: N_6  and  C_7 
REMARK    4  A    between atoms: N_15  and  N_16 
REMARK       I    between atoms: N_16  and  C_17 
REMARK    5  A    between atoms: C_17  and  C_19 
REMARK       I    between atoms: C_19  and  N_21 
REMARK    6  A    between atoms: N_21  and  C_22 
ROOT
ATOM      1  N   UNL d   1      26.819 -16.120  -0.794  0.00  0.00    -0.302 N 
ATOM      2  H   UNL d   1      26.723 -15.189  -0.372  0.00  0.00     0.186 HD
ENDROOT
BRANCH   1   3
ATOM      3  C   UNL d   1      27.919 -16.320  -1.653  0.00  0.00     0.027 C 
ATOM      4  C   UNL d   1      28.960 -17.313  -1.111  0.00  0.00     0.070 C 
ATOM      5  C   UNL d   1      28.069 -15.718  -2.864  0.00  0.00     0.100 C 
BRANCH   5   6
ATOM      6  C   UNL d   1      29.263 -15.871  -3.763  0.00  0.00     0.247 C 
ATOM      7  O   UNL d   1      30.394 -15.574  -3.382  0.00  0.00    -0.268 OA
ATOM      8  N   UNL d   1      29.025 -16.266  -5.073  0.00  0.00    -0.323 N 
ATOM      9  H   UNL d   1      28.139 -15.995  -5.482  0.00  0.00     0.169 HD
BRANCH   8  10
ATOM     10  C   UNL d   1      30.144 -16.426  -5.950  0.00  0.00     0.042 A 
ATOM     11  C   UNL d   1      30.728 -17.699  -6.059  0.00  0.00     0.030 A 
ATOM     12  C   UNL d   1      31.750 -17.931  -6.987  0.00  0.00     0.004 A 
ATOM     13  C   UNL d   1      32.217 -16.891  -7.784  0.00  0.00     0.024 A 
ATOM     14  C   UNL d   1      31.670 -15.611  -7.659  0.00  0.00     0.042 A 
ATOM     15 CL   UNL d   1      32.339 -14.387  -8.686  0.00  0.00    -0.084 Cl
ATOM     16  C   UNL d   1      30.636 -15.348  -6.737  0.00  0.00    -0.013 A 
ATOM     17  C   UNL d   1      30.112 -13.943  -6.545  0.00  0.00     0.052 C 
ENDBRANCH   8  10
ENDBRANCH   5   6
ENDBRANCH   1   3
BRANCH   1  18
ATOM     18  N   UNL d   1      25.779 -17.035  -0.507  0.00  0.00    -0.262 N 
ATOM     19  C   UNL d   1      24.463 -16.851  -0.950  0.00  0.00     0.328 C 
ATOM     20  O   UNL d   1      24.053 -15.933  -1.659  0.00  0.00    -0.261 OA
ATOM     21  H   UNL d   1      25.993 -17.842   0.071  0.00  0.00     0.190 HD
BRANCH  19  22
ATOM     22  C   UNL d   1      23.484 -17.968  -0.449  0.00  0.00     0.315 C 
ATOM     23  O   UNL d   1      23.992 -18.999  -0.012  0.00  0.00    -0.262 OA
ATOM     24  N   UNL d   1      22.107 -17.734  -0.596  0.00  0.00    -0.319 N 
ATOM     25  H   UNL d   1      21.829 -16.933  -1.157  0.00  0.00     0.169 HD
BRANCH  24  26
ATOM     26  C   UNL d   1      21.104 -18.668  -0.191  0.00  0.00     0.036 A 
ATOM     27  C   UNL d   1      20.173 -19.164  -1.108  0.00  0.00     0.030 A 
ATOM     28  C   UNL d   1      19.175 -20.075  -0.725  0.00  0.00     0.011 A 
ATOM     29  C   UNL d   1      19.057 -20.504   0.602  0.00  0.00    -0.040 A 
ATOM     30  C   UNL d   1      17.950 -21.456   0.983  0.00  0.00     0.050 C 
ATOM     31  C   UNL d   1      19.993 -20.013   1.526  0.00  0.00     0.042 A 
ATOM     32 CL   UNL d   1      19.883 -20.450   3.199  0.00  0.00    -0.084 Cl
ATOM     33  C   UNL d   1      21.028 -19.133   1.130  0.00  0.00     0.053 A 
ENDBRANCH  24  26
ENDBRANCH  19  22
ENDBRANCH   1  18
TORSDOF 6
ENDMDL
MODEL 6
REMARK VINA RESULT:    -7.392     14.352     17.714
REMARK INTER + INTRA:         -10.967
REMARK INTER:                  -9.182
REMARK INTRA:                  -1.785
REMARK CONF_INDEPENDENT:        1.790
REMARK UNBOUND:                -1.785
REMARK  6 active torsions:
REMARK  status: ('A' for Active; 'I' for Inactive)
REMARK    1  A    between atoms: C_2  and  N_15 
REMARK    2  A    between atoms: C_3  and  C_4 
REMARK       I    between atoms: C_4  and  N_6 
REMARK    3  A    between atoms: N_6  and  C_7 
REMARK    4  A    between atoms: N_15  and  N_16 
REMARK       I    between atoms: N_16  and  C_17 
REMARK    5  A    between atoms: C_17  and  C_19 
REMARK       I    between atoms: C_19  and  N_21 
REMARK    6  A    between atoms: N_21  and  C_22 
ROOT
ATOM      1  N   UNL d   1      27.227 -11.340  -4.164  0.00  0.00    -0.302 N 
ATOM      2  H   UNL d   1      28.187 -10.978  -4.195  0.00  0.00     0.186 HD
ENDROOT
BRANCH   1   3
ATOM      3  C   UNL d   1      27.038 -12.593  -3.543  0.00  0.00     0.027 C 
ATOM      4  C   UNL d   1      28.174 -12.993  -2.589  0.00  0.00     0.070 C 
ATOM      5  C   UNL d   1      25.953 -13.391  -3.738  0.00  0.00     0.100 C 
BRANCH   5   6
ATOM      6  C   UNL d   1      25.764 -14.754  -3.135  0.00  0.00     0.247 C 
ATOM      7  O   UNL d   1      25.521 -15.735  -3.835  0.00  0.00    -0.268 OA
ATOM      8  N   UNL d   1      25.775 -14.842  -1.749  0.00  0.00    -0.323 N 
ATOM      9  H   UNL d   1      25.453 -14.032  -1.234  0.00  0.00     0.169 HD
BRANCH   8  10
ATOM     10  C   UNL d   1      25.604 -16.128  -1.148  0.00  0.00     0.042 A 
ATOM     11  C   UNL d   1      26.752 -16.873  -0.828  0.00  0.00     0.030 A 
ATOM     12  C   UNL d   1      26.639 -18.084  -0.137  0.00  0.00     0.004 A 
ATOM     13  C   UNL d   1      25.385 -18.575   0.210  0.00  0.00     0.024 A 
ATOM     14  C   UNL d   1      24.233 -17.863  -0.135  0.00  0.00     0.042 A 
ATOM     15 CL   UNL d   1      22.723 -18.575   0.328  0.00  0.00    -0.084 Cl
ATOM     16  C   UNL d   1      24.314 -16.637  -0.827  0.00  0.00    -0.013 A 
ATOM     17  C   UNL d   1      23.063 -15.918  -1.274  0.00  0.00     0.052 C 
ENDBRANCH   8  10
ENDBRANCH   5   6
ENDBRANCH   1   3
BRANCH   1  18
ATOM     18  N   UNL d   1      26.254 -10.555  -4.824  0.00  0.00    -0.262 N 
ATOM     19  C   UNL d   1      25.624  -9.461  -4.218  0.00  0.00     0.328 C 
ATOM     20  O   UNL d   1      25.851  -9.019  -3.092  0.00  0.00    -0.261 OA
ATOM     21  H   UNL d   1      25.981 -10.817  -5.766  0.00  0.00     0.190 HD
BRANCH  19  22
ATOM     22  C   UNL d   1      24.540  -8.792  -5.132  0.00  0.00     0.315 C 
ATOM     23  O   UNL d   1      24.357  -9.294  -6.239  0.00  0.00    -0.262 OA
ATOM     24  N   UNL d   1      23.906  -7.637  -4.644  0.00  0.00    -0.319 N 
ATOM     25  H   UNL d   1      24.295  -7.213  -3.806  0.00  0.00     0.169 HD
BRANCH  24  26
ATOM     26  C   UNL d   1      22.906  -6.922  -5.374  0.00  0.00     0.036 A 
ATOM     27  C   UNL d   1      21.951  -6.148  -4.710  0.00  0.00     0.030 A 
ATOM     28  C   UNL d   1      20.955  -5.446  -5.411  0.00  0.00     0.011 A 
ATOM     29  C   UNL d   1      20.866  -5.518  -6.806  0.00  0.00    -0.040 A 
ATOM     30  C   UNL d   1      19.761  -4.779  -7.521  0.00  0.00     0.050 C 
ATOM     31  C   UNL d   1      21.827  -6.290  -7.478  0.00  0.00     0.042 A 
ATOM     32 CL   UNL d   1      21.753  -6.476  -9.198  0.00  0.00    -0.084 Cl
ATOM     33  C   UNL d   1      22.858  -6.957  -6.775  0.00  0.00     0.053 A 
ENDBRANCH  24  26
ENDBRANCH  19  22
ENDBRANCH   1  18
TORSDOF 6
ENDMDL
MODEL 7
REMARK VINA RESULT:    -7.344      1.485     11.304
REMARK INTER + INTRA:         -10.830
REMARK INTER:                  -9.134
REMARK INTRA:                  -1.696
REMARK CONF_INDEPENDENT:        1.790
REMARK UNBOUND:                -1.696
REMARK  6 active torsions:
REMARK  status: ('A' for Active; 'I' for Inactive)
REMARK    1  A    between atoms: C_2  and  N_15 
REMARK    2  A    between atoms: C_3  and  C_4 
REMARK       I    between atoms: C_4  and  N_6 
REMARK    3  A    between atoms: N_6  and  C_7 
REMARK    4  A    between atoms: N_15  and  N_16 
REMARK       I    between atoms: N_16  and  C_17 
REMARK    5  A    between atoms: C_17  and  C_19 
REMARK       I    between atoms: C_19  and  N_21 
REMARK    6  A    between atoms: N_21  and  C_22 
ROOT
ATOM      1  N   UNL d   1      31.909 -20.442   1.896  0.00  0.00    -0.302 N 
ATOM      2  H   UNL d   1      31.754 -19.428   1.854  0.00  0.00     0.186 HD
ENDROOT
BRANCH   1   3
ATOM      3  C   UNL d   1      32.461 -20.954   3.089  0.00  0.00     0.027 C 
ATOM      4  C   UNL d   1      33.646 -21.906   2.868  0.00  0.00     0.070 C 
ATOM      5  C   UNL d   1      32.017 -20.640   4.337  0.00  0.00     0.100 C 
BRANCH   5   6
ATOM      6  C   UNL d   1      32.551 -21.224   5.615  0.00  0.00     0.247 C 
ATOM      7  O   UNL d   1      31.807 -21.493   6.556  0.00  0.00    -0.268 OA
ATOM      8  N   UNL d   1      33.929 -21.353   5.726  0.00  0.00    -0.323 N 
ATOM      9  H   UNL d   1      34.497 -20.683   5.222  0.00  0.00     0.169 HD
BRANCH   8  10
ATOM     10  C   UNL d   1      34.465 -21.911   6.929  0.00  0.00     0.042 A 
ATOM     11  C   UNL d   1      34.309 -23.290   7.152  0.00  0.00     0.030 A 
ATOM     12  C   UNL d   1      34.913 -23.901   8.256  0.00  0.00     0.004 A 
ATOM     13  C   UNL d   1      35.646 -23.139   9.160  0.00  0.00     0.024 A 
ATOM     14  C   UNL d   1      35.779 -21.761   8.970  0.00  0.00     0.042 A 
ATOM     15 CL   UNL d   1      36.696 -20.906  10.166  0.00  0.00    -0.084 Cl
ATOM     16  C   UNL d   1      35.186 -21.118   7.864  0.00  0.00    -0.013 A 
ATOM     17  C   UNL d   1      35.259 -19.616   7.714  0.00  0.00     0.052 C 
ENDBRANCH   8  10
ENDBRANCH   5   6
ENDBRANCH   1   3
BRANCH   1  18
ATOM     18  N   UNL d   1      31.616 -21.157   0.712  0.00  0.00    -0.262 N 
ATOM     19  C   UNL d   1      30.582 -22.098   0.630  0.00  0.00     0.328 C 
ATOM     20  O   UNL d   1      29.788 -22.389   1.523  0.00  0.00    -0.261 OA
ATOM     21  H   UNL d   1      32.202 -21.001  -0.103  0.00  0.00     0.190 HD
BRANCH  19  22
ATOM     22  C   UNL d   1      30.498 -22.800  -0.770  0.00  0.00     0.315 C 
ATOM     23  O   UNL d   1      31.126 -22.281  -1.691  0.00  0.00    -0.262 OA
ATOM     24  N   UNL d   1      29.667 -23.926  -0.879  0.00  0.00    -0.319 N 
ATOM     25  H   UNL d   1      29.049 -24.126  -0.096  0.00  0.00     0.169 HD
BRANCH  24  26
ATOM     26  C   UNL d   1      29.491 -24.658  -2.095  0.00  0.00     0.036 A 
ATOM     27  C   UNL d   1      28.345 -25.429  -2.308  0.00  0.00     0.030 A 
ATOM     28  C   UNL d   1      28.160 -26.161  -3.492  0.00  0.00     0.011 A 
ATOM     29  C   UNL d   1      29.133 -26.168  -4.498  0.00  0.00    -0.040 A 
ATOM     30  C   UNL d   1      28.915 -26.995  -5.741  0.00  0.00     0.050 C 
ATOM     31  C   UNL d   1      30.284 -25.391  -4.290  0.00  0.00     0.042 A 
ATOM     32 CL   UNL d   1      31.562 -25.389  -5.460  0.00  0.00    -0.084 Cl
ATOM     33  C   UNL d   1      30.448 -24.615  -3.118  0.00  0.00     0.053 A 
ENDBRANCH  24  26
ENDBRANCH  19  22
ENDBRANCH   1  18
TORSDOF 6
ENDMDL
MODEL 8
REMARK VINA RESULT:    -7.285     10.965     13.267
REMARK INTER + INTRA:         -10.527
REMARK INTER:                  -9.074
REMARK INTRA:                  -1.453
REMARK CONF_INDEPENDENT:        1.790
REMARK UNBOUND:                -1.453
REMARK  6 active torsions:
REMARK  status: ('A' for Active; 'I' for Inactive)
REMARK    1  A    between atoms: C_2  and  N_15 
REMARK    2  A    between atoms: C_3  and  C_4 
REMARK       I    between atoms: C_4  and  N_6 
REMARK    3  A    between atoms: N_6  and  C_7 
REMARK    4  A    between atoms: N_15  and  N_16 
REMARK       I    between atoms: N_16  and  C_17 
REMARK    5  A    between atoms: C_17  and  C_19 
REMARK       I    between atoms: C_19  and  N_21 
REMARK    6  A    between atoms: N_21  and  C_22 
ROOT
ATOM      1  N   UNL d   1      27.324 -16.037   0.248  0.00  0.00    -0.302 N 
ATOM      2  H   UNL d   1      27.701 -15.800   1.172  0.00  0.00     0.186 HD
ENDROOT
BRANCH   1   3
ATOM      3  C   UNL d   1      27.878 -15.364  -0.860  0.00  0.00     0.027 C 
ATOM      4  C   UNL d   1      28.905 -14.284  -0.483  0.00  0.00     0.070 C 
ATOM      5  C   UNL d   1      27.566 -15.631  -2.158  0.00  0.00     0.100 C 
BRANCH   5   6
ATOM      6  C   UNL d   1      28.098 -14.882  -3.346  0.00  0.00     0.247 C 
ATOM      7  O   UNL d   1      29.281 -14.556  -3.419  0.00  0.00    -0.268 OA
ATOM      8  N   UNL d   1      27.181 -14.488  -4.311  0.00  0.00    -0.323 N 
ATOM      9  H   UNL d   1      26.237 -14.297  -3.998  0.00  0.00     0.169 HD
BRANCH   8  10
ATOM     10  C   UNL d   1      27.660 -13.779  -5.456  0.00  0.00     0.042 A 
ATOM     11  C   UNL d   1      28.483 -14.462  -6.367  0.00  0.00     0.030 A 
ATOM     12  C   UNL d   1      28.884 -13.847  -7.559  0.00  0.00     0.004 A 
ATOM     13  C   UNL d   1      28.495 -12.540  -7.832  0.00  0.00     0.024 A 
ATOM     14  C   UNL d   1      27.708 -11.836  -6.918  0.00  0.00     0.042 A 
ATOM     15 CL   UNL d   1      27.299 -10.208  -7.350  0.00  0.00    -0.084 Cl
ATOM     16  C   UNL d   1      27.284 -12.430  -5.712  0.00  0.00    -0.013 A 
ATOM     17  C   UNL d   1      26.509 -11.634  -4.688  0.00  0.00     0.052 C 
ENDBRANCH   8  10
ENDBRANCH   5   6
ENDBRANCH   1   3
BRANCH   1  18
ATOM     18  N   UNL d   1      26.244 -16.952   0.243  0.00  0.00    -0.262 N 
ATOM     19  C   UNL d   1      25.075 -16.740  -0.498  0.00  0.00     0.328 C 
ATOM     20  O   UNL d   1      24.849 -15.794  -1.250  0.00  0.00    -0.261 OA
ATOM     21  H   UNL d   1      26.312 -17.781   0.826  0.00  0.00     0.190 HD
BRANCH  19  22
ATOM     22  C   UNL d   1      24.003 -17.866  -0.289  0.00  0.00     0.315 C 
ATOM     23  O   UNL d   1      24.421 -19.013  -0.150  0.00  0.00    -0.262 OA
ATOM     24  N   UNL d   1      22.651 -17.488  -0.339  0.00  0.00    -0.319 N 
ATOM     25  H   UNL d   1      22.443 -16.546  -0.663  0.00  0.00     0.169 HD
BRANCH  24  26
ATOM     26  C   UNL d   1      21.572 -18.410  -0.173  0.00  0.00     0.036 A 
ATOM     27  C   UNL d   1      20.788 -18.800  -1.264  0.00  0.00     0.030 A 
ATOM     28  C   UNL d   1      19.718 -19.698  -1.117  0.00  0.00     0.011 A 
ATOM     29  C   UNL d   1      19.376 -20.218   0.136  0.00  0.00    -0.040 A 
ATOM     30  C   UNL d   1      18.198 -21.153   0.260  0.00  0.00     0.050 C 
ATOM     31  C   UNL d   1      20.163 -19.833   1.234  0.00  0.00     0.042 A 
ATOM     32 CL   UNL d   1      19.773 -20.388   2.827  0.00  0.00    -0.084 Cl
ATOM     33  C   UNL d   1      21.271 -18.967   1.077  0.00  0.00     0.053 A 
ENDBRANCH  24  26
ENDBRANCH  19  22
ENDBRANCH   1  18
TORSDOF 6
ENDMDL
MODEL 9
REMARK VINA RESULT:    -7.220      5.060      6.390
REMARK INTER + INTRA:         -10.669
REMARK INTER:                  -9.009
REMARK INTRA:                  -1.660
REMARK CONF_INDEPENDENT:        1.790
REMARK UNBOUND:                -1.660
REMARK  6 active torsions:
REMARK  status: ('A' for Active; 'I' for Inactive)
REMARK    1  A    between atoms: C_2  and  N_15 
REMARK    2  A    between atoms: C_3  and  C_4 
REMARK       I    between atoms: C_4  and  N_6 
REMARK    3  A    between atoms: N_6  and  C_7 
REMARK    4  A    between atoms: N_15  and  N_16 
REMARK       I    between atoms: N_16  and  C_17 
REMARK    5  A    between atoms: C_17  and  C_19 
REMARK       I    between atoms: C_19  and  N_21 
REMARK    6  A    between atoms: N_21  and  C_22 
ROOT
ATOM      1  N   UNL d   1      33.135 -18.880   0.279  0.00  0.00    -0.302 N 
ATOM      2  H   UNL d   1      33.869 -18.759  -0.427  0.00  0.00     0.186 HD
ENDROOT
BRANCH   1   3
ATOM      3  C   UNL d   1      31.804 -18.685  -0.144  0.00  0.00     0.027 C 
ATOM      4  C   UNL d   1      31.076 -19.983  -0.529  0.00  0.00     0.070 C 
ATOM      5  C   UNL d   1      31.186 -17.474  -0.203  0.00  0.00     0.100 C 
BRANCH   5   6
ATOM      6  C   UNL d   1      29.791 -17.240  -0.710  0.00  0.00     0.247 C 
ATOM      7  O   UNL d   1      29.517 -17.351  -1.903  0.00  0.00    -0.268 OA
ATOM      8  N   UNL d   1      28.848 -16.796   0.208  0.00  0.00    -0.323 N 
ATOM      9  H   UNL d   1      29.186 -16.235   0.980  0.00  0.00     0.169 HD
BRANCH   8  10
ATOM     10  C   UNL d   1      27.511 -16.570  -0.246  0.00  0.00     0.042 A 
ATOM     11  C   UNL d   1      27.267 -15.466  -1.080  0.00  0.00     0.030 A 
ATOM     12  C   UNL d   1      26.000 -15.269  -1.641  0.00  0.00     0.004 A 
ATOM     13  C   UNL d   1      24.964 -16.148  -1.347  0.00  0.00     0.024 A 
ATOM     14  C   UNL d   1      25.182 -17.229  -0.489  0.00  0.00     0.042 A 
ATOM     15 CL   UNL d   1      23.817 -18.249  -0.176  0.00  0.00    -0.084 Cl
ATOM     16  C   UNL d   1      26.449 -17.457   0.087  0.00  0.00    -0.013 A 
ATOM     17  C   UNL d   1      26.655 -18.575   1.083  0.00  0.00     0.052 C 
ENDBRANCH   8  10
ENDBRANCH   5   6
ENDBRANCH   1   3
BRANCH   1  18
ATOM     18  N   UNL d   1      33.586 -19.148   1.593  0.00  0.00    -0.262 N 
ATOM     19  C   UNL d   1      33.240 -20.313   2.291  0.00  0.00     0.328 C 
ATOM     20  O   UNL d   1      32.563 -21.246   1.862  0.00  0.00    -0.261 OA
ATOM     21  H   UNL d   1      34.159 -18.451   2.058  0.00  0.00     0.190 HD
BRANCH  19  22
ATOM     22  C   UNL d   1      33.813 -20.348   3.750  0.00  0.00     0.315 C 
ATOM     23  O   UNL d   1      34.314 -19.310   4.177  0.00  0.00    -0.262 OA
ATOM     24  N   UNL d   1      33.766 -21.574   4.433  0.00  0.00    -0.319 N 
ATOM     25  H   UNL d   1      33.513 -22.398   3.892  0.00  0.00     0.169 HD
BRANCH  24  26
ATOM     26  C   UNL d   1      34.258 -21.751   5.763  0.00  0.00     0.036 A 
ATOM     27  C   UNL d   1      34.161 -22.989   6.405  0.00  0.00     0.030 A 
ATOM     28  C   UNL d   1      34.631 -23.179   7.715  0.00  0.00     0.011 A 
ATOM     29  C   UNL d   1      35.194 -22.123   8.441  0.00  0.00    -0.040 A 
ATOM     30  C   UNL d   1      35.656 -22.356   9.859  0.00  0.00     0.050 C 
ATOM     31  C   UNL d   1      35.299 -20.879   7.799  0.00  0.00     0.042 A 
ATOM     32 CL   UNL d   1      35.932 -19.508   8.647  0.00  0.00    -0.084 Cl
ATOM     33  C   UNL d   1      34.870 -20.701   6.462  0.00  0.00     0.053 A 
ENDBRANCH  24  26
ENDBRANCH  19  22
ENDBRANCH   1  18
TORSDOF 6
ENDMDL
