MODEL 1
REMARK VINA RESULT:   -11.127      0.000      0.000
REMARK INTER + INTRA:         -16.929
REMARK INTER:                 -15.602
REMARK INTRA:                  -1.327
REMARK CONF_INDEPENDENT:        4.474
REMARK UNBOUND:                -1.327
REMARK  15 active torsions:
REMARK  status: ('A' for Active; 'I' for Inactive)
REMARK    1  A    between atoms: C_2  and  C_35 
REMARK    2  A    between atoms: C_2  and  C_3 
REMARK    3  A    between atoms: C_3  and  C_4 
REMARK       I    between atoms: C_4  and  N_6 
REMARK    4  A    between atoms: N_6  and  C_7 
REMARK    5  A    between atoms: C_9  and  N_10 
REMARK       I    between atoms: N_10  and  C_11 
REMARK    6  A    between atoms: C_11  and  C_13 
REMARK    7  A    between atoms: C_14  and  C_13 
REMARK    8  A    between atoms: C_14  and  C_16 
REMARK    9  A    between atoms: C_16  and  C_17 
REMARK   10  A    between atoms: C_22  and  N_23 
REMARK       I    between atoms: N_23  and  C_24 
REMARK   11  A    between atoms: C_24  and  C_26 
REMARK   12  A    between atoms: C_27  and  C_26 
REMARK   13  A    between atoms: C_27  and  C_29 
REMARK   14  A    between atoms: C_29  and  C_30 
REMARK   15  A    between atoms: C_35  and  C_36 
ROOT
ATOM      1  C   UNL d   1      31.441 -15.166   2.738  0.00  0.00     0.760 A 
ATOM      2  N   UNL d   1      32.246 -16.167   3.002  0.00  0.00     0.132 NA
ATOM      3  C   UNL d   1      32.292 -17.136   2.123  0.00  0.00     0.760 A 
ATOM      4  N   UNL d   1      31.531 -17.190   1.053  0.00  0.00     0.132 NA
ATOM      5  C   UNL d   1      30.780 -16.099   0.909  0.00  0.00     0.760 A 
ATOM      6  N   UNL d   1      30.675 -15.079   1.709  0.00  0.00     0.132 NA
ENDROOT
BRANCH   1   7
ATOM      7  N   UNL d   1      31.348 -14.111   3.606  0.00  0.00    -0.155 N 
ATOM      8  C   UNL d   1      30.379 -14.227   4.547  0.00  0.00     0.236 C 
ATOM      9  O   UNL d   1      29.696 -15.256   4.684  0.00  0.00    -0.273 OA
ATOM     10  H   UNL d   1      32.248 -13.758   3.896  0.00  0.00     0.187 HD
BRANCH   8  11
ATOM     11  C   UNL d   1      30.272 -13.036   5.458  0.00  0.00     0.108 C 
BRANCH  11  12
ATOM     12  C   UNL d   1      28.935 -13.006   6.216  0.00  0.00    -0.009 C 
ATOM     13  C   UNL d   1      27.758 -13.105   5.235  0.00  0.00     0.010 C 
BRANCH  12  14
ATOM     14  C   UNL d   1      28.924 -14.073   7.342  0.00  0.00     0.013 C 
BRANCH  14  15
ATOM     15  C   UNL d   1      29.458 -13.606   8.725  0.00  0.00    -0.051 C 
ATOM     16  C   UNL d   1      28.526 -14.122   9.832  0.00  0.00     0.014 C 
ATOM     17  C   UNL d   1      30.906 -14.044   9.000  0.00  0.00     0.014 C 
ATOM     18  C   UNL d   1      29.492 -12.069   8.766  0.00  0.00     0.014 C 
ENDBRANCH  14  15
ENDBRANCH  12  14
ENDBRANCH  11  12
ENDBRANCH   8  11
ENDBRANCH   1   7
BRANCH   3  19
ATOM     19  N   UNL d   1      33.163 -18.181   2.346  0.00  0.00    -0.155 N 
ATOM     20  C   UNL d   1      32.853 -19.206   3.191  0.00  0.00     0.236 C 
ATOM     21  O   UNL d   1      31.905 -19.250   3.981  0.00  0.00    -0.273 OA
ATOM     22  H   UNL d   1      34.018 -18.155   1.815  0.00  0.00     0.187 HD
BRANCH  20  23
ATOM     23  C   UNL d   1      33.802 -20.358   3.216  0.00  0.00     0.108 C 
BRANCH  23  24
ATOM     24  C   UNL d   1      34.771 -20.591   4.369  0.00  0.00    -0.009 C 
ATOM     25  C   UNL d   1      36.235 -20.578   3.921  0.00  0.00     0.010 C 
BRANCH  24  26
ATOM     26  C   UNL d   1      34.523 -21.960   5.063  0.00  0.00     0.013 C 
BRANCH  26  27
ATOM     27  C   UNL d   1      33.886 -21.956   6.480  0.00  0.00    -0.051 C 
ATOM     28  C   UNL d   1      34.531 -20.849   7.323  0.00  0.00     0.014 C 
ATOM     29  C   UNL d   1      32.355 -21.811   6.468  0.00  0.00     0.014 C 
ATOM     30  C   UNL d   1      34.155 -23.320   7.145  0.00  0.00     0.014 C 
ENDBRANCH  26  27
ENDBRANCH  24  26
ENDBRANCH  23  24
ENDBRANCH  20  23
ENDBRANCH   3  19
BRANCH   5  31
ATOM     31  N   UNL d   1      29.953 -16.121  -0.159  0.00  0.00    -0.155 N 
ATOM     32  C   UNL d   1      28.626 -15.839  -0.152  0.00  0.00     0.236 C 
ATOM     33  O   UNL d   1      27.983 -15.475   0.833  0.00  0.00    -0.273 OA
ATOM     34  H   UNL d   1      30.478 -16.543  -0.881  0.00  0.00     0.187 HD
BRANCH  32  35
ATOM     35  C   UNL d   1      27.914 -15.830  -1.479  0.00  0.00     0.108 C 
BRANCH  35  36
ATOM     36  C   UNL d   1      26.446 -15.428  -1.719  0.00  0.00    -0.009 C 
ATOM     37  C   UNL d   1      26.229 -13.959  -1.991  0.00  0.00     0.010 C 
BRANCH  36  38
ATOM     38  C   UNL d   1      25.547 -15.805  -0.524  0.00  0.00     0.013 C 
BRANCH  38  39
ATOM     39  C   UNL d   1      24.610 -17.013  -0.744  0.00  0.00    -0.051 C 
ATOM     40  C   UNL d   1      25.031 -18.155   0.189  0.00  0.00     0.014 C 
ATOM     41  C   UNL d   1      23.128 -16.698  -0.500  0.00  0.00     0.014 C 
ATOM     42  C   UNL d   1      24.742 -17.450  -2.208  0.00  0.00     0.014 C 
ENDBRANCH  38  39
ENDBRANCH  36  38
ENDBRANCH  35  36
ENDBRANCH  32  35
ENDBRANCH   5  31
TORSDOF 15
ENDMDL
MODEL 2
REMARK VINA RESULT:   -11.036      0.852      1.933
REMARK INTER + INTRA:         -16.645
REMARK INTER:                 -15.510
REMARK INTRA:                  -1.135
REMARK CONF_INDEPENDENT:        4.474
REMARK UNBOUND:                -1.135
REMARK  15 active torsions:
REMARK  status: ('A' for Active; 'I' for Inactive)
REMARK    1  A    between atoms: C_2  and  C_35 
REMARK    2  A    between atoms: C_2  and  C_3 
REMARK    3  A    between atoms: C_3  and  C_4 
REMARK       I    between atoms: C_4  and  N_6 
REMARK    4  A    between atoms: N_6  and  C_7 
REMARK    5  A    between atoms: C_9  and  N_10 
REMARK       I    between atoms: N_10  and  C_11 
REMARK    6  A    between atoms: C_11  and  C_13 
REMARK    7  A    between atoms: C_14  and  C_13 
REMARK    8  A    between atoms: C_14  and  C_16 
REMARK    9  A    between atoms: C_16  and  C_17 
REMARK   10  A    between atoms: C_22  and  N_23 
REMARK       I    between atoms: N_23  and  C_24 
REMARK   11  A    between atoms: C_24  and  C_26 
REMARK   12  A    between atoms: C_27  and  C_26 
REMARK   13  A    between atoms: C_27  and  C_29 
REMARK   14  A    between atoms: C_29  and  C_30 
REMARK   15  A    between atoms: C_35  and  C_36 
ROOT
ATOM      1  C   UNL d   1      31.312 -15.024   2.749  0.00  0.00     0.760 A 
ATOM      2  N   UNL d   1      32.183 -15.971   3.002  0.00  0.00     0.132 NA
ATOM      3  C   UNL d   1      32.280 -16.936   2.122  0.00  0.00     0.760 A 
ATOM      4  N   UNL d   1      31.510 -17.039   1.062  0.00  0.00     0.132 NA
ATOM      5  C   UNL d   1      30.689 -15.998   0.928  0.00  0.00     0.760 A 
ATOM      6  N   UNL d   1      30.529 -14.987   1.730  0.00  0.00     0.132 NA
ENDROOT
BRANCH   1   7
ATOM      7  N   UNL d   1      31.164 -13.976   3.617  0.00  0.00    -0.155 N 
ATOM      8  C   UNL d   1      30.124 -14.092   4.481  0.00  0.00     0.236 C 
ATOM      9  O   UNL d   1      29.424 -15.115   4.554  0.00  0.00    -0.273 OA
ATOM     10  H   UNL d   1      32.042 -13.635   3.979  0.00  0.00     0.187 HD
BRANCH   8  11
ATOM     11  C   UNL d   1      29.959 -12.908   5.393  0.00  0.00     0.108 C 
BRANCH  11  12
ATOM     12  C   UNL d   1      28.726 -13.045   6.300  0.00  0.00    -0.009 C 
ATOM     13  C   UNL d   1      27.469 -13.324   5.462  0.00  0.00     0.010 C 
BRANCH  12  14
ATOM     14  C   UNL d   1      28.989 -14.080   7.425  0.00  0.00     0.013 C 
BRANCH  14  15
ATOM     15  C   UNL d   1      29.274 -13.491   8.836  0.00  0.00    -0.051 C 
ATOM     16  C   UNL d   1      28.530 -14.322   9.894  0.00  0.00     0.014 C 
ATOM     17  C   UNL d   1      30.772 -13.414   9.174  0.00  0.00     0.014 C 
ATOM     18  C   UNL d   1      28.777 -12.037   8.891  0.00  0.00     0.014 C 
ENDBRANCH  14  15
ENDBRANCH  12  14
ENDBRANCH  11  12
ENDBRANCH   8  11
ENDBRANCH   1   7
BRANCH   3  19
ATOM     19  N   UNL d   1      33.220 -17.922   2.333  0.00  0.00    -0.155 N 
ATOM     20  C   UNL d   1      32.985 -18.967   3.179  0.00  0.00     0.236 C 
ATOM     21  O   UNL d   1      32.051 -19.073   3.979  0.00  0.00    -0.273 OA
ATOM     22  H   UNL d   1      34.066 -17.840   1.794  0.00  0.00     0.187 HD
BRANCH  20  23
ATOM     23  C   UNL d   1      34.008 -20.055   3.192  0.00  0.00     0.108 C 
BRANCH  23  24
ATOM     24  C   UNL d   1      34.785 -20.429   4.448  0.00  0.00    -0.009 C 
ATOM     25  C   UNL d   1      36.300 -20.409   4.232  0.00  0.00     0.010 C 
BRANCH  24  26
ATOM     26  C   UNL d   1      34.418 -21.854   4.950  0.00  0.00     0.013 C 
BRANCH  26  27
ATOM     27  C   UNL d   1      33.853 -21.998   6.389  0.00  0.00    -0.051 C 
ATOM     28  C   UNL d   1      32.343 -21.727   6.371  0.00  0.00     0.014 C 
ATOM     29  C   UNL d   1      34.155 -23.360   7.038  0.00  0.00     0.014 C 
ATOM     30  C   UNL d   1      34.542 -20.960   7.296  0.00  0.00     0.014 C 
ENDBRANCH  26  27
ENDBRANCH  24  26
ENDBRANCH  23  24
ENDBRANCH  20  23
ENDBRANCH   3  19
BRANCH   5  31
ATOM     31  N   UNL d   1      29.851 -16.075  -0.129  0.00  0.00    -0.155 N 
ATOM     32  C   UNL d   1      28.504 -16.226  -0.075  0.00  0.00     0.236 C 
ATOM     33  O   UNL d   1      27.835 -16.274   0.958  0.00  0.00    -0.273 OA
ATOM     34  H   UNL d   1      30.440 -16.167  -0.916  0.00  0.00     0.187 HD
BRANCH  32  35
ATOM     35  C   UNL d   1      27.752 -16.189  -1.379  0.00  0.00     0.108 C 
BRANCH  35  36
ATOM     36  C   UNL d   1      26.244 -15.915  -1.550  0.00  0.00    -0.009 C 
ATOM     37  C   UNL d   1      25.339 -16.926  -0.889  0.00  0.00     0.010 C 
BRANCH  36  38
ATOM     38  C   UNL d   1      25.841 -15.850  -3.037  0.00  0.00     0.013 C 
BRANCH  38  39
ATOM     39  C   UNL d   1      26.124 -14.509  -3.752  0.00  0.00    -0.051 C 
ATOM     40  C   UNL d   1      26.790 -13.543  -2.765  0.00  0.00     0.014 C 
ATOM     41  C   UNL d   1      27.020 -14.647  -4.990  0.00  0.00     0.014 C 
ATOM     42  C   UNL d   1      24.783 -13.939  -4.227  0.00  0.00     0.014 C 
ENDBRANCH  38  39
ENDBRANCH  36  38
ENDBRANCH  35  36
ENDBRANCH  32  35
ENDBRANCH   5  31
TORSDOF 15
ENDMDL
MODEL 3
REMARK VINA RESULT:   -10.994      1.109      6.577
REMARK INTER + INTRA:         -16.822
REMARK INTER:                 -15.469
REMARK INTRA:                  -1.353
REMARK CONF_INDEPENDENT:        4.474
REMARK UNBOUND:                -1.353
REMARK  15 active torsions:
REMARK  status: ('A' for Active; 'I' for Inactive)
REMARK    1  A    between atoms: C_2  and  C_35 
REMARK    2  A    between atoms: C_2  and  C_3 
REMARK    3  A    between atoms: C_3  and  C_4 
REMARK       I    between atoms: C_4  and  N_6 
REMARK    4  A    between atoms: N_6  and  C_7 
REMARK    5  A    between atoms: C_9  and  N_10 
REMARK       I    between atoms: N_10  and  C_11 
REMARK    6  A    between atoms: C_11  and  C_13 
REMARK    7  A    between atoms: C_14  and  C_13 
REMARK    8  A    between atoms: C_14  and  C_16 
REMARK    9  A    between atoms: C_16  and  C_17 
REMARK   10  A    between atoms: C_22  and  N_23 
REMARK       I    between atoms: N_23  and  C_24 
REMARK   11  A    between atoms: C_24  and  C_26 
REMARK   12  A    between atoms: C_27  and  C_26 
REMARK   13  A    between atoms: C_27  and  C_29 
REMARK   14  A    between atoms: C_29  and  C_30 
REMARK   15  A    between atoms: C_35  and  C_36 
ROOT
ATOM      1  C   UNL d   1      30.741 -16.372   0.670  0.00  0.00     0.760 A 
ATOM      2  N   UNL d   1      31.606 -17.322   0.933  0.00  0.00     0.132 NA
ATOM      3  C   UNL d   1      32.344 -17.169   2.004  0.00  0.00     0.760 A 
ATOM      4  N   UNL d   1      32.316 -16.099   2.766  0.00  0.00     0.132 NA
ATOM      5  C   UNL d   1      31.379 -15.230   2.386  0.00  0.00     0.760 A 
ATOM      6  N   UNL d   1      30.587 -15.295   1.357  0.00  0.00     0.132 NA
ENDROOT
BRANCH   1   7
ATOM      7  N   UNL d   1      29.926 -16.467  -0.426  0.00  0.00    -0.155 N 
ATOM      8  C   UNL d   1      28.598 -16.401  -0.158  0.00  0.00     0.236 C 
ATOM      9  O   UNL d   1      28.153 -16.164   0.977  0.00  0.00    -0.273 OA
ATOM     10  H   UNL d   1      30.273 -15.954  -1.222  0.00  0.00     0.187 HD
BRANCH   8  11
ATOM     11  C   UNL d   1      27.726 -16.552  -1.374  0.00  0.00     0.108 C 
BRANCH  11  12
ATOM     12  C   UNL d   1      26.281 -16.100  -1.109  0.00  0.00    -0.009 C 
ATOM     13  C   UNL d   1      26.096 -14.627  -1.503  0.00  0.00     0.010 C 
BRANCH  12  14
ATOM     14  C   UNL d   1      25.275 -17.075  -1.776  0.00  0.00     0.013 C 
BRANCH  14  15
ATOM     15  C   UNL d   1      24.100 -17.556  -0.879  0.00  0.00    -0.051 C 
ATOM     16  C   UNL d   1      24.664 -18.197   0.399  0.00  0.00     0.014 C 
ATOM     17  C   UNL d   1      23.107 -16.437  -0.521  0.00  0.00     0.014 C 
ATOM     18  C   UNL d   1      23.267 -18.597  -1.645  0.00  0.00     0.014 C 
ENDBRANCH  14  15
ENDBRANCH  12  14
ENDBRANCH  11  12
ENDBRANCH   8  11
ENDBRANCH   1   7
BRANCH   3  19
ATOM     19  N   UNL d   1      33.230 -18.172   2.337  0.00  0.00    -0.155 N 
ATOM     20  C   UNL d   1      32.898 -19.158   3.219  0.00  0.00     0.236 C 
ATOM     21  O   UNL d   1      31.906 -19.189   3.952  0.00  0.00    -0.273 OA
ATOM     22  H   UNL d   1      34.115 -18.147   1.857  0.00  0.00     0.187 HD
BRANCH  20  23
ATOM     23  C   UNL d   1      33.877 -20.276   3.366  0.00  0.00     0.108 C 
BRANCH  23  24
ATOM     24  C   UNL d   1      34.666 -20.506   4.649  0.00  0.00    -0.009 C 
ATOM     25  C   UNL d   1      36.164 -20.250   4.474  0.00  0.00     0.010 C 
BRANCH  24  26
ATOM     26  C   UNL d   1      34.513 -21.965   5.166  0.00  0.00     0.013 C 
BRANCH  26  27
ATOM     27  C   UNL d   1      33.976 -22.176   6.608  0.00  0.00    -0.051 C 
ATOM     28  C   UNL d   1      34.260 -23.618   7.048  0.00  0.00     0.014 C 
ATOM     29  C   UNL d   1      34.537 -21.173   7.629  0.00  0.00     0.014 C 
ATOM     30  C   UNL d   1      32.453 -21.939   6.606  0.00  0.00     0.014 C 
ENDBRANCH  26  27
ENDBRANCH  24  26
ENDBRANCH  23  24
ENDBRANCH  20  23
ENDBRANCH   3  19
BRANCH   5  31
ATOM     31  N   UNL d   1      31.334 -14.095   3.117  0.00  0.00    -0.155 N 
ATOM     32  C   UNL d   1      30.961 -12.869   2.674  0.00  0.00     0.236 C 
ATOM     33  O   UNL d   1      30.562 -12.617   1.536  0.00  0.00    -0.273 OA
ATOM     34  H   UNL d   1      31.784 -14.321   3.967  0.00  0.00     0.187 HD
BRANCH  32  35
ATOM     35  C   UNL d   1      30.890 -11.759   3.688  0.00  0.00     0.108 C 
BRANCH  35  36
ATOM     36  C   UNL d   1      30.237 -11.843   5.082  0.00  0.00    -0.009 C 
ATOM     37  C   UNL d   1      30.900 -10.997   6.142  0.00  0.00     0.010 C 
BRANCH  36  38
ATOM     38  C   UNL d   1      30.207 -13.291   5.612  0.00  0.00     0.013 C 
BRANCH  38  39
ATOM     39  C   UNL d   1      28.879 -13.739   6.264  0.00  0.00    -0.051 C 
ATOM     40  C   UNL d   1      28.532 -15.152   5.781  0.00  0.00     0.014 C 
ATOM     41  C   UNL d   1      28.912 -13.735   7.798  0.00  0.00     0.014 C 
ATOM     42  C   UNL d   1      27.788 -12.750   5.835  0.00  0.00     0.014 C 
ENDBRANCH  38  39
ENDBRANCH  36  38
ENDBRANCH  35  36
ENDBRANCH  32  35
ENDBRANCH   5  31
TORSDOF 15
ENDMDL
MODEL 4
REMARK VINA RESULT:   -10.912      0.965      8.792
REMARK INTER + INTRA:         -16.469
REMARK INTER:                 -15.387
REMARK INTRA:                  -1.082
REMARK CONF_INDEPENDENT:        4.474
REMARK UNBOUND:                -1.082
REMARK  15 active torsions:
REMARK  status: ('A' for Active; 'I' for Inactive)
REMARK    1  A    between atoms: C_2  and  C_35 
REMARK    2  A    between atoms: C_2  and  C_3 
REMARK    3  A    between atoms: C_3  and  C_4 
REMARK       I    between atoms: C_4  and  N_6 
REMARK    4  A    between atoms: N_6  and  C_7 
REMARK    5  A    between atoms: C_9  and  N_10 
REMARK       I    between atoms: N_10  and  C_11 
REMARK    6  A    between atoms: C_11  and  C_13 
REMARK    7  A    between atoms: C_14  and  C_13 
REMARK    8  A    between atoms: C_14  and  C_16 
REMARK    9  A    between atoms: C_16  and  C_17 
REMARK   10  A    between atoms: C_22  and  N_23 
REMARK       I    between atoms: N_23  and  C_24 
REMARK   11  A    between atoms: C_24  and  C_26 
REMARK   12  A    between atoms: C_27  and  C_26 
REMARK   13  A    between atoms: C_27  and  C_29 
REMARK   14  A    between atoms: C_29  and  C_30 
REMARK   15  A    between atoms: C_35  and  C_36 
ROOT
ATOM      1  C   UNL d   1      31.240 -15.200   2.524  0.00  0.00     0.760 A 
ATOM      2  N   UNL d   1      30.549 -15.198   1.409  0.00  0.00     0.132 NA
ATOM      3  C   UNL d   1      30.692 -16.236   0.624  0.00  0.00     0.760 A 
ATOM      4  N   UNL d   1      31.532 -17.220   0.857  0.00  0.00     0.132 NA
ATOM      5  C   UNL d   1      32.148 -17.094   2.032  0.00  0.00     0.760 A 
ATOM      6  N   UNL d   1      32.064 -16.118   2.887  0.00  0.00     0.132 NA
ENDROOT
BRANCH   1   7
ATOM      7  N   UNL d   1      31.133 -14.154   3.402  0.00  0.00    -0.155 N 
ATOM      8  C   UNL d   1      29.885 -13.939   3.886  0.00  0.00     0.236 C 
ATOM      9  O   UNL d   1      28.930 -14.694   3.640  0.00  0.00    -0.273 OA
ATOM     10  H   UNL d   1      31.906 -14.101   4.048  0.00  0.00     0.187 HD
BRANCH   8  11
ATOM     11  C   UNL d   1      29.788 -12.759   4.813  0.00  0.00     0.108 C 
BRANCH  11  12
ATOM     12  C   UNL d   1      28.812 -13.012   5.972  0.00  0.00    -0.009 C 
ATOM     13  C   UNL d   1      27.407 -13.321   5.434  0.00  0.00     0.010 C 
BRANCH  12  14
ATOM     14  C   UNL d   1      29.380 -14.085   6.938  0.00  0.00     0.013 C 
BRANCH  14  15
ATOM     15  C   UNL d   1      29.424 -13.689   8.441  0.00  0.00    -0.051 C 
ATOM     16  C   UNL d   1      28.626 -12.392   8.650  0.00  0.00     0.014 C 
ATOM     17  C   UNL d   1      28.904 -14.792   9.378  0.00  0.00     0.014 C 
ATOM     18  C   UNL d   1      30.884 -13.461   8.866  0.00  0.00     0.014 C 
ENDBRANCH  14  15
ENDBRANCH  12  14
ENDBRANCH  11  12
ENDBRANCH   8  11
ENDBRANCH   1   7
BRANCH   3  19
ATOM     19  N   UNL d   1      29.945 -16.289  -0.533  0.00  0.00    -0.155 N 
ATOM     20  C   UNL d   1      28.606 -16.550  -0.511  0.00  0.00     0.236 C 
ATOM     21  O   UNL d   1      27.948 -16.949   0.453  0.00  0.00    -0.273 OA
ATOM     22  H   UNL d   1      30.444 -16.084  -1.383  0.00  0.00     0.187 HD
BRANCH  20  23
ATOM     23  C   UNL d   1      27.880 -16.412  -1.809  0.00  0.00     0.108 C 
BRANCH  23  24
ATOM     24  C   UNL d   1      26.500 -15.775  -1.908  0.00  0.00    -0.009 C 
ATOM     25  C   UNL d   1      25.389 -16.689  -1.386  0.00  0.00     0.010 C 
BRANCH  24  26
ATOM     26  C   UNL d   1      26.136 -15.413  -3.376  0.00  0.00     0.013 C 
BRANCH  26  27
ATOM     27  C   UNL d   1      25.936 -13.914  -3.730  0.00  0.00    -0.051 C 
ATOM     28  C   UNL d   1      24.508 -13.700  -4.247  0.00  0.00     0.014 C 
ATOM     29  C   UNL d   1      26.244 -12.957  -2.565  0.00  0.00     0.014 C 
ATOM     30  C   UNL d   1      26.936 -13.532  -4.839  0.00  0.00     0.014 C 
ENDBRANCH  26  27
ENDBRANCH  24  26
ENDBRANCH  23  24
ENDBRANCH  20  23
ENDBRANCH   3  19
BRANCH   5  31
ATOM     31  N   UNL d   1      33.050 -18.063   2.301  0.00  0.00    -0.155 N 
ATOM     32  C   UNL d   1      32.922 -19.042   3.231  0.00  0.00     0.236 C 
ATOM     33  O   UNL d   1      31.934 -19.218   3.945  0.00  0.00    -0.273 OA
ATOM     34  H   UNL d   1      33.864 -17.800   1.807  0.00  0.00     0.187 HD
BRANCH  32  35
ATOM     35  C   UNL d   1      34.010 -20.080   3.297  0.00  0.00     0.108 C 
BRANCH  35  36
ATOM     36  C   UNL d   1      34.826 -20.463   4.547  0.00  0.00    -0.009 C 
ATOM     37  C   UNL d   1      36.323 -20.408   4.366  0.00  0.00     0.010 C 
BRANCH  36  38
ATOM     38  C   UNL d   1      34.482 -21.883   5.041  0.00  0.00     0.013 C 
BRANCH  38  39
ATOM     39  C   UNL d   1      33.875 -21.972   6.459  0.00  0.00    -0.051 C 
ATOM     40  C   UNL d   1      34.532 -20.916   7.356  0.00  0.00     0.014 C 
ATOM     41  C   UNL d   1      32.354 -21.770   6.493  0.00  0.00     0.014 C 
ATOM     42  C   UNL d   1      34.156 -23.378   7.003  0.00  0.00     0.014 C 
ENDBRANCH  38  39
ENDBRANCH  36  38
ENDBRANCH  35  36
ENDBRANCH  32  35
ENDBRANCH   5  31
TORSDOF 15
ENDMDL
MODEL 5
REMARK VINA RESULT:   -10.903      0.490      8.322
REMARK INTER + INTRA:         -16.633
REMARK INTER:                 -15.377
REMARK INTRA:                  -1.255
REMARK CONF_INDEPENDENT:        4.474
REMARK UNBOUND:                -1.255
REMARK  15 active torsions:
REMARK  status: ('A' for Active; 'I' for Inactive)
REMARK    1  A    between atoms: C_2  and  C_35 
REMARK    2  A    between atoms: C_2  and  C_3 
REMARK    3  A    between atoms: C_3  and  C_4 
REMARK       I    between atoms: C_4  and  N_6 
REMARK    4  A    between atoms: N_6  and  C_7 
REMARK    5  A    between atoms: C_9  and  N_10 
REMARK       I    between atoms: N_10  and  C_11 
REMARK    6  A    between atoms: C_11  and  C_13 
REMARK    7  A    between atoms: C_14  and  C_13 
REMARK    8  A    between atoms: C_14  and  C_16 
REMARK    9  A    between atoms: C_16  and  C_17 
REMARK   10  A    between atoms: C_22  and  N_23 
REMARK       I    between atoms: N_23  and  C_24 
REMARK   11  A    between atoms: C_24  and  C_26 
REMARK   12  A    between atoms: C_27  and  C_26 
REMARK   13  A    between atoms: C_27  and  C_29 
REMARK   14  A    between atoms: C_29  and  C_30 
REMARK   15  A    between atoms: C_35  and  C_36 
ROOT
ATOM      1  C   UNL d   1      31.412 -15.204   2.509  0.00  0.00     0.760 A 
ATOM      2  N   UNL d   1      30.663 -15.214   1.432  0.00  0.00     0.132 NA
ATOM      3  C   UNL d   1      30.722 -16.285   0.681  0.00  0.00     0.760 A 
ATOM      4  N   UNL d   1      31.533 -17.294   0.908  0.00  0.00     0.132 NA
ATOM      5  C   UNL d   1      32.217 -17.151   2.043  0.00  0.00     0.760 A 
ATOM      6  N   UNL d   1      32.217 -16.142   2.863  0.00  0.00     0.132 NA
ENDROOT
BRANCH   1   7
ATOM      7  N   UNL d   1      31.394 -14.123   3.349  0.00  0.00    -0.155 N 
ATOM      8  C   UNL d   1      30.174 -13.809   3.851  0.00  0.00     0.236 C 
ATOM      9  O   UNL d   1      29.166 -14.508   3.652  0.00  0.00    -0.273 OA
ATOM     10  H   UNL d   1      32.183 -14.099   3.978  0.00  0.00     0.187 HD
BRANCH   8  11
ATOM     11  C   UNL d   1      30.176 -12.594   4.736  0.00  0.00     0.108 C 
BRANCH  11  12
ATOM     12  C   UNL d   1      29.242 -12.756   5.945  0.00  0.00    -0.009 C 
ATOM     13  C   UNL d   1      27.781 -12.871   5.484  0.00  0.00     0.010 C 
BRANCH  12  14
ATOM     14  C   UNL d   1      29.722 -13.919   6.852  0.00  0.00     0.013 C 
BRANCH  14  15
ATOM     15  C   UNL d   1      29.778 -13.612   8.375  0.00  0.00    -0.051 C 
ATOM     16  C   UNL d   1      29.335 -12.161   8.619  0.00  0.00     0.014 C 
ATOM     17  C   UNL d   1      28.935 -14.578   9.224  0.00  0.00     0.014 C 
ATOM     18  C   UNL d   1      31.220 -13.794   8.879  0.00  0.00     0.014 C 
ENDBRANCH  14  15
ENDBRANCH  12  14
ENDBRANCH  11  12
ENDBRANCH   8  11
ENDBRANCH   1   7
BRANCH   3  19
ATOM     19  N   UNL d   1      29.913 -16.349  -0.433  0.00  0.00    -0.155 N 
ATOM     20  C   UNL d   1      28.554 -16.421  -0.330  0.00  0.00     0.236 C 
ATOM     21  O   UNL d   1      27.903 -16.630   0.698  0.00  0.00    -0.273 OA
ATOM     22  H   UNL d   1      30.388 -16.298  -1.319  0.00  0.00     0.187 HD
BRANCH  20  23
ATOM     23  C   UNL d   1      27.783 -16.314  -1.604  0.00  0.00     0.108 C 
BRANCH  23  24
ATOM     24  C   UNL d   1      26.507 -15.489  -1.718  0.00  0.00    -0.009 C 
ATOM     25  C   UNL d   1      26.776 -13.983  -1.716  0.00  0.00     0.010 C 
BRANCH  24  26
ATOM     26  C   UNL d   1      25.528 -15.776  -0.544  0.00  0.00     0.013 C 
BRANCH  26  27
ATOM     27  C   UNL d   1      24.461 -16.888  -0.738  0.00  0.00    -0.051 C 
ATOM     28  C   UNL d   1      23.081 -16.337  -0.360  0.00  0.00     0.014 C 
ATOM     29  C   UNL d   1      24.441 -17.484  -2.156  0.00  0.00     0.014 C 
ATOM     30  C   UNL d   1      24.806 -18.069   0.190  0.00  0.00     0.014 C 
ENDBRANCH  26  27
ENDBRANCH  24  26
ENDBRANCH  23  24
ENDBRANCH  20  23
ENDBRANCH   3  19
BRANCH   5  31
ATOM     31  N   UNL d   1      33.092 -18.146   2.303  0.00  0.00    -0.155 N 
ATOM     32  C   UNL d   1      32.944 -19.123   3.233  0.00  0.00     0.236 C 
ATOM     33  O   UNL d   1      31.958 -19.271   3.956  0.00  0.00    -0.273 OA
ATOM     34  H   UNL d   1      33.908 -17.906   1.801  0.00  0.00     0.187 HD
BRANCH  32  35
ATOM     35  C   UNL d   1      34.002 -20.192   3.286  0.00  0.00     0.108 C 
BRANCH  35  36
ATOM     36  C   UNL d   1      34.814 -20.605   4.529  0.00  0.00    -0.009 C 
ATOM     37  C   UNL d   1      36.309 -20.645   4.323  0.00  0.00     0.010 C 
BRANCH  36  38
ATOM     38  C   UNL d   1      34.392 -21.993   5.053  0.00  0.00     0.013 C 
BRANCH  38  39
ATOM     39  C   UNL d   1      33.888 -22.035   6.513  0.00  0.00    -0.051 C 
ATOM     40  C   UNL d   1      32.364 -21.870   6.526  0.00  0.00     0.014 C 
ATOM     41  C   UNL d   1      34.251 -23.329   7.254  0.00  0.00     0.014 C 
ATOM     42  C   UNL d   1      34.552 -20.880   7.272  0.00  0.00     0.014 C 
ENDBRANCH  38  39
ENDBRANCH  36  38
ENDBRANCH  35  36
ENDBRANCH  32  35
ENDBRANCH   5  31
TORSDOF 15
ENDMDL
MODEL 6
REMARK VINA RESULT:   -10.738      1.567      9.177
REMARK INTER + INTRA:         -16.937
REMARK INTER:                 -15.213
REMARK INTRA:                  -1.724
REMARK CONF_INDEPENDENT:        4.474
REMARK UNBOUND:                -1.724
REMARK  15 active torsions:
REMARK  status: ('A' for Active; 'I' for Inactive)
REMARK    1  A    between atoms: C_2  and  C_35 
REMARK    2  A    between atoms: C_2  and  C_3 
REMARK    3  A    between atoms: C_3  and  C_4 
REMARK       I    between atoms: C_4  and  N_6 
REMARK    4  A    between atoms: N_6  and  C_7 
REMARK    5  A    between atoms: C_9  and  N_10 
REMARK       I    between atoms: N_10  and  C_11 
REMARK    6  A    between atoms: C_11  and  C_13 
REMARK    7  A    between atoms: C_14  and  C_13 
REMARK    8  A    between atoms: C_14  and  C_16 
REMARK    9  A    between atoms: C_16  and  C_17 
REMARK   10  A    between atoms: C_22  and  N_23 
REMARK       I    between atoms: N_23  and  C_24 
REMARK   11  A    between atoms: C_24  and  C_26 
REMARK   12  A    between atoms: C_27  and  C_26 
REMARK   13  A    between atoms: C_27  and  C_29 
REMARK   14  A    between atoms: C_29  and  C_30 
REMARK   15  A    between atoms: C_35  and  C_36 
ROOT
ATOM      1  C   UNL d   1      30.813 -16.543   0.605  0.00  0.00     0.760 A 
ATOM      2  N   UNL d   1      30.808 -15.469   1.358  0.00  0.00     0.132 NA
ATOM      3  C   UNL d   1      31.630 -15.458   2.377  0.00  0.00     0.760 A 
ATOM      4  N   UNL d   1      32.386 -16.478   2.719  0.00  0.00     0.132 NA
ATOM      5  C   UNL d   1      32.298 -17.487   1.853  0.00  0.00     0.760 A 
ATOM      6  N   UNL d   1      31.532 -17.590   0.808  0.00  0.00     0.132 NA
ENDROOT
BRANCH   1   7
ATOM      7  N   UNL d   1      29.989 -16.622  -0.486  0.00  0.00    -0.155 N 
ATOM      8  C   UNL d   1      28.683 -16.356  -0.237  0.00  0.00     0.236 C 
ATOM      9  O   UNL d   1      28.277 -15.965   0.870  0.00  0.00    -0.273 OA
ATOM     10  H   UNL d   1      30.400 -16.230  -1.320  0.00  0.00     0.187 HD
BRANCH   8  11
ATOM     11  C   UNL d   1      27.795 -16.492  -1.442  0.00  0.00     0.108 C 
BRANCH  11  12
ATOM     12  C   UNL d   1      26.323 -16.196  -1.113  0.00  0.00    -0.009 C 
ATOM     13  C   UNL d   1      25.937 -14.789  -1.595  0.00  0.00     0.010 C 
BRANCH  12  14
ATOM     14  C   UNL d   1      25.407 -17.329  -1.645  0.00  0.00     0.013 C 
BRANCH  14  15
ATOM     15  C   UNL d   1      24.148 -17.641  -0.788  0.00  0.00    -0.051 C 
ATOM     16  C   UNL d   1      23.242 -18.619  -1.552  0.00  0.00     0.014 C 
ATOM     17  C   UNL d   1      24.481 -18.200   0.606  0.00  0.00     0.014 C 
ATOM     18  C   UNL d   1      23.377 -16.338  -0.521  0.00  0.00     0.014 C 
ENDBRANCH  14  15
ENDBRANCH  12  14
ENDBRANCH  11  12
ENDBRANCH   8  11
ENDBRANCH   1   7
BRANCH   3  19
ATOM     19  N   UNL d   1      31.685 -14.326   3.162  0.00  0.00    -0.155 N 
ATOM     20  C   UNL d   1      31.579 -13.076   2.625  0.00  0.00     0.236 C 
ATOM     21  O   UNL d   1      31.620 -12.781   1.427  0.00  0.00    -0.273 OA
ATOM     22  H   UNL d   1      31.767 -14.486   4.152  0.00  0.00     0.187 HD
BRANCH  20  23
ATOM     23  C   UNL d   1      31.483 -11.942   3.592  0.00  0.00     0.108 C 
BRANCH  23  24
ATOM     24  C   UNL d   1      30.212 -11.646   4.378  0.00  0.00    -0.009 C 
ATOM     25  C   UNL d   1      30.342 -10.408   5.267  0.00  0.00     0.010 C 
BRANCH  24  26
ATOM     26  C   UNL d   1      29.818 -12.830   5.306  0.00  0.00     0.013 C 
BRANCH  26  27
ATOM     27  C   UNL d   1      28.583 -13.687   4.913  0.00  0.00    -0.051 C 
ATOM     28  C   UNL d   1      27.405 -13.327   5.826  0.00  0.00     0.014 C 
ATOM     29  C   UNL d   1      28.187 -13.556   3.433  0.00  0.00     0.014 C 
ATOM     30  C   UNL d   1      28.935 -15.175   5.105  0.00  0.00     0.014 C 
ENDBRANCH  26  27
ENDBRANCH  24  26
ENDBRANCH  23  24
ENDBRANCH  20  23
ENDBRANCH   3  19
BRANCH   5  31
ATOM     31  N   UNL d   1      33.030 -18.574   2.180  0.00  0.00    -0.155 N 
ATOM     32  C   UNL d   1      32.825 -19.389   3.245  0.00  0.00     0.236 C 
ATOM     33  O   UNL d   1      31.905 -19.279   4.056  0.00  0.00    -0.273 OA
ATOM     34  H   UNL d   1      33.819 -18.538   1.588  0.00  0.00     0.187 HD
BRANCH  32  35
ATOM     35  C   UNL d   1      33.704 -20.605   3.365  0.00  0.00     0.108 C 
BRANCH  35  36
ATOM     36  C   UNL d   1      34.742 -20.870   4.473  0.00  0.00    -0.009 C 
ATOM     37  C   UNL d   1      36.181 -20.807   4.021  0.00  0.00     0.010 C 
BRANCH  36  38
ATOM     38  C   UNL d   1      34.534 -22.250   5.131  0.00  0.00     0.013 C 
BRANCH  38  39
ATOM     39  C   UNL d   1      34.016 -22.227   6.587  0.00  0.00    -0.051 C 
ATOM     40  C   UNL d   1      32.508 -21.950   6.581  0.00  0.00     0.014 C 
ATOM     41  C   UNL d   1      34.275 -23.530   7.354  0.00  0.00     0.014 C 
ATOM     42  C   UNL d   1      34.756 -21.110   7.332  0.00  0.00     0.014 C 
ENDBRANCH  38  39
ENDBRANCH  36  38
ENDBRANCH  35  36
ENDBRANCH  32  35
ENDBRANCH   5  31
TORSDOF 15
ENDMDL
MODEL 7
REMARK VINA RESULT:   -10.413      1.235      8.675
REMARK INTER + INTRA:         -16.434
REMARK INTER:                 -14.888
REMARK INTRA:                  -1.546
REMARK CONF_INDEPENDENT:        4.474
REMARK UNBOUND:                -1.546
REMARK  15 active torsions:
REMARK  status: ('A' for Active; 'I' for Inactive)
REMARK    1  A    between atoms: C_2  and  C_35 
REMARK    2  A    between atoms: C_2  and  C_3 
REMARK    3  A    between atoms: C_3  and  C_4 
REMARK       I    between atoms: C_4  and  N_6 
REMARK    4  A    between atoms: N_6  and  C_7 
REMARK    5  A    between atoms: C_9  and  N_10 
REMARK       I    between atoms: N_10  and  C_11 
REMARK    6  A    between atoms: C_11  and  C_13 
REMARK    7  A    between atoms: C_14  and  C_13 
REMARK    8  A    between atoms: C_14  and  C_16 
REMARK    9  A    between atoms: C_16  and  C_17 
REMARK   10  A    between atoms: C_22  and  N_23 
REMARK       I    between atoms: N_23  and  C_24 
REMARK   11  A    between atoms: C_24  and  C_26 
REMARK   12  A    between atoms: C_27  and  C_26 
REMARK   13  A    between atoms: C_27  and  C_29 
REMARK   14  A    between atoms: C_29  and  C_30 
REMARK   15  A    between atoms: C_35  and  C_36 
ROOT
ATOM      1  C   UNL d   1      31.385 -15.200   2.515  0.00  0.00     0.760 A 
ATOM      2  N   UNL d   1      30.617 -15.259   1.454  0.00  0.00     0.132 NA
ATOM      3  C   UNL d   1      30.716 -16.333   0.712  0.00  0.00     0.760 A 
ATOM      4  N   UNL d   1      31.582 -17.297   0.931  0.00  0.00     0.132 NA
ATOM      5  C   UNL d   1      32.280 -17.107   2.051  0.00  0.00     0.760 A 
ATOM      6  N   UNL d   1      32.245 -16.091   2.862  0.00  0.00     0.132 NA
ENDROOT
BRANCH   1   7
ATOM      7  N   UNL d   1      31.329 -14.112   3.346  0.00  0.00    -0.155 N 
ATOM      8  C   UNL d   1      30.096 -13.830   3.835  0.00  0.00     0.236 C 
ATOM      9  O   UNL d   1      29.111 -14.559   3.633  0.00  0.00    -0.273 OA
ATOM     10  H   UNL d   1      32.111 -14.060   3.981  0.00  0.00     0.187 HD
BRANCH   8  11
ATOM     11  C   UNL d   1      30.055 -12.607   4.709  0.00  0.00     0.108 C 
BRANCH  11  12
ATOM     12  C   UNL d   1      28.638 -12.309   5.222  0.00  0.00    -0.009 C 
ATOM     13  C   UNL d   1      28.619 -12.268   6.757  0.00  0.00     0.010 C 
BRANCH  12  14
ATOM     14  C   UNL d   1      28.067 -11.039   4.539  0.00  0.00     0.013 C 
BRANCH  14  15
ATOM     15  C   UNL d   1      27.579 -11.217   3.073  0.00  0.00    -0.051 C 
ATOM     16  C   UNL d   1      27.029 -12.641   2.889  0.00  0.00     0.014 C 
ATOM     17  C   UNL d   1      26.526 -10.180   2.649  0.00  0.00     0.014 C 
ATOM     18  C   UNL d   1      28.760 -11.001   2.113  0.00  0.00     0.014 C 
ENDBRANCH  14  15
ENDBRANCH  12  14
ENDBRANCH  11  12
ENDBRANCH   8  11
ENDBRANCH   1   7
BRANCH   3  19
ATOM     19  N   UNL d   1      29.888 -16.450  -0.384  0.00  0.00    -0.155 N 
ATOM     20  C   UNL d   1      28.556 -16.163  -0.311  0.00  0.00     0.236 C 
ATOM     21  O   UNL d   1      27.899 -15.967   0.714  0.00  0.00    -0.273 OA
ATOM     22  H   UNL d   1      30.340 -16.720  -1.243  0.00  0.00     0.187 HD
BRANCH  20  23
ATOM     23  C   UNL d   1      27.804 -16.164  -1.601  0.00  0.00     0.108 C 
BRANCH  23  24
ATOM     24  C   UNL d   1      26.426 -15.531  -1.742  0.00  0.00    -0.009 C 
ATOM     25  C   UNL d   1      26.484 -14.005  -1.836  0.00  0.00     0.010 C 
BRANCH  24  26
ATOM     26  C   UNL d   1      25.507 -15.876  -0.536  0.00  0.00     0.013 C 
BRANCH  26  27
ATOM     27  C   UNL d   1      24.423 -16.971  -0.732  0.00  0.00    -0.051 C 
ATOM     28  C   UNL d   1      24.726 -18.155   0.195  0.00  0.00     0.014 C 
ATOM     29  C   UNL d   1      22.987 -16.464  -0.517  0.00  0.00     0.014 C 
ATOM     30  C   UNL d   1      24.466 -17.450  -2.196  0.00  0.00     0.014 C 
ENDBRANCH  26  27
ENDBRANCH  24  26
ENDBRANCH  23  24
ENDBRANCH  20  23
ENDBRANCH   3  19
BRANCH   5  31
ATOM     31  N   UNL d   1      33.210 -18.054   2.302  0.00  0.00    -0.155 N 
ATOM     32  C   UNL d   1      33.122 -19.040   3.229  0.00  0.00     0.236 C 
ATOM     33  O   UNL d   1      32.150 -19.244   3.957  0.00  0.00    -0.273 OA
ATOM     34  H   UNL d   1      34.009 -17.767   1.797  0.00  0.00     0.187 HD
BRANCH  32  35
ATOM     35  C   UNL d   1      34.238 -20.049   3.272  0.00  0.00     0.108 C 
BRANCH  35  36
ATOM     36  C   UNL d   1      34.934 -20.581   4.541  0.00  0.00    -0.009 C 
ATOM     37  C   UNL d   1      36.428 -20.753   4.417  0.00  0.00     0.010 C 
BRANCH  36  38
ATOM     38  C   UNL d   1      34.356 -21.941   4.982  0.00  0.00     0.013 C 
BRANCH  38  39
ATOM     39  C   UNL d   1      33.890 -22.027   6.453  0.00  0.00    -0.051 C 
ATOM     40  C   UNL d   1      34.216 -23.420   7.005  0.00  0.00     0.014 C 
ATOM     41  C   UNL d   1      34.531 -20.972   7.366  0.00  0.00     0.014 C 
ATOM     42  C   UNL d   1      32.376 -21.787   6.481  0.00  0.00     0.014 C 
ENDBRANCH  38  39
ENDBRANCH  36  38
ENDBRANCH  35  36
ENDBRANCH  32  35
ENDBRANCH   5  31
TORSDOF 15
ENDMDL
MODEL 8
REMARK VINA RESULT:   -10.234      1.352      3.092
REMARK INTER + INTRA:         -16.584
REMARK INTER:                 -14.708
REMARK INTRA:                  -1.876
REMARK CONF_INDEPENDENT:        4.474
REMARK UNBOUND:                -1.876
REMARK  15 active torsions:
REMARK  status: ('A' for Active; 'I' for Inactive)
REMARK    1  A    between atoms: C_2  and  C_35 
REMARK    2  A    between atoms: C_2  and  C_3 
REMARK    3  A    between atoms: C_3  and  C_4 
REMARK       I    between atoms: C_4  and  N_6 
REMARK    4  A    between atoms: N_6  and  C_7 
REMARK    5  A    between atoms: C_9  and  N_10 
REMARK       I    between atoms: N_10  and  C_11 
REMARK    6  A    between atoms: C_11  and  C_13 
REMARK    7  A    between atoms: C_14  and  C_13 
REMARK    8  A    between atoms: C_14  and  C_16 
REMARK    9  A    between atoms: C_16  and  C_17 
REMARK   10  A    between atoms: C_22  and  N_23 
REMARK       I    between atoms: N_23  and  C_24 
REMARK   11  A    between atoms: C_24  and  C_26 
REMARK   12  A    between atoms: C_27  and  C_26 
REMARK   13  A    between atoms: C_27  and  C_29 
REMARK   14  A    between atoms: C_29  and  C_30 
REMARK   15  A    between atoms: C_35  and  C_36 
ROOT
ATOM      1  C   UNL d   1      31.306 -15.058   2.760  0.00  0.00     0.760 A 
ATOM      2  N   UNL d   1      32.168 -16.013   3.013  0.00  0.00     0.132 NA
ATOM      3  C   UNL d   1      32.265 -16.972   2.125  0.00  0.00     0.760 A 
ATOM      4  N   UNL d   1      31.503 -17.060   1.058  0.00  0.00     0.132 NA
ATOM      5  C   UNL d   1      30.690 -16.012   0.926  0.00  0.00     0.760 A 
ATOM      6  N   UNL d   1      30.531 -15.007   1.735  0.00  0.00     0.132 NA
ENDROOT
BRANCH   1   7
ATOM      7  N   UNL d   1      31.157 -14.016   3.636  0.00  0.00    -0.155 N 
ATOM      8  C   UNL d   1      30.076 -14.104   4.451  0.00  0.00     0.236 C 
ATOM      9  O   UNL d   1      29.336 -15.100   4.478  0.00  0.00    -0.273 OA
ATOM     10  H   UNL d   1      32.030 -13.714   4.042  0.00  0.00     0.187 HD
BRANCH   8  11
ATOM     11  C   UNL d   1      29.914 -12.926   5.372  0.00  0.00     0.108 C 
BRANCH  11  12
ATOM     12  C   UNL d   1      28.464 -12.420   5.414  0.00  0.00    -0.009 C 
ATOM     13  C   UNL d   1      28.118 -11.895   6.815  0.00  0.00     0.010 C 
BRANCH  12  14
ATOM     14  C   UNL d   1      28.207 -11.408   4.267  0.00  0.00     0.013 C 
BRANCH  14  15
ATOM     15  C   UNL d   1      27.720 -12.016   2.922  0.00  0.00    -0.051 C 
ATOM     16  C   UNL d   1      28.910 -12.133   1.956  0.00  0.00     0.014 C 
ATOM     17  C   UNL d   1      27.027 -13.379   3.083  0.00  0.00     0.014 C 
ATOM     18  C   UNL d   1      26.654 -11.097   2.303  0.00  0.00     0.014 C 
ENDBRANCH  14  15
ENDBRANCH  12  14
ENDBRANCH  11  12
ENDBRANCH   8  11
ENDBRANCH   1   7
BRANCH   3  19
ATOM     19  N   UNL d   1      33.195 -17.967   2.336  0.00  0.00    -0.155 N 
ATOM     20  C   UNL d   1      32.943 -19.021   3.164  0.00  0.00     0.236 C 
ATOM     21  O   UNL d   1      31.997 -19.133   3.949  0.00  0.00    -0.273 OA
ATOM     22  H   UNL d   1      34.050 -17.882   1.810  0.00  0.00     0.187 HD
BRANCH  20  23
ATOM     23  C   UNL d   1      33.959 -20.116   3.176  0.00  0.00     0.108 C 
BRANCH  23  24
ATOM     24  C   UNL d   1      34.769 -20.462   4.418  0.00  0.00    -0.009 C 
ATOM     25  C   UNL d   1      36.277 -20.463   4.158  0.00  0.00     0.010 C 
BRANCH  24  26
ATOM     26  C   UNL d   1      34.405 -21.870   4.970  0.00  0.00     0.013 C 
BRANCH  26  27
ATOM     27  C   UNL d   1      33.920 -21.974   6.442  0.00  0.00    -0.051 C 
ATOM     28  C   UNL d   1      34.205 -23.385   6.971  0.00  0.00     0.014 C 
ATOM     29  C   UNL d   1      34.530 -20.910   7.370  0.00  0.00     0.014 C 
ATOM     30  C   UNL d   1      32.401 -21.718   6.480  0.00  0.00     0.014 C 
ENDBRANCH  26  27
ENDBRANCH  24  26
ENDBRANCH  23  24
ENDBRANCH  20  23
ENDBRANCH   3  19
BRANCH   5  31
ATOM     31  N   UNL d   1      29.861 -16.074  -0.138  0.00  0.00    -0.155 N 
ATOM     32  C   UNL d   1      28.508 -16.172  -0.097  0.00  0.00     0.236 C 
ATOM     33  O   UNL d   1      27.828 -16.176   0.930  0.00  0.00    -0.273 OA
ATOM     34  H   UNL d   1      30.454 -16.202  -0.918  0.00  0.00     0.187 HD
BRANCH  32  35
ATOM     35  C   UNL d   1      27.772 -16.127  -1.409  0.00  0.00     0.108 C 
BRANCH  35  36
ATOM     36  C   UNL d   1      26.289 -15.753  -1.606  0.00  0.00    -0.009 C 
ATOM     37  C   UNL d   1      25.307 -16.702  -0.964  0.00  0.00     0.010 C 
BRANCH  36  38
ATOM     38  C   UNL d   1      25.918 -15.658  -3.100  0.00  0.00     0.013 C 
BRANCH  38  39
ATOM     39  C   UNL d   1      25.874 -14.231  -3.691  0.00  0.00    -0.051 C 
ATOM     40  C   UNL d   1      26.627 -14.215  -5.027  0.00  0.00     0.014 C 
ATOM     41  C   UNL d   1      24.452 -13.701  -3.920  0.00  0.00     0.014 C 
ATOM     42  C   UNL d   1      26.551 -13.287  -2.690  0.00  0.00     0.014 C 
ENDBRANCH  38  39
ENDBRANCH  36  38
ENDBRANCH  35  36
ENDBRANCH  32  35
ENDBRANCH   5  31
TORSDOF 15
ENDMDL
MODEL 9
REMARK VINA RESULT:    -9.803      1.530      8.458
REMARK INTER + INTRA:         -16.154
REMARK INTER:                 -14.277
REMARK INTRA:                  -1.877
REMARK CONF_INDEPENDENT:        4.474
REMARK UNBOUND:                -1.877
REMARK  15 active torsions:
REMARK  status: ('A' for Active; 'I' for Inactive)
REMARK    1  A    between atoms: C_2  and  C_35 
REMARK    2  A    between atoms: C_2  and  C_3 
REMARK    3  A    between atoms: C_3  and  C_4 
REMARK       I    between atoms: C_4  and  N_6 
REMARK    4  A    between atoms: N_6  and  C_7 
REMARK    5  A    between atoms: C_9  and  N_10 
REMARK       I    between atoms: N_10  and  C_11 
REMARK    6  A    between atoms: C_11  and  C_13 
REMARK    7  A    between atoms: C_14  and  C_13 
REMARK    8  A    between atoms: C_14  and  C_16 
REMARK    9  A    between atoms: C_16  and  C_17 
REMARK   10  A    between atoms: C_22  and  N_23 
REMARK       I    between atoms: N_23  and  C_24 
REMARK   11  A    between atoms: C_24  and  C_26 
REMARK   12  A    between atoms: C_27  and  C_26 
REMARK   13  A    between atoms: C_27  and  C_29 
REMARK   14  A    between atoms: C_29  and  C_30 
REMARK   15  A    between atoms: C_35  and  C_36 
ROOT
ATOM      1  C   UNL d   1      32.628 -17.075   2.083  0.00  0.00     0.760 A 
ATOM      2  N   UNL d   1      31.764 -17.336   1.132  0.00  0.00     0.132 NA
ATOM      3  C   UNL d   1      30.884 -16.406   0.862  0.00  0.00     0.760 A 
ATOM      4  N   UNL d   1      30.778 -15.281   1.534  0.00  0.00     0.132 NA
ATOM      5  C   UNL d   1      31.731 -15.149   2.455  0.00  0.00     0.760 A 
ATOM      6  N   UNL d   1      32.656 -16.000   2.787  0.00  0.00     0.132 NA
ENDROOT
BRANCH   1   7
ATOM      7  N   UNL d   1      33.586 -17.996   2.414  0.00  0.00    -0.155 N 
ATOM      8  C   UNL d   1      33.191 -18.938   3.305  0.00  0.00     0.236 C 
ATOM      9  O   UNL d   1      32.021 -19.027   3.713  0.00  0.00    -0.273 OA
ATOM     10  H   UNL d   1      34.134 -18.297   1.621  0.00  0.00     0.187 HD
BRANCH   8  11
ATOM     11  C   UNL d   1      34.275 -19.909   3.683  0.00  0.00     0.108 C 
BRANCH  11  12
ATOM     12  C   UNL d   1      33.738 -21.339   3.853  0.00  0.00    -0.009 C 
ATOM     13  C   UNL d   1      33.691 -22.061   2.497  0.00  0.00     0.010 C 
BRANCH  12  14
ATOM     14  C   UNL d   1      34.530 -22.092   4.953  0.00  0.00     0.013 C 
BRANCH  14  15
ATOM     15  C   UNL d   1      33.940 -22.010   6.390  0.00  0.00    -0.051 C 
ATOM     16  C   UNL d   1      34.143 -23.357   7.101  0.00  0.00     0.014 C 
ATOM     17  C   UNL d   1      34.536 -20.868   7.230  0.00  0.00     0.014 C 
ATOM     18  C   UNL d   1      32.436 -21.701   6.306  0.00  0.00     0.014 C 
ENDBRANCH  14  15
ENDBRANCH  12  14
ENDBRANCH  11  12
ENDBRANCH   8  11
ENDBRANCH   1   7
BRANCH   3  19
ATOM     19  N   UNL d   1      29.990 -16.628  -0.165  0.00  0.00    -0.155 N 
ATOM     20  C   UNL d   1      28.683 -16.248  -0.073  0.00  0.00     0.236 C 
ATOM     21  O   UNL d   1      28.097 -15.862   0.942  0.00  0.00    -0.273 OA
ATOM     22  H   UNL d   1      30.377 -17.049  -0.994  0.00  0.00     0.187 HD
BRANCH  20  23
ATOM     23  C   UNL d   1      27.861 -16.389  -1.312  0.00  0.00     0.108 C 
BRANCH  23  24
ATOM     24  C   UNL d   1      26.566 -15.615  -1.524  0.00  0.00    -0.009 C 
ATOM     25  C   UNL d   1      26.777 -14.100  -1.519  0.00  0.00     0.010 C 
BRANCH  24  26
ATOM     26  C   UNL d   1      25.519 -15.929  -0.418  0.00  0.00     0.013 C 
BRANCH  26  27
ATOM     27  C   UNL d   1      24.429 -16.993  -0.724  0.00  0.00    -0.051 C 
ATOM     28  C   UNL d   1      24.561 -17.448  -2.183  0.00  0.00     0.014 C 
ATOM     29  C   UNL d   1      24.460 -18.200   0.229  0.00  0.00     0.014 C 
ATOM     30  C   UNL d   1      23.043 -16.353  -0.517  0.00  0.00     0.014 C 
ENDBRANCH  26  27
ENDBRANCH  24  26
ENDBRANCH  23  24
ENDBRANCH  20  23
ENDBRANCH   3  19
BRANCH   5  31
ATOM     31  N   UNL d   1      31.644 -14.024   3.198  0.00  0.00    -0.155 N 
ATOM     32  C   UNL d   1      31.387 -12.775   2.736  0.00  0.00     0.236 C 
ATOM     33  O   UNL d   1      31.149 -12.488   1.562  0.00  0.00    -0.273 OA
ATOM     34  H   UNL d   1      31.971 -14.283   4.093  0.00  0.00     0.187 HD
BRANCH  32  35
ATOM     35  C   UNL d   1      31.237 -11.678   3.756  0.00  0.00     0.108 C 
BRANCH  35  36
ATOM     36  C   UNL d   1      30.150 -11.594   4.847  0.00  0.00    -0.009 C 
ATOM     37  C   UNL d   1      30.457 -10.635   5.972  0.00  0.00     0.010 C 
BRANCH  36  38
ATOM     38  C   UNL d   1      29.875 -12.970   5.486  0.00  0.00     0.013 C 
BRANCH  38  39
ATOM     39  C   UNL d   1      28.596 -13.691   5.003  0.00  0.00    -0.051 C 
ATOM     40  C   UNL d   1      27.407 -13.233   5.855  0.00  0.00     0.014 C 
ATOM     41  C   UNL d   1      28.269 -13.442   3.525  0.00  0.00     0.014 C 
ATOM     42  C   UNL d   1      28.817 -15.199   5.168  0.00  0.00     0.014 C 
ENDBRANCH  38  39
ENDBRANCH  36  38
ENDBRANCH  35  36
ENDBRANCH  32  35
ENDBRANCH   5  31
TORSDOF 15
ENDMDL
