MODEL 1
REMARK VINA RESULT:    -7.801      0.000      0.000
REMARK INTER + INTRA:         -12.444
REMARK INTER:                 -10.784
REMARK INTRA:                  -1.661
REMARK CONF_INDEPENDENT:        2.983
REMARK UNBOUND:                -1.661
REMARK  10 active torsions:
REMARK  status: ('A' for Active; 'I' for Inactive)
REMARK    1  A    between atoms: C_5  and  S_6 
REMARK    2  A    between atoms: S_6  and  N_9 
REMARK    3  A    between atoms: N_9  and  N_10 
REMARK    4  A    between atoms: N_10  and  C_11 
REMARK    5  A    between atoms: C_11  and  S_13 
REMARK    6  A    between atoms: S_13  and  C_14 
REMARK    7  A    between atoms: C_14  and  C_15 
REMARK       I    between atoms: C_15  and  N_17 
REMARK    8  A    between atoms: C_18  and  N_17 
REMARK    9  A    between atoms: C_18  and  C_20 
REMARK   10  A    between atoms: C_18  and  O_19 
ROOT
ATOM      1  C   UNL d   1      25.920 -16.819  -1.497  0.00  0.00     0.154 C 
ATOM      2  S   UNL d   1      26.355 -17.463  -0.015  0.00  0.00    -0.051 SA
ENDROOT
BRANCH   1   3
ATOM      3  N   UNL d   1      24.693 -17.057  -2.104  0.00  0.00    -0.275 N 
ATOM      4  H   UNL d   1      24.395 -16.509  -2.912  0.00  0.00     0.189 HD
BRANCH   3   5
ATOM      5  N   UNL d   1      23.727 -18.085  -1.605  0.00  0.00    -0.221 N 
ATOM      6  H   UNL d   1      23.204 -18.574  -2.337  0.00  0.00     0.200 HD
BRANCH   5   7
ATOM      7  S   UNL d   1      22.888 -17.744  -0.158  0.00  0.00     0.276 S 
ATOM      8  O   UNL d   1      22.471 -16.365  -0.258  0.00  0.00    -0.199 OA
ATOM      9  O   UNL d   1      23.724 -18.200   0.936  0.00  0.00    -0.199 OA
BRANCH   7  10
ATOM     10  C   UNL d   1      21.405 -18.739  -0.139  0.00  0.00     0.081 A 
ATOM     11  C   UNL d   1      21.030 -19.325   1.081  0.00  0.00     0.026 A 
ATOM     12  C   UNL d   1      19.858 -20.087   1.173  0.00  0.00     0.008 A 
ATOM     13  C   UNL d   1      19.047 -20.274   0.049  0.00  0.00    -0.062 A 
ATOM     14  C   UNL d   1      17.774 -21.071   0.136  0.00  0.00     0.048 C 
ATOM     15  C   UNL d   1      19.438 -19.700  -1.169  0.00  0.00     0.008 A 
ATOM     16  C   UNL d   1      20.614 -18.939  -1.270  0.00  0.00     0.026 A 
ENDBRANCH   7  10
ENDBRANCH   5   7
ENDBRANCH   3   5
ENDBRANCH   1   3
BRANCH   1  17
ATOM     17  S   UNL d   1      26.908 -15.756  -2.501  0.00  0.00    -0.090 SA
BRANCH  17  18
ATOM     18  C   UNL d   1      26.213 -14.073  -2.263  0.00  0.00     0.184 C 
BRANCH  18  19
ATOM     19  C   UNL d   1      25.027 -13.785  -3.198  0.00  0.00     0.229 C 
ATOM     20  O   UNL d   1      23.993 -14.450  -3.241  0.00  0.00    -0.273 OA
ATOM     21  N   UNL d   1      25.121 -12.724  -4.068  0.00  0.00    -0.330 N 
ATOM     22  H   UNL d   1      24.317 -12.634  -4.683  0.00  0.00     0.165 HD
BRANCH  21  23
ATOM     23  C   UNL d   1      26.199 -11.756  -4.167  0.00  0.00     0.275 C 
BRANCH  23  24
ATOM     24  C   UNL d   1      27.358 -12.124  -5.166  0.00  0.00     0.231 C 
ATOM     25 CL   UNL d   1      27.331 -13.892  -5.500  0.00  0.00    -0.079 Cl
ATOM     26 CL   UNL d   1      27.148 -11.252  -6.716  0.00  0.00    -0.079 Cl
ATOM     27 CL   UNL d   1      28.950 -11.699  -4.469  0.00  0.00    -0.079 Cl
ENDBRANCH  23  24
BRANCH  23  28
ATOM     28  O   UNL d   1      25.558 -10.531  -4.515  0.00  0.00    -0.372 OA
ATOM     29  H   UNL d   1      25.027 -10.705  -5.314  0.00  0.00     0.212 HD
ENDBRANCH  23  28
ENDBRANCH  21  23
ENDBRANCH  18  19
ENDBRANCH  17  18
ENDBRANCH   1  17
TORSDOF 10
ENDMDL
MODEL 2
REMARK VINA RESULT:    -6.411      4.521      6.325
REMARK INTER + INTRA:         -12.580
REMARK INTER:                  -9.394
REMARK INTRA:                  -3.186
REMARK CONF_INDEPENDENT:        2.983
REMARK UNBOUND:                -3.186
REMARK  10 active torsions:
REMARK  status: ('A' for Active; 'I' for Inactive)
REMARK    1  A    between atoms: C_5  and  S_6 
REMARK    2  A    between atoms: S_6  and  N_9 
REMARK    3  A    between atoms: N_9  and  N_10 
REMARK    4  A    between atoms: N_10  and  C_11 
REMARK    5  A    between atoms: C_11  and  S_13 
REMARK    6  A    between atoms: S_13  and  C_14 
REMARK    7  A    between atoms: C_14  and  C_15 
REMARK       I    between atoms: C_15  and  N_17 
REMARK    8  A    between atoms: C_18  and  N_17 
REMARK    9  A    between atoms: C_18  and  C_20 
REMARK   10  A    between atoms: C_18  and  O_19 
ROOT
ATOM      1  C   UNL d   1      26.548 -11.271  -5.493  0.00  0.00     0.154 C 
ATOM      2  S   UNL d   1      26.023 -10.591  -6.929  0.00  0.00    -0.051 SA
ENDROOT
BRANCH   1   3
ATOM      3  N   UNL d   1      25.749 -12.075  -4.690  0.00  0.00    -0.275 N 
ATOM      4  H   UNL d   1      24.784 -11.813  -4.484  0.00  0.00     0.189 HD
BRANCH   3   5
ATOM      5  N   UNL d   1      26.248 -13.334  -4.052  0.00  0.00    -0.221 N 
ATOM      6  H   UNL d   1      27.221 -13.567  -4.267  0.00  0.00     0.200 HD
BRANCH   5   7
ATOM      7  S   UNL d   1      25.156 -14.640  -3.921  0.00  0.00     0.276 S 
ATOM      8  O   UNL d   1      25.370 -15.453  -5.095  0.00  0.00    -0.199 OA
ATOM      9  O   UNL d   1      23.853 -14.076  -3.622  0.00  0.00    -0.199 OA
BRANCH   7  10
ATOM     10  C   UNL d   1      25.644 -15.620  -2.510  0.00  0.00     0.081 A 
ATOM     11  C   UNL d   1      24.642 -16.344  -1.843  0.00  0.00     0.026 A 
ATOM     12  C   UNL d   1      24.963 -17.161  -0.751  0.00  0.00     0.008 A 
ATOM     13  C   UNL d   1      26.287 -17.265  -0.312  0.00  0.00    -0.062 A 
ATOM     14  C   UNL d   1      26.653 -18.155   0.844  0.00  0.00     0.048 C 
ATOM     15  C   UNL d   1      27.278 -16.525  -0.973  0.00  0.00     0.008 A 
ATOM     16  C   UNL d   1      26.963 -15.700  -2.065  0.00  0.00     0.026 A 
ENDBRANCH   7  10
ENDBRANCH   5   7
ENDBRANCH   3   5
ENDBRANCH   1   3
BRANCH   1  17
ATOM     17  S   UNL d   1      28.155 -11.096  -4.784  0.00  0.00    -0.090 SA
BRANCH  17  18
ATOM     18  C   UNL d   1      29.093 -12.578  -5.328  0.00  0.00     0.184 C 
BRANCH  18  19
ATOM     19  C   UNL d   1      29.044 -12.783  -6.851  0.00  0.00     0.229 C 
ATOM     20  O   UNL d   1      29.096 -11.876  -7.681  0.00  0.00    -0.273 OA
ATOM     21  N   UNL d   1      28.914 -14.063  -7.336  0.00  0.00    -0.330 N 
ATOM     22  H   UNL d   1      28.839 -14.106  -8.349  0.00  0.00     0.165 HD
BRANCH  21  23
ATOM     23  C   UNL d   1      28.896 -15.299  -6.574  0.00  0.00     0.275 C 
BRANCH  23  24
ATOM     24  C   UNL d   1      30.259 -15.707  -5.900  0.00  0.00     0.231 C 
ATOM     25 CL   UNL d   1      30.153 -15.461  -4.121  0.00  0.00    -0.079 Cl
ATOM     26 CL   UNL d   1      30.618 -17.434  -6.213  0.00  0.00    -0.079 Cl
ATOM     27 CL   UNL d   1      31.600 -14.709  -6.536  0.00  0.00    -0.079 Cl
ENDBRANCH  23  24
BRANCH  23  28
ATOM     28  O   UNL d   1      27.854 -15.123  -5.616  0.00  0.00    -0.372 OA
ATOM     29  H   UNL d   1      27.203 -15.833  -5.772  0.00  0.00     0.212 HD
ENDBRANCH  23  28
ENDBRANCH  21  23
ENDBRANCH  18  19
ENDBRANCH  17  18
ENDBRANCH   1  17
TORSDOF 10
ENDMDL
MODEL 3
REMARK VINA RESULT:    -6.087      3.001      4.284
REMARK INTER + INTRA:         -12.195
REMARK INTER:                  -9.070
REMARK INTRA:                  -3.125
REMARK CONF_INDEPENDENT:        2.983
REMARK UNBOUND:                -3.125
REMARK  10 active torsions:
REMARK  status: ('A' for Active; 'I' for Inactive)
REMARK    1  A    between atoms: C_5  and  S_6 
REMARK    2  A    between atoms: S_6  and  N_9 
REMARK    3  A    between atoms: N_9  and  N_10 
REMARK    4  A    between atoms: N_10  and  C_11 
REMARK    5  A    between atoms: C_11  and  S_13 
REMARK    6  A    between atoms: S_13  and  C_14 
REMARK    7  A    between atoms: C_14  and  C_15 
REMARK       I    between atoms: C_15  and  N_17 
REMARK    8  A    between atoms: C_18  and  N_17 
REMARK    9  A    between atoms: C_18  and  C_20 
REMARK   10  A    between atoms: C_18  and  O_19 
ROOT
ATOM      1  C   UNL d   1      26.602 -12.690  -2.128  0.00  0.00     0.154 C 
ATOM      2  S   UNL d   1      28.016 -12.218  -1.368  0.00  0.00    -0.051 SA
ENDROOT
BRANCH   1   3
ATOM      3  N   UNL d   1      25.857 -13.797  -1.739  0.00  0.00    -0.275 N 
ATOM      4  H   UNL d   1      24.978 -14.026  -2.206  0.00  0.00     0.189 HD
BRANCH   3   5
ATOM      5  N   UNL d   1      26.260 -14.689  -0.607  0.00  0.00    -0.221 N 
ATOM      6  H   UNL d   1      26.915 -14.268   0.058  0.00  0.00     0.200 HD
BRANCH   5   7
ATOM      7  S   UNL d   1      26.468 -16.349  -0.944  0.00  0.00     0.276 S 
ATOM      8  O   UNL d   1      27.316 -16.863   0.106  0.00  0.00    -0.199 OA
ATOM      9  O   UNL d   1      26.849 -16.454  -2.340  0.00  0.00    -0.199 OA
BRANCH   7  10
ATOM     10  C   UNL d   1      24.879 -17.145  -0.769  0.00  0.00     0.081 A 
ATOM     11  C   UNL d   1      23.732 -16.361  -0.982  0.00  0.00     0.026 A 
ATOM     12  C   UNL d   1      22.456 -16.932  -0.896  0.00  0.00     0.008 A 
ATOM     13  C   UNL d   1      22.308 -18.290  -0.597  0.00  0.00    -0.062 A 
ATOM     14  C   UNL d   1      20.945 -18.923  -0.523  0.00  0.00     0.048 C 
ATOM     15  C   UNL d   1      23.457 -19.061  -0.369  0.00  0.00     0.008 A 
ATOM     16  C   UNL d   1      24.739 -18.495  -0.448  0.00  0.00     0.026 A 
ENDBRANCH   7  10
ENDBRANCH   5   7
ENDBRANCH   3   5
ENDBRANCH   1   3
BRANCH   1  17
ATOM     17  S   UNL d   1      25.838 -11.885  -3.500  0.00  0.00    -0.090 SA
BRANCH  17  18
ATOM     18  C   UNL d   1      26.128 -12.989  -4.939  0.00  0.00     0.184 C 
BRANCH  18  19
ATOM     19  C   UNL d   1      26.103 -14.477  -4.556  0.00  0.00     0.229 C 
ATOM     20  O   UNL d   1      25.155 -15.044  -4.013  0.00  0.00    -0.273 OA
ATOM     21  N   UNL d   1      27.218 -15.240  -4.815  0.00  0.00    -0.330 N 
ATOM     22  H   UNL d   1      27.138 -16.198  -4.487  0.00  0.00     0.165 HD
BRANCH  21  23
ATOM     23  C   UNL d   1      28.431 -14.827  -5.499  0.00  0.00     0.275 C 
BRANCH  23  24
ATOM     24  C   UNL d   1      29.773 -15.418  -4.929  0.00  0.00     0.231 C 
ATOM     25 CL   UNL d   1      31.134 -14.304  -5.307  0.00  0.00    -0.079 Cl
ATOM     26 CL   UNL d   1      29.669 -15.601  -3.150  0.00  0.00    -0.079 Cl
ATOM     27 CL   UNL d   1      30.121 -17.014  -5.659  0.00  0.00    -0.079 Cl
ENDBRANCH  23  24
BRANCH  23  28
ATOM     28  O   UNL d   1      28.221 -15.187  -6.863  0.00  0.00    -0.372 OA
ATOM     29  H   UNL d   1      29.030 -15.642  -7.163  0.00  0.00     0.212 HD
ENDBRANCH  23  28
ENDBRANCH  21  23
ENDBRANCH  18  19
ENDBRANCH  17  18
ENDBRANCH   1  17
TORSDOF 10
ENDMDL
MODEL 4
REMARK VINA RESULT:    -6.011      2.900      4.176
REMARK INTER + INTRA:         -12.214
REMARK INTER:                  -8.994
REMARK INTRA:                  -3.220
REMARK CONF_INDEPENDENT:        2.983
REMARK UNBOUND:                -3.220
REMARK  10 active torsions:
REMARK  status: ('A' for Active; 'I' for Inactive)
REMARK    1  A    between atoms: C_5  and  S_6 
REMARK    2  A    between atoms: S_6  and  N_9 
REMARK    3  A    between atoms: N_9  and  N_10 
REMARK    4  A    between atoms: N_10  and  C_11 
REMARK    5  A    between atoms: C_11  and  S_13 
REMARK    6  A    between atoms: S_13  and  C_14 
REMARK    7  A    between atoms: C_14  and  C_15 
REMARK       I    between atoms: C_15  and  N_17 
REMARK    8  A    between atoms: C_18  and  N_17 
REMARK    9  A    between atoms: C_18  and  C_20 
REMARK   10  A    between atoms: C_18  and  O_19 
ROOT
ATOM      1  C   UNL d   1      28.484 -15.416  -4.544  0.00  0.00     0.154 C 
ATOM      2  S   UNL d   1      29.890 -15.860  -5.337  0.00  0.00    -0.051 SA
ENDROOT
BRANCH   1   3
ATOM      3  N   UNL d   1      28.424 -15.159  -3.180  0.00  0.00    -0.275 N 
ATOM      4  H   UNL d   1      28.581 -14.217  -2.819  0.00  0.00     0.189 HD
BRANCH   3   5
ATOM      5  N   UNL d   1      28.168 -16.227  -2.164  0.00  0.00    -0.221 N 
ATOM      6  H   UNL d   1      27.900 -17.135  -2.554  0.00  0.00     0.200 HD
BRANCH   5   7
ATOM      7  S   UNL d   1      27.412 -15.765  -0.705  0.00  0.00     0.276 S 
ATOM      8  O   UNL d   1      27.104 -14.361  -0.846  0.00  0.00    -0.199 OA
ATOM      9  O   UNL d   1      28.248 -16.249   0.378  0.00  0.00    -0.199 OA
BRANCH   7  10
ATOM     10  C   UNL d   1      25.855 -16.633  -0.598  0.00  0.00     0.081 A 
ATOM     11  C   UNL d   1      24.700 -15.950  -1.013  0.00  0.00     0.026 A 
ATOM     12  C   UNL d   1      23.451 -16.586  -0.990  0.00  0.00     0.008 A 
ATOM     13  C   UNL d   1      23.341 -17.910  -0.552  0.00  0.00    -0.062 A 
ATOM     14  C   UNL d   1      22.012 -18.614  -0.543  0.00  0.00     0.048 C 
ATOM     15  C   UNL d   1      24.496 -18.578  -0.124  0.00  0.00     0.008 A 
ATOM     16  C   UNL d   1      25.750 -17.946  -0.140  0.00  0.00     0.026 A 
ENDBRANCH   7  10
ENDBRANCH   5   7
ENDBRANCH   3   5
ENDBRANCH   1   3
BRANCH   1  17
ATOM     17  S   UNL d   1      26.896 -15.198  -5.283  0.00  0.00    -0.090 SA
BRANCH  17  18
ATOM     18  C   UNL d   1      25.708 -15.149  -3.883  0.00  0.00     0.184 C 
BRANCH  18  19
ATOM     19  C   UNL d   1      24.726 -13.970  -3.983  0.00  0.00     0.229 C 
ATOM     20  O   UNL d   1      23.501 -14.074  -3.937  0.00  0.00    -0.273 OA
ATOM     21  N   UNL d   1      25.237 -12.704  -4.153  0.00  0.00    -0.330 N 
ATOM     22  H   UNL d   1      24.521 -11.990  -4.258  0.00  0.00     0.165 HD
BRANCH  21  23
ATOM     23  C   UNL d   1      26.635 -12.311  -4.172  0.00  0.00     0.275 C 
BRANCH  23  24
ATOM     24  C   UNL d   1      26.919 -10.814  -4.569  0.00  0.00     0.231 C 
ATOM     25 CL   UNL d   1      26.369  -9.723  -3.248  0.00  0.00    -0.079 Cl
ATOM     26 CL   UNL d   1      28.673 -10.557  -4.822  0.00  0.00    -0.079 Cl
ATOM     27 CL   UNL d   1      26.044 -10.382  -6.068  0.00  0.00    -0.079 Cl
ENDBRANCH  23  24
BRANCH  23  28
ATOM     28  O   UNL d   1      27.120 -12.623  -2.869  0.00  0.00    -0.372 OA
ATOM     29  H   UNL d   1      26.373 -13.008  -2.373  0.00  0.00     0.212 HD
ENDBRANCH  23  28
ENDBRANCH  21  23
ENDBRANCH  18  19
ENDBRANCH  17  18
ENDBRANCH   1  17
TORSDOF 10
ENDMDL
MODEL 5
REMARK VINA RESULT:    -5.503      2.655      3.721
REMARK INTER + INTRA:         -12.744
REMARK INTER:                  -8.486
REMARK INTRA:                  -4.258
REMARK CONF_INDEPENDENT:        2.983
REMARK UNBOUND:                -4.258
REMARK  10 active torsions:
REMARK  status: ('A' for Active; 'I' for Inactive)
REMARK    1  A    between atoms: C_5  and  S_6 
REMARK    2  A    between atoms: S_6  and  N_9 
REMARK    3  A    between atoms: N_9  and  N_10 
REMARK    4  A    between atoms: N_10  and  C_11 
REMARK    5  A    between atoms: C_11  and  S_13 
REMARK    6  A    between atoms: S_13  and  C_14 
REMARK    7  A    between atoms: C_14  and  C_15 
REMARK       I    between atoms: C_15  and  N_17 
REMARK    8  A    between atoms: C_18  and  N_17 
REMARK    9  A    between atoms: C_18  and  C_20 
REMARK   10  A    between atoms: C_18  and  O_19 
ROOT
ATOM      1  C   UNL d   1      28.342 -15.362  -4.215  0.00  0.00     0.154 C 
ATOM      2  S   UNL d   1      29.971 -15.483  -4.575  0.00  0.00    -0.051 SA
ENDROOT
BRANCH   1   3
ATOM      3  N   UNL d   1      27.841 -15.370  -2.919  0.00  0.00    -0.275 N 
ATOM      4  H   UNL d   1      28.378 -14.967  -2.149  0.00  0.00     0.189 HD
BRANCH   3   5
ATOM      5  N   UNL d   1      26.527 -15.990  -2.561  0.00  0.00    -0.221 N 
ATOM      6  H   UNL d   1      25.760 -15.771  -3.203  0.00  0.00     0.200 HD
BRANCH   5   7
ATOM      7  S   UNL d   1      26.132 -16.105  -0.904  0.00  0.00     0.276 S 
ATOM      8  O   UNL d   1      25.907 -14.750  -0.456  0.00  0.00    -0.199 OA
ATOM      9  O   UNL d   1      27.140 -16.945  -0.285  0.00  0.00    -0.199 OA
BRANCH   7  10
ATOM     10  C   UNL d   1      24.573 -16.966  -0.773  0.00  0.00     0.081 A 
ATOM     11  C   UNL d   1      24.612 -18.347  -0.519  0.00  0.00     0.026 A 
ATOM     12  C   UNL d   1      23.425 -19.076  -0.369  0.00  0.00     0.008 A 
ATOM     13  C   UNL d   1      22.185 -18.435  -0.470  0.00  0.00    -0.062 A 
ATOM     14  C   UNL d   1      20.902 -19.198  -0.288  0.00  0.00     0.048 C 
ATOM     15  C   UNL d   1      22.156 -17.059  -0.739  0.00  0.00     0.008 A 
ATOM     16  C   UNL d   1      23.341 -16.324  -0.896  0.00  0.00     0.026 A 
ENDBRANCH   7  10
ENDBRANCH   5   7
ENDBRANCH   3   5
ENDBRANCH   1   3
BRANCH   1  17
ATOM     17  S   UNL d   1      27.026 -15.200  -5.382  0.00  0.00    -0.090 SA
BRANCH  17  18
ATOM     18  C   UNL d   1      26.224 -13.594  -4.994  0.00  0.00     0.184 C 
BRANCH  18  19
ATOM     19  C   UNL d   1      25.436 -13.631  -3.674  0.00  0.00     0.229 C 
ATOM     20  O   UNL d   1      24.320 -14.132  -3.539  0.00  0.00    -0.273 OA
ATOM     21  N   UNL d   1      25.997 -13.052  -2.560  0.00  0.00    -0.330 N 
ATOM     22  H   UNL d   1      25.391 -13.077  -1.744  0.00  0.00     0.165 HD
BRANCH  21  23
ATOM     23  C   UNL d   1      27.317 -12.458  -2.442  0.00  0.00     0.275 C 
BRANCH  23  24
ATOM     24  C   UNL d   1      27.357 -10.886  -2.388  0.00  0.00     0.231 C 
ATOM     25 CL   UNL d   1      27.406 -10.340  -0.674  0.00  0.00    -0.079 Cl
ATOM     26 CL   UNL d   1      28.818 -10.269  -3.221  0.00  0.00    -0.079 Cl
ATOM     27 CL   UNL d   1      25.905 -10.190  -3.167  0.00  0.00    -0.079 Cl
ENDBRANCH  23  24
BRANCH  23  28
ATOM     28  O   UNL d   1      27.881 -13.052  -1.275  0.00  0.00    -0.372 OA
ATOM     29  H   UNL d   1      27.196 -13.021  -0.582  0.00  0.00     0.212 HD
ENDBRANCH  23  28
ENDBRANCH  21  23
ENDBRANCH  18  19
ENDBRANCH  17  18
ENDBRANCH   1  17
TORSDOF 10
ENDMDL
MODEL 6
REMARK VINA RESULT:    -5.325      3.319      4.402
REMARK INTER + INTRA:         -12.381
REMARK INTER:                  -8.308
REMARK INTRA:                  -4.073
REMARK CONF_INDEPENDENT:        2.983
REMARK UNBOUND:                -4.073
REMARK  10 active torsions:
REMARK  status: ('A' for Active; 'I' for Inactive)
REMARK    1  A    between atoms: C_5  and  S_6 
REMARK    2  A    between atoms: S_6  and  N_9 
REMARK    3  A    between atoms: N_9  and  N_10 
REMARK    4  A    between atoms: N_10  and  C_11 
REMARK    5  A    between atoms: C_11  and  S_13 
REMARK    6  A    between atoms: S_13  and  C_14 
REMARK    7  A    between atoms: C_14  and  C_15 
REMARK       I    between atoms: C_15  and  N_17 
REMARK    8  A    between atoms: C_18  and  N_17 
REMARK    9  A    between atoms: C_18  and  C_20 
REMARK   10  A    between atoms: C_18  and  O_19 
ROOT
ATOM      1  C   UNL d   1      27.904 -14.157   2.346  0.00  0.00     0.154 C 
ATOM      2  S   UNL d   1      28.903 -14.032   3.683  0.00  0.00    -0.051 SA
ENDROOT
BRANCH   1   3
ATOM      3  N   UNL d   1      27.651 -15.356   1.689  0.00  0.00    -0.275 N 
ATOM      4  H   UNL d   1      28.089 -16.224   2.000  0.00  0.00     0.189 HD
BRANCH   3   5
ATOM      5  N   UNL d   1      26.771 -15.448   0.483  0.00  0.00    -0.221 N 
ATOM      6  H   UNL d   1      25.888 -14.935   0.555  0.00  0.00     0.200 HD
BRANCH   5   7
ATOM      7  S   UNL d   1      26.728 -16.938  -0.352  0.00  0.00     0.276 S 
ATOM      8  O   UNL d   1      27.421 -17.884   0.492  0.00  0.00    -0.199 OA
ATOM      9  O   UNL d   1      27.166 -16.676  -1.709  0.00  0.00    -0.199 OA
BRANCH   7  10
ATOM     10  C   UNL d   1      25.024 -17.465  -0.439  0.00  0.00     0.081 A 
ATOM     11  C   UNL d   1      24.061 -16.499  -0.777  0.00  0.00     0.026 A 
ATOM     12  C   UNL d   1      22.711 -16.854  -0.898  0.00  0.00     0.008 A 
ATOM     13  C   UNL d   1      22.306 -18.176  -0.683  0.00  0.00    -0.062 A 
ATOM     14  C   UNL d   1      20.864 -18.578  -0.831  0.00  0.00     0.048 C 
ATOM     15  C   UNL d   1      23.271 -19.129  -0.328  0.00  0.00     0.008 A 
ATOM     16  C   UNL d   1      24.625 -18.779  -0.200  0.00  0.00     0.026 A 
ENDBRANCH   7  10
ENDBRANCH   5   7
ENDBRANCH   3   5
ENDBRANCH   1   3
BRANCH   1  17
ATOM     17  S   UNL d   1      27.024 -12.835   1.576  0.00  0.00    -0.090 SA
BRANCH  17  18
ATOM     18  C   UNL d   1      28.031 -12.362   0.115  0.00  0.00     0.184 C 
BRANCH  18  19
ATOM     19  C   UNL d   1      28.579 -13.581  -0.644  0.00  0.00     0.229 C 
ATOM     20  O   UNL d   1      29.610 -14.185  -0.348  0.00  0.00    -0.273 OA
ATOM     21  N   UNL d   1      27.890 -14.031  -1.746  0.00  0.00    -0.330 N 
ATOM     22  H   UNL d   1      28.345 -14.808  -2.218  0.00  0.00     0.165 HD
BRANCH  21  23
ATOM     23  C   UNL d   1      26.624 -13.538  -2.258  0.00  0.00     0.275 C 
BRANCH  23  24
ATOM     24  C   UNL d   1      26.409 -13.689  -3.810  0.00  0.00     0.231 C 
ATOM     25 CL   UNL d   1      27.186 -12.310  -4.666  0.00  0.00    -0.079 Cl
ATOM     26 CL   UNL d   1      27.149 -15.210  -4.398  0.00  0.00    -0.079 Cl
ATOM     27 CL   UNL d   1      24.665 -13.698  -4.207  0.00  0.00    -0.079 Cl
ENDBRANCH  23  24
BRANCH  23  28
ATOM     28  O   UNL d   1      25.631 -14.231  -1.507  0.00  0.00    -0.372 OA
ATOM     29  H   UNL d   1      25.637 -15.157  -1.816  0.00  0.00     0.212 HD
ENDBRANCH  23  28
ENDBRANCH  21  23
ENDBRANCH  18  19
ENDBRANCH  17  18
ENDBRANCH   1  17
TORSDOF 10
ENDMDL
MODEL 7
REMARK VINA RESULT:    -5.323      4.320      7.695
REMARK INTER + INTRA:         -12.578
REMARK INTER:                  -8.306
REMARK INTRA:                  -4.272
REMARK CONF_INDEPENDENT:        2.983
REMARK UNBOUND:                -4.272
REMARK  10 active torsions:
REMARK  status: ('A' for Active; 'I' for Inactive)
REMARK    1  A    between atoms: C_5  and  S_6 
REMARK    2  A    between atoms: S_6  and  N_9 
REMARK    3  A    between atoms: N_9  and  N_10 
REMARK    4  A    between atoms: N_10  and  C_11 
REMARK    5  A    between atoms: C_11  and  S_13 
REMARK    6  A    between atoms: S_13  and  C_14 
REMARK    7  A    between atoms: C_14  and  C_15 
REMARK       I    between atoms: C_15  and  N_17 
REMARK    8  A    between atoms: C_18  and  N_17 
REMARK    9  A    between atoms: C_18  and  C_20 
REMARK   10  A    between atoms: C_18  and  O_19 
ROOT
ATOM      1  C   UNL d   1      24.223 -17.340  -0.603  0.00  0.00     0.154 C 
ATOM      2  S   UNL d   1      22.560 -17.451  -0.452  0.00  0.00    -0.051 SA
ENDROOT
BRANCH   1   3
ATOM      3  N   UNL d   1      24.872 -16.225  -1.120  0.00  0.00    -0.275 N 
ATOM      4  H   UNL d   1      24.929 -15.358  -0.583  0.00  0.00     0.189 HD
BRANCH   3   5
ATOM      5  N   UNL d   1      25.485 -16.204  -2.485  0.00  0.00    -0.221 N 
ATOM      6  H   UNL d   1      26.117 -16.985  -2.683  0.00  0.00     0.200 HD
BRANCH   5   7
ATOM      7  S   UNL d   1      25.914 -14.685  -3.136  0.00  0.00     0.276 S 
ATOM      8  O   UNL d   1      26.433 -13.913  -2.030  0.00  0.00    -0.199 OA
ATOM      9  O   UNL d   1      24.780 -14.220  -3.912  0.00  0.00    -0.199 OA
BRANCH   7  10
ATOM     10  C   UNL d   1      27.265 -14.941  -4.275  0.00  0.00     0.081 A 
ATOM     11  C   UNL d   1      28.418 -15.575  -3.784  0.00  0.00     0.026 A 
ATOM     12  C   UNL d   1      29.500 -15.839  -4.634  0.00  0.00     0.008 A 
ATOM     13  C   UNL d   1      29.445 -15.473  -5.983  0.00  0.00    -0.062 A 
ATOM     14  C   UNL d   1      30.588 -15.770  -6.914  0.00  0.00     0.048 C 
ATOM     15  C   UNL d   1      28.296 -14.825  -6.460  0.00  0.00     0.008 A 
ATOM     16  C   UNL d   1      27.210 -14.553  -5.613  0.00  0.00     0.026 A 
ENDBRANCH   7  10
ENDBRANCH   5   7
ENDBRANCH   3   5
ENDBRANCH   1   3
BRANCH   1  17
ATOM     17  S   UNL d   1      25.396 -18.575  -0.140  0.00  0.00    -0.090 SA
BRANCH  17  18
ATOM     18  C   UNL d   1      26.817 -17.656   0.573  0.00  0.00     0.184 C 
BRANCH  18  19
ATOM     19  C   UNL d   1      27.484 -16.717  -0.446  0.00  0.00     0.229 C 
ATOM     20  O   UNL d   1      27.958 -17.077  -1.523  0.00  0.00    -0.273 OA
ATOM     21  N   UNL d   1      27.583 -15.381  -0.138  0.00  0.00    -0.330 N 
ATOM     22  H   UNL d   1      28.079 -14.840  -0.841  0.00  0.00     0.165 HD
BRANCH  21  23
ATOM     23  C   UNL d   1      27.050 -14.701   1.030  0.00  0.00     0.275 C 
BRANCH  23  24
ATOM     24  C   UNL d   1      28.054 -13.756   1.788  0.00  0.00     0.231 C 
ATOM     25 CL   UNL d   1      28.134 -14.225   3.523  0.00  0.00    -0.079 Cl
ATOM     26 CL   UNL d   1      29.696 -13.897   1.087  0.00  0.00    -0.079 Cl
ATOM     27 CL   UNL d   1      27.520 -12.052   1.682  0.00  0.00    -0.079 Cl
ENDBRANCH  23  24
BRANCH  23  28
ATOM     28  O   UNL d   1      25.905 -13.999   0.553  0.00  0.00    -0.372 OA
ATOM     29  H   UNL d   1      26.215 -13.394  -0.148  0.00  0.00     0.212 HD
ENDBRANCH  23  28
ENDBRANCH  21  23
ENDBRANCH  18  19
ENDBRANCH  17  18
ENDBRANCH   1  17
TORSDOF 10
ENDMDL
MODEL 8
REMARK VINA RESULT:    -5.092      2.662      3.745
REMARK INTER + INTRA:         -12.632
REMARK INTER:                  -8.075
REMARK INTRA:                  -4.556
REMARK CONF_INDEPENDENT:        2.983
REMARK UNBOUND:                -4.556
REMARK  10 active torsions:
REMARK  status: ('A' for Active; 'I' for Inactive)
REMARK    1  A    between atoms: C_5  and  S_6 
REMARK    2  A    between atoms: S_6  and  N_9 
REMARK    3  A    between atoms: N_9  and  N_10 
REMARK    4  A    between atoms: N_10  and  C_11 
REMARK    5  A    between atoms: C_11  and  S_13 
REMARK    6  A    between atoms: S_13  and  C_14 
REMARK    7  A    between atoms: C_14  and  C_15 
REMARK       I    between atoms: C_15  and  N_17 
REMARK    8  A    between atoms: C_18  and  N_17 
REMARK    9  A    between atoms: C_18  and  C_20 
REMARK   10  A    between atoms: C_18  and  O_19 
ROOT
ATOM      1  C   UNL d   1      29.249 -15.873  -3.302  0.00  0.00     0.154 C 
ATOM      2  S   UNL d   1      29.925 -17.383  -3.556  0.00  0.00    -0.051 SA
ENDROOT
BRANCH   1   3
ATOM      3  N   UNL d   1      28.159 -15.653  -2.468  0.00  0.00    -0.275 N 
ATOM      4  H   UNL d   1      28.287 -15.266  -1.532  0.00  0.00     0.189 HD
BRANCH   3   5
ATOM      5  N   UNL d   1      26.756 -15.994  -2.861  0.00  0.00    -0.221 N 
ATOM      6  H   UNL d   1      26.624 -16.186  -3.858  0.00  0.00     0.200 HD
BRANCH   5   7
ATOM      7  S   UNL d   1      25.490 -15.173  -2.063  0.00  0.00     0.276 S 
ATOM      8  O   UNL d   1      24.745 -14.493  -3.098  0.00  0.00    -0.199 OA
ATOM      9  O   UNL d   1      26.086 -14.444  -0.960  0.00  0.00    -0.199 OA
BRANCH   7  10
ATOM     10  C   UNL d   1      24.402 -16.402  -1.358  0.00  0.00     0.081 A 
ATOM     11  C   UNL d   1      23.037 -16.083  -1.260  0.00  0.00     0.026 A 
ATOM     12  C   UNL d   1      22.125 -17.016  -0.750  0.00  0.00     0.008 A 
ATOM     13  C   UNL d   1      22.563 -18.277  -0.331  0.00  0.00    -0.062 A 
ATOM     14  C   UNL d   1      21.593 -19.298   0.197  0.00  0.00     0.048 C 
ATOM     15  C   UNL d   1      23.930 -18.580  -0.416  0.00  0.00     0.008 A 
ATOM     16  C   UNL d   1      24.851 -17.648  -0.922  0.00  0.00     0.026 A 
ENDBRANCH   7  10
ENDBRANCH   5   7
ENDBRANCH   3   5
ENDBRANCH   1   3
BRANCH   1  17
ATOM     17  S   UNL d   1      29.795 -14.354  -4.017  0.00  0.00    -0.090 SA
BRANCH  17  18
ATOM     18  C   UNL d   1      28.863 -14.193  -5.591  0.00  0.00     0.184 C 
BRANCH  18  19
ATOM     19  C   UNL d   1      27.353 -14.422  -5.411  0.00  0.00     0.229 C 
ATOM     20  O   UNL d   1      26.735 -15.391  -5.849  0.00  0.00    -0.273 OA
ATOM     21  N   UNL d   1      26.624 -13.476  -4.728  0.00  0.00    -0.330 N 
ATOM     22  H   UNL d   1      25.629 -13.679  -4.696  0.00  0.00     0.165 HD
BRANCH  21  23
ATOM     23  C   UNL d   1      27.124 -12.286  -4.062  0.00  0.00     0.275 C 
BRANCH  23  24
ATOM     24  C   UNL d   1      27.058 -10.956  -4.900  0.00  0.00     0.231 C 
ATOM     25 CL   UNL d   1      25.763 -11.086  -6.143  0.00  0.00    -0.079 Cl
ATOM     26 CL   UNL d   1      26.682  -9.565  -3.836  0.00  0.00    -0.079 Cl
ATOM     27 CL   UNL d   1      28.615 -10.652  -5.727  0.00  0.00    -0.079 Cl
ENDBRANCH  23  24
BRANCH  23  28
ATOM     28  O   UNL d   1      26.371 -12.200  -2.855  0.00  0.00    -0.372 OA
ATOM     29  H   UNL d   1      26.295 -13.106  -2.503  0.00  0.00     0.212 HD
ENDBRANCH  23  28
ENDBRANCH  21  23
ENDBRANCH  18  19
ENDBRANCH  17  18
ENDBRANCH   1  17
TORSDOF 10
ENDMDL
