MODEL 1
REMARK VINA RESULT:    -8.798      0.000      0.000
REMARK INTER + INTRA:         -10.598
REMARK INTER:                 -10.290
REMARK INTRA:                  -0.308
REMARK CONF_INDEPENDENT:        1.492
REMARK UNBOUND:                -0.308
REMARK  5 active torsions:
REMARK  status: ('A' for Active; 'I' for Inactive)
REMARK    1  A    between atoms: C_2  and  C_3 
REMARK    2  A    between atoms: C_2  and  C_10 
REMARK    3  A    between atoms: C_3  and  C_4 
REMARK    4  A    between atoms: C_14  and  O_15 
REMARK    5  A    between atoms: C_18  and  O_19 
ROOT
ATOM      1  C   UNL d   1      23.511 -17.630  -0.961  0.00  0.00     0.028 C 
ATOM      2  C   UNL d   1      24.121 -18.823  -0.519  0.00  0.00     0.147 C 
ATOM      3  N   UNL d   1      24.888 -18.185   0.435  0.00  0.00    -0.376 N 
ATOM      4  C   UNL d   1      25.677 -17.416  -0.390  0.00  0.00     0.076 C 
ATOM      5  C   UNL d   1      27.059 -17.315  -0.303  0.00  0.00     0.093 C 
ATOM      6  C   UNL d   1      27.774 -16.624  -1.229  0.00  0.00     0.041 C 
ATOM      7  C   UNL d   1      27.040 -15.924  -2.162  0.00  0.00     0.040 C 
ATOM      8  C   UNL d   1      25.572 -15.966  -2.220  0.00  0.00     0.079 C 
ATOM      9  C   UNL d   1      24.804 -16.896  -1.383  0.00  0.00     0.038 C 
ATOM     10  H   UNL d   1      24.564 -17.810   1.320  0.00  0.00     0.160 HD
ENDROOT
BRANCH   1  11
ATOM     11  C   UNL d   1      21.991 -17.820  -0.794  0.00  0.00     0.163 C 
ATOM     12  O   UNL d   1      21.282 -16.786  -0.895  0.00  0.00    -0.292 OA
BRANCH  11  13
ATOM     13  C   UNL d   1      21.503 -19.016   0.061  0.00  0.00     0.122 C 
BRANCH  13  14
ATOM     14  C   UNL d   1      20.071 -19.551   0.394  0.00  0.00    -0.051 A 
ATOM     15  C   UNL d   1      19.837 -19.934   1.753  0.00  0.00     0.007 A 
ATOM     16  C   UNL d   1      18.793 -20.798   2.146  0.00  0.00     0.001 A 
ATOM     17  C   UNL d   1      17.910 -21.283   1.196  0.00  0.00     0.000 A 
ATOM     18  C   UNL d   1      18.030 -20.825  -0.119  0.00  0.00     0.001 A 
ATOM     19  C   UNL d   1      19.092 -19.965  -0.520  0.00  0.00     0.007 A 
ENDBRANCH  13  14
ENDBRANCH  11  13
ENDBRANCH   1  11
BRANCH   8  20
ATOM     20  O   UNL d   1      25.098 -15.193  -3.276  0.00  0.00    -0.360 OA
ATOM     21  H   UNL d   1      24.418 -14.605  -2.878  0.00  0.00     0.217 HD
ENDBRANCH   8  20
BRANCH   5  22
ATOM     22  O   UNL d   1      27.728 -18.082   0.604  0.00  0.00    -0.358 OA
ATOM     23  H   UNL d   1      28.665 -17.835   0.501  0.00  0.00     0.217 HD
ENDBRANCH   5  22
TORSDOF 5
ENDMDL
MODEL 2
REMARK VINA RESULT:    -8.774      2.295      7.649
REMARK INTER + INTRA:         -10.645
REMARK INTER:                 -10.266
REMARK INTRA:                  -0.379
REMARK CONF_INDEPENDENT:        1.492
REMARK UNBOUND:                -0.379
REMARK  5 active torsions:
REMARK  status: ('A' for Active; 'I' for Inactive)
REMARK    1  A    between atoms: C_2  and  C_3 
REMARK    2  A    between atoms: C_2  and  C_10 
REMARK    3  A    between atoms: C_3  and  C_4 
REMARK    4  A    between atoms: C_14  and  O_15 
REMARK    5  A    between atoms: C_18  and  O_19 
ROOT
ATOM      1  C   UNL d   1      21.141 -18.739  -0.105  0.00  0.00     0.028 C 
ATOM      2  C   UNL d   1      20.812 -19.468  -1.268  0.00  0.00     0.147 C 
ATOM      3  N   UNL d   1      19.469 -19.158  -1.192  0.00  0.00    -0.376 N 
ATOM      4  C   UNL d   1      19.158 -19.799  -0.014  0.00  0.00     0.076 C 
ATOM      5  C   UNL d   1      18.074 -20.646   0.170  0.00  0.00     0.093 C 
ATOM      6  C   UNL d   1      17.904 -21.330   1.333  0.00  0.00     0.041 C 
ATOM      7  C   UNL d   1      18.782 -21.023   2.350  0.00  0.00     0.040 C 
ATOM      8  C   UNL d   1      19.891 -20.073   2.189  0.00  0.00     0.079 C 
ATOM      9  C   UNL d   1      20.231 -19.515   0.873  0.00  0.00     0.038 C 
ATOM     10  H   UNL d   1      19.040 -18.265  -1.411  0.00  0.00     0.160 HD
ENDROOT
BRANCH   1  11
ATOM     11  C   UNL d   1      22.197 -17.697  -0.519  0.00  0.00     0.163 C 
ATOM     12  O   UNL d   1      21.763 -16.577  -0.893  0.00  0.00    -0.292 OA
BRANCH  11  13
ATOM     13  C   UNL d   1      23.558 -18.218  -1.045  0.00  0.00     0.122 C 
BRANCH  13  14
ATOM     14  C   UNL d   1      25.009 -17.641  -0.947  0.00  0.00    -0.051 A 
ATOM     15  C   UNL d   1      25.844 -18.195   0.076  0.00  0.00     0.007 A 
ATOM     16  C   UNL d   1      26.990 -17.544   0.579  0.00  0.00     0.001 A 
ATOM     17  C   UNL d   1      27.373 -16.323   0.048  0.00  0.00     0.000 A 
ATOM     18  C   UNL d   1      26.657 -15.817  -1.040  0.00  0.00     0.001 A 
ATOM     19  C   UNL d   1      25.492 -16.465  -1.539  0.00  0.00     0.007 A 
ENDBRANCH  13  14
ENDBRANCH  11  13
ENDBRANCH   1  11
BRANCH   8  20
ATOM     20  O   UNL d   1      20.633 -19.978   3.363  0.00  0.00    -0.360 OA
ATOM     21  H   UNL d   1      21.417 -20.553   3.217  0.00  0.00     0.217 HD
ENDBRANCH   8  20
BRANCH   5  22
ATOM     22  O   UNL d   1      17.280 -20.955  -0.894  0.00  0.00    -0.358 OA
ATOM     23  H   UNL d   1      17.649 -20.450  -1.641  0.00  0.00     0.217 HD
ENDBRANCH   5  22
TORSDOF 5
ENDMDL
MODEL 3
REMARK VINA RESULT:    -8.610      1.220      2.331
REMARK INTER + INTRA:         -10.476
REMARK INTER:                 -10.101
REMARK INTRA:                  -0.374
REMARK CONF_INDEPENDENT:        1.492
REMARK UNBOUND:                -0.374
REMARK  5 active torsions:
REMARK  status: ('A' for Active; 'I' for Inactive)
REMARK    1  A    between atoms: C_2  and  C_3 
REMARK    2  A    between atoms: C_2  and  C_10 
REMARK    3  A    between atoms: C_3  and  C_4 
REMARK    4  A    between atoms: C_14  and  O_15 
REMARK    5  A    between atoms: C_18  and  O_19 
ROOT
ATOM      1  C   UNL d   1      23.910 -18.102  -0.620  0.00  0.00     0.028 C 
ATOM      2  C   UNL d   1      23.514 -16.751  -0.722  0.00  0.00     0.147 C 
ATOM      3  N   UNL d   1      24.328 -16.500  -1.809  0.00  0.00    -0.376 N 
ATOM      4  C   UNL d   1      25.556 -16.689  -1.217  0.00  0.00     0.076 C 
ATOM      5  C   UNL d   1      26.633 -15.819  -1.321  0.00  0.00     0.093 C 
ATOM      6  C   UNL d   1      27.774 -16.022  -0.611  0.00  0.00     0.041 C 
ATOM      7  C   UNL d   1      27.845 -17.202   0.096  0.00  0.00     0.040 C 
ATOM      8  C   UNL d   1      26.737 -18.167   0.156  0.00  0.00     0.079 C 
ATOM      9  C   UNL d   1      25.419 -17.846  -0.404  0.00  0.00     0.038 C 
ATOM     10  H   UNL d   1      24.174 -16.806  -2.764  0.00  0.00     0.160 HD
ENDROOT
BRANCH   1  11
ATOM     11  C   UNL d   1      22.629 -18.949  -0.737  0.00  0.00     0.163 C 
ATOM     12  O   UNL d   1      22.235 -19.213  -1.903  0.00  0.00    -0.292 OA
BRANCH  11  13
ATOM     13  C   UNL d   1      21.611 -18.885   0.429  0.00  0.00     0.122 C 
BRANCH  13  14
ATOM     14  C   UNL d   1      20.176 -19.484   0.601  0.00  0.00    -0.051 A 
ATOM     15  C   UNL d   1      19.822 -19.911   1.921  0.00  0.00     0.007 A 
ATOM     16  C   UNL d   1      18.780 -20.825   2.186  0.00  0.00     0.001 A 
ATOM     17  C   UNL d   1      18.020 -21.321   1.141  0.00  0.00     0.000 A 
ATOM     18  C   UNL d   1      18.253 -20.825  -0.145  0.00  0.00     0.001 A 
ATOM     19  C   UNL d   1      19.313 -19.914  -0.417  0.00  0.00     0.007 A 
ENDBRANCH  13  14
ENDBRANCH  11  13
ENDBRANCH   1  11
BRANCH   8  20
ATOM     20  O   UNL d   1      27.071 -19.251   0.963  0.00  0.00    -0.360 OA
ATOM     21  H   UNL d   1      28.047 -19.334   0.889  0.00  0.00     0.217 HD
ENDBRANCH   8  20
BRANCH   5  22
ATOM     22  O   UNL d   1      26.475 -14.638  -1.985  0.00  0.00    -0.358 OA
ATOM     23  H   UNL d   1      25.517 -14.562  -2.142  0.00  0.00     0.217 HD
ENDBRANCH   5  22
TORSDOF 5
ENDMDL
MODEL 4
REMARK VINA RESULT:    -7.100      2.097      7.384
REMARK INTER + INTRA:          -9.040
REMARK INTER:                  -8.591
REMARK INTRA:                  -0.449
REMARK CONF_INDEPENDENT:        1.492
REMARK UNBOUND:                -0.449
REMARK  5 active torsions:
REMARK  status: ('A' for Active; 'I' for Inactive)
REMARK    1  A    between atoms: C_2  and  C_3 
REMARK    2  A    between atoms: C_2  and  C_10 
REMARK    3  A    between atoms: C_3  and  C_4 
REMARK    4  A    between atoms: C_14  and  O_15 
REMARK    5  A    between atoms: C_18  and  O_19 
ROOT
ATOM      1  C   UNL d   1      23.198 -18.529   0.136  0.00  0.00     0.028 C 
ATOM      2  C   UNL d   1      23.282 -19.237  -1.081  0.00  0.00     0.147 C 
ATOM      3  N   UNL d   1      22.208 -18.578  -1.645  0.00  0.00    -0.376 N 
ATOM      4  C   UNL d   1      21.211 -19.014  -0.803  0.00  0.00     0.076 C 
ATOM      5  C   UNL d   1      19.988 -19.526  -1.214  0.00  0.00     0.093 C 
ATOM      6  C   UNL d   1      19.104 -20.042  -0.320  0.00  0.00     0.041 C 
ATOM      7  C   UNL d   1      19.433 -19.896   1.010  0.00  0.00     0.040 C 
ATOM      8  C   UNL d   1      20.694 -19.290   1.460  0.00  0.00     0.079 C 
ATOM      9  C   UNL d   1      21.758 -18.953   0.507  0.00  0.00     0.038 C 
ATOM     10  H   UNL d   1      22.197 -17.624  -1.991  0.00  0.00     0.160 HD
ENDROOT
BRANCH   1  11
ATOM     11  C   UNL d   1      24.560 -17.842   0.345  0.00  0.00     0.163 C 
ATOM     12  O   UNL d   1      25.261 -18.264   1.300  0.00  0.00    -0.292 OA
BRANCH  11  13
ATOM     13  C   UNL d   1      24.714 -16.380  -0.144  0.00  0.00     0.122 C 
BRANCH  13  14
ATOM     14  C   UNL d   1      25.549 -15.746  -1.305  0.00  0.00    -0.051 A 
ATOM     15  C   UNL d   1      24.803 -15.102  -2.344  0.00  0.00     0.007 A 
ATOM     16  C   UNL d   1      25.324 -14.853  -3.632  0.00  0.00     0.001 A 
ATOM     17  C   UNL d   1      26.632 -15.202  -3.921  0.00  0.00     0.000 A 
ATOM     18  C   UNL d   1      27.428 -15.711  -2.892  0.00  0.00     0.001 A 
ATOM     19  C   UNL d   1      26.901 -15.977  -1.597  0.00  0.00     0.007 A 
ENDBRANCH  13  14
ENDBRANCH  11  13
ENDBRANCH   1  11
BRANCH   8  20
ATOM     20  O   UNL d   1      20.777 -19.299   2.850  0.00  0.00    -0.360 OA
ATOM     21  H   UNL d   1      21.279 -20.115   3.070  0.00  0.00     0.217 HD
ENDBRANCH   8  20
BRANCH   5  22
ATOM     22  O   UNL d   1      19.751 -19.700  -2.546  0.00  0.00    -0.358 OA
ATOM     23  H   UNL d   1      20.442 -20.317  -2.847  0.00  0.00     0.217 HD
ENDBRANCH   5  22
TORSDOF 5
ENDMDL
MODEL 5
REMARK VINA RESULT:    -6.985      5.059      7.368
REMARK INTER + INTRA:          -8.855
REMARK INTER:                  -8.476
REMARK INTRA:                  -0.378
REMARK CONF_INDEPENDENT:        1.492
REMARK UNBOUND:                -0.378
REMARK  5 active torsions:
REMARK  status: ('A' for Active; 'I' for Inactive)
REMARK    1  A    between atoms: C_2  and  C_3 
REMARK    2  A    between atoms: C_2  and  C_10 
REMARK    3  A    between atoms: C_3  and  C_4 
REMARK    4  A    between atoms: C_14  and  O_15 
REMARK    5  A    between atoms: C_18  and  O_19 
ROOT
ATOM      1  C   UNL d   1      27.735 -14.101   2.103  0.00  0.00     0.028 C 
ATOM      2  C   UNL d   1      26.663 -13.184   2.069  0.00  0.00     0.147 C 
ATOM      3  N   UNL d   1      27.456 -12.104   2.402  0.00  0.00    -0.376 N 
ATOM      4  C   UNL d   1      27.835 -12.488   3.669  0.00  0.00     0.076 C 
ATOM      5  C   UNL d   1      27.782 -11.678   4.796  0.00  0.00     0.093 C 
ATOM      6  C   UNL d   1      28.066 -12.171   6.030  0.00  0.00     0.041 C 
ATOM      7  C   UNL d   1      28.540 -13.464   6.072  0.00  0.00     0.040 C 
ATOM      8  C   UNL d   1      28.668 -14.308   4.875  0.00  0.00     0.079 C 
ATOM      9  C   UNL d   1      28.138 -13.872   3.577  0.00  0.00     0.038 C 
ATOM     10  H   UNL d   1      28.118 -11.629   1.798  0.00  0.00     0.160 HD
ENDROOT
BRANCH   1  11
ATOM     11  C   UNL d   1      27.797 -14.761   0.713  0.00  0.00     0.163 C 
ATOM     12  O   UNL d   1      27.673 -13.996  -0.278  0.00  0.00    -0.292 OA
BRANCH  11  13
ATOM     13  C   UNL d   1      27.381 -16.249   0.601  0.00  0.00     0.122 C 
BRANCH  13  14
ATOM     14  C   UNL d   1      26.162 -16.947  -0.088  0.00  0.00    -0.051 A 
ATOM     15  C   UNL d   1      25.337 -16.114  -0.910  0.00  0.00     0.007 A 
ATOM     16  C   UNL d   1      24.010 -16.442  -1.261  0.00  0.00     0.001 A 
ATOM     17  C   UNL d   1      23.465 -17.641  -0.835  0.00  0.00     0.000 A 
ATOM     18  C   UNL d   1      24.285 -18.536  -0.142  0.00  0.00     0.001 A 
ATOM     19  C   UNL d   1      25.619 -18.201   0.225  0.00  0.00     0.007 A 
ENDBRANCH  13  14
ENDBRANCH  11  13
ENDBRANCH   1  11
BRANCH   8  20
ATOM     20  O   UNL d   1      29.141 -15.573   5.213  0.00  0.00    -0.360 OA
ATOM     21  H   UNL d   1      29.269 -16.035   4.355  0.00  0.00     0.217 HD
ENDBRANCH   8  20
BRANCH   5  22
ATOM     22  O   UNL d   1      27.245 -10.429   4.696  0.00  0.00    -0.358 OA
ATOM     23  H   UNL d   1      26.676 -10.334   5.481  0.00  0.00     0.217 HD
ENDBRANCH   5  22
TORSDOF 5
ENDMDL
MODEL 6
REMARK VINA RESULT:    -6.915      4.337      6.896
REMARK INTER + INTRA:          -8.772
REMARK INTER:                  -8.406
REMARK INTRA:                  -0.366
REMARK CONF_INDEPENDENT:        1.492
REMARK UNBOUND:                -0.366
REMARK  5 active torsions:
REMARK  status: ('A' for Active; 'I' for Inactive)
REMARK    1  A    between atoms: C_2  and  C_3 
REMARK    2  A    between atoms: C_2  and  C_10 
REMARK    3  A    between atoms: C_3  and  C_4 
REMARK    4  A    between atoms: C_14  and  O_15 
REMARK    5  A    between atoms: C_18  and  O_19 
ROOT
ATOM      1  C   UNL d   1      26.197 -13.657  -4.406  0.00  0.00     0.028 C 
ATOM      2  C   UNL d   1      26.444 -12.449  -3.720  0.00  0.00     0.147 C 
ATOM      3  N   UNL d   1      26.084 -11.659  -4.793  0.00  0.00    -0.376 N 
ATOM      4  C   UNL d   1      27.073 -12.021  -5.680  0.00  0.00     0.076 C 
ATOM      5  C   UNL d   1      27.849 -11.134  -6.413  0.00  0.00     0.093 C 
ATOM      6  C   UNL d   1      28.883 -11.571  -7.180  0.00  0.00     0.041 C 
ATOM      7  C   UNL d   1      29.018 -12.938  -7.293  0.00  0.00     0.040 C 
ATOM      8  C   UNL d   1      28.155 -13.889  -6.577  0.00  0.00     0.079 C 
ATOM      9  C   UNL d   1      27.198 -13.431  -5.562  0.00  0.00     0.038 C 
ATOM     10  H   UNL d   1      25.142 -11.486  -5.129  0.00  0.00     0.160 HD
ENDROOT
BRANCH   1  11
ATOM     11  C   UNL d   1      25.156 -14.432  -3.577  0.00  0.00     0.163 C 
ATOM     12  O   UNL d   1      23.956 -14.075  -3.707  0.00  0.00    -0.292 OA
BRANCH  11  13
ATOM     13  C   UNL d   1      25.630 -15.094  -2.259  0.00  0.00     0.122 C 
BRANCH  13  14
ATOM     14  C   UNL d   1      24.942 -16.114  -1.293  0.00  0.00    -0.051 A 
ATOM     15  C   UNL d   1      25.800 -17.077  -0.672  0.00  0.00     0.007 A 
ATOM     16  C   UNL d   1      25.335 -18.291  -0.123  0.00  0.00     0.001 A 
ATOM     17  C   UNL d   1      23.980 -18.575  -0.138  0.00  0.00     0.000 A 
ATOM     18  C   UNL d   1      23.101 -17.600  -0.618  0.00  0.00     0.001 A 
ATOM     19  C   UNL d   1      23.570 -16.381  -1.184  0.00  0.00     0.007 A 
ENDBRANCH  13  14
ENDBRANCH  11  13
ENDBRANCH   1  11
BRANCH   8  20
ATOM     20  O   UNL d   1      28.533 -15.200  -6.852  0.00  0.00    -0.360 OA
ATOM     21  H   UNL d   1      28.875 -15.180  -7.773  0.00  0.00     0.217 HD
ENDBRANCH   8  20
BRANCH   5  22
ATOM     22  O   UNL d   1      27.706  -9.794  -6.207  0.00  0.00    -0.358 OA
ATOM     23  H   UNL d   1      26.860  -9.699  -5.735  0.00  0.00     0.217 HD
ENDBRANCH   5  22
TORSDOF 5
ENDMDL
MODEL 7
REMARK VINA RESULT:    -6.849      4.092      6.598
REMARK INTER + INTRA:          -8.685
REMARK INTER:                  -8.340
REMARK INTRA:                  -0.344
REMARK CONF_INDEPENDENT:        1.492
REMARK UNBOUND:                -0.344
REMARK  5 active torsions:
REMARK  status: ('A' for Active; 'I' for Inactive)
REMARK    1  A    between atoms: C_2  and  C_3 
REMARK    2  A    between atoms: C_2  and  C_10 
REMARK    3  A    between atoms: C_3  and  C_4 
REMARK    4  A    between atoms: C_14  and  O_15 
REMARK    5  A    between atoms: C_18  and  O_19 
ROOT
ATOM      1  C   UNL d   1      25.989 -14.170  -4.557  0.00  0.00     0.028 C 
ATOM      2  C   UNL d   1      26.387 -15.247  -5.378  0.00  0.00     0.147 C 
ATOM      3  N   UNL d   1      27.733 -14.977  -5.238  0.00  0.00    -0.376 N 
ATOM      4  C   UNL d   1      27.780 -13.747  -5.853  0.00  0.00     0.076 C 
ATOM      5  C   UNL d   1      28.703 -13.375  -6.821  0.00  0.00     0.093 C 
ATOM      6  C   UNL d   1      28.608 -12.180  -7.462  0.00  0.00     0.041 C 
ATOM      7  C   UNL d   1      27.639 -11.318  -6.997  0.00  0.00     0.040 C 
ATOM      8  C   UNL d   1      26.701 -11.674  -5.922  0.00  0.00     0.079 C 
ATOM      9  C   UNL d   1      26.636 -13.042  -5.393  0.00  0.00     0.038 C 
ATOM     10  H   UNL d   1      28.304 -15.155  -4.418  0.00  0.00     0.160 HD
ENDROOT
BRANCH   1  11
ATOM     11  C   UNL d   1      25.153 -14.771  -3.412  0.00  0.00     0.163 C 
ATOM     12  O   UNL d   1      24.090 -14.167  -3.117  0.00  0.00    -0.292 OA
BRANCH  11  13
ATOM     13  C   UNL d   1      25.894 -15.607  -2.338  0.00  0.00     0.122 C 
BRANCH  13  14
ATOM     14  C   UNL d   1      25.463 -16.858  -1.503  0.00  0.00    -0.051 A 
ATOM     15  C   UNL d   1      24.159 -17.382  -1.775  0.00  0.00     0.007 A 
ATOM     16  C   UNL d   1      23.452 -18.206  -0.873  0.00  0.00     0.001 A 
ATOM     17  C   UNL d   1      24.040 -18.575   0.325  0.00  0.00     0.000 A 
ATOM     18  C   UNL d   1      25.362 -18.189   0.563  0.00  0.00     0.001 A 
ATOM     19  C   UNL d   1      26.072 -17.346  -0.338  0.00  0.00     0.007 A 
ENDBRANCH  13  14
ENDBRANCH  11  13
ENDBRANCH   1  11
BRANCH   8  20
ATOM     20  O   UNL d   1      25.814 -10.630  -5.676  0.00  0.00    -0.360 OA
ATOM     21  H   UNL d   1      25.006 -11.060  -5.318  0.00  0.00     0.217 HD
ENDBRANCH   8  20
BRANCH   5  22
ATOM     22  O   UNL d   1      29.596 -14.296  -7.281  0.00  0.00    -0.358 OA
ATOM     23  H   UNL d   1      29.337 -14.462  -8.205  0.00  0.00     0.217 HD
ENDBRANCH   5  22
TORSDOF 5
ENDMDL
MODEL 8
REMARK VINA RESULT:    -6.788      2.769      4.772
REMARK INTER + INTRA:          -8.752
REMARK INTER:                  -8.280
REMARK INTRA:                  -0.472
REMARK CONF_INDEPENDENT:        1.492
REMARK UNBOUND:                -0.472
REMARK  5 active torsions:
REMARK  status: ('A' for Active; 'I' for Inactive)
REMARK    1  A    between atoms: C_2  and  C_3 
REMARK    2  A    between atoms: C_2  and  C_10 
REMARK    3  A    between atoms: C_3  and  C_4 
REMARK    4  A    between atoms: C_14  and  O_15 
REMARK    5  A    between atoms: C_18  and  O_19 
ROOT
ATOM      1  C   UNL d   1      26.856 -16.232  -1.488  0.00  0.00     0.028 C 
ATOM      2  C   UNL d   1      25.969 -15.192  -1.134  0.00  0.00     0.147 C 
ATOM      3  N   UNL d   1      25.109 -15.444  -2.185  0.00  0.00    -0.376 N 
ATOM      4  C   UNL d   1      25.946 -15.144  -3.235  0.00  0.00     0.076 C 
ATOM      5  C   UNL d   1      25.614 -14.329  -4.310  0.00  0.00     0.093 C 
ATOM      6  C   UNL d   1      26.538 -13.990  -5.247  0.00  0.00     0.041 C 
ATOM      7  C   UNL d   1      27.764 -14.611  -5.143  0.00  0.00     0.040 C 
ATOM      8  C   UNL d   1      28.102 -15.533  -4.049  0.00  0.00     0.079 C 
ATOM      9  C   UNL d   1      27.203 -15.716  -2.903  0.00  0.00     0.038 C 
ATOM     10  H   UNL d   1      24.458 -16.218  -2.261  0.00  0.00     0.160 HD
ENDROOT
BRANCH   1  11
ATOM     11  C   UNL d   1      26.951 -17.167  -0.268  0.00  0.00     0.163 C 
ATOM     12  O   UNL d   1      28.107 -17.399   0.172  0.00  0.00    -0.292 OA
BRANCH  11  13
ATOM     13  C   UNL d   1      25.820 -18.206  -0.064  0.00  0.00     0.122 C 
BRANCH  13  14
ATOM     14  C   UNL d   1      24.261 -18.070  -0.060  0.00  0.00    -0.051 A 
ATOM     15  C   UNL d   1      23.520 -19.286  -0.211  0.00  0.00     0.007 A 
ATOM     16  C   UNL d   1      22.175 -19.325  -0.639  0.00  0.00     0.001 A 
ATOM     17  C   UNL d   1      21.503 -18.142  -0.895  0.00  0.00     0.000 A 
ATOM     18  C   UNL d   1      22.155 -16.935  -0.631  0.00  0.00     0.001 A 
ATOM     19  C   UNL d   1      23.516 -16.893  -0.214  0.00  0.00     0.007 A 
ENDBRANCH  13  14
ENDBRANCH  11  13
ENDBRANCH   1  11
BRANCH   8  20
ATOM     20  O   UNL d   1      29.412 -15.988  -4.176  0.00  0.00    -0.360 OA
ATOM     21  H   UNL d   1      29.433 -16.468  -5.033  0.00  0.00     0.217 HD
ENDBRANCH   8  20
BRANCH   5  22
ATOM     22  O   UNL d   1      24.407 -13.696  -4.320  0.00  0.00    -0.358 OA
ATOM     23  H   UNL d   1      23.895 -14.138  -5.021  0.00  0.00     0.217 HD
ENDBRANCH   5  22
TORSDOF 5
ENDMDL
MODEL 9
REMARK VINA RESULT:    -6.712     10.089     13.745
REMARK INTER + INTRA:          -8.728
REMARK INTER:                  -8.203
REMARK INTRA:                  -0.525
REMARK CONF_INDEPENDENT:        1.492
REMARK UNBOUND:                -0.525
REMARK  5 active torsions:
REMARK  status: ('A' for Active; 'I' for Inactive)
REMARK    1  A    between atoms: C_2  and  C_3 
REMARK    2  A    between atoms: C_2  and  C_10 
REMARK    3  A    between atoms: C_3  and  C_4 
REMARK    4  A    between atoms: C_14  and  O_15 
REMARK    5  A    between atoms: C_18  and  O_19 
ROOT
ATOM      1  C   UNL d   1      33.618 -20.926   4.617  0.00  0.00     0.028 C 
ATOM      2  C   UNL d   1      33.768 -21.575   3.373  0.00  0.00     0.147 C 
ATOM      3  N   UNL d   1      32.841 -20.772   2.739  0.00  0.00    -0.376 N 
ATOM      4  C   UNL d   1      31.713 -21.138   3.438  0.00  0.00     0.076 C 
ATOM      5  C   UNL d   1      30.499 -21.489   2.864  0.00  0.00     0.093 C 
ATOM      6  C   UNL d   1      29.468 -21.950   3.621  0.00  0.00     0.041 C 
ATOM      7  C   UNL d   1      29.655 -21.911   4.986  0.00  0.00     0.040 C 
ATOM      8  C   UNL d   1      30.912 -21.472   5.609  0.00  0.00     0.079 C 
ATOM      9  C   UNL d   1      32.109 -21.206   4.800  0.00  0.00     0.038 C 
ATOM     10  H   UNL d   1      32.969 -19.806   2.455  0.00  0.00     0.160 HD
ENDROOT
BRANCH   1  11
ATOM     11  C   UNL d   1      35.011 -20.406   5.016  0.00  0.00     0.163 C 
ATOM     12  O   UNL d   1      35.921 -20.521   4.155  0.00  0.00    -0.292 OA
BRANCH  11  13
ATOM     13  C   UNL d   1      35.369 -20.380   6.523  0.00  0.00     0.122 C 
BRANCH  13  14
ATOM     14  C   UNL d   1      35.248 -21.463   7.647  0.00  0.00    -0.051 A 
ATOM     15  C   UNL d   1      35.793 -21.113   8.924  0.00  0.00     0.007 A 
ATOM     16  C   UNL d   1      36.147 -22.066   9.903  0.00  0.00     0.001 A 
ATOM     17  C   UNL d   1      35.931 -23.412   9.659  0.00  0.00     0.000 A 
ATOM     18  C   UNL d   1      35.281 -23.778   8.477  0.00  0.00     0.001 A 
ATOM     19  C   UNL d   1      34.936 -22.819   7.482  0.00  0.00     0.007 A 
ENDBRANCH  13  14
ENDBRANCH  11  13
ENDBRANCH   1  11
BRANCH   8  20
ATOM     20  O   UNL d   1      30.833 -21.563   6.995  0.00  0.00    -0.360 OA
ATOM     21  H   UNL d   1      30.276 -22.354   7.168  0.00  0.00     0.217 HD
ENDBRANCH   8  20
BRANCH   5  22
ATOM     22  O   UNL d   1      30.400 -21.567   1.506  0.00  0.00    -0.358 OA
ATOM     23  H   UNL d   1      29.824 -20.824   1.251  0.00  0.00     0.217 HD
ENDBRANCH   5  22
TORSDOF 5
ENDMDL
