MODEL 1
REMARK VINA RESULT:    -7.737      0.000      0.000
REMARK INTER + INTRA:         -10.494
REMARK INTER:                  -9.229
REMARK INTRA:                  -1.265
REMARK CONF_INDEPENDENT:        1.492
REMARK UNBOUND:                -1.265
REMARK  5 active torsions:
REMARK  status: ('A' for Active; 'I' for Inactive)
REMARK    1  A    between atoms: C_2  and  C_3 
REMARK       I    between atoms: C_2  and  N_16 
REMARK    2  A    between atoms: C_3  and  S_4 
REMARK    3  A    between atoms: S_4  and  C_5 
REMARK    4  A    between atoms: N_16  and  C_17 
REMARK    5  A    between atoms: C_23  and  N_24 
ROOT
ATOM      1  O   UNL d   1      24.417 -14.334  -3.962  0.00  0.00    -0.272 OA
ATOM      2  C   UNL d   1      25.179 -13.388  -3.745  0.00  0.00     0.231 C 
ATOM      3  N   UNL d   1      25.453 -12.546  -4.804  0.00  0.00    -0.324 N 
ATOM      4  H   UNL d   1      24.902 -12.725  -5.634  0.00  0.00     0.169 HD
ENDROOT
BRANCH   2   5
ATOM      5  C   UNL d   1      25.744 -13.058  -2.349  0.00  0.00     0.185 C 
BRANCH   5   6
ATOM      6  S   UNL d   1      26.937 -14.306  -1.766  0.00  0.00    -0.083 SA
BRANCH   6   7
ATOM      7  C   UNL d   1      25.900 -15.610  -1.263  0.00  0.00     0.170 A 
ATOM      8  N   UNL d   1      24.612 -15.553  -1.285  0.00  0.00    -0.224 NA
ATOM      9  C   UNL d   1      23.910 -16.714  -0.888  0.00  0.00     0.075 A 
ATOM     10  C   UNL d   1      22.515 -16.695  -0.896  0.00  0.00     0.032 A 
ATOM     11  C   UNL d   1      24.553 -17.896  -0.502  0.00  0.00     0.061 A 
ATOM     12  C   UNL d   1      21.782 -17.829  -0.523  0.00  0.00     0.002 A 
ATOM     13  C   UNL d   1      22.438 -19.002  -0.151  0.00  0.00     0.001 A 
ATOM     14  C   UNL d   1      23.832 -19.042  -0.144  0.00  0.00     0.019 A 
ATOM     15  C   UNL d   1      26.027 -17.886  -0.478  0.00  0.00     0.260 A 
ATOM     16  O   UNL d   1      26.677 -18.863  -0.141  0.00  0.00    -0.267 OA
ATOM     17  N   UNL d   1      26.610 -16.704  -0.863  0.00  0.00    -0.302 N 
ATOM     18  H   UNL d   1      27.619 -16.666  -0.861  0.00  0.00     0.171 HD
ENDBRANCH   6   7
ENDBRANCH   5   6
ENDBRANCH   2   5
BRANCH   3  19
ATOM     19  C   UNL d   1      26.237 -11.379  -4.821  0.00  0.00     0.063 A 
ATOM     20  C   UNL d   1      25.627 -10.165  -4.492  0.00  0.00     0.055 A 
ATOM     21  C   UNL d   1      26.342  -8.980  -4.526  0.00  0.00     0.036 A 
ATOM     22 CL   UNL d   1      25.523  -7.500  -4.219  0.00  0.00    -0.084 Cl
ATOM     23  C   UNL d   1      27.697  -9.000  -4.807  0.00  0.00     0.026 A 
ATOM     24  C   UNL d   1      28.337 -10.226  -5.048  0.00  0.00     0.033 A 
ATOM     25  C   UNL d   1      27.633 -11.446  -5.063  0.00  0.00     0.057 A 
BRANCH  25  26
ATOM     26  N   UNL d   1      28.308 -12.609  -5.374  0.00  0.00    -0.375 N 
ATOM     27  C   UNL d   1      29.064 -12.800  -6.619  0.00  0.00     0.149 C 
ATOM     28  C   UNL d   1      28.527 -14.033  -7.365  0.00  0.00     0.187 C 
ATOM     29  O   UNL d   1      28.522 -15.200  -6.523  0.00  0.00    -0.388 OA
ATOM     30  C   UNL d   1      27.718 -14.974  -5.347  0.00  0.00     0.187 C 
ATOM     31  C   UNL d   1      28.265 -13.800  -4.513  0.00  0.00     0.149 C 
ENDBRANCH  25  26
ENDBRANCH   3  19
TORSDOF 5
ENDMDL
MODEL 2
REMARK VINA RESULT:    -7.457      4.284      6.130
REMARK INTER + INTRA:         -10.632
REMARK INTER:                  -8.949
REMARK INTRA:                  -1.684
REMARK CONF_INDEPENDENT:        1.492
REMARK UNBOUND:                -1.684
REMARK  5 active torsions:
REMARK  status: ('A' for Active; 'I' for Inactive)
REMARK    1  A    between atoms: C_2  and  C_3 
REMARK       I    between atoms: C_2  and  N_16 
REMARK    2  A    between atoms: C_3  and  S_4 
REMARK    3  A    between atoms: S_4  and  C_5 
REMARK    4  A    between atoms: N_16  and  C_17 
REMARK    5  A    between atoms: C_23  and  N_24 
ROOT
ATOM      1  O   UNL d   1      28.002 -15.205  -5.977  0.00  0.00    -0.272 OA
ATOM      2  C   UNL d   1      29.212 -15.447  -6.018  0.00  0.00     0.231 C 
ATOM      3  N   UNL d   1      29.802 -15.489  -7.266  0.00  0.00    -0.324 N 
ATOM      4  H   UNL d   1      29.198 -15.200  -8.024  0.00  0.00     0.169 HD
ENDROOT
BRANCH   2   5
ATOM      5  C   UNL d   1      30.088 -15.601  -4.759  0.00  0.00     0.185 C 
BRANCH   5   6
ATOM      6  S   UNL d   1      29.593 -14.469  -3.421  0.00  0.00    -0.083 SA
BRANCH   6   7
ATOM      7  C   UNL d   1      28.132 -15.205  -2.827  0.00  0.00     0.170 A 
ATOM      8  N   UNL d   1      28.092 -16.016  -1.826  0.00  0.00    -0.224 NA
ATOM      9  C   UNL d   1      26.821 -16.494  -1.436  0.00  0.00     0.075 A 
ATOM     10  C   UNL d   1      26.732 -17.375  -0.358  0.00  0.00     0.032 A 
ATOM     11  C   UNL d   1      25.635 -16.108  -2.073  0.00  0.00     0.061 A 
ATOM     12  C   UNL d   1      25.490 -17.861   0.070  0.00  0.00     0.002 A 
ATOM     13  C   UNL d   1      24.318 -17.458  -0.570  0.00  0.00     0.001 A 
ATOM     14  C   UNL d   1      24.386 -16.573  -1.645  0.00  0.00     0.019 A 
ATOM     15  C   UNL d   1      25.754 -15.195  -3.225  0.00  0.00     0.260 A 
ATOM     16  O   UNL d   1      24.780 -14.815  -3.854  0.00  0.00    -0.267 OA
ATOM     17  N   UNL d   1      27.034 -14.806  -3.533  0.00  0.00    -0.302 N 
ATOM     18  H   UNL d   1      27.150 -14.178  -4.314  0.00  0.00     0.171 HD
ENDBRANCH   6   7
ENDBRANCH   5   6
ENDBRANCH   2   5
BRANCH   3  19
ATOM     19  C   UNL d   1      31.154 -15.691  -7.593  0.00  0.00     0.063 A 
ATOM     20  C   UNL d   1      31.945 -14.571  -7.867  0.00  0.00     0.055 A 
ATOM     21  C   UNL d   1      33.273 -14.711  -8.229  0.00  0.00     0.036 A 
ATOM     22 CL   UNL d   1      34.175 -13.314  -8.661  0.00  0.00    -0.084 Cl
ATOM     23  C   UNL d   1      33.855 -15.968  -8.241  0.00  0.00     0.026 A 
ATOM     24  C   UNL d   1      33.092 -17.089  -7.877  0.00  0.00     0.033 A 
ATOM     25  C   UNL d   1      31.727 -16.987  -7.545  0.00  0.00     0.057 A 
BRANCH  25  26
ATOM     26  N   UNL d   1      31.016 -18.136  -7.262  0.00  0.00    -0.375 N 
ATOM     27  C   UNL d   1      30.496 -18.460  -5.926  0.00  0.00     0.149 C 
ATOM     28  C   UNL d   1      31.046 -19.823  -5.475  0.00  0.00     0.187 C 
ATOM     29  O   UNL d   1      30.780 -20.850  -6.448  0.00  0.00    -0.388 OA
ATOM     30  C   UNL d   1      31.363 -20.504  -7.721  0.00  0.00     0.187 C 
ATOM     31  C   UNL d   1      30.781 -19.185  -8.265  0.00  0.00     0.149 C 
ENDBRANCH  25  26
ENDBRANCH   3  19
TORSDOF 5
ENDMDL
MODEL 3
REMARK VINA RESULT:    -6.987      3.249      7.934
REMARK INTER + INTRA:         -10.353
REMARK INTER:                  -8.479
REMARK INTRA:                  -1.874
REMARK CONF_INDEPENDENT:        1.492
REMARK UNBOUND:                -1.874
REMARK  5 active torsions:
REMARK  status: ('A' for Active; 'I' for Inactive)
REMARK    1  A    between atoms: C_2  and  C_3 
REMARK       I    between atoms: C_2  and  N_16 
REMARK    2  A    between atoms: C_3  and  S_4 
REMARK    3  A    between atoms: S_4  and  C_5 
REMARK    4  A    between atoms: N_16  and  C_17 
REMARK    5  A    between atoms: C_23  and  N_24 
ROOT
ATOM      1  O   UNL d   1      25.617 -14.540  -4.704  0.00  0.00    -0.272 OA
ATOM      2  C   UNL d   1      25.457 -14.831  -3.515  0.00  0.00     0.231 C 
ATOM      3  N   UNL d   1      25.298 -16.168  -3.211  0.00  0.00    -0.324 N 
ATOM      4  H   UNL d   1      25.447 -16.795  -3.991  0.00  0.00     0.169 HD
ENDROOT
BRANCH   2   5
ATOM      5  C   UNL d   1      25.525 -13.797  -2.373  0.00  0.00     0.185 C 
BRANCH   5   6
ATOM      6  S   UNL d   1      26.944 -12.667  -2.538  0.00  0.00    -0.083 SA
BRANCH   6   7
ATOM      7  C   UNL d   1      26.275 -11.357  -3.468  0.00  0.00     0.170 A 
ATOM      8  N   UNL d   1      26.077 -10.172  -3.001  0.00  0.00    -0.224 NA
ATOM      9  C   UNL d   1      25.569  -9.204  -3.897  0.00  0.00     0.075 A 
ATOM     10  C   UNL d   1      25.338  -7.909  -3.432  0.00  0.00     0.032 A 
ATOM     11  C   UNL d   1      25.303  -9.480  -5.244  0.00  0.00     0.061 A 
ATOM     12  C   UNL d   1      24.850  -6.916  -4.291  0.00  0.00     0.002 A 
ATOM     13  C   UNL d   1      24.599  -7.206  -5.632  0.00  0.00     0.001 A 
ATOM     14  C   UNL d   1      24.831  -8.492  -6.117  0.00  0.00     0.019 A 
ATOM     15  C   UNL d   1      25.532 -10.861  -5.708  0.00  0.00     0.260 A 
ATOM     16  O   UNL d   1      25.314 -11.202  -6.859  0.00  0.00    -0.267 OA
ATOM     17  N   UNL d   1      26.007 -11.727  -4.754  0.00  0.00    -0.302 N 
ATOM     18  H   UNL d   1      26.178 -12.679  -5.041  0.00  0.00     0.171 HD
ENDBRANCH   6   7
ENDBRANCH   5   6
ENDBRANCH   2   5
BRANCH   3  19
ATOM     19  C   UNL d   1      25.151 -16.773  -1.950  0.00  0.00     0.063 A 
ATOM     20  C   UNL d   1      23.977 -17.486  -1.689  0.00  0.00     0.055 A 
ATOM     21  C   UNL d   1      23.763 -18.072  -0.453  0.00  0.00     0.036 A 
ATOM     22 CL   UNL d   1      22.261 -18.847  -0.144  0.00  0.00    -0.084 Cl
ATOM     23  C   UNL d   1      24.754 -18.025   0.512  0.00  0.00     0.026 A 
ATOM     24  C   UNL d   1      25.973 -17.390   0.226  0.00  0.00     0.033 A 
ATOM     25  C   UNL d   1      26.208 -16.747  -1.006  0.00  0.00     0.057 A 
BRANCH  25  26
ATOM     26  N   UNL d   1      27.402 -16.082  -1.200  0.00  0.00    -0.375 N 
ATOM     27  C   UNL d   1      28.288 -16.324  -2.347  0.00  0.00     0.149 C 
ATOM     28  C   UNL d   1      29.684 -16.725  -1.845  0.00  0.00     0.187 C 
ATOM     29  O   UNL d   1      30.212 -15.758  -0.919  0.00  0.00    -0.388 OA
ATOM     30  C   UNL d   1      29.330 -15.606   0.212  0.00  0.00     0.187 C 
ATOM     31  C   UNL d   1      27.936 -15.119  -0.226  0.00  0.00     0.149 C 
ENDBRANCH  25  26
ENDBRANCH   3  19
TORSDOF 5
ENDMDL
MODEL 4
REMARK VINA RESULT:    -6.868      3.140      7.456
REMARK INTER + INTRA:         -10.493
REMARK INTER:                  -8.360
REMARK INTRA:                  -2.134
REMARK CONF_INDEPENDENT:        1.492
REMARK UNBOUND:                -2.134
REMARK  5 active torsions:
REMARK  status: ('A' for Active; 'I' for Inactive)
REMARK    1  A    between atoms: C_2  and  C_3 
REMARK       I    between atoms: C_2  and  N_16 
REMARK    2  A    between atoms: C_3  and  S_4 
REMARK    3  A    between atoms: S_4  and  C_5 
REMARK    4  A    between atoms: N_16  and  C_17 
REMARK    5  A    between atoms: C_23  and  N_24 
ROOT
ATOM      1  O   UNL d   1      26.131 -12.373  -2.588  0.00  0.00    -0.272 OA
ATOM      2  C   UNL d   1      25.765 -13.549  -2.511  0.00  0.00     0.231 C 
ATOM      3  N   UNL d   1      26.196 -14.270  -1.416  0.00  0.00    -0.324 N 
ATOM      4  H   UNL d   1      26.682 -13.721  -0.717  0.00  0.00     0.169 HD
ENDROOT
BRANCH   2   5
ATOM      5  C   UNL d   1      24.787 -14.199  -3.510  0.00  0.00     0.185 C 
BRANCH   5   6
ATOM      6  S   UNL d   1      25.530 -15.604  -4.400  0.00  0.00    -0.083 SA
BRANCH   6   7
ATOM      7  C   UNL d   1      26.951 -14.891  -5.108  0.00  0.00     0.170 A 
ATOM      8  N   UNL d   1      27.933 -15.573  -5.590  0.00  0.00    -0.224 NA
ATOM      9  C   UNL d   1      28.996 -14.847  -6.173  0.00  0.00     0.075 A 
ATOM     10  C   UNL d   1      30.080 -15.546  -6.705  0.00  0.00     0.032 A 
ATOM     11  C   UNL d   1      29.005 -13.449  -6.259  0.00  0.00     0.061 A 
ATOM     12  C   UNL d   1      31.147 -14.865  -7.305  0.00  0.00     0.002 A 
ATOM     13  C   UNL d   1      31.135 -13.472  -7.391  0.00  0.00     0.001 A 
ATOM     14  C   UNL d   1      30.057 -12.757  -6.872  0.00  0.00     0.019 A 
ATOM     15  C   UNL d   1      27.861 -12.729  -5.669  0.00  0.00     0.260 A 
ATOM     16  O   UNL d   1      27.786 -11.511  -5.681  0.00  0.00    -0.267 OA
ATOM     17  N   UNL d   1      26.893 -13.527  -5.111  0.00  0.00    -0.302 N 
ATOM     18  H   UNL d   1      26.095 -13.066  -4.702  0.00  0.00     0.171 HD
ENDBRANCH   6   7
ENDBRANCH   5   6
ENDBRANCH   2   5
BRANCH   3  19
ATOM     19  C   UNL d   1      25.891 -15.595  -1.059  0.00  0.00     0.063 A 
ATOM     20  C   UNL d   1      24.546 -15.948  -0.905  0.00  0.00     0.055 A 
ATOM     21  C   UNL d   1      24.188 -17.228  -0.521  0.00  0.00     0.036 A 
ATOM     22 CL   UNL d   1      22.530 -17.585  -0.242  0.00  0.00    -0.084 Cl
ATOM     23  C   UNL d   1      25.162 -18.199  -0.365  0.00  0.00     0.026 A 
ATOM     24  C   UNL d   1      26.507 -17.877  -0.607  0.00  0.00     0.033 A 
ATOM     25  C   UNL d   1      26.911 -16.574  -0.958  0.00  0.00     0.057 A 
BRANCH  25  26
ATOM     26  N   UNL d   1      28.256 -16.306  -1.116  0.00  0.00    -0.375 N 
ATOM     27  C   UNL d   1      28.816 -15.629  -2.294  0.00  0.00     0.149 C 
ATOM     28  C   UNL d   1      29.886 -16.523  -2.943  0.00  0.00     0.187 C 
ATOM     29  O   UNL d   1      30.890 -16.922  -1.992  0.00  0.00    -0.388 OA
ATOM     30  C   UNL d   1      30.290 -17.631  -0.889  0.00  0.00     0.187 C 
ATOM     31  C   UNL d   1      29.268 -16.749  -0.146  0.00  0.00     0.149 C 
ENDBRANCH  25  26
ENDBRANCH   3  19
TORSDOF 5
ENDMDL
MODEL 5
REMARK VINA RESULT:    -6.794      3.674      7.693
REMARK INTER + INTRA:         -10.601
REMARK INTER:                  -8.286
REMARK INTRA:                  -2.315
REMARK CONF_INDEPENDENT:        1.492
REMARK UNBOUND:                -2.315
REMARK  5 active torsions:
REMARK  status: ('A' for Active; 'I' for Inactive)
REMARK    1  A    between atoms: C_2  and  C_3 
REMARK       I    between atoms: C_2  and  N_16 
REMARK    2  A    between atoms: C_3  and  S_4 
REMARK    3  A    between atoms: S_4  and  C_5 
REMARK    4  A    between atoms: N_16  and  C_17 
REMARK    5  A    between atoms: C_23  and  N_24 
ROOT
ATOM      1  O   UNL d   1      26.102 -13.254  -2.249  0.00  0.00    -0.272 OA
ATOM      2  C   UNL d   1      25.774 -14.444  -2.227  0.00  0.00     0.231 C 
ATOM      3  N   UNL d   1      25.536 -15.008  -0.990  0.00  0.00    -0.324 N 
ATOM      4  H   UNL d   1      25.542 -14.349  -0.222  0.00  0.00     0.169 HD
ENDROOT
BRANCH   2   5
ATOM      5  C   UNL d   1      25.529 -15.278  -3.501  0.00  0.00     0.185 C 
BRANCH   5   6
ATOM      6  S   UNL d   1      26.109 -14.439  -5.009  0.00  0.00    -0.083 SA
BRANCH   6   7
ATOM      7  C   UNL d   1      27.801 -14.844  -5.037  0.00  0.00     0.170 A 
ATOM      8  N   UNL d   1      28.363 -15.518  -5.982  0.00  0.00    -0.224 NA
ATOM      9  C   UNL d   1      29.757 -15.725  -5.883  0.00  0.00     0.075 A 
ATOM     10  C   UNL d   1      30.405 -16.451  -6.883  0.00  0.00     0.032 A 
ATOM     11  C   UNL d   1      30.528 -15.218  -4.830  0.00  0.00     0.061 A 
ATOM     12  C   UNL d   1      31.788 -16.667  -6.830  0.00  0.00     0.002 A 
ATOM     13  C   UNL d   1      32.543 -16.146  -5.780  0.00  0.00     0.001 A 
ATOM     14  C   UNL d   1      31.914 -15.411  -4.774  0.00  0.00     0.019 A 
ATOM     15  C   UNL d   1      29.820 -14.474  -3.772  0.00  0.00     0.260 A 
ATOM     16  O   UNL d   1      30.403 -14.007  -2.807  0.00  0.00    -0.267 OA
ATOM     17  N   UNL d   1      28.465 -14.346  -3.954  0.00  0.00    -0.302 N 
ATOM     18  H   UNL d   1      27.952 -13.839  -3.249  0.00  0.00     0.171 HD
ENDBRANCH   6   7
ENDBRANCH   5   6
ENDBRANCH   2   5
BRANCH   3  19
ATOM     19  C   UNL d   1      25.107 -16.311  -0.685  0.00  0.00     0.063 A 
ATOM     20  C   UNL d   1      23.778 -16.652  -0.955  0.00  0.00     0.055 A 
ATOM     21  C   UNL d   1      23.290 -17.910  -0.643  0.00  0.00     0.036 A 
ATOM     22 CL   UNL d   1      21.625 -18.247  -0.895  0.00  0.00    -0.084 Cl
ATOM     23  C   UNL d   1      24.145 -18.872  -0.133  0.00  0.00     0.026 A 
ATOM     24  C   UNL d   1      25.502 -18.567   0.056  0.00  0.00     0.033 A 
ATOM     25  C   UNL d   1      26.022 -17.285  -0.211  0.00  0.00     0.057 A 
BRANCH  25  26
ATOM     26  N   UNL d   1      27.351 -17.029   0.060  0.00  0.00    -0.375 N 
ATOM     27  C   UNL d   1      27.808 -15.899   0.882  0.00  0.00     0.149 C 
ATOM     28  C   UNL d   1      28.787 -15.033   0.071  0.00  0.00     0.187 C 
ATOM     29  O   UNL d   1      29.869 -15.817  -0.463  0.00  0.00    -0.388 OA
ATOM     30  C   UNL d   1      29.363 -16.871  -1.307  0.00  0.00     0.187 C 
ATOM     31  C   UNL d   1      28.442 -17.824  -0.521  0.00  0.00     0.149 C 
ENDBRANCH  25  26
ENDBRANCH   3  19
TORSDOF 5
ENDMDL
MODEL 6
REMARK VINA RESULT:    -6.609      3.325      4.161
REMARK INTER + INTRA:         -10.715
REMARK INTER:                  -8.101
REMARK INTRA:                  -2.614
REMARK CONF_INDEPENDENT:        1.492
REMARK UNBOUND:                -2.614
REMARK  5 active torsions:
REMARK  status: ('A' for Active; 'I' for Inactive)
REMARK    1  A    between atoms: C_2  and  C_3 
REMARK       I    between atoms: C_2  and  N_16 
REMARK    2  A    between atoms: C_3  and  S_4 
REMARK    3  A    between atoms: S_4  and  C_5 
REMARK    4  A    between atoms: N_16  and  C_17 
REMARK    5  A    between atoms: C_23  and  N_24 
ROOT
ATOM      1  O   UNL d   1      30.207 -17.399  -0.944  0.00  0.00    -0.272 OA
ATOM      2  C   UNL d   1      29.754 -16.468  -1.615  0.00  0.00     0.231 C 
ATOM      3  N   UNL d   1      29.066 -16.800  -2.766  0.00  0.00    -0.324 N 
ATOM      4  H   UNL d   1      28.901 -17.791  -2.883  0.00  0.00     0.169 HD
ENDROOT
BRANCH   2   5
ATOM      5  C   UNL d   1      29.836 -14.991  -1.180  0.00  0.00     0.185 C 
BRANCH   5   6
ATOM      6  S   UNL d   1      28.891 -14.657   0.340  0.00  0.00    -0.083 SA
BRANCH   6   7
ATOM      7  C   UNL d   1      27.524 -15.720   0.174  0.00  0.00     0.170 A 
ATOM      8  N   UNL d   1      26.354 -15.333  -0.204  0.00  0.00    -0.224 NA
ATOM      9  C   UNL d   1      25.358 -16.327  -0.334  0.00  0.00     0.075 A 
ATOM     10  C   UNL d   1      24.077 -15.950  -0.739  0.00  0.00     0.032 A 
ATOM     11  C   UNL d   1      25.602 -17.684  -0.094  0.00  0.00     0.061 A 
ATOM     12  C   UNL d   1      23.065 -16.906  -0.895  0.00  0.00     0.002 A 
ATOM     13  C   UNL d   1      23.328 -18.256  -0.661  0.00  0.00     0.001 A 
ATOM     14  C   UNL d   1      24.604 -18.652  -0.263  0.00  0.00     0.019 A 
ATOM     15  C   UNL d   1      26.956 -18.057   0.355  0.00  0.00     0.260 A 
ATOM     16  O   UNL d   1      27.261 -19.212   0.606  0.00  0.00    -0.267 OA
ATOM     17  N   UNL d   1      27.842 -17.014   0.469  0.00  0.00    -0.302 N 
ATOM     18  H   UNL d   1      28.779 -17.236   0.771  0.00  0.00     0.171 HD
ENDBRANCH   6   7
ENDBRANCH   5   6
ENDBRANCH   2   5
BRANCH   3  19
ATOM     19  C   UNL d   1      28.412 -15.951  -3.676  0.00  0.00     0.063 A 
ATOM     20  C   UNL d   1      27.190 -15.387  -3.296  0.00  0.00     0.055 A 
ATOM     21  C   UNL d   1      26.485 -14.571  -4.165  0.00  0.00     0.036 A 
ATOM     22 CL   UNL d   1      24.939 -13.988  -3.695  0.00  0.00    -0.084 Cl
ATOM     23  C   UNL d   1      27.030 -14.240  -5.393  0.00  0.00     0.026 A 
ATOM     24  C   UNL d   1      28.298 -14.728  -5.745  0.00  0.00     0.033 A 
ATOM     25  C   UNL d   1      29.024 -15.593  -4.903  0.00  0.00     0.057 A 
BRANCH  25  26
ATOM     26  N   UNL d   1      30.236 -16.093  -5.336  0.00  0.00    -0.375 N 
ATOM     27  C   UNL d   1      30.404 -16.838  -6.592  0.00  0.00     0.149 C 
ATOM     28  C   UNL d   1      31.018 -18.217  -6.296  0.00  0.00     0.187 C 
ATOM     29  O   UNL d   1      32.237 -18.102  -5.539  0.00  0.00    -0.388 OA
ATOM     30  C   UNL d   1      31.998 -17.415  -4.294  0.00  0.00     0.187 C 
ATOM     31  C   UNL d   1      31.464 -15.990  -4.534  0.00  0.00     0.149 C 
ENDBRANCH  25  26
ENDBRANCH   3  19
TORSDOF 5
ENDMDL
MODEL 7
REMARK VINA RESULT:    -6.391      2.893      7.543
REMARK INTER + INTRA:         -10.519
REMARK INTER:                  -7.883
REMARK INTRA:                  -2.637
REMARK CONF_INDEPENDENT:        1.492
REMARK UNBOUND:                -2.637
REMARK  5 active torsions:
REMARK  status: ('A' for Active; 'I' for Inactive)
REMARK    1  A    between atoms: C_2  and  C_3 
REMARK       I    between atoms: C_2  and  N_16 
REMARK    2  A    between atoms: C_3  and  S_4 
REMARK    3  A    between atoms: S_4  and  C_5 
REMARK    4  A    between atoms: N_16  and  C_17 
REMARK    5  A    between atoms: C_23  and  N_24 
ROOT
ATOM      1  O   UNL d   1      24.222 -14.076  -3.441  0.00  0.00    -0.272 OA
ATOM      2  C   UNL d   1      25.138 -14.382  -2.674  0.00  0.00     0.231 C 
ATOM      3  N   UNL d   1      25.533 -15.705  -2.662  0.00  0.00    -0.324 N 
ATOM      4  H   UNL d   1      25.103 -16.276  -3.378  0.00  0.00     0.169 HD
ENDROOT
BRANCH   2   5
ATOM      5  C   UNL d   1      25.908 -13.353  -1.821  0.00  0.00     0.185 C 
BRANCH   5   6
ATOM      6  S   UNL d   1      26.741 -12.089  -2.834  0.00  0.00    -0.083 SA
BRANCH   6   7
ATOM      7  C   UNL d   1      27.743 -13.050  -3.884  0.00  0.00     0.170 A 
ATOM      8  N   UNL d   1      29.030 -12.979  -3.911  0.00  0.00    -0.224 NA
ATOM      9  C   UNL d   1      29.705 -13.860  -4.787  0.00  0.00     0.075 A 
ATOM     10  C   UNL d   1      31.098 -13.815  -4.848  0.00  0.00     0.032 A 
ATOM     11  C   UNL d   1      29.037 -14.794  -5.588  0.00  0.00     0.061 A 
ATOM     12  C   UNL d   1      31.805 -14.681  -5.693  0.00  0.00     0.002 A 
ATOM     13  C   UNL d   1      31.125 -15.613  -6.477  0.00  0.00     0.001 A 
ATOM     14  C   UNL d   1      29.733 -15.677  -6.423  0.00  0.00     0.019 A 
ATOM     15  C   UNL d   1      27.564 -14.808  -5.525  0.00  0.00     0.260 A 
ATOM     16  O   UNL d   1      26.893 -15.574  -6.197  0.00  0.00    -0.267 OA
ATOM     17  N   UNL d   1      27.008 -13.900  -4.658  0.00  0.00    -0.302 N 
ATOM     18  H   UNL d   1      26.001 -13.886  -4.588  0.00  0.00     0.171 HD
ENDBRANCH   6   7
ENDBRANCH   5   6
ENDBRANCH   2   5
BRANCH   3  19
ATOM     19  C   UNL d   1      26.571 -16.307  -1.929  0.00  0.00     0.063 A 
ATOM     20  C   UNL d   1      27.888 -16.099  -2.353  0.00  0.00     0.055 A 
ATOM     21  C   UNL d   1      28.948 -16.696  -1.691  0.00  0.00     0.036 A 
ATOM     22 CL   UNL d   1      30.538 -16.499  -2.311  0.00  0.00    -0.084 Cl
ATOM     23  C   UNL d   1      28.714 -17.440  -0.547  0.00  0.00     0.026 A 
ATOM     24  C   UNL d   1      27.404 -17.577  -0.063  0.00  0.00     0.033 A 
ATOM     25  C   UNL d   1      26.298 -17.019  -0.735  0.00  0.00     0.057 A 
BRANCH  25  26
ATOM     26  N   UNL d   1      25.028 -17.247  -0.244  0.00  0.00    -0.375 N 
ATOM     27  C   UNL d   1      24.538 -18.575   0.150  0.00  0.00     0.149 C 
ATOM     28  C   UNL d   1      23.265 -18.912  -0.645  0.00  0.00     0.187 C 
ATOM     29  O   UNL d   1      22.270 -17.880  -0.513  0.00  0.00    -0.388 OA
ATOM     30  C   UNL d   1      22.789 -16.615  -0.969  0.00  0.00     0.187 C 
ATOM     31  C   UNL d   1      24.018 -16.184  -0.145  0.00  0.00     0.149 C 
ENDBRANCH  25  26
ENDBRANCH   3  19
TORSDOF 5
ENDMDL
MODEL 8
REMARK VINA RESULT:    -6.382      2.642      4.100
REMARK INTER + INTRA:         -10.421
REMARK INTER:                  -7.873
REMARK INTRA:                  -2.548
REMARK CONF_INDEPENDENT:        1.492
REMARK UNBOUND:                -2.548
REMARK  5 active torsions:
REMARK  status: ('A' for Active; 'I' for Inactive)
REMARK    1  A    between atoms: C_2  and  C_3 
REMARK       I    between atoms: C_2  and  N_16 
REMARK    2  A    between atoms: C_3  and  S_4 
REMARK    3  A    between atoms: S_4  and  C_5 
REMARK    4  A    between atoms: N_16  and  C_17 
REMARK    5  A    between atoms: C_23  and  N_24 
ROOT
ATOM      1  O   UNL d   1      26.572 -15.575  -5.448  0.00  0.00    -0.272 OA
ATOM      2  C   UNL d   1      27.691 -15.060  -5.510  0.00  0.00     0.231 C 
ATOM      3  N   UNL d   1      27.807 -13.895  -6.243  0.00  0.00    -0.324 N 
ATOM      4  H   UNL d   1      26.927 -13.514  -6.564  0.00  0.00     0.169 HD
ENDROOT
BRANCH   2   5
ATOM      5  C   UNL d   1      28.914 -15.595  -4.739  0.00  0.00     0.185 C 
BRANCH   5   6
ATOM      6  S   UNL d   1      28.926 -15.070  -2.995  0.00  0.00    -0.083 SA
BRANCH   6   7
ATOM      7  C   UNL d   1      27.375 -15.616  -2.428  0.00  0.00     0.170 A 
ATOM      8  N   UNL d   1      27.217 -16.565  -1.569  0.00  0.00    -0.224 NA
ATOM      9  C   UNL d   1      25.894 -16.862  -1.174  0.00  0.00     0.075 A 
ATOM     10  C   UNL d   1      25.678 -17.883  -0.247  0.00  0.00     0.032 A 
ATOM     11  C   UNL d   1      24.781 -16.162  -1.657  0.00  0.00     0.061 A 
ATOM     12  C   UNL d   1      24.383 -18.199   0.182  0.00  0.00     0.002 A 
ATOM     13  C   UNL d   1      23.286 -17.485  -0.302  0.00  0.00     0.001 A 
ATOM     14  C   UNL d   1      23.482 -16.456  -1.223  0.00  0.00     0.019 A 
ATOM     15  C   UNL d   1      25.029 -15.104  -2.652  0.00  0.00     0.260 A 
ATOM     16  O   UNL d   1      24.123 -14.450  -3.144  0.00  0.00    -0.267 OA
ATOM     17  N   UNL d   1      26.348 -14.909  -2.982  0.00  0.00    -0.302 N 
ATOM     18  H   UNL d   1      26.552 -14.189  -3.658  0.00  0.00     0.171 HD
ENDBRANCH   6   7
ENDBRANCH   5   6
ENDBRANCH   2   5
BRANCH   3  19
ATOM     19  C   UNL d   1      28.940 -13.085  -6.434  0.00  0.00     0.063 A 
ATOM     20  C   UNL d   1      29.866 -13.459  -7.413  0.00  0.00     0.055 A 
ATOM     21  C   UNL d   1      31.017 -12.718  -7.620  0.00  0.00     0.036 A 
ATOM     22 CL   UNL d   1      32.176 -13.275  -8.760  0.00  0.00    -0.084 Cl
ATOM     23  C   UNL d   1      31.220 -11.547  -6.911  0.00  0.00     0.026 A 
ATOM     24  C   UNL d   1      30.250 -11.115  -5.992  0.00  0.00     0.033 A 
ATOM     25  C   UNL d   1      29.088 -11.866  -5.725  0.00  0.00     0.057 A 
BRANCH  25  26
ATOM     26  N   UNL d   1      28.207 -11.422  -4.760  0.00  0.00    -0.375 N 
ATOM     27  C   UNL d   1      28.553 -11.310  -3.336  0.00  0.00     0.149 C 
ATOM     28  C   UNL d   1      27.569 -12.145  -2.499  0.00  0.00     0.187 C 
ATOM     29  O   UNL d   1      26.203 -11.790  -2.778  0.00  0.00    -0.388 OA
ATOM     30  C   UNL d   1      25.906 -11.976  -4.177  0.00  0.00     0.187 C 
ATOM     31  C   UNL d   1      26.807 -11.092  -5.062  0.00  0.00     0.149 C 
ENDBRANCH  25  26
ENDBRANCH   3  19
TORSDOF 5
ENDMDL
MODEL 9
REMARK VINA RESULT:    -6.283      3.289      6.754
REMARK INTER + INTRA:         -10.784
REMARK INTER:                  -7.775
REMARK INTRA:                  -3.009
REMARK CONF_INDEPENDENT:        1.492
REMARK UNBOUND:                -3.009
REMARK  5 active torsions:
REMARK  status: ('A' for Active; 'I' for Inactive)
REMARK    1  A    between atoms: C_2  and  C_3 
REMARK       I    between atoms: C_2  and  N_16 
REMARK    2  A    between atoms: C_3  and  S_4 
REMARK    3  A    between atoms: S_4  and  C_5 
REMARK    4  A    between atoms: N_16  and  C_17 
REMARK    5  A    between atoms: C_23  and  N_24 
ROOT
ATOM      1  O   UNL d   1      26.696 -17.987   1.260  0.00  0.00    -0.272 OA
ATOM      2  C   UNL d   1      26.897 -17.353   0.221  0.00  0.00     0.231 C 
ATOM      3  N   UNL d   1      28.041 -16.581   0.168  0.00  0.00    -0.324 N 
ATOM      4  H   UNL d   1      28.666 -16.705   0.954  0.00  0.00     0.169 HD
ENDROOT
BRANCH   2   5
ATOM      5  C   UNL d   1      25.999 -17.464  -1.028  0.00  0.00     0.185 C 
BRANCH   5   6
ATOM      6  S   UNL d   1      24.700 -16.188  -1.069  0.00  0.00    -0.083 SA
BRANCH   6   7
ATOM      7  C   UNL d   1      25.301 -15.079  -2.267  0.00  0.00     0.170 A 
ATOM      8  N   UNL d   1      25.520 -13.828  -2.042  0.00  0.00    -0.224 NA
ATOM      9  C   UNL d   1      26.053 -13.067  -3.107  0.00  0.00     0.075 A 
ATOM     10  C   UNL d   1      26.305 -11.709  -2.907  0.00  0.00     0.032 A 
ATOM     11  C   UNL d   1      26.361 -13.619  -4.356  0.00  0.00     0.061 A 
ATOM     12  C   UNL d   1      26.846 -10.922  -3.931  0.00  0.00     0.002 A 
ATOM     13  C   UNL d   1      27.156 -11.490  -5.167  0.00  0.00     0.001 A 
ATOM     14  C   UNL d   1      26.919 -12.848  -5.383  0.00  0.00     0.019 A 
ATOM     15  C   UNL d   1      26.066 -15.050  -4.554  0.00  0.00     0.260 A 
ATOM     16  O   UNL d   1      26.284 -15.617  -5.612  0.00  0.00    -0.267 OA
ATOM     17  N   UNL d   1      25.531 -15.692  -3.464  0.00  0.00    -0.302 N 
ATOM     18  H   UNL d   1      25.321 -16.674  -3.565  0.00  0.00     0.171 HD
ENDBRANCH   6   7
ENDBRANCH   5   6
ENDBRANCH   2   5
BRANCH   3  19
ATOM     19  C   UNL d   1      28.533 -15.809  -0.900  0.00  0.00     0.063 A 
ATOM     20  C   UNL d   1      28.826 -16.454  -2.105  0.00  0.00     0.055 A 
ATOM     21  C   UNL d   1      29.346 -15.750  -3.178  0.00  0.00     0.036 A 
ATOM     22 CL   UNL d   1      29.791 -16.603  -4.601  0.00  0.00    -0.084 Cl
ATOM     23  C   UNL d   1      29.502 -14.377  -3.090  0.00  0.00     0.026 A 
ATOM     24  C   UNL d   1      29.123 -13.709  -1.916  0.00  0.00     0.033 A 
ATOM     25  C   UNL d   1      28.631 -14.399  -0.790  0.00  0.00     0.057 A 
BRANCH  25  26
ATOM     26  N   UNL d   1      28.340 -13.691   0.359  0.00  0.00    -0.375 N 
ATOM     27  C   UNL d   1      29.031 -13.902   1.638  0.00  0.00     0.149 C 
ATOM     28  C   UNL d   1      28.004 -14.252   2.728  0.00  0.00     0.187 C 
ATOM     29  O   UNL d   1      26.959 -13.266   2.807  0.00  0.00    -0.388 OA
ATOM     30  C   UNL d   1      26.280 -13.145   1.541  0.00  0.00     0.187 C 
ATOM     31  C   UNL d   1      27.248 -12.708   0.425  0.00  0.00     0.149 C 
ENDBRANCH  25  26
ENDBRANCH   3  19
TORSDOF 5
ENDMDL
