MODEL 1
REMARK VINA RESULT:   -29.215      0.000      0.000
REMARK INTER + INTRA:         -30.969
REMARK INTER:                 -30.110
REMARK INTRA:                  -0.859
REMARK CONF_INDEPENDENT:        0.895
REMARK UNBOUND:                -0.859
REMARK  3 active torsions:
REMARK  status: ('A' for Active; 'I' for Inactive)
REMARK    1  A    between atoms: C_3  and  C_2 
REMARK    2  A    between atoms: C_8  and  C_9 
REMARK       I    between atoms: C_9  and  N_11 
REMARK    3  A    between atoms: N_11  and  N_12 
ROOT
ATOM      1  C   UNL d   1      27.183 -15.563  -0.627  0.00  0.00    -0.010 C 
ATOM      2  C   UNL d   1      27.504 -16.638   0.430  0.00  0.00     0.009 C 
ATOM      3  C   UNL d   1      26.809 -17.966   0.114  0.00  0.00     0.040 C 
ATOM      4  C   UNL d   1      25.357 -17.766  -0.193  0.00  0.00    -0.043 A 
ATOM      5  C   UNL d   1      24.329 -18.753  -0.140  0.00  0.00     0.032 A 
ATOM      6  C   UNL d   1      23.069 -18.261  -0.453  0.00  0.00     0.074 A 
ATOM      7  S   UNL d   1      23.158 -16.590  -0.835  0.00  0.00    -0.089 SA
ATOM      8  C   UNL d   1      24.850 -16.544  -0.584  0.00  0.00    -0.010 A 
ATOM      9  C   UNL d   1      25.657 -15.282  -0.718  0.00  0.00     0.051 C 
ENDROOT
BRANCH   6  10
ATOM     10  C   UNL d   1      21.830 -19.038  -0.467  0.00  0.00     0.272 C 
ATOM     11  O   UNL d   1      21.687 -20.062   0.212  0.00  0.00    -0.266 OA
ATOM     12  N   UNL d   1      20.789 -18.597  -1.290  0.00  0.00    -0.289 N 
ATOM     13  H   UNL d   1      20.874 -17.710  -1.780  0.00  0.00     0.183 HD
BRANCH  12  14
ATOM     14  N   UNL d   1      19.530 -19.265  -1.270  0.00  0.00    -0.247 NA
ATOM     15  H   UNL d   1      19.711 -20.242  -0.996  0.00  0.00     0.143 HD
ATOM     16  H   UNL d   1      19.180 -19.332  -2.229  0.00  0.00     0.143 HD
ENDBRANCH  12  14
ENDBRANCH   6  10
BRANCH   1  17
ATOM     17  C   UNL d   1      27.962 -14.279  -0.292  0.00  0.00     0.000 C 
ATOM     18  C   UNL d   1      27.464 -13.637   0.990  0.00  0.00     0.005 C 
ENDBRANCH   1  17
TORSDOF 3
ENDMDL
MODEL 2
REMARK VINA RESULT:   -29.112      1.611      2.463
REMARK INTER + INTRA:         -30.930
REMARK INTER:                 -30.007
REMARK INTRA:                  -0.923
REMARK CONF_INDEPENDENT:        0.895
REMARK UNBOUND:                -0.923
REMARK  3 active torsions:
REMARK  status: ('A' for Active; 'I' for Inactive)
REMARK    1  A    between atoms: C_3  and  C_2 
REMARK    2  A    between atoms: C_8  and  C_9 
REMARK       I    between atoms: C_9  and  N_11 
REMARK    3  A    between atoms: N_11  and  N_12 
ROOT
ATOM      1  C   UNL d   1      27.712 -17.027  -0.038  0.00  0.00    -0.010 C 
ATOM      2  C   UNL d   1      27.411 -15.966  -1.115  0.00  0.00     0.009 C 
ATOM      3  C   UNL d   1      25.996 -15.397  -0.969  0.00  0.00     0.040 C 
ATOM      4  C   UNL d   1      24.979 -16.487  -0.825  0.00  0.00    -0.043 A 
ATOM      5  C   UNL d   1      23.576 -16.382  -1.062  0.00  0.00     0.032 A 
ATOM      6  C   UNL d   1      22.891 -17.573  -0.871  0.00  0.00     0.074 A 
ATOM      7  S   UNL d   1      23.971 -18.812  -0.376  0.00  0.00    -0.089 SA
ATOM      8  C   UNL d   1      25.319 -17.761  -0.421  0.00  0.00    -0.010 A 
ATOM      9  C   UNL d   1      26.717 -18.220  -0.112  0.00  0.00     0.051 C 
ENDROOT
BRANCH   6  10
ATOM     10  C   UNL d   1      21.452 -17.767  -1.054  0.00  0.00     0.272 C 
ATOM     11  O   UNL d   1      20.682 -16.824  -1.270  0.00  0.00    -0.266 OA
ATOM     12  N   UNL d   1      20.950 -19.070  -0.967  0.00  0.00    -0.289 N 
ATOM     13  H   UNL d   1      21.592 -19.853  -0.876  0.00  0.00     0.183 HD
BRANCH  12  14
ATOM     14  N   UNL d   1      19.572 -19.324  -1.228  0.00  0.00    -0.247 NA
ATOM     15  H   UNL d   1      19.505 -19.644  -2.206  0.00  0.00     0.143 HD
ATOM     16  H   UNL d   1      19.067 -18.434  -1.218  0.00  0.00     0.143 HD
ENDBRANCH  12  14
ENDBRANCH   6  10
BRANCH   1  17
ATOM     17  C   UNL d   1      29.164 -17.508  -0.196  0.00  0.00     0.000 C 
ATOM     18  C   UNL d   1      29.862 -16.820  -1.357  0.00  0.00     0.005 C 
ENDBRANCH   1  17
TORSDOF 3
ENDMDL
