MODEL 1
REMARK VINA RESULT:   -25.136      0.000      0.000
REMARK INTER + INTRA:         -29.194
REMARK INTER:                 -27.820
REMARK INTRA:                  -1.373
REMARK CONF_INDEPENDENT:        2.685
REMARK UNBOUND:                -1.373
REMARK  9 active torsions:
REMARK  status: ('A' for Active; 'I' for Inactive)
REMARK    1  A    between atoms: S_2  and  C_3 
REMARK    2  A    between atoms: C_3  and  C_4 
REMARK    3  A    between atoms: C_4  and  C_5 
REMARK    4  A    between atoms: C_5  and  N_6 
REMARK    5  A    between atoms: C_5  and  C_19 
REMARK       I    between atoms: N_6  and  C_7 
REMARK    6  A    between atoms: C_7  and  C_9 
REMARK       I    between atoms: C_19  and  N_21 
REMARK    7  A    between atoms: N_21  and  C_22 
REMARK    8  A    between atoms: C_26  and  C_27 
REMARK       I    between atoms: C_27  and  N_29 
REMARK    9  A    between atoms: N_29  and  C_30 
ROOT
ATOM      1  C   UNL d   1      23.739 -16.380  -1.289  0.00  0.00     0.178 C 
ENDROOT
BRANCH   1   2
ATOM      2  C   UNL d   1      24.372 -17.290  -2.393  0.00  0.00     0.045 C 
BRANCH   2   3
ATOM      3  C   UNL d   1      25.541 -16.681  -3.161  0.00  0.00     0.076 C 
BRANCH   3   4
ATOM      4  S   UNL d   1      25.354 -14.902  -3.489  0.00  0.00    -0.173 SA
ATOM      5  C   UNL d   1      26.614 -14.729  -4.793  0.00  0.00     0.089 C 
ENDBRANCH   3   4
ENDBRANCH   2   3
ENDBRANCH   1   2
BRANCH   1   6
ATOM      6  N   UNL d   1      22.539 -16.969  -0.667  0.00  0.00    -0.342 N 
ATOM      7  C   UNL d   1      21.976 -18.160  -1.105  0.00  0.00     0.271 C 
ATOM      8  O   UNL d   1      22.282 -18.734  -2.151  0.00  0.00    -0.266 OA
ATOM      9  H   UNL d   1      22.153 -16.550   0.174  0.00  0.00     0.163 HD
BRANCH   7  10
ATOM     10  C   UNL d   1      20.962 -18.801  -0.234  0.00  0.00     0.125 A 
ATOM     11  C   UNL d   1      21.195 -18.951   1.131  0.00  0.00     0.038 A 
ATOM     12  C   UNL d   1      20.293 -19.714   1.865  0.00  0.00     0.016 A 
ATOM     13  C   UNL d   1      19.217 -20.321   1.205  0.00  0.00    -0.007 A 
ATOM     14  C   UNL d   1      18.296 -21.139   1.880  0.00  0.00     0.014 A 
ATOM     15  C   UNL d   1      19.075 -20.096  -0.186  0.00  0.00     0.068 A 
ATOM     16  C   UNL d   1      17.246 -21.734   1.183  0.00  0.00     0.001 A 
ATOM     17  C   UNL d   1      17.117 -21.521  -0.187  0.00  0.00     0.002 A 
ATOM     18  C   UNL d   1      18.035 -20.710  -0.854  0.00  0.00     0.032 A 
ATOM     19  N   UNL d   1      19.905 -19.321  -0.895  0.00  0.00    -0.243 NA
ENDBRANCH   7  10
ENDBRANCH   1   6
BRANCH   1  20
ATOM     20  C   UNL d   1      24.871 -16.097  -0.245  0.00  0.00     0.245 C 
ATOM     21  O   UNL d   1      25.169 -16.944   0.602  0.00  0.00    -0.271 OA
ATOM     22  N   UNL d   1      25.542 -14.882  -0.340  0.00  0.00    -0.325 N 
ATOM     23  H   UNL d   1      25.188 -14.160  -0.956  0.00  0.00     0.169 HD
BRANCH  22  24
ATOM     24  C   UNL d   1      26.639 -14.558   0.506  0.00  0.00     0.035 A 
ATOM     25  C   UNL d   1      26.489 -13.658   1.564  0.00  0.00     0.029 A 
ATOM     26  C   UNL d   1      27.594 -13.320   2.360  0.00  0.00     0.003 A 
ATOM     27  C   UNL d   1      28.848 -13.887   2.104  0.00  0.00     0.017 A 
ATOM     28  C   UNL d   1      29.019 -14.767   1.024  0.00  0.00     0.034 A 
ATOM     29  C   UNL d   1      27.905 -15.103   0.252  0.00  0.00     0.046 A 
BRANCH  28  30
ATOM     30  C   UNL d   1      30.383 -15.275   0.699  0.00  0.00     0.252 C 
ATOM     31  O   UNL d   1      31.286 -14.452   0.509  0.00  0.00    -0.268 OA
ATOM     32  N   UNL d   1      30.600 -16.654   0.609  0.00  0.00    -0.352 N 
ATOM     33  H   UNL d   1      29.894 -17.319   0.894  0.00  0.00     0.163 HD
BRANCH  32  34
ATOM     34  C   UNL d   1      31.942 -17.120   0.431  0.00  0.00     0.084 A 
ATOM     35  C   UNL d   1      32.712 -18.305   0.942  0.00  0.00     0.027 A 
ATOM     36  C   UNL d   1      32.026 -18.405  -0.374  0.00  0.00     0.027 A 
ENDBRANCH  32  34
ENDBRANCH  28  30
ENDBRANCH  22  24
ENDBRANCH   1  20
TORSDOF 9
ENDMDL
MODEL 2
REMARK VINA RESULT:   -25.015      2.013      3.872
REMARK INTER + INTRA:         -29.024
REMARK INTER:                 -27.699
REMARK INTRA:                  -1.324
REMARK CONF_INDEPENDENT:        2.685
REMARK UNBOUND:                -1.324
REMARK  9 active torsions:
REMARK  status: ('A' for Active; 'I' for Inactive)
REMARK    1  A    between atoms: S_2  and  C_3 
REMARK    2  A    between atoms: C_3  and  C_4 
REMARK    3  A    between atoms: C_4  and  C_5 
REMARK    4  A    between atoms: C_5  and  N_6 
REMARK    5  A    between atoms: C_5  and  C_19 
REMARK       I    between atoms: N_6  and  C_7 
REMARK    6  A    between atoms: C_7  and  C_9 
REMARK       I    between atoms: C_19  and  N_21 
REMARK    7  A    between atoms: N_21  and  C_22 
REMARK    8  A    between atoms: C_26  and  C_27 
REMARK       I    between atoms: C_27  and  N_29 
REMARK    9  A    between atoms: N_29  and  C_30 
ROOT
ATOM      1  C   UNL d   1      23.696 -16.349  -1.340  0.00  0.00     0.178 C 
ENDROOT
BRANCH   1   2
ATOM      2  C   UNL d   1      24.351 -17.266  -2.425  0.00  0.00     0.045 C 
BRANCH   2   3
ATOM      3  C   UNL d   1      25.573 -16.686  -3.130  0.00  0.00     0.076 C 
BRANCH   3   4
ATOM      4  S   UNL d   1      25.370 -14.952  -3.639  0.00  0.00    -0.173 SA
ATOM      5  C   UNL d   1      26.275 -15.021  -5.218  0.00  0.00     0.089 C 
ENDBRANCH   3   4
ENDBRANCH   2   3
ENDBRANCH   1   2
BRANCH   1   6
ATOM      6  N   UNL d   1      22.500 -16.946  -0.716  0.00  0.00    -0.342 N 
ATOM      7  C   UNL d   1      21.979 -18.169  -1.117  0.00  0.00     0.271 C 
ATOM      8  O   UNL d   1      22.319 -18.774  -2.135  0.00  0.00    -0.266 OA
ATOM      9  H   UNL d   1      22.088 -16.506   0.101  0.00  0.00     0.163 HD
BRANCH   7  10
ATOM     10  C   UNL d   1      20.966 -18.804  -0.240  0.00  0.00     0.125 A 
ATOM     11  C   UNL d   1      21.205 -18.950   1.124  0.00  0.00     0.038 A 
ATOM     12  C   UNL d   1      20.304 -19.708   1.864  0.00  0.00     0.016 A 
ATOM     13  C   UNL d   1      19.223 -20.314   1.212  0.00  0.00    -0.007 A 
ATOM     14  C   UNL d   1      18.302 -21.127   1.893  0.00  0.00     0.014 A 
ATOM     15  C   UNL d   1      19.076 -20.093  -0.180  0.00  0.00     0.068 A 
ATOM     16  C   UNL d   1      17.248 -21.721   1.202  0.00  0.00     0.001 A 
ATOM     17  C   UNL d   1      17.114 -21.512  -0.168  0.00  0.00     0.002 A 
ATOM     18  C   UNL d   1      18.031 -20.707  -0.842  0.00  0.00     0.032 A 
ATOM     19  N   UNL d   1      19.905 -19.323  -0.895  0.00  0.00    -0.243 NA
ENDBRANCH   7  10
ENDBRANCH   1   6
BRANCH   1  20
ATOM     20  C   UNL d   1      24.816 -16.031  -0.293  0.00  0.00     0.245 C 
ATOM     21  O   UNL d   1      25.081 -16.836   0.605  0.00  0.00    -0.271 OA
ATOM     22  N   UNL d   1      25.515 -14.838  -0.442  0.00  0.00    -0.325 N 
ATOM     23  H   UNL d   1      25.187 -14.144  -1.104  0.00  0.00     0.169 HD
BRANCH  22  24
ATOM     24  C   UNL d   1      26.604 -14.490   0.404  0.00  0.00     0.035 A 
ATOM     25  C   UNL d   1      27.747 -15.288   0.469  0.00  0.00     0.029 A 
ATOM     26  C   UNL d   1      28.792 -14.950   1.343  0.00  0.00     0.003 A 
ATOM     27  C   UNL d   1      28.697 -13.807   2.146  0.00  0.00     0.017 A 
ATOM     28  C   UNL d   1      27.540 -13.015   2.114  0.00  0.00     0.034 A 
ATOM     29  C   UNL d   1      26.517 -13.359   1.228  0.00  0.00     0.046 A 
BRANCH  28  30
ATOM     30  C   UNL d   1      27.410 -11.865   3.056  0.00  0.00     0.252 C 
ATOM     31  O   UNL d   1      27.838 -11.999   4.208  0.00  0.00    -0.268 OA
ATOM     32  N   UNL d   1      26.805 -10.681   2.618  0.00  0.00    -0.352 N 
ATOM     33  H   UNL d   1      26.578 -10.534   1.644  0.00  0.00     0.163 HD
BRANCH  32  34
ATOM     34  C   UNL d   1      26.814  -9.550   3.495  0.00  0.00     0.084 A 
ATOM     35  C   UNL d   1      27.860  -8.549   3.897  0.00  0.00     0.027 A 
ATOM     36  C   UNL d   1      26.955  -8.227   2.762  0.00  0.00     0.027 A 
ENDBRANCH  32  34
ENDBRANCH  28  30
ENDBRANCH  22  24
ENDBRANCH   1  20
TORSDOF 9
ENDMDL
MODEL 3
REMARK VINA RESULT:   -24.549      2.400      3.145
REMARK INTER + INTRA:         -28.567
REMARK INTER:                 -27.234
REMARK INTRA:                  -1.333
REMARK CONF_INDEPENDENT:        2.685
REMARK UNBOUND:                -1.333
REMARK  9 active torsions:
REMARK  status: ('A' for Active; 'I' for Inactive)
REMARK    1  A    between atoms: S_2  and  C_3 
REMARK    2  A    between atoms: C_3  and  C_4 
REMARK    3  A    between atoms: C_4  and  C_5 
REMARK    4  A    between atoms: C_5  and  N_6 
REMARK    5  A    between atoms: C_5  and  C_19 
REMARK       I    between atoms: N_6  and  C_7 
REMARK    6  A    between atoms: C_7  and  C_9 
REMARK       I    between atoms: C_19  and  N_21 
REMARK    7  A    between atoms: N_21  and  C_22 
REMARK    8  A    between atoms: C_26  and  C_27 
REMARK       I    between atoms: C_27  and  N_29 
REMARK    9  A    between atoms: N_29  and  C_30 
ROOT
ATOM      1  C   UNL d   1      23.865 -16.635  -1.707  0.00  0.00     0.178 C 
ENDROOT
BRANCH   1   2
ATOM      2  C   UNL d   1      24.870 -17.776  -2.077  0.00  0.00     0.045 C 
BRANCH   2   3
ATOM      3  C   UNL d   1      26.164 -17.802  -1.270  0.00  0.00     0.076 C 
BRANCH   3   4
ATOM      4  S   UNL d   1      25.905 -17.936   0.526  0.00  0.00    -0.173 SA
ATOM      5  C   UNL d   1      27.374 -17.016   1.085  0.00  0.00     0.089 C 
ENDBRANCH   3   4
ENDBRANCH   2   3
ENDBRANCH   1   2
BRANCH   1   6
ATOM      6  N   UNL d   1      22.682 -17.118  -0.971  0.00  0.00    -0.342 N 
ATOM      7  C   UNL d   1      22.012 -18.285  -1.312  0.00  0.00     0.271 C 
ATOM      8  O   UNL d   1      22.197 -18.918  -2.353  0.00  0.00    -0.266 OA
ATOM      9  H   UNL d   1      22.392 -16.643  -0.121  0.00  0.00     0.163 HD
BRANCH   7  10
ATOM     10  C   UNL d   1      21.030 -18.823  -0.340  0.00  0.00     0.125 A 
ATOM     11  C   UNL d   1      21.351 -18.910   1.013  0.00  0.00     0.038 A 
ATOM     12  C   UNL d   1      20.466 -19.584   1.848  0.00  0.00     0.016 A 
ATOM     13  C   UNL d   1      19.317 -20.167   1.299  0.00  0.00    -0.007 A 
ATOM     14  C   UNL d   1      18.406 -20.897   2.080  0.00  0.00     0.014 A 
ATOM     15  C   UNL d   1      19.090 -20.010  -0.091  0.00  0.00     0.068 A 
ATOM     16  C   UNL d   1      17.282 -21.471   1.490  0.00  0.00     0.001 A 
ATOM     17  C   UNL d   1      17.068 -21.326   0.122  0.00  0.00     0.002 A 
ATOM     18  C   UNL d   1      17.975 -20.603  -0.651  0.00  0.00     0.032 A 
ATOM     19  N   UNL d   1      19.905 -19.321  -0.897  0.00  0.00    -0.243 NA
ENDBRANCH   7  10
ENDBRANCH   1   6
BRANCH   1  20
ATOM     20  C   UNL d   1      24.679 -15.573  -0.894  0.00  0.00     0.245 C 
ATOM     21  O   UNL d   1      24.578 -15.513   0.335  0.00  0.00    -0.271 OA
ATOM     22  N   UNL d   1      25.536 -14.739  -1.605  0.00  0.00    -0.325 N 
ATOM     23  H   UNL d   1      25.496 -14.725  -2.618  0.00  0.00     0.169 HD
BRANCH  22  24
ATOM     24  C   UNL d   1      26.379 -13.795  -0.958  0.00  0.00     0.035 A 
ATOM     25  C   UNL d   1      26.981 -12.759  -1.674  0.00  0.00     0.029 A 
ATOM     26  C   UNL d   1      27.844 -11.864  -1.023  0.00  0.00     0.003 A 
ATOM     27  C   UNL d   1      28.099 -12.000   0.347  0.00  0.00     0.017 A 
ATOM     28  C   UNL d   1      27.526 -13.056   1.071  0.00  0.00     0.034 A 
ATOM     29  C   UNL d   1      26.660 -13.929   0.410  0.00  0.00     0.046 A 
BRANCH  28  30
ATOM     30  C   UNL d   1      27.896 -13.250   2.503  0.00  0.00     0.252 C 
ATOM     31  O   UNL d   1      27.524 -12.405   3.325  0.00  0.00    -0.268 OA
ATOM     32  N   UNL d   1      28.655 -14.366   2.873  0.00  0.00    -0.352 N 
ATOM     33  H   UNL d   1      28.843 -15.115   2.221  0.00  0.00     0.163 HD
BRANCH  32  34
ATOM     34  C   UNL d   1      28.882 -14.602   4.267  0.00  0.00     0.084 A 
ATOM     35  C   UNL d   1      28.757 -13.756   5.502  0.00  0.00     0.027 A 
ATOM     36  C   UNL d   1      27.605 -14.600   5.088  0.00  0.00     0.027 A 
ENDBRANCH  32  34
ENDBRANCH  28  30
ENDBRANCH  22  24
ENDBRANCH   1  20
TORSDOF 9
ENDMDL
