MODEL 1
REMARK VINA RESULT:    -8.670      0.000      0.000
REMARK INTER + INTRA:         -12.849
REMARK INTER:                 -11.355
REMARK INTRA:                  -1.494
REMARK CONF_INDEPENDENT:        2.685
REMARK UNBOUND:                -1.494
REMARK  9 active torsions:
REMARK  status: ('A' for Active; 'I' for Inactive)
REMARK    1  A    between atoms: C_2  and  O_3 
REMARK    2  A    between atoms: O_3  and  C_4 
REMARK    3  A    between atoms: C_7  and  C_8 
REMARK       I    between atoms: C_8  and  N_10 
REMARK       I    between atoms: C_11  and  N_12 
REMARK       I    between atoms: C_11  and  N_23 
REMARK    4  A    between atoms: N_12  and  C_13 
REMARK    5  A    between atoms: C_13  and  C_14 
REMARK    6  A    between atoms: C_14  and  C_15 
REMARK    7  A    between atoms: N_23  and  C_24 
REMARK    8  A    between atoms: C_33  and  O_34 
REMARK    9  A    between atoms: O_34  and  C_35 
ROOT
ATOM      1  C   UNL d   1      28.360 -16.806  -0.964  0.00  0.00     0.294 C 
ATOM      2  O   UNL d   1      28.687 -17.026  -2.105  0.00  0.00    -0.265 OA
ATOM      3  N   UNL d   1      29.138 -16.469   0.153  0.00  0.00    -0.023 NA
ATOM      4  C   UNL d   1      30.437 -16.678   0.204  0.00  0.00     0.704 C 
ATOM      5  N   UNL d   1      31.258 -17.296  -0.731  0.00  0.00    -0.224 N 
ATOM      6  N   UNL d   1      31.155 -16.325   1.355  0.00  0.00    -0.190 N 
ATOM      7  H   UNL d   1      32.244 -17.314  -0.521  0.00  0.00     0.177 HD
ATOM      8  H   UNL d   1      30.604 -15.946   2.119  0.00  0.00     0.184 HD
ENDROOT
BRANCH   5   9
ATOM      9  C   UNL d   1      30.916 -17.368  -2.135  0.00  0.00     0.143 C 
BRANCH   9  10
ATOM     10  C   UNL d   1      31.826 -17.897  -3.202  0.00  0.00     0.063 C 
BRANCH  10  11
ATOM     11  C   UNL d   1      31.318 -19.252  -3.677  0.00  0.00    -0.007 A 
ATOM     12  C   UNL d   1      30.792 -19.553  -4.967  0.00  0.00     0.059 A 
ATOM     13  C   UNL d   1      30.654 -18.669  -6.148  0.00  0.00     0.073 C 
ATOM     14  N   UNL d   1      30.394 -20.825  -5.067  0.00  0.00    -0.177 NA
ATOM     15  N   UNL d   1      30.725 -21.372  -3.891  0.00  0.00    -0.278 N 
ATOM     16  C   UNL d   1      30.406 -22.763  -3.655  0.00  0.00     0.179 C 
ATOM     17  C   UNL d   1      31.345 -20.493  -3.035  0.00  0.00     0.034 A 
ATOM     18  C   UNL d   1      31.904 -20.926  -1.724  0.00  0.00     0.070 C 
ENDBRANCH  10  11
ENDBRANCH   9  10
ENDBRANCH   5   9
BRANCH   6  19
ATOM     19  C   UNL d   1      32.557 -16.098   1.522  0.00  0.00     0.055 A 
ATOM     20  C   UNL d   1      33.107 -14.858   1.118  0.00  0.00     0.030 A 
ATOM     21  C   UNL d   1      34.467 -14.563   1.304  0.00  0.00     0.003 A 
ATOM     22  C   UNL d   1      35.291 -15.470   1.958  0.00  0.00     0.007 A 
ATOM     23  C   UNL d   1      34.789 -16.718   2.341  0.00  0.00    -0.054 A 
ATOM     24  C   UNL d   1      35.711 -17.718   2.982  0.00  0.00     0.049 C 
ATOM     25  C   UNL d   1      33.434 -17.056   2.095  0.00  0.00    -0.029 A 
ATOM     26  C   UNL d   1      32.974 -18.460   2.407  0.00  0.00     0.051 C 
ENDBRANCH   6  19
BRANCH   1  27
ATOM     27  C   UNL d   1      26.906 -16.776  -0.991  0.00  0.00     0.037 A 
ATOM     28  C   UNL d   1      26.209 -17.698  -0.163  0.00  0.00     0.020 A 
ATOM     29  C   UNL d   1      24.843 -17.872  -0.277  0.00  0.00     0.040 A 
ATOM     30  C   UNL d   1      24.122 -17.041  -1.139  0.00  0.00     0.102 A 
ATOM     31  C   UNL d   1      24.848 -16.057  -1.913  0.00  0.00     0.102 A 
ATOM     32  C   UNL d   1      26.233 -15.967  -1.853  0.00  0.00     0.056 A 
BRANCH  30  33
ATOM     33  O   UNL d   1      22.759 -17.174  -0.913  0.00  0.00    -0.349 OA
BRANCH  33  34
ATOM     34  C   UNL d   1      22.271 -18.358  -0.296  0.00  0.00     0.171 C 
ATOM     35  C   UNL d   1      21.019 -18.944  -0.895  0.00  0.00     0.034 C 
ENDBRANCH  33  34
ENDBRANCH  30  33
BRANCH  31  36
ATOM     36  O   UNL d   1      24.447 -15.036  -2.767  0.00  0.00    -0.349 OA
BRANCH  36  37
ATOM     37  C   UNL d   1      25.526 -14.613  -3.509  0.00  0.00     0.171 C 
ATOM     38  C   UNL d   1      25.905 -15.200  -4.827  0.00  0.00     0.034 C 
ENDBRANCH  36  37
ENDBRANCH  31  36
ENDBRANCH   1  27
TORSDOF 9
ENDMDL
MODEL 2
REMARK VINA RESULT:    -8.640      1.098      1.535
REMARK INTER + INTRA:         -12.796
REMARK INTER:                 -11.324
REMARK INTRA:                  -1.472
REMARK CONF_INDEPENDENT:        2.685
REMARK UNBOUND:                -1.472
REMARK  9 active torsions:
REMARK  status: ('A' for Active; 'I' for Inactive)
REMARK    1  A    between atoms: C_2  and  O_3 
REMARK    2  A    between atoms: O_3  and  C_4 
REMARK    3  A    between atoms: C_7  and  C_8 
REMARK       I    between atoms: C_8  and  N_10 
REMARK       I    between atoms: C_11  and  N_12 
REMARK       I    between atoms: C_11  and  N_23 
REMARK    4  A    between atoms: N_12  and  C_13 
REMARK    5  A    between atoms: C_13  and  C_14 
REMARK    6  A    between atoms: C_14  and  C_15 
REMARK    7  A    between atoms: N_23  and  C_24 
REMARK    8  A    between atoms: C_33  and  O_34 
REMARK    9  A    between atoms: O_34  and  C_35 
ROOT
ATOM      1  C   UNL d   1      28.317 -16.857  -0.899  0.00  0.00     0.294 C 
ATOM      2  O   UNL d   1      28.622 -17.183  -2.021  0.00  0.00    -0.265 OA
ATOM      3  N   UNL d   1      29.118 -16.445   0.176  0.00  0.00    -0.023 NA
ATOM      4  C   UNL d   1      30.412 -16.682   0.229  0.00  0.00     0.704 C 
ATOM      5  N   UNL d   1      31.204 -17.399  -0.658  0.00  0.00    -0.224 N 
ATOM      6  N   UNL d   1      31.155 -16.250   1.337  0.00  0.00    -0.190 N 
ATOM      7  H   UNL d   1      32.193 -17.424  -0.459  0.00  0.00     0.177 HD
ATOM      8  H   UNL d   1      30.623 -15.792   2.071  0.00  0.00     0.184 HD
ENDROOT
BRANCH   5   9
ATOM      9  C   UNL d   1      30.842 -17.583  -2.047  0.00  0.00     0.143 C 
BRANCH   9  10
ATOM     10  C   UNL d   1      31.385 -16.764  -3.180  0.00  0.00     0.063 C 
BRANCH  10  11
ATOM     11  C   UNL d   1      31.040 -17.436  -4.503  0.00  0.00    -0.007 A 
ATOM     12  C   UNL d   1      30.688 -16.779  -5.718  0.00  0.00     0.059 A 
ATOM     13  C   UNL d   1      30.616 -15.327  -6.007  0.00  0.00     0.073 C 
ATOM     14  N   UNL d   1      30.404 -17.643  -6.696  0.00  0.00    -0.177 NA
ATOM     15  N   UNL d   1      30.641 -18.846  -6.158  0.00  0.00    -0.278 N 
ATOM     16  C   UNL d   1      30.406 -20.027  -6.961  0.00  0.00     0.179 C 
ATOM     17  C   UNL d   1      31.091 -18.785  -4.861  0.00  0.00     0.034 A 
ATOM     18  C   UNL d   1      31.530 -19.999  -4.117  0.00  0.00     0.070 C 
ENDBRANCH  10  11
ENDBRANCH   9  10
ENDBRANCH   5   9
BRANCH   6  19
ATOM     19  C   UNL d   1      32.564 -16.046   1.467  0.00  0.00     0.055 A 
ATOM     20  C   UNL d   1      33.126 -14.823   1.028  0.00  0.00     0.030 A 
ATOM     21  C   UNL d   1      34.495 -14.550   1.177  0.00  0.00     0.003 A 
ATOM     22  C   UNL d   1      35.318 -15.460   1.829  0.00  0.00     0.007 A 
ATOM     23  C   UNL d   1      34.803 -16.692   2.246  0.00  0.00    -0.054 A 
ATOM     24  C   UNL d   1      35.721 -17.696   2.883  0.00  0.00     0.049 C 
ATOM     25  C   UNL d   1      33.437 -17.009   2.037  0.00  0.00    -0.029 A 
ATOM     26  C   UNL d   1      32.960 -18.399   2.385  0.00  0.00     0.051 C 
ENDBRANCH   6  19
BRANCH   1  27
ATOM     27  C   UNL d   1      26.864 -16.792  -0.912  0.00  0.00     0.037 A 
ATOM     28  C   UNL d   1      26.154 -17.648  -0.025  0.00  0.00     0.020 A 
ATOM     29  C   UNL d   1      24.784 -17.794  -0.114  0.00  0.00     0.040 A 
ATOM     30  C   UNL d   1      24.072 -16.994  -1.014  0.00  0.00     0.102 A 
ATOM     31  C   UNL d   1      24.812 -16.074  -1.851  0.00  0.00     0.102 A 
ATOM     32  C   UNL d   1      26.200 -16.015  -1.810  0.00  0.00     0.056 A 
BRANCH  30  33
ATOM     33  O   UNL d   1      22.710 -17.080  -0.765  0.00  0.00    -0.349 OA
BRANCH  33  34
ATOM     34  C   UNL d   1      22.190 -18.250  -0.149  0.00  0.00     0.171 C 
ATOM     35  C   UNL d   1      21.083 -18.951  -0.895  0.00  0.00     0.034 C 
ENDBRANCH  33  34
ENDBRANCH  30  33
BRANCH  31  36
ATOM     36  O   UNL d   1      24.426 -15.093  -2.756  0.00  0.00    -0.349 OA
BRANCH  36  37
ATOM     37  C   UNL d   1      25.535 -14.633  -3.430  0.00  0.00     0.171 C 
ATOM     38  C   UNL d   1      25.541 -13.396  -4.264  0.00  0.00     0.034 C 
ENDBRANCH  36  37
ENDBRANCH  31  36
ENDBRANCH   1  27
TORSDOF 9
ENDMDL
MODEL 3
REMARK VINA RESULT:    -8.529      1.900      2.831
REMARK INTER + INTRA:         -13.331
REMARK INTER:                 -11.214
REMARK INTRA:                  -2.117
REMARK CONF_INDEPENDENT:        2.685
REMARK UNBOUND:                -2.117
REMARK  9 active torsions:
REMARK  status: ('A' for Active; 'I' for Inactive)
REMARK    1  A    between atoms: C_2  and  O_3 
REMARK    2  A    between atoms: O_3  and  C_4 
REMARK    3  A    between atoms: C_7  and  C_8 
REMARK       I    between atoms: C_8  and  N_10 
REMARK       I    between atoms: C_11  and  N_12 
REMARK       I    between atoms: C_11  and  N_23 
REMARK    4  A    between atoms: N_12  and  C_13 
REMARK    5  A    between atoms: C_13  and  C_14 
REMARK    6  A    between atoms: C_14  and  C_15 
REMARK    7  A    between atoms: N_23  and  C_24 
REMARK    8  A    between atoms: C_33  and  O_34 
REMARK    9  A    between atoms: O_34  and  C_35 
ROOT
ATOM      1  C   UNL d   1      28.273 -16.888  -0.859  0.00  0.00     0.294 C 
ATOM      2  O   UNL d   1      28.552 -17.075  -2.018  0.00  0.00    -0.265 OA
ATOM      3  N   UNL d   1      29.088 -16.525   0.223  0.00  0.00    -0.023 NA
ATOM      4  C   UNL d   1      30.398 -16.664   0.204  0.00  0.00     0.704 C 
ATOM      5  N   UNL d   1      31.201 -17.225  -0.781  0.00  0.00    -0.224 N 
ATOM      6  N   UNL d   1      31.155 -16.289   1.323  0.00  0.00    -0.190 N 
ATOM      7  H   UNL d   1      32.197 -17.193  -0.621  0.00  0.00     0.177 HD
ATOM      8  H   UNL d   1      30.624 -15.949   2.120  0.00  0.00     0.184 HD
ENDROOT
BRANCH   5   9
ATOM      9  C   UNL d   1      30.792 -17.297  -2.166  0.00  0.00     0.143 C 
BRANCH   9  10
ATOM     10  C   UNL d   1      31.384 -16.470  -3.268  0.00  0.00     0.063 C 
BRANCH  10  11
ATOM     11  C   UNL d   1      30.277 -16.001  -4.204  0.00  0.00    -0.007 A 
ATOM     12  C   UNL d   1      29.885 -16.619  -5.427  0.00  0.00     0.059 A 
ATOM     13  C   UNL d   1      30.404 -17.857  -6.055  0.00  0.00     0.073 C 
ATOM     14  N   UNL d   1      28.905 -15.950  -6.041  0.00  0.00    -0.177 NA
ATOM     15  N   UNL d   1      28.603 -14.954  -5.199  0.00  0.00    -0.278 N 
ATOM     16  C   UNL d   1      27.576 -14.009  -5.578  0.00  0.00     0.179 C 
ATOM     17  C   UNL d   1      29.349 -14.970  -4.044  0.00  0.00     0.034 A 
ATOM     18  C   UNL d   1      29.090 -14.025  -2.921  0.00  0.00     0.070 C 
ENDBRANCH  10  11
ENDBRANCH   9  10
ENDBRANCH   5   9
BRANCH   6  19
ATOM     19  C   UNL d   1      32.549 -15.989   1.422  0.00  0.00     0.055 A 
ATOM     20  C   UNL d   1      33.030 -14.765   0.899  0.00  0.00     0.030 A 
ATOM     21  C   UNL d   1      34.381 -14.398   1.013  0.00  0.00     0.003 A 
ATOM     22  C   UNL d   1      35.265 -15.212   1.711  0.00  0.00     0.007 A 
ATOM     23  C   UNL d   1      34.831 -16.444   2.212  0.00  0.00    -0.054 A 
ATOM     24  C   UNL d   1      35.817 -17.346   2.899  0.00  0.00     0.049 C 
ATOM     25  C   UNL d   1      33.487 -16.858   2.041  0.00  0.00    -0.029 A 
ATOM     26  C   UNL d   1      33.100 -18.250   2.482  0.00  0.00     0.051 C 
ENDBRANCH   6  19
BRANCH   1  27
ATOM     27  C   UNL d   1      26.820 -16.935  -0.812  0.00  0.00     0.037 A 
ATOM     28  C   UNL d   1      26.216 -17.921   0.016  0.00  0.00     0.020 A 
ATOM     29  C   UNL d   1      24.857 -18.165  -0.036  0.00  0.00     0.040 A 
ATOM     30  C   UNL d   1      24.050 -17.344  -0.829  0.00  0.00     0.102 A 
ATOM     31  C   UNL d   1      24.682 -16.297  -1.602  0.00  0.00     0.102 A 
ATOM     32  C   UNL d   1      26.062 -16.134  -1.607  0.00  0.00     0.056 A 
BRANCH  30  33
ATOM     33  O   UNL d   1      22.710 -17.558  -0.540  0.00  0.00    -0.349 OA
BRANCH  33  34
ATOM     34  C   UNL d   1      22.213 -18.889  -0.499  0.00  0.00     0.171 C 
ATOM     35  C   UNL d   1      20.762 -19.063  -0.871  0.00  0.00     0.034 C 
ENDBRANCH  33  34
ENDBRANCH  30  33
BRANCH  31  36
ATOM     36  O   UNL d   1      24.185 -15.270  -2.395  0.00  0.00    -0.349 OA
BRANCH  36  37
ATOM     37  C   UNL d   1      25.225 -14.668  -3.067  0.00  0.00     0.171 C 
ATOM     38  C   UNL d   1      25.188 -13.259  -3.557  0.00  0.00     0.034 C 
ENDBRANCH  36  37
ENDBRANCH  31  36
ENDBRANCH   1  27
TORSDOF 9
ENDMDL
MODEL 4
REMARK VINA RESULT:    -8.111      2.762      5.257
REMARK INTER + INTRA:         -12.916
REMARK INTER:                 -10.796
REMARK INTRA:                  -2.120
REMARK CONF_INDEPENDENT:        2.685
REMARK UNBOUND:                -2.120
REMARK  9 active torsions:
REMARK  status: ('A' for Active; 'I' for Inactive)
REMARK    1  A    between atoms: C_2  and  O_3 
REMARK    2  A    between atoms: O_3  and  C_4 
REMARK    3  A    between atoms: C_7  and  C_8 
REMARK       I    between atoms: C_8  and  N_10 
REMARK       I    between atoms: C_11  and  N_12 
REMARK       I    between atoms: C_11  and  N_23 
REMARK    4  A    between atoms: N_12  and  C_13 
REMARK    5  A    between atoms: C_13  and  C_14 
REMARK    6  A    between atoms: C_14  and  C_15 
REMARK    7  A    between atoms: N_23  and  C_24 
REMARK    8  A    between atoms: C_33  and  O_34 
REMARK    9  A    between atoms: O_34  and  C_35 
ROOT
ATOM      1  C   UNL d   1      27.941 -15.850  -0.152  0.00  0.00     0.294 C 
ATOM      2  O   UNL d   1      27.890 -14.647  -0.074  0.00  0.00    -0.265 OA
ATOM      3  N   UNL d   1      28.988 -16.735   0.144  0.00  0.00    -0.023 NA
ATOM      4  C   UNL d   1      30.242 -16.345   0.240  0.00  0.00     0.704 C 
ATOM      5  N   UNL d   1      30.784 -15.086   0.015  0.00  0.00    -0.224 N 
ATOM      6  N   UNL d   1      31.243 -17.283   0.531  0.00  0.00    -0.190 N 
ATOM      7  H   UNL d   1      31.772 -14.983   0.190  0.00  0.00     0.177 HD
ATOM      8  H   UNL d   1      30.932 -18.245   0.622  0.00  0.00     0.184 HD
ENDROOT
BRANCH   5   9
ATOM      9  C   UNL d   1      30.000 -13.875   0.127  0.00  0.00     0.143 C 
BRANCH   9  10
ATOM     10  C   UNL d   1      30.113 -12.894   1.256  0.00  0.00     0.063 C 
BRANCH  10  11
ATOM     11  C   UNL d   1      29.150 -13.288   2.369  0.00  0.00    -0.007 A 
ATOM     12  C   UNL d   1      27.753 -13.008   2.417  0.00  0.00     0.059 A 
ATOM     13  C   UNL d   1      26.903 -12.328   1.412  0.00  0.00     0.073 C 
ATOM     14  N   UNL d   1      27.187 -13.452   3.543  0.00  0.00    -0.177 NA
ATOM     15  N   UNL d   1      28.176 -14.083   4.188  0.00  0.00    -0.278 N 
ATOM     16  C   UNL d   1      27.900 -14.672   5.480  0.00  0.00     0.179 C 
ATOM     17  C   UNL d   1      29.367 -14.077   3.501  0.00  0.00     0.034 A 
ATOM     18  C   UNL d   1      30.562 -14.826   3.982  0.00  0.00     0.070 C 
ENDBRANCH  10  11
ENDBRANCH   9  10
ENDBRANCH   5   9
BRANCH   6  19
ATOM     19  C   UNL d   1      32.562 -17.080   1.044  0.00  0.00     0.055 A 
ATOM     20  C   UNL d   1      32.749 -16.194   2.133  0.00  0.00     0.030 A 
ATOM     21  C   UNL d   1      34.014 -15.995   2.708  0.00  0.00     0.003 A 
ATOM     22  C   UNL d   1      35.106 -16.726   2.255  0.00  0.00     0.007 A 
ATOM     23  C   UNL d   1      34.964 -17.585   1.160  0.00  0.00    -0.054 A 
ATOM     24  C   UNL d   1      36.169 -18.313   0.635  0.00  0.00     0.049 C 
ATOM     25  C   UNL d   1      33.706 -17.741   0.525  0.00  0.00    -0.029 A 
ATOM     26  C   UNL d   1      33.633 -18.576  -0.732  0.00  0.00     0.051 C 
ENDBRANCH   6  19
BRANCH   1  27
ATOM     27  C   UNL d   1      26.581 -16.262  -0.458  0.00  0.00     0.037 A 
ATOM     28  C   UNL d   1      26.097 -17.454   0.148  0.00  0.00     0.020 A 
ATOM     29  C   UNL d   1      24.899 -18.021  -0.241  0.00  0.00     0.040 A 
ATOM     30  C   UNL d   1      24.094 -17.343  -1.163  0.00  0.00     0.102 A 
ATOM     31  C   UNL d   1      24.576 -16.091  -1.706  0.00  0.00     0.102 A 
ATOM     32  C   UNL d   1      25.828 -15.591  -1.371  0.00  0.00     0.056 A 
BRANCH  30  33
ATOM     33  O   UNL d   1      22.831 -17.915  -1.215  0.00  0.00    -0.349 OA
BRANCH  33  34
ATOM     34  C   UNL d   1      22.394 -18.731  -0.137  0.00  0.00     0.171 C 
ATOM     35  C   UNL d   1      21.023 -19.340  -0.286  0.00  0.00     0.034 C 
ENDBRANCH  33  34
ENDBRANCH  30  33
BRANCH  31  36
ATOM     36  O   UNL d   1      24.008 -15.138  -2.542  0.00  0.00    -0.349 OA
BRANCH  36  37
ATOM     37  C   UNL d   1      25.001 -14.343  -3.069  0.00  0.00     0.171 C 
ATOM     38  C   UNL d   1      25.522 -14.484  -4.460  0.00  0.00     0.034 C 
ENDBRANCH  36  37
ENDBRANCH  31  36
ENDBRANCH   1  27
TORSDOF 9
ENDMDL
MODEL 5
REMARK VINA RESULT:    -8.010      1.930      2.951
REMARK INTER + INTRA:         -13.018
REMARK INTER:                 -10.694
REMARK INTRA:                  -2.324
REMARK CONF_INDEPENDENT:        2.685
REMARK UNBOUND:                -2.324
REMARK  9 active torsions:
REMARK  status: ('A' for Active; 'I' for Inactive)
REMARK    1  A    between atoms: C_2  and  O_3 
REMARK    2  A    between atoms: O_3  and  C_4 
REMARK    3  A    between atoms: C_7  and  C_8 
REMARK       I    between atoms: C_8  and  N_10 
REMARK       I    between atoms: C_11  and  N_12 
REMARK       I    between atoms: C_11  and  N_23 
REMARK    4  A    between atoms: N_12  and  C_13 
REMARK    5  A    between atoms: C_13  and  C_14 
REMARK    6  A    between atoms: C_14  and  C_15 
REMARK    7  A    between atoms: N_23  and  C_24 
REMARK    8  A    between atoms: C_33  and  O_34 
REMARK    9  A    between atoms: O_34  and  C_35 
ROOT
ATOM      1  C   UNL d   1      28.337 -16.884  -0.902  0.00  0.00     0.294 C 
ATOM      2  O   UNL d   1      28.653 -17.177  -2.030  0.00  0.00    -0.265 OA
ATOM      3  N   UNL d   1      29.125 -16.476   0.183  0.00  0.00    -0.023 NA
ATOM      4  C   UNL d   1      30.426 -16.678   0.234  0.00  0.00     0.704 C 
ATOM      5  N   UNL d   1      31.238 -17.355  -0.667  0.00  0.00    -0.224 N 
ATOM      6  N   UNL d   1      31.155 -16.252   1.352  0.00  0.00    -0.190 N 
ATOM      7  H   UNL d   1      32.227 -17.358  -0.467  0.00  0.00     0.177 HD
ATOM      8  H   UNL d   1      30.610 -15.825   2.096  0.00  0.00     0.184 HD
ENDROOT
BRANCH   5   9
ATOM      9  C   UNL d   1      30.882 -17.517  -2.060  0.00  0.00     0.143 C 
BRANCH   9  10
ATOM     10  C   UNL d   1      31.520 -16.766  -3.190  0.00  0.00     0.063 C 
BRANCH  10  11
ATOM     11  C   UNL d   1      30.463 -15.940  -3.912  0.00  0.00    -0.007 A 
ATOM     12  C   UNL d   1      29.786 -14.796  -3.397  0.00  0.00     0.059 A 
ATOM     13  C   UNL d   1      29.966 -14.114  -2.094  0.00  0.00     0.073 C 
ATOM     14  N   UNL d   1      28.886 -14.311  -4.257  0.00  0.00    -0.177 NA
ATOM     15  N   UNL d   1      29.023 -15.073  -5.349  0.00  0.00    -0.278 N 
ATOM     16  C   UNL d   1      28.162 -14.824  -6.485  0.00  0.00     0.179 C 
ATOM     17  C   UNL d   1      30.003 -16.030  -5.229  0.00  0.00     0.034 A 
ATOM     18  C   UNL d   1      30.402 -16.903  -6.368  0.00  0.00     0.070 C 
ENDBRANCH  10  11
ENDBRANCH   9  10
ENDBRANCH   5   9
BRANCH   6  19
ATOM     19  C   UNL d   1      32.558 -16.012   1.490  0.00  0.00     0.055 A 
ATOM     20  C   UNL d   1      33.089 -14.768   1.075  0.00  0.00     0.030 A 
ATOM     21  C   UNL d   1      34.449 -14.461   1.232  0.00  0.00     0.003 A 
ATOM     22  C   UNL d   1      35.295 -15.361   1.870  0.00  0.00     0.007 A 
ATOM     23  C   UNL d   1      34.811 -16.613   2.263  0.00  0.00    -0.054 A 
ATOM     24  C   UNL d   1      35.755 -17.604   2.884  0.00  0.00     0.049 C 
ATOM     25  C   UNL d   1      33.455 -16.963   2.045  0.00  0.00    -0.029 A 
ATOM     26  C   UNL d   1      33.014 -18.371   2.366  0.00  0.00     0.051 C 
ENDBRANCH   6  19
BRANCH   1  27
ATOM     27  C   UNL d   1      26.883 -16.858  -0.916  0.00  0.00     0.037 A 
ATOM     28  C   UNL d   1      26.196 -17.744  -0.042  0.00  0.00     0.020 A 
ATOM     29  C   UNL d   1      24.830 -17.925  -0.135  0.00  0.00     0.040 A 
ATOM     30  C   UNL d   1      24.098 -17.134  -1.025  0.00  0.00     0.102 A 
ATOM     31  C   UNL d   1      24.814 -16.184  -1.849  0.00  0.00     0.102 A 
ATOM     32  C   UNL d   1      26.200 -16.088  -1.806  0.00  0.00     0.056 A 
BRANCH  30  33
ATOM     33  O   UNL d   1      22.738 -17.259  -0.780  0.00  0.00    -0.349 OA
BRANCH  33  34
ATOM     34  C   UNL d   1      22.232 -18.496  -0.298  0.00  0.00     0.171 C 
ATOM     35  C   UNL d   1      20.926 -18.952  -0.897  0.00  0.00     0.034 C 
ENDBRANCH  33  34
ENDBRANCH  30  33
BRANCH  31  36
ATOM     36  O   UNL d   1      24.404 -15.202  -2.742  0.00  0.00    -0.349 OA
BRANCH  36  37
ATOM     37  C   UNL d   1      25.479 -14.793  -3.498  0.00  0.00     0.171 C 
ATOM     38  C   UNL d   1      25.554 -13.470  -4.183  0.00  0.00     0.034 C 
ENDBRANCH  36  37
ENDBRANCH  31  36
ENDBRANCH   1  27
TORSDOF 9
ENDMDL
MODEL 6
REMARK VINA RESULT:    -7.184      4.571      8.286
REMARK INTER + INTRA:         -12.599
REMARK INTER:                  -9.869
REMARK INTRA:                  -2.731
REMARK CONF_INDEPENDENT:        2.685
REMARK UNBOUND:                -2.731
REMARK  9 active torsions:
REMARK  status: ('A' for Active; 'I' for Inactive)
REMARK    1  A    between atoms: C_2  and  O_3 
REMARK    2  A    between atoms: O_3  and  C_4 
REMARK    3  A    between atoms: C_7  and  C_8 
REMARK       I    between atoms: C_8  and  N_10 
REMARK       I    between atoms: C_11  and  N_12 
REMARK       I    between atoms: C_11  and  N_23 
REMARK    4  A    between atoms: N_12  and  C_13 
REMARK    5  A    between atoms: C_13  and  C_14 
REMARK    6  A    between atoms: C_14  and  C_15 
REMARK    7  A    between atoms: N_23  and  C_24 
REMARK    8  A    between atoms: C_33  and  O_34 
REMARK    9  A    between atoms: O_34  and  C_35 
ROOT
ATOM      1  C   UNL d   1      26.232 -14.326  -2.549  0.00  0.00     0.294 C 
ATOM      2  O   UNL d   1      27.354 -14.305  -2.103  0.00  0.00    -0.265 OA
ATOM      3  N   UNL d   1      25.649 -13.568  -3.575  0.00  0.00    -0.023 NA
ATOM      4  C   UNL d   1      26.167 -12.436  -4.003  0.00  0.00     0.704 C 
ATOM      5  N   UNL d   1      27.276 -11.748  -3.527  0.00  0.00    -0.224 N 
ATOM      6  N   UNL d   1      25.529 -11.722  -5.028  0.00  0.00    -0.190 N 
ATOM      7  H   UNL d   1      27.537 -10.913  -4.029  0.00  0.00     0.177 HD
ATOM      8  H   UNL d   1      24.659 -12.121  -5.367  0.00  0.00     0.184 HD
ENDROOT
BRANCH   5   9
ATOM      9  C   UNL d   1      28.346 -12.407  -2.810  0.00  0.00     0.143 C 
BRANCH   9  10
ATOM     10  C   UNL d   1      29.546 -13.027  -3.461  0.00  0.00     0.063 C 
BRANCH  10  11
ATOM     11  C   UNL d   1      29.275 -13.217  -4.948  0.00  0.00    -0.007 A 
ATOM     12  C   UNL d   1      28.669 -14.354  -5.559  0.00  0.00     0.059 A 
ATOM     13  C   UNL d   1      28.122 -15.575  -4.922  0.00  0.00     0.073 C 
ATOM     14  N   UNL d   1      28.602 -14.238  -6.888  0.00  0.00    -0.177 NA
ATOM     15  N   UNL d   1      29.084 -13.015  -7.142  0.00  0.00    -0.278 N 
ATOM     16  C   UNL d   1      29.175 -12.573  -8.516  0.00  0.00     0.179 C 
ATOM     17  C   UNL d   1      29.445 -12.324  -6.009  0.00  0.00     0.034 A 
ATOM     18  C   UNL d   1      29.889 -10.903  -6.057  0.00  0.00     0.070 C 
ENDBRANCH  10  11
ENDBRANCH   9  10
ENDBRANCH   5   9
BRANCH   6  19
ATOM     19  C   UNL d   1      26.051 -10.717  -5.901  0.00  0.00     0.055 A 
ATOM     20  C   UNL d   1      26.494 -11.088  -7.193  0.00  0.00     0.030 A 
ATOM     21  C   UNL d   1      26.969 -10.136  -8.108  0.00  0.00     0.003 A 
ATOM     22  C   UNL d   1      26.948  -8.786  -7.779  0.00  0.00     0.007 A 
ATOM     23  C   UNL d   1      26.548  -8.386  -6.500  0.00  0.00    -0.054 A 
ATOM     24  C   UNL d   1      26.601  -6.930  -6.134  0.00  0.00     0.049 C 
ATOM     25  C   UNL d   1      26.133  -9.345  -5.542  0.00  0.00    -0.029 A 
ATOM     26  C   UNL d   1      25.838  -8.878  -4.136  0.00  0.00     0.051 C 
ENDBRANCH   6  19
BRANCH   1  27
ATOM     27  C   UNL d   1      25.599 -15.471  -1.914  0.00  0.00     0.037 A 
ATOM     28  C   UNL d   1      24.185 -15.584  -2.008  0.00  0.00     0.020 A 
ATOM     29  C   UNL d   1      23.490 -16.522  -1.270  0.00  0.00     0.040 A 
ATOM     30  C   UNL d   1      24.204 -17.453  -0.510  0.00  0.00     0.102 A 
ATOM     31  C   UNL d   1      25.648 -17.365  -0.494  0.00  0.00     0.102 A 
ATOM     32  C   UNL d   1      26.319 -16.352  -1.168  0.00  0.00     0.056 A 
BRANCH  30  33
ATOM     33  O   UNL d   1      23.364 -18.468  -0.073  0.00  0.00    -0.349 OA
BRANCH  33  34
ATOM     34  C   UNL d   1      22.341 -18.941  -0.938  0.00  0.00     0.171 C 
ATOM     35  C   UNL d   1      20.984 -19.133  -0.311  0.00  0.00     0.034 C 
ENDBRANCH  33  34
ENDBRANCH  30  33
BRANCH  31  36
ATOM     36  O   UNL d   1      26.643 -18.163   0.059  0.00  0.00    -0.349 OA
BRANCH  36  37
ATOM     37  C   UNL d   1      27.790 -17.420   0.216  0.00  0.00     0.171 C 
ATOM     38  C   UNL d   1      29.056 -17.685  -0.527  0.00  0.00     0.034 C 
ENDBRANCH  36  37
ENDBRANCH  31  36
ENDBRANCH   1  27
TORSDOF 9
ENDMDL
MODEL 7
REMARK VINA RESULT:    -7.077      5.038      7.595
REMARK INTER + INTRA:         -12.816
REMARK INTER:                  -9.762
REMARK INTRA:                  -3.054
REMARK CONF_INDEPENDENT:        2.685
REMARK UNBOUND:                -3.054
REMARK  9 active torsions:
REMARK  status: ('A' for Active; 'I' for Inactive)
REMARK    1  A    between atoms: C_2  and  O_3 
REMARK    2  A    between atoms: O_3  and  C_4 
REMARK    3  A    between atoms: C_7  and  C_8 
REMARK       I    between atoms: C_8  and  N_10 
REMARK       I    between atoms: C_11  and  N_12 
REMARK       I    between atoms: C_11  and  N_23 
REMARK    4  A    between atoms: N_12  and  C_13 
REMARK    5  A    between atoms: C_13  and  C_14 
REMARK    6  A    between atoms: C_14  and  C_15 
REMARK    7  A    between atoms: N_23  and  C_24 
REMARK    8  A    between atoms: C_33  and  O_34 
REMARK    9  A    between atoms: O_34  and  C_35 
ROOT
ATOM      1  C   UNL d   1      28.292 -14.986   1.798  0.00  0.00     0.294 C 
ATOM      2  O   UNL d   1      29.238 -14.616   1.147  0.00  0.00    -0.265 OA
ATOM      3  N   UNL d   1      28.018 -14.838   3.165  0.00  0.00    -0.023 NA
ATOM      4  C   UNL d   1      28.950 -14.549   4.050  0.00  0.00     0.704 C 
ATOM      5  N   UNL d   1      30.319 -14.410   3.860  0.00  0.00    -0.224 N 
ATOM      6  N   UNL d   1      28.610 -14.422   5.404  0.00  0.00    -0.190 N 
ATOM      7  H   UNL d   1      30.860 -14.137   4.667  0.00  0.00     0.177 HD
ATOM      8  H   UNL d   1      27.637 -14.598   5.632  0.00  0.00     0.184 HD
ENDROOT
BRANCH   5   9
ATOM      9  C   UNL d   1      30.892 -14.063   2.578  0.00  0.00     0.143 C 
BRANCH   9  10
ATOM     10  C   UNL d   1      31.111 -12.658   2.101  0.00  0.00     0.063 C 
BRANCH  10  11
ATOM     11  C   UNL d   1      30.106 -11.731   2.772  0.00  0.00    -0.007 A 
ATOM     12  C   UNL d   1      30.325 -10.955   3.948  0.00  0.00     0.059 A 
ATOM     13  C   UNL d   1      31.557 -10.820   4.761  0.00  0.00     0.073 C 
ATOM     14  N   UNL d   1      29.237 -10.270   4.311  0.00  0.00    -0.177 NA
ATOM     15  N   UNL d   1      28.343 -10.527   3.349  0.00  0.00    -0.278 N 
ATOM     16  C   UNL d   1      27.022  -9.946   3.452  0.00  0.00     0.179 C 
ATOM     17  C   UNL d   1      28.827 -11.348   2.358  0.00  0.00     0.034 A 
ATOM     18  C   UNL d   1      28.039 -11.661   1.134  0.00  0.00     0.070 C 
ENDBRANCH  10  11
ENDBRANCH   9  10
ENDBRANCH   5   9
BRANCH   6  19
ATOM     19  C   UNL d   1      29.315 -13.771   6.464  0.00  0.00     0.055 A 
ATOM     20  C   UNL d   1      30.388 -14.446   7.095  0.00  0.00     0.030 A 
ATOM     21  C   UNL d   1      31.145 -13.836   8.108  0.00  0.00     0.003 A 
ATOM     22  C   UNL d   1      30.893 -12.517   8.464  0.00  0.00     0.007 A 
ATOM     23  C   UNL d   1      29.820 -11.831   7.885  0.00  0.00    -0.054 A 
ATOM     24  C   UNL d   1      29.514 -10.430   8.334  0.00  0.00     0.049 C 
ATOM     25  C   UNL d   1      29.003 -12.461   6.913  0.00  0.00    -0.029 A 
ATOM     26  C   UNL d   1      27.780 -11.727   6.415  0.00  0.00     0.051 C 
ENDBRANCH   6  19
BRANCH   1  27
ATOM     27  C   UNL d   1      27.341 -15.492   0.821  0.00  0.00     0.037 A 
ATOM     28  C   UNL d   1      27.034 -16.880   0.853  0.00  0.00     0.020 A 
ATOM     29  C   UNL d   1      26.302 -17.475  -0.157  0.00  0.00     0.040 A 
ATOM     30  C   UNL d   1      25.756 -16.673  -1.163  0.00  0.00     0.102 A 
ATOM     31  C   UNL d   1      26.020 -15.250  -1.128  0.00  0.00     0.102 A 
ATOM     32  C   UNL d   1      26.839 -14.690  -0.156  0.00  0.00     0.056 A 
BRANCH  30  33
ATOM     33  O   UNL d   1      24.839 -17.395  -1.914  0.00  0.00    -0.349 OA
BRANCH  33  34
ATOM     34  C   UNL d   1      23.700 -17.949  -1.271  0.00  0.00     0.171 C 
ATOM     35  C   UNL d   1      22.829 -16.974  -0.520  0.00  0.00     0.034 C 
ENDBRANCH  33  34
ENDBRANCH  30  33
BRANCH  31  36
ATOM     36  O   UNL d   1      25.566 -14.181  -1.891  0.00  0.00    -0.349 OA
BRANCH  36  37
ATOM     37  C   UNL d   1      25.154 -14.641  -3.122  0.00  0.00     0.171 C 
ATOM     38  C   UNL d   1      26.075 -14.847  -4.278  0.00  0.00     0.034 C 
ENDBRANCH  36  37
ENDBRANCH  31  36
ENDBRANCH   1  27
TORSDOF 9
ENDMDL
MODEL 8
REMARK VINA RESULT:    -7.063      4.994      7.984
REMARK INTER + INTRA:         -12.715
REMARK INTER:                  -9.747
REMARK INTRA:                  -2.968
REMARK CONF_INDEPENDENT:        2.685
REMARK UNBOUND:                -2.968
REMARK  9 active torsions:
REMARK  status: ('A' for Active; 'I' for Inactive)
REMARK    1  A    between atoms: C_2  and  O_3 
REMARK    2  A    between atoms: O_3  and  C_4 
REMARK    3  A    between atoms: C_7  and  C_8 
REMARK       I    between atoms: C_8  and  N_10 
REMARK       I    between atoms: C_11  and  N_12 
REMARK       I    between atoms: C_11  and  N_23 
REMARK    4  A    between atoms: N_12  and  C_13 
REMARK    5  A    between atoms: C_13  and  C_14 
REMARK    6  A    between atoms: C_14  and  C_15 
REMARK    7  A    between atoms: N_23  and  C_24 
REMARK    8  A    between atoms: C_33  and  O_34 
REMARK    9  A    between atoms: O_34  and  C_35 
ROOT
ATOM      1  C   UNL d   1      28.668 -14.809   1.602  0.00  0.00     0.294 C 
ATOM      2  O   UNL d   1      29.754 -14.609   1.114  0.00  0.00    -0.265 OA
ATOM      3  N   UNL d   1      28.206 -14.587   2.907  0.00  0.00    -0.023 NA
ATOM      4  C   UNL d   1      29.017 -14.429   3.932  0.00  0.00     0.704 C 
ATOM      5  N   UNL d   1      30.403 -14.513   3.968  0.00  0.00    -0.224 N 
ATOM      6  N   UNL d   1      28.489 -14.218   5.214  0.00  0.00    -0.190 N 
ATOM      7  H   UNL d   1      30.844 -14.311   4.852  0.00  0.00     0.177 HD
ATOM      8  H   UNL d   1      27.476 -14.232   5.280  0.00  0.00     0.184 HD
ENDROOT
BRANCH   5   9
ATOM      9  C   UNL d   1      31.223 -14.291   2.796  0.00  0.00     0.143 C 
BRANCH   9  10
ATOM     10  C   UNL d   1      31.722 -12.948   2.354  0.00  0.00     0.063 C 
BRANCH  10  11
ATOM     11  C   UNL d   1      30.861 -11.856   2.976  0.00  0.00    -0.007 A 
ATOM     12  C   UNL d   1      31.119 -11.167   4.197  0.00  0.00     0.059 A 
ATOM     13  C   UNL d   1      32.275 -11.297   5.115  0.00  0.00     0.073 C 
ATOM     14  N   UNL d   1      30.158 -10.288   4.495  0.00  0.00    -0.177 NA
ATOM     15  N   UNL d   1      29.321 -10.341   3.451  0.00  0.00    -0.278 N 
ATOM     16  C   UNL d   1      28.136  -9.513   3.466  0.00  0.00     0.179 C 
ATOM     17  C   UNL d   1      29.724 -11.218   2.472  0.00  0.00     0.034 A 
ATOM     18  C   UNL d   1      29.004 -11.340   1.174  0.00  0.00     0.070 C 
ENDBRANCH  10  11
ENDBRANCH   9  10
ENDBRANCH   5   9
BRANCH   6  19
ATOM     19  C   UNL d   1      29.109 -13.663   6.376  0.00  0.00     0.055 A 
ATOM     20  C   UNL d   1      30.029 -14.450   7.109  0.00  0.00     0.030 A 
ATOM     21  C   UNL d   1      30.704 -13.938   8.229  0.00  0.00     0.003 A 
ATOM     22  C   UNL d   1      30.527 -12.611   8.600  0.00  0.00     0.007 A 
ATOM     23  C   UNL d   1      29.601 -11.814   7.919  0.00  0.00    -0.054 A 
ATOM     24  C   UNL d   1      29.365 -10.403   8.378  0.00  0.00     0.049 C 
ATOM     25  C   UNL d   1      28.861 -12.341   6.830  0.00  0.00    -0.029 A 
ATOM     26  C   UNL d   1      27.780 -11.484   6.213  0.00  0.00     0.051 C 
ENDBRANCH   6  19
BRANCH   1  27
ATOM     27  C   UNL d   1      27.818 -15.181   0.482  0.00  0.00     0.037 A 
ATOM     28  C   UNL d   1      27.760 -14.294  -0.628  0.00  0.00     0.020 A 
ATOM     29  C   UNL d   1      26.832 -14.469  -1.636  0.00  0.00     0.040 A 
ATOM     30  C   UNL d   1      26.019 -15.606  -1.621  0.00  0.00     0.102 A 
ATOM     31  C   UNL d   1      26.153 -16.533  -0.518  0.00  0.00     0.102 A 
ATOM     32  C   UNL d   1      27.026 -16.285   0.534  0.00  0.00     0.056 A 
BRANCH  30  33
ATOM     33  O   UNL d   1      25.363 -15.748  -2.836  0.00  0.00    -0.349 OA
BRANCH  33  34
ATOM     34  C   UNL d   1      25.721 -14.902  -3.920  0.00  0.00     0.171 C 
ATOM     35  C   UNL d   1      24.784 -13.754  -4.196  0.00  0.00     0.034 C 
ENDBRANCH  33  34
ENDBRANCH  30  33
BRANCH  31  36
ATOM     36  O   UNL d   1      25.590 -17.774  -0.247  0.00  0.00    -0.349 OA
BRANCH  36  37
ATOM     37  C   UNL d   1      24.377 -17.876  -0.892  0.00  0.00     0.171 C 
ATOM     38  C   UNL d   1      23.067 -17.940  -0.183  0.00  0.00     0.034 C 
ENDBRANCH  36  37
ENDBRANCH  31  36
ENDBRANCH   1  27
TORSDOF 9
ENDMDL
MODEL 9
REMARK VINA RESULT:    -6.987      5.207      7.842
REMARK INTER + INTRA:         -12.660
REMARK INTER:                  -9.672
REMARK INTRA:                  -2.989
REMARK CONF_INDEPENDENT:        2.685
REMARK UNBOUND:                -2.989
REMARK  9 active torsions:
REMARK  status: ('A' for Active; 'I' for Inactive)
REMARK    1  A    between atoms: C_2  and  O_3 
REMARK    2  A    between atoms: O_3  and  C_4 
REMARK    3  A    between atoms: C_7  and  C_8 
REMARK       I    between atoms: C_8  and  N_10 
REMARK       I    between atoms: C_11  and  N_12 
REMARK       I    between atoms: C_11  and  N_23 
REMARK    4  A    between atoms: N_12  and  C_13 
REMARK    5  A    between atoms: C_13  and  C_14 
REMARK    6  A    between atoms: C_14  and  C_15 
REMARK    7  A    between atoms: N_23  and  C_24 
REMARK    8  A    between atoms: C_33  and  O_34 
REMARK    9  A    between atoms: O_34  and  C_35 
ROOT
ATOM      1  C   UNL d   1      28.459 -14.826   1.929  0.00  0.00     0.294 C 
ATOM      2  O   UNL d   1      29.395 -14.377   1.312  0.00  0.00    -0.265 OA
ATOM      3  N   UNL d   1      28.157 -14.755   3.296  0.00  0.00    -0.023 NA
ATOM      4  C   UNL d   1      29.059 -14.460   4.209  0.00  0.00     0.704 C 
ATOM      5  N   UNL d   1      30.422 -14.242   4.050  0.00  0.00    -0.224 N 
ATOM      6  N   UNL d   1      28.693 -14.414   5.562  0.00  0.00    -0.190 N 
ATOM      7  H   UNL d   1      30.935 -13.979   4.878  0.00  0.00     0.177 HD
ATOM      8  H   UNL d   1      27.726 -14.650   5.764  0.00  0.00     0.184 HD
ENDROOT
BRANCH   5   9
ATOM      9  C   UNL d   1      30.995 -13.806   2.795  0.00  0.00     0.143 C 
BRANCH   9  10
ATOM     10  C   UNL d   1      31.400 -12.394   2.494  0.00  0.00     0.063 C 
BRANCH  10  11
ATOM     11  C   UNL d   1      30.492 -11.432   3.250  0.00  0.00    -0.007 A 
ATOM     12  C   UNL d   1      29.154 -11.084   2.903  0.00  0.00     0.059 A 
ATOM     13  C   UNL d   1      28.319 -11.585   1.787  0.00  0.00     0.073 C 
ATOM     14  N   UNL d   1      28.632 -10.185   3.743  0.00  0.00    -0.177 NA
ATOM     15  N   UNL d   1      29.579 -10.005   4.671  0.00  0.00    -0.278 N 
ATOM     16  C   UNL d   1      29.339  -9.057   5.737  0.00  0.00     0.179 C 
ATOM     17  C   UNL d   1      30.698 -10.778   4.467  0.00  0.00     0.034 A 
ATOM     18  C   UNL d   1      31.819 -10.822   5.447  0.00  0.00     0.070 C 
ENDBRANCH  10  11
ENDBRANCH   9  10
ENDBRANCH   5   9
BRANCH   6  19
ATOM     19  C   UNL d   1      29.346 -13.777   6.663  0.00  0.00     0.055 A 
ATOM     20  C   UNL d   1      30.405 -14.450   7.318  0.00  0.00     0.030 A 
ATOM     21  C   UNL d   1      31.113 -13.852   8.373  0.00  0.00     0.003 A 
ATOM     22  C   UNL d   1      30.826 -12.546   8.750  0.00  0.00     0.007 A 
ATOM     23  C   UNL d   1      29.764 -11.863   8.146  0.00  0.00    -0.054 A 
ATOM     24  C   UNL d   1      29.418 -10.478   8.615  0.00  0.00     0.049 C 
ATOM     25  C   UNL d   1      28.995 -12.483   7.129  0.00  0.00    -0.029 A 
ATOM     26  C   UNL d   1      27.780 -11.757   6.602  0.00  0.00     0.051 C 
ENDBRANCH   6  19
BRANCH   1  27
ATOM     27  C   UNL d   1      27.552 -15.334   0.913  0.00  0.00     0.037 A 
ATOM     28  C   UNL d   1      27.273 -16.729   0.912  0.00  0.00     0.020 A 
ATOM     29  C   UNL d   1      26.587 -17.322  -0.131  0.00  0.00     0.040 A 
ATOM     30  C   UNL d   1      26.057 -16.514  -1.141  0.00  0.00     0.102 A 
ATOM     31  C   UNL d   1      26.289 -15.087  -1.074  0.00  0.00     0.102 A 
ATOM     32  C   UNL d   1      27.064 -14.526  -0.066  0.00  0.00     0.056 A 
BRANCH  30  33
ATOM     33  O   UNL d   1      25.180 -17.242  -1.933  0.00  0.00    -0.349 OA
BRANCH  33  34
ATOM     34  C   UNL d   1      24.024 -17.817  -1.340  0.00  0.00     0.171 C 
ATOM     35  C   UNL d   1      23.171 -16.884  -0.519  0.00  0.00     0.034 C 
ENDBRANCH  33  34
ENDBRANCH  30  33
BRANCH  31  36
ATOM     36  O   UNL d   1      25.837 -14.014  -1.834  0.00  0.00    -0.349 OA
BRANCH  36  37
ATOM     37  C   UNL d   1      25.464 -14.463  -3.081  0.00  0.00     0.171 C 
ATOM     38  C   UNL d   1      24.780 -13.611  -4.096  0.00  0.00     0.034 C 
ENDBRANCH  36  37
ENDBRANCH  31  36
ENDBRANCH   1  27
TORSDOF 9
ENDMDL
