MODEL 1
REMARK VINA RESULT:    -8.425      0.000      0.000
REMARK INTER + INTRA:         -10.418
REMARK INTER:                  -9.618
REMARK INTRA:                  -0.800
REMARK CONF_INDEPENDENT:        1.193
REMARK UNBOUND:                -0.800
REMARK  4 active torsions:
REMARK  status: ('A' for Active; 'I' for Inactive)
REMARK    1  A    between atoms: C_7  and  N_8 
REMARK       I    between atoms: N_8  and  C_9 
REMARK    2  A    between atoms: C_9  and  C_11 
REMARK    3  A    between atoms: C_11  and  N_13 
REMARK       I    between atoms: N_13  and  C_14 
REMARK    4  A    between atoms: C_14  and  C_16 
ROOT
ATOM      1  C   UNL d   1      23.472 -17.559  -0.847  0.00  0.00     0.173 C 
ATOM      2  C   UNL d   1      22.886 -16.228  -0.476  0.00  0.00     0.042 C 
ENDROOT
BRANCH   1   3
ATOM      3  C   UNL d   1      22.321 -18.544  -0.730  0.00  0.00     0.244 C 
ATOM      4  N   UNL d   1      21.517 -18.496   0.412  0.00  0.00    -0.325 N 
ATOM      5  H   UNL d   1      21.734 -17.783   1.099  0.00  0.00     0.169 HD
ATOM      6  O   UNL d   1      22.256 -19.309  -1.700  0.00  0.00    -0.271 OA
BRANCH   4   7
ATOM      7  C   UNL d   1      20.434 -19.354   0.796  0.00  0.00     0.040 A 
ATOM      8  C   UNL d   1      20.277 -19.668   2.166  0.00  0.00     0.030 A 
ATOM      9  C   UNL d   1      19.195 -20.455   2.611  0.00  0.00     0.002 A 
ATOM     10  C   UNL d   1      18.270 -20.957   1.704  0.00  0.00     0.001 A 
ATOM     11  C   UNL d   1      18.430 -20.684   0.361  0.00  0.00     0.009 A 
ATOM     12  C   UNL d   1      19.495 -19.900  -0.094  0.00  0.00    -0.035 A 
ATOM     13  C   UNL d   1      19.515 -19.700  -1.566  0.00  0.00     0.050 C 
ENDBRANCH   4   7
ENDBRANCH   1   3
BRANCH   1  14
ATOM     14  N   UNL d   1      24.501 -18.089   0.127  0.00  0.00    -0.344 N 
ATOM     15  C   UNL d   1      25.866 -18.120   0.080  0.00  0.00     0.254 C 
ATOM     16  O   UNL d   1      26.479 -19.182   0.257  0.00  0.00    -0.268 OA
ATOM     17  H   UNL d   1      24.122 -18.862   0.684  0.00  0.00     0.163 HD
BRANCH  15  18
ATOM     18  C   UNL d   1      26.612 -16.856  -0.117  0.00  0.00     0.053 C 
ATOM     19  C   UNL d   1      27.079 -16.124   0.972  0.00  0.00     0.019 C 
ATOM     20  C   UNL d   1      27.876 -14.993   0.747  0.00  0.00     0.001 C 
ATOM     21  C   UNL d   1      28.345 -14.703  -0.536  0.00  0.00     0.002 C 
ATOM     22  C   UNL d   1      27.860 -15.419  -1.610  0.00  0.00     0.025 C 
ATOM     23  C   UNL d   1      26.809 -16.296  -1.378  0.00  0.00     0.049 C 
ATOM     24 CL   UNL d   1      25.570 -16.314  -2.598  0.00  0.00    -0.083 Cl
ENDBRANCH  15  18
ENDBRANCH   1  14
TORSDOF 4
ENDMDL
MODEL 2
REMARK VINA RESULT:    -7.554      1.314      2.195
REMARK INTER + INTRA:         -10.272
REMARK INTER:                  -8.747
REMARK INTRA:                  -1.525
REMARK CONF_INDEPENDENT:        1.193
REMARK UNBOUND:                -1.525
REMARK  4 active torsions:
REMARK  status: ('A' for Active; 'I' for Inactive)
REMARK    1  A    between atoms: C_7  and  N_8 
REMARK       I    between atoms: N_8  and  C_9 
REMARK    2  A    between atoms: C_9  and  C_11 
REMARK    3  A    between atoms: C_11  and  N_13 
REMARK       I    between atoms: N_13  and  C_14 
REMARK    4  A    between atoms: C_14  and  C_16 
ROOT
ATOM      1  C   UNL d   1      23.204 -17.648  -1.004  0.00  0.00     0.173 C 
ATOM      2  C   UNL d   1      22.416 -16.391  -0.779  0.00  0.00     0.042 C 
ENDROOT
BRANCH   1   3
ATOM      3  C   UNL d   1      22.315 -18.769  -0.493  0.00  0.00     0.244 C 
ATOM      4  N   UNL d   1      20.935 -18.557  -0.451  0.00  0.00    -0.325 N 
ATOM      5  H   UNL d   1      20.594 -17.664  -0.789  0.00  0.00     0.169 HD
ATOM      6  O   UNL d   1      22.965 -19.763  -0.146  0.00  0.00    -0.271 OA
BRANCH   4   7
ATOM      7  C   UNL d   1      19.900 -19.411   0.056  0.00  0.00     0.040 A 
ATOM      8  C   UNL d   1      18.950 -19.931  -0.853  0.00  0.00     0.030 A 
ATOM      9  C   UNL d   1      17.948 -20.825  -0.423  0.00  0.00     0.002 A 
ATOM     10  C   UNL d   1      17.862 -21.197   0.912  0.00  0.00     0.001 A 
ATOM     11  C   UNL d   1      18.764 -20.672   1.815  0.00  0.00     0.009 A 
ATOM     12  C   UNL d   1      19.767 -19.789   1.402  0.00  0.00    -0.035 A 
ATOM     13  C   UNL d   1      20.654 -19.324   2.499  0.00  0.00     0.050 C 
ENDBRANCH   4   7
ENDBRANCH   1   3
BRANCH   1  14
ATOM     14  N   UNL d   1      24.456 -17.768  -0.163  0.00  0.00    -0.344 N 
ATOM     15  C   UNL d   1      25.780 -17.761  -0.499  0.00  0.00     0.254 C 
ATOM     16  O   UNL d   1      26.530 -18.672  -0.121  0.00  0.00    -0.268 OA
ATOM     17  H   UNL d   1      24.281 -18.313   0.687  0.00  0.00     0.163 HD
BRANCH  15  18
ATOM     18  C   UNL d   1      26.328 -16.617  -1.262  0.00  0.00     0.053 C 
ATOM     19  C   UNL d   1      25.646 -16.097  -2.360  0.00  0.00     0.019 C 
ATOM     20  C   UNL d   1      26.137 -14.945  -2.990  0.00  0.00     0.001 C 
ATOM     21  C   UNL d   1      27.191 -14.225  -2.424  0.00  0.00     0.002 C 
ATOM     22  C   UNL d   1      27.875 -14.759  -1.352  0.00  0.00     0.025 C 
ATOM     23  C   UNL d   1      27.576 -16.063  -0.982  0.00  0.00     0.049 C 
ATOM     24 CL   UNL d   1      28.943 -17.046  -0.548  0.00  0.00    -0.083 Cl
ENDBRANCH  15  18
ENDBRANCH   1  14
TORSDOF 4
ENDMDL
MODEL 3
REMARK VINA RESULT:    -7.537      4.274      6.483
REMARK INTER + INTRA:         -10.255
REMARK INTER:                  -8.730
REMARK INTRA:                  -1.525
REMARK CONF_INDEPENDENT:        1.193
REMARK UNBOUND:                -1.525
REMARK  4 active torsions:
REMARK  status: ('A' for Active; 'I' for Inactive)
REMARK    1  A    between atoms: C_7  and  N_8 
REMARK       I    between atoms: N_8  and  C_9 
REMARK    2  A    between atoms: C_9  and  C_11 
REMARK    3  A    between atoms: C_11  and  N_13 
REMARK       I    between atoms: N_13  and  C_14 
REMARK    4  A    between atoms: C_14  and  C_16 
ROOT
ATOM      1  C   UNL d   1      26.010 -12.932  -2.875  0.00  0.00     0.173 C 
ATOM      2  C   UNL d   1      27.421 -13.379  -2.631  0.00  0.00     0.042 C 
ENDROOT
BRANCH   1   3
ATOM      3  C   UNL d   1      25.151 -14.144  -2.560  0.00  0.00     0.244 C 
ATOM      4  N   UNL d   1      25.523 -14.965  -1.493  0.00  0.00    -0.325 N 
ATOM      5  H   UNL d   1      26.345 -14.692  -0.965  0.00  0.00     0.169 HD
ATOM      6  O   UNL d   1      24.199 -14.261  -3.341  0.00  0.00    -0.271 OA
BRANCH   4   7
ATOM      7  C   UNL d   1      24.937 -16.195  -1.046  0.00  0.00     0.040 A 
ATOM      8  C   UNL d   1      23.537 -16.355  -1.161  0.00  0.00     0.030 A 
ATOM      9  C   UNL d   1      22.912 -17.566  -0.797  0.00  0.00     0.002 A 
ATOM     10  C   UNL d   1      23.662 -18.621  -0.293  0.00  0.00     0.001 A 
ATOM     11  C   UNL d   1      25.025 -18.466  -0.145  0.00  0.00     0.009 A 
ATOM     12  C   UNL d   1      25.660 -17.274  -0.509  0.00  0.00    -0.035 A 
ATOM     13  C   UNL d   1      27.129 -17.277  -0.289  0.00  0.00     0.050 C 
ENDBRANCH   4   7
ENDBRANCH   1   3
BRANCH   1  14
ATOM     14  N   UNL d   1      25.687 -12.625  -4.321  0.00  0.00    -0.344 N 
ATOM     15  C   UNL d   1      26.488 -12.385  -5.400  0.00  0.00     0.254 C 
ATOM     16  O   UNL d   1      26.325 -11.371  -6.093  0.00  0.00    -0.268 OA
ATOM     17  H   UNL d   1      24.781 -12.152  -4.406  0.00  0.00     0.163 HD
BRANCH  15  18
ATOM     18  C   UNL d   1      27.514 -13.385  -5.777  0.00  0.00     0.053 C 
ATOM     19  C   UNL d   1      28.580 -13.038  -6.603  0.00  0.00     0.019 C 
ATOM     20  C   UNL d   1      29.591 -13.978  -6.849  0.00  0.00     0.001 C 
ATOM     21  C   UNL d   1      29.625 -15.180  -6.141  0.00  0.00     0.002 C 
ATOM     22  C   UNL d   1      28.554 -15.525  -5.343  0.00  0.00     0.025 C 
ATOM     23  C   UNL d   1      27.422 -14.724  -5.404  0.00  0.00     0.049 C 
ATOM     24 CL   UNL d   1      25.905 -15.575  -5.395  0.00  0.00    -0.083 Cl
ENDBRANCH  15  18
ENDBRANCH   1  14
TORSDOF 4
ENDMDL
MODEL 4
REMARK VINA RESULT:    -7.134      4.898      9.304
REMARK INTER + INTRA:          -9.927
REMARK INTER:                  -8.327
REMARK INTRA:                  -1.600
REMARK CONF_INDEPENDENT:        1.193
REMARK UNBOUND:                -1.600
REMARK  4 active torsions:
REMARK  status: ('A' for Active; 'I' for Inactive)
REMARK    1  A    between atoms: C_7  and  N_8 
REMARK       I    between atoms: N_8  and  C_9 
REMARK    2  A    between atoms: C_9  and  C_11 
REMARK    3  A    between atoms: C_11  and  N_13 
REMARK       I    between atoms: N_13  and  C_14 
REMARK    4  A    between atoms: C_14  and  C_16 
ROOT
ATOM      1  C   UNL d   1      28.585 -15.579  -3.089  0.00  0.00     0.173 C 
ATOM      2  C   UNL d   1      29.690 -14.608  -2.791  0.00  0.00     0.042 C 
ENDROOT
BRANCH   1   3
ATOM      3  C   UNL d   1      28.900 -16.125  -4.470  0.00  0.00     0.244 C 
ATOM      4  N   UNL d   1      29.873 -17.121  -4.586  0.00  0.00    -0.325 N 
ATOM      5  H   UNL d   1      30.306 -17.446  -3.728  0.00  0.00     0.169 HD
ATOM      6  O   UNL d   1      28.236 -15.575  -5.356  0.00  0.00    -0.271 OA
BRANCH   4   7
ATOM      7  C   UNL d   1      30.405 -17.738  -5.766  0.00  0.00     0.040 A 
ATOM      8  C   UNL d   1      30.405 -19.150  -5.846  0.00  0.00     0.030 A 
ATOM      9  C   UNL d   1      30.857 -19.811  -7.007  0.00  0.00     0.002 A 
ATOM     10  C   UNL d   1      31.335 -19.084  -8.090  0.00  0.00     0.001 A 
ATOM     11  C   UNL d   1      31.369 -17.707  -8.012  0.00  0.00     0.009 A 
ATOM     12  C   UNL d   1      30.918 -17.037  -6.870  0.00  0.00    -0.035 A 
ATOM     13  C   UNL d   1      31.021 -15.558  -6.954  0.00  0.00     0.050 C 
ENDBRANCH   4   7
ENDBRANCH   1   3
BRANCH   1  14
ATOM     14  N   UNL d   1      27.219 -14.949  -3.252  0.00  0.00    -0.344 N 
ATOM     15  C   UNL d   1      25.962 -15.479  -3.201  0.00  0.00     0.254 C 
ATOM     16  O   UNL d   1      25.160 -15.290  -4.126  0.00  0.00    -0.268 OA
ATOM     17  H   UNL d   1      27.260 -14.126  -3.863  0.00  0.00     0.163 HD
BRANCH  15  18
ATOM     18  C   UNL d   1      25.540 -16.227  -1.994  0.00  0.00     0.053 C 
ATOM     19  C   UNL d   1      24.417 -17.051  -2.020  0.00  0.00     0.019 C 
ATOM     20  C   UNL d   1      24.112 -17.829  -0.895  0.00  0.00     0.001 C 
ATOM     21  C   UNL d   1      25.011 -17.916   0.169  0.00  0.00     0.002 C 
ATOM     22  C   UNL d   1      26.108 -17.081   0.197  0.00  0.00     0.025 C 
ATOM     23  C   UNL d   1      26.181 -16.083  -0.766  0.00  0.00     0.049 C 
ATOM     24 CL   UNL d   1      26.746 -14.540  -0.198  0.00  0.00    -0.083 Cl
ENDBRANCH  15  18
ENDBRANCH   1  14
TORSDOF 4
ENDMDL
MODEL 5
REMARK VINA RESULT:    -7.111      3.549      8.117
REMARK INTER + INTRA:         -10.003
REMARK INTER:                  -8.304
REMARK INTRA:                  -1.698
REMARK CONF_INDEPENDENT:        1.193
REMARK UNBOUND:                -1.698
REMARK  4 active torsions:
REMARK  status: ('A' for Active; 'I' for Inactive)
REMARK    1  A    between atoms: C_7  and  N_8 
REMARK       I    between atoms: N_8  and  C_9 
REMARK    2  A    between atoms: C_9  and  C_11 
REMARK    3  A    between atoms: C_11  and  N_13 
REMARK       I    between atoms: N_13  and  C_14 
REMARK    4  A    between atoms: C_14  and  C_16 
ROOT
ATOM      1  C   UNL d   1      26.743 -14.500   0.595  0.00  0.00     0.173 C 
ATOM      2  C   UNL d   1      27.030 -13.253  -0.188  0.00  0.00     0.042 C 
ENDROOT
BRANCH   1   3
ATOM      3  C   UNL d   1      27.657 -14.426   1.806  0.00  0.00     0.244 C 
ATOM      4  N   UNL d   1      27.140 -13.919   3.001  0.00  0.00    -0.325 N 
ATOM      5  H   UNL d   1      26.163 -13.646   3.001  0.00  0.00     0.169 HD
ATOM      6  O   UNL d   1      28.800 -14.825   1.556  0.00  0.00    -0.271 OA
BRANCH   4   7
ATOM      7  C   UNL d   1      27.805 -13.673   4.246  0.00  0.00     0.040 A 
ATOM      8  C   UNL d   1      28.189 -14.782   5.036  0.00  0.00     0.030 A 
ATOM      9  C   UNL d   1      28.902 -14.604   6.239  0.00  0.00     0.002 A 
ATOM     10  C   UNL d   1      29.223 -13.329   6.685  0.00  0.00     0.001 A 
ATOM     11  C   UNL d   1      28.826 -12.237   5.940  0.00  0.00     0.009 A 
ATOM     12  C   UNL d   1      28.124 -12.398   4.741  0.00  0.00    -0.035 A 
ATOM     13  C   UNL d   1      27.780 -11.122   4.064  0.00  0.00     0.050 C 
ENDBRANCH   4   7
ENDBRANCH   1   3
BRANCH   1  14
ATOM     14  N   UNL d   1      27.155 -15.784  -0.092  0.00  0.00    -0.344 N 
ATOM     15  C   UNL d   1      26.655 -17.053  -0.021  0.00  0.00     0.254 C 
ATOM     16  O   UNL d   1      27.401 -18.011   0.228  0.00  0.00    -0.268 OA
ATOM     17  H   UNL d   1      28.155 -15.781  -0.315  0.00  0.00     0.163 HD
BRANCH  15  18
ATOM     18  C   UNL d   1      25.222 -17.285  -0.313  0.00  0.00     0.053 C 
ATOM     19  C   UNL d   1      24.604 -18.481   0.044  0.00  0.00     0.019 C 
ATOM     20  C   UNL d   1      23.223 -18.622  -0.147  0.00  0.00     0.001 C 
ATOM     21  C   UNL d   1      22.445 -17.525  -0.522  0.00  0.00     0.002 C 
ATOM     22  C   UNL d   1      23.067 -16.352  -0.895  0.00  0.00     0.025 C 
ATOM     23  C   UNL d   1      24.450 -16.370  -1.025  0.00  0.00     0.049 C 
ATOM     24 CL   UNL d   1      25.081 -15.498  -2.391  0.00  0.00    -0.083 Cl
ENDBRANCH  15  18
ENDBRANCH   1  14
TORSDOF 4
ENDMDL
MODEL 6
REMARK VINA RESULT:    -7.070      4.693      6.836
REMARK INTER + INTRA:          -9.798
REMARK INTER:                  -8.263
REMARK INTRA:                  -1.535
REMARK CONF_INDEPENDENT:        1.193
REMARK UNBOUND:                -1.535
REMARK  4 active torsions:
REMARK  status: ('A' for Active; 'I' for Inactive)
REMARK    1  A    between atoms: C_7  and  N_8 
REMARK       I    between atoms: N_8  and  C_9 
REMARK    2  A    between atoms: C_9  and  C_11 
REMARK    3  A    between atoms: C_11  and  N_13 
REMARK       I    between atoms: N_13  and  C_14 
REMARK    4  A    between atoms: C_14  and  C_16 
ROOT
ATOM      1  C   UNL d   1      26.003 -12.901  -3.126  0.00  0.00     0.173 C 
ATOM      2  C   UNL d   1      27.433 -13.235  -2.818  0.00  0.00     0.042 C 
ENDROOT
BRANCH   1   3
ATOM      3  C   UNL d   1      25.224 -14.166  -2.806  0.00  0.00     0.244 C 
ATOM      4  N   UNL d   1      25.519 -14.850  -1.624  0.00  0.00    -0.325 N 
ATOM      5  H   UNL d   1      26.230 -14.447  -1.024  0.00  0.00     0.169 HD
ATOM      6  O   UNL d   1      24.405 -14.449  -3.689  0.00  0.00    -0.271 OA
BRANCH   4   7
ATOM      7  C   UNL d   1      24.993 -16.091  -1.137  0.00  0.00     0.040 A 
ATOM      8  C   UNL d   1      23.605 -16.333  -1.270  0.00  0.00     0.030 A 
ATOM      9  C   UNL d   1      23.042 -17.561  -0.867  0.00  0.00     0.002 A 
ATOM     10  C   UNL d   1      23.838 -18.553  -0.309  0.00  0.00     0.001 A 
ATOM     11  C   UNL d   1      25.188 -18.316  -0.145  0.00  0.00     0.009 A 
ATOM     12  C   UNL d   1      25.763 -17.106  -0.546  0.00  0.00    -0.035 A 
ATOM     13  C   UNL d   1      27.226 -17.019  -0.303  0.00  0.00     0.050 C 
ENDBRANCH   4   7
ENDBRANCH   1   3
BRANCH   1  14
ATOM     14  N   UNL d   1      25.713 -12.658  -4.591  0.00  0.00    -0.344 N 
ATOM     15  C   UNL d   1      26.519 -12.279  -5.626  0.00  0.00     0.254 C 
ATOM     16  O   UNL d   1      26.218 -11.311  -6.338  0.00  0.00    -0.268 OA
ATOM     17  H   UNL d   1      24.744 -12.354  -4.732  0.00  0.00     0.163 HD
BRANCH  15  18
ATOM     18  C   UNL d   1      27.726 -13.080  -5.934  0.00  0.00     0.053 C 
ATOM     19  C   UNL d   1      27.732 -14.462  -5.759  0.00  0.00     0.019 C 
ATOM     20  C   UNL d   1      28.852 -15.200  -6.166  0.00  0.00     0.001 C 
ATOM     21  C   UNL d   1      29.874 -14.590  -6.895  0.00  0.00     0.002 C 
ATOM     22  C   UNL d   1      29.871 -13.218  -7.044  0.00  0.00     0.025 C 
ATOM     23  C   UNL d   1      28.928 -12.495  -6.326  0.00  0.00     0.049 C 
ATOM     24 CL   UNL d   1      29.505 -11.014  -5.621  0.00  0.00    -0.083 Cl
ENDBRANCH  15  18
ENDBRANCH   1  14
TORSDOF 4
ENDMDL
MODEL 7
REMARK VINA RESULT:    -6.994      5.412      7.295
REMARK INTER + INTRA:          -9.699
REMARK INTER:                  -8.187
REMARK INTRA:                  -1.512
REMARK CONF_INDEPENDENT:        1.193
REMARK UNBOUND:                -1.512
REMARK  4 active torsions:
REMARK  status: ('A' for Active; 'I' for Inactive)
REMARK    1  A    between atoms: C_7  and  N_8 
REMARK       I    between atoms: N_8  and  C_9 
REMARK    2  A    between atoms: C_9  and  C_11 
REMARK    3  A    between atoms: C_11  and  N_13 
REMARK       I    between atoms: N_13  and  C_14 
REMARK    4  A    between atoms: C_14  and  C_16 
ROOT
ATOM      1  C   UNL d   1      26.152 -14.040  -4.160  0.00  0.00     0.173 C 
ATOM      2  C   UNL d   1      26.292 -14.980  -5.321  0.00  0.00     0.042 C 
ENDROOT
BRANCH   1   3
ATOM      3  C   UNL d   1      25.211 -14.741  -3.195  0.00  0.00     0.244 C 
ATOM      4  N   UNL d   1      25.744 -15.679  -2.308  0.00  0.00    -0.325 N 
ATOM      5  H   UNL d   1      26.746 -15.827  -2.341  0.00  0.00     0.169 HD
ATOM      6  O   UNL d   1      24.035 -14.385  -3.344  0.00  0.00    -0.271 OA
BRANCH   4   7
ATOM      7  C   UNL d   1      25.069 -16.524  -1.366  0.00  0.00     0.040 A 
ATOM      8  C   UNL d   1      23.655 -16.541  -1.368  0.00  0.00     0.030 A 
ATOM      9  C   UNL d   1      22.938 -17.398  -0.509  0.00  0.00     0.002 A 
ATOM     10  C   UNL d   1      23.610 -18.230   0.377  0.00  0.00     0.001 A 
ATOM     11  C   UNL d   1      24.990 -18.200   0.411  0.00  0.00     0.009 A 
ATOM     12  C   UNL d   1      25.715 -17.360  -0.440  0.00  0.00    -0.035 A 
ATOM     13  C   UNL d   1      27.188 -17.456  -0.277  0.00  0.00     0.050 C 
ENDBRANCH   4   7
ENDBRANCH   1   3
BRANCH   1  14
ATOM     14  N   UNL d   1      25.441 -12.743  -4.481  0.00  0.00    -0.344 N 
ATOM     15  C   UNL d   1      25.905 -11.540  -4.929  0.00  0.00     0.254 C 
ATOM     16  O   UNL d   1      25.623 -10.493  -4.329  0.00  0.00    -0.268 OA
ATOM     17  H   UNL d   1      24.590 -12.638  -3.919  0.00  0.00     0.163 HD
BRANCH  15  18
ATOM     18  C   UNL d   1      26.694 -11.488  -6.181  0.00  0.00     0.053 C 
ATOM     19  C   UNL d   1      27.825 -12.285  -6.347  0.00  0.00     0.019 C 
ATOM     20  C   UNL d   1      28.482 -12.293  -7.585  0.00  0.00     0.001 C 
ATOM     21  C   UNL d   1      27.917 -11.653  -8.689  0.00  0.00     0.002 C 
ATOM     22  C   UNL d   1      26.811 -10.848  -8.511  0.00  0.00     0.025 C 
ATOM     23  C   UNL d   1      26.404 -10.593  -7.208  0.00  0.00     0.049 C 
ATOM     24 CL   UNL d   1      25.905  -8.958  -6.890  0.00  0.00    -0.083 Cl
ENDBRANCH  15  18
ENDBRANCH   1  14
TORSDOF 4
ENDMDL
MODEL 8
REMARK VINA RESULT:    -6.684      4.100      6.407
REMARK INTER + INTRA:          -9.801
REMARK INTER:                  -7.877
REMARK INTRA:                  -1.924
REMARK CONF_INDEPENDENT:        1.193
REMARK UNBOUND:                -1.924
REMARK  4 active torsions:
REMARK  status: ('A' for Active; 'I' for Inactive)
REMARK    1  A    between atoms: C_7  and  N_8 
REMARK       I    between atoms: N_8  and  C_9 
REMARK    2  A    between atoms: C_9  and  C_11 
REMARK    3  A    between atoms: C_11  and  N_13 
REMARK       I    between atoms: N_13  and  C_14 
REMARK    4  A    between atoms: C_14  and  C_16 
ROOT
ATOM      1  C   UNL d   1      27.414 -14.880  -4.427  0.00  0.00     0.173 C 
ATOM      2  C   UNL d   1      27.119 -13.428  -4.666  0.00  0.00     0.042 C 
ENDROOT
BRANCH   1   3
ATOM      3  C   UNL d   1      26.246 -15.390  -3.601  0.00  0.00     0.244 C 
ATOM      4  N   UNL d   1      26.517 -16.060  -2.406  0.00  0.00    -0.325 N 
ATOM      5  H   UNL d   1      27.491 -16.151  -2.139  0.00  0.00     0.169 HD
ATOM      6  O   UNL d   1      25.155 -15.150  -4.133  0.00  0.00    -0.271 OA
BRANCH   4   7
ATOM      7  C   UNL d   1      25.611 -16.699  -1.497  0.00  0.00     0.040 A 
ATOM      8  C   UNL d   1      24.225 -16.462  -1.650  0.00  0.00     0.030 A 
ATOM      9  C   UNL d   1      23.282 -17.112  -0.827  0.00  0.00     0.002 A 
ATOM     10  C   UNL d   1      23.701 -17.984   0.170  0.00  0.00     0.001 A 
ATOM     11  C   UNL d   1      25.052 -18.199   0.350  0.00  0.00     0.009 A 
ATOM     12  C   UNL d   1      25.998 -17.568  -0.463  0.00  0.00    -0.035 A 
ATOM     13  C   UNL d   1      27.406 -17.914  -0.138  0.00  0.00     0.050 C 
ENDBRANCH   4   7
ENDBRANCH   1   3
BRANCH   1  14
ATOM     14  N   UNL d   1      28.619 -15.142  -3.550  0.00  0.00    -0.344 N 
ATOM     15  C   UNL d   1      29.369 -16.265  -3.348  0.00  0.00     0.254 C 
ATOM     16  O   UNL d   1      29.576 -16.687  -2.202  0.00  0.00    -0.268 OA
ATOM     17  H   UNL d   1      28.618 -14.532  -2.726  0.00  0.00     0.163 HD
BRANCH  15  18
ATOM     18  C   UNL d   1      29.992 -16.939  -4.511  0.00  0.00     0.053 C 
ATOM     19  C   UNL d   1      30.404 -18.267  -4.432  0.00  0.00     0.019 C 
ATOM     20  C   UNL d   1      30.886 -18.905  -5.583  0.00  0.00     0.001 C 
ATOM     21  C   UNL d   1      30.792 -18.281  -6.828  0.00  0.00     0.002 C 
ATOM     22  C   UNL d   1      30.405 -16.959  -6.894  0.00  0.00     0.025 C 
ATOM     23  C   UNL d   1      30.274 -16.266  -5.698  0.00  0.00     0.049 C 
ATOM     24 CL   UNL d   1      30.876 -14.635  -5.712  0.00  0.00    -0.083 Cl
ENDBRANCH  15  18
ENDBRANCH   1  14
TORSDOF 4
ENDMDL
MODEL 9
REMARK VINA RESULT:    -6.548      4.277      7.010
REMARK INTER + INTRA:          -9.706
REMARK INTER:                  -7.742
REMARK INTRA:                  -1.964
REMARK CONF_INDEPENDENT:        1.193
REMARK UNBOUND:                -1.964
REMARK  4 active torsions:
REMARK  status: ('A' for Active; 'I' for Inactive)
REMARK    1  A    between atoms: C_7  and  N_8 
REMARK       I    between atoms: N_8  and  C_9 
REMARK    2  A    between atoms: C_9  and  C_11 
REMARK    3  A    between atoms: C_11  and  N_13 
REMARK       I    between atoms: N_13  and  C_14 
REMARK    4  A    between atoms: C_14  and  C_16 
ROOT
ATOM      1  C   UNL d   1      27.935 -14.734  -4.420  0.00  0.00     0.173 C 
ATOM      2  C   UNL d   1      28.900 -15.413  -5.348  0.00  0.00     0.042 C 
ENDROOT
BRANCH   1   3
ATOM      3  C   UNL d   1      27.699 -15.731  -3.299  0.00  0.00     0.244 C 
ATOM      4  N   UNL d   1      26.438 -15.769  -2.697  0.00  0.00    -0.325 N 
ATOM      5  H   UNL d   1      25.734 -15.138  -3.061  0.00  0.00     0.169 HD
ATOM      6  O   UNL d   1      28.709 -16.395  -3.040  0.00  0.00    -0.271 OA
BRANCH   4   7
ATOM      7  C   UNL d   1      25.988 -16.550  -1.581  0.00  0.00     0.040 A 
ATOM      8  C   UNL d   1      24.682 -17.091  -1.621  0.00  0.00     0.030 A 
ATOM      9  C   UNL d   1      24.208 -17.919  -0.582  0.00  0.00     0.002 A 
ATOM     10  C   UNL d   1      25.010 -18.200   0.516  0.00  0.00     0.001 A 
ATOM     11  C   UNL d   1      26.275 -17.651   0.582  0.00  0.00     0.009 A 
ATOM     12  C   UNL d   1      26.762 -16.835  -0.444  0.00  0.00    -0.035 A 
ATOM     13  C   UNL d   1      28.141 -16.333  -0.217  0.00  0.00     0.050 C 
ENDBRANCH   4   7
ENDBRANCH   1   3
BRANCH   1  14
ATOM     14  N   UNL d   1      26.556 -14.507  -5.000  0.00  0.00    -0.344 N 
ATOM     15  C   UNL d   1      25.546 -13.663  -4.636  0.00  0.00     0.254 C 
ATOM     16  O   UNL d   1      24.402 -14.098  -4.441  0.00  0.00    -0.268 OA
ATOM     17  H   UNL d   1      26.200 -15.355  -5.453  0.00  0.00     0.163 HD
BRANCH  15  18
ATOM     18  C   UNL d   1      25.813 -12.210  -4.543  0.00  0.00     0.053 C 
ATOM     19  C   UNL d   1      25.906 -11.425  -5.690  0.00  0.00     0.019 C 
ATOM     20  C   UNL d   1      26.049 -10.037  -5.561  0.00  0.00     0.001 C 
ATOM     21  C   UNL d   1      25.924  -9.427  -4.312  0.00  0.00     0.002 C 
ATOM     22  C   UNL d   1      25.855 -10.212  -3.180  0.00  0.00     0.025 C 
ATOM     23  C   UNL d   1      26.069 -11.575  -3.329  0.00  0.00     0.049 C 
ATOM     24 CL   UNL d   1      27.032 -12.319  -2.087  0.00  0.00    -0.083 Cl
ENDBRANCH  15  18
ENDBRANCH   1  14
TORSDOF 4
ENDMDL
