MODEL 1
REMARK VINA RESULT:    -8.865      0.000      0.000
REMARK INTER + INTRA:         -10.812
REMARK INTER:                 -10.059
REMARK INTRA:                  -0.753
REMARK CONF_INDEPENDENT:        1.193
REMARK UNBOUND:                -0.753
REMARK  4 active torsions:
REMARK  status: ('A' for Active; 'I' for Inactive)
REMARK    1  A    between atoms: C_7  and  N_8 
REMARK       I    between atoms: N_8  and  C_9 
REMARK       I    between atoms: C_9  and  N_11 
REMARK    2  A    between atoms: N_11  and  C_12 
REMARK    3  A    between atoms: C_15  and  O_16 
REMARK    4  A    between atoms: O_16  and  C_17 
ROOT
ATOM      1  C   UNL d   1      24.459 -17.246  -0.761  0.00  0.00     0.036 A 
ATOM      2  C   UNL d   1      23.452 -16.290  -0.893  0.00  0.00     0.032 A 
ATOM      3  C   UNL d   1      22.091 -16.686  -0.895  0.00  0.00     0.039 A 
ATOM      4  C   UNL d   1      21.721 -18.042  -0.855  0.00  0.00     0.076 A 
ATOM      5  C   UNL d   1      22.728 -18.994  -0.795  0.00  0.00     0.039 A 
ATOM      6  C   UNL d   1      24.064 -18.599  -0.726  0.00  0.00     0.032 A 
ENDROOT
BRANCH   1   7
ATOM      7  N   UNL d   1      25.872 -16.905  -0.729  0.00  0.00    -0.309 N 
ATOM      8  C   UNL d   1      26.423 -16.507  -1.931  0.00  0.00     0.325 C 
ATOM      9  N   UNL d   1      27.779 -16.265  -2.037  0.00  0.00    -0.308 N 
ATOM     10  O   UNL d   1      25.616 -16.383  -2.848  0.00  0.00    -0.247 OA
ATOM     11  H   UNL d   1      28.320 -16.254  -1.183  0.00  0.00     0.170 HD
ATOM     12  H   UNL d   1      26.246 -16.522   0.125  0.00  0.00     0.170 HD
BRANCH   9  13
ATOM     13  C   UNL d   1      28.516 -15.950  -3.266  0.00  0.00     0.042 A 
ATOM     14  C   UNL d   1      29.698 -16.675  -3.546  0.00  0.00     0.030 A 
ATOM     15  C   UNL d   1      30.460 -16.445  -4.721  0.00  0.00     0.002 A 
ATOM     16  C   UNL d   1      30.073 -15.484  -5.645  0.00  0.00     0.001 A 
ATOM     17  C   UNL d   1      28.928 -14.762  -5.400  0.00  0.00     0.009 A 
ATOM     18  C   UNL d   1      28.152 -14.985  -4.243  0.00  0.00    -0.035 A 
ATOM     19  C   UNL d   1      26.952 -14.100  -4.196  0.00  0.00     0.050 C 
ENDBRANCH   9  13
ENDBRANCH   1   7
BRANCH   4  20
ATOM     20  O   UNL d   1      20.371 -18.336  -0.922  0.00  0.00    -0.311 OA
BRANCH  20  21
ATOM     21  C   UNL d   1      19.841 -19.253  -0.035  0.00  0.00     0.076 A 
ATOM     22  C   UNL d   1      18.797 -20.073  -0.471  0.00  0.00     0.037 A 
ATOM     23  C   UNL d   1      18.188 -20.963   0.421  0.00  0.00     0.003 A 
ATOM     24  C   UNL d   1      18.668 -21.085   1.726  0.00  0.00     0.000 A 
ATOM     25  C   UNL d   1      19.709 -20.267   2.163  0.00  0.00     0.003 A 
ATOM     26  C   UNL d   1      20.268 -19.325   1.296  0.00  0.00     0.037 A 
ENDBRANCH  20  21
ENDBRANCH   4  20
TORSDOF 4
ENDMDL
MODEL 2
REMARK VINA RESULT:    -8.684      0.716      1.650
REMARK INTER + INTRA:         -10.651
REMARK INTER:                  -9.877
REMARK INTRA:                  -0.773
REMARK CONF_INDEPENDENT:        1.193
REMARK UNBOUND:                -0.773
REMARK  4 active torsions:
REMARK  status: ('A' for Active; 'I' for Inactive)
REMARK    1  A    between atoms: C_7  and  N_8 
REMARK       I    between atoms: N_8  and  C_9 
REMARK       I    between atoms: C_9  and  N_11 
REMARK    2  A    between atoms: N_11  and  C_12 
REMARK    3  A    between atoms: C_15  and  O_16 
REMARK    4  A    between atoms: O_16  and  C_17 
ROOT
ATOM      1  C   UNL d   1      24.528 -17.363  -0.366  0.00  0.00     0.036 A 
ATOM      2  C   UNL d   1      23.536 -16.399  -0.543  0.00  0.00     0.032 A 
ATOM      3  C   UNL d   1      22.179 -16.790  -0.670  0.00  0.00     0.039 A 
ATOM      4  C   UNL d   1      21.806 -18.145  -0.712  0.00  0.00     0.076 A 
ATOM      5  C   UNL d   1      22.804 -19.102  -0.606  0.00  0.00     0.039 A 
ATOM      6  C   UNL d   1      24.130 -18.716  -0.415  0.00  0.00     0.032 A 
ENDROOT
BRANCH   1   7
ATOM      7  N   UNL d   1      25.934 -17.030  -0.207  0.00  0.00    -0.309 N 
ATOM      8  C   UNL d   1      26.621 -16.747  -1.371  0.00  0.00     0.325 C 
ATOM      9  N   UNL d   1      27.984 -16.523  -1.345  0.00  0.00    -0.308 N 
ATOM     10  O   UNL d   1      25.923 -16.703  -2.379  0.00  0.00    -0.247 OA
ATOM     11  H   UNL d   1      28.428 -16.437  -0.440  0.00  0.00     0.170 HD
ATOM     12  H   UNL d   1      26.217 -16.572   0.646  0.00  0.00     0.170 HD
BRANCH   9  13
ATOM     13  C   UNL d   1      28.859 -16.327  -2.507  0.00  0.00     0.042 A 
ATOM     14  C   UNL d   1      28.491 -15.361  -3.472  0.00  0.00     0.030 A 
ATOM     15  C   UNL d   1      29.290 -15.098  -4.615  0.00  0.00     0.002 A 
ATOM     16  C   UNL d   1      30.472 -15.792  -4.833  0.00  0.00     0.001 A 
ATOM     17  C   UNL d   1      30.857 -16.739  -3.912  0.00  0.00     0.009 A 
ATOM     18  C   UNL d   1      30.081 -17.006  -2.765  0.00  0.00    -0.035 A 
ATOM     19  C   UNL d   1      30.700 -18.056  -1.904  0.00  0.00     0.050 C 
ENDBRANCH   9  13
ENDBRANCH   1   7
BRANCH   4  20
ATOM     20  O   UNL d   1      20.466 -18.432  -0.899  0.00  0.00    -0.311 OA
BRANCH  20  21
ATOM     21  C   UNL d   1      19.842 -19.312  -0.036  0.00  0.00     0.076 A 
ATOM     22  C   UNL d   1      18.778 -20.076  -0.520  0.00  0.00     0.037 A 
ATOM     23  C   UNL d   1      18.078 -20.925   0.344  0.00  0.00     0.003 A 
ATOM     24  C   UNL d   1      18.483 -21.063   1.673  0.00  0.00     0.000 A 
ATOM     25  C   UNL d   1      19.544 -20.300   2.158  0.00  0.00     0.003 A 
ATOM     26  C   UNL d   1      20.197 -19.396   1.316  0.00  0.00     0.037 A 
ENDBRANCH  20  21
ENDBRANCH   4  20
TORSDOF 4
ENDMDL
MODEL 3
REMARK VINA RESULT:    -8.521      0.969      2.295
REMARK INTER + INTRA:         -10.408
REMARK INTER:                  -9.714
REMARK INTRA:                  -0.694
REMARK CONF_INDEPENDENT:        1.193
REMARK UNBOUND:                -0.694
REMARK  4 active torsions:
REMARK  status: ('A' for Active; 'I' for Inactive)
REMARK    1  A    between atoms: C_7  and  N_8 
REMARK       I    between atoms: N_8  and  C_9 
REMARK       I    between atoms: C_9  and  N_11 
REMARK    2  A    between atoms: N_11  and  C_12 
REMARK    3  A    between atoms: C_15  and  O_16 
REMARK    4  A    between atoms: O_16  and  C_17 
ROOT
ATOM      1  C   UNL d   1      24.567 -17.767  -0.303  0.00  0.00     0.036 A 
ATOM      2  C   UNL d   1      24.029 -19.050  -0.404  0.00  0.00     0.032 A 
ATOM      3  C   UNL d   1      22.648 -19.222  -0.673  0.00  0.00     0.039 A 
ATOM      4  C   UNL d   1      21.773 -18.124  -0.756  0.00  0.00     0.076 A 
ATOM      5  C   UNL d   1      22.301 -16.853  -0.585  0.00  0.00     0.039 A 
ATOM      6  C   UNL d   1      23.671 -16.682  -0.386  0.00  0.00     0.032 A 
ENDROOT
BRANCH   1   7
ATOM      7  N   UNL d   1      25.978 -17.520  -0.052  0.00  0.00    -0.309 N 
ATOM      8  C   UNL d   1      26.712 -17.071  -1.132  0.00  0.00     0.325 C 
ATOM      9  N   UNL d   1      28.080 -16.907  -1.032  0.00  0.00    -0.308 N 
ATOM     10  O   UNL d   1      26.050 -16.829  -2.136  0.00  0.00    -0.247 OA
ATOM     11  H   UNL d   1      28.496 -16.993  -0.115  0.00  0.00     0.170 HD
ATOM     12  H   UNL d   1      26.248 -17.225   0.873  0.00  0.00     0.170 HD
BRANCH   9  13
ATOM     13  C   UNL d   1      28.999 -16.551  -2.120  0.00  0.00     0.042 A 
ATOM     14  C   UNL d   1      28.563 -15.620  -3.092  0.00  0.00     0.030 A 
ATOM     15  C   UNL d   1      29.396 -15.210  -4.165  0.00  0.00     0.002 A 
ATOM     16  C   UNL d   1      30.680 -15.717  -4.306  0.00  0.00     0.001 A 
ATOM     17  C   UNL d   1      31.132 -16.626  -3.377  0.00  0.00     0.009 A 
ATOM     18  C   UNL d   1      30.323 -17.037  -2.297  0.00  0.00    -0.035 A 
ATOM     19  C   UNL d   1      31.025 -18.012  -1.412  0.00  0.00     0.050 C 
ENDBRANCH   9  13
ENDBRANCH   1   7
BRANCH   4  20
ATOM     20  O   UNL d   1      20.432 -18.392  -0.961  0.00  0.00    -0.311 OA
BRANCH  20  21
ATOM     21  C   UNL d   1      19.778 -19.245  -0.093  0.00  0.00     0.076 A 
ATOM     22  C   UNL d   1      20.233 -19.329   1.225  0.00  0.00     0.037 A 
ATOM     23  C   UNL d   1      19.640 -20.234   2.112  0.00  0.00     0.003 A 
ATOM     24  C   UNL d   1      18.551 -21.005   1.703  0.00  0.00     0.000 A 
ATOM     25  C   UNL d   1      18.097 -20.924   0.388  0.00  0.00     0.003 A 
ATOM     26  C   UNL d   1      18.735 -20.075  -0.520  0.00  0.00     0.037 A 
ENDBRANCH  20  21
ENDBRANCH   4  20
TORSDOF 4
ENDMDL
MODEL 4
REMARK VINA RESULT:    -8.500      1.834      2.133
REMARK INTER + INTRA:         -10.407
REMARK INTER:                  -9.693
REMARK INTRA:                  -0.714
REMARK CONF_INDEPENDENT:        1.193
REMARK UNBOUND:                -0.714
REMARK  4 active torsions:
REMARK  status: ('A' for Active; 'I' for Inactive)
REMARK    1  A    between atoms: C_7  and  N_8 
REMARK       I    between atoms: N_8  and  C_9 
REMARK       I    between atoms: C_9  and  N_11 
REMARK    2  A    between atoms: N_11  and  C_12 
REMARK    3  A    between atoms: C_15  and  O_16 
REMARK    4  A    between atoms: O_16  and  C_17 
ROOT
ATOM      1  C   UNL d   1      24.164 -16.746  -0.941  0.00  0.00     0.036 A 
ATOM      2  C   UNL d   1      22.847 -16.294  -0.854  0.00  0.00     0.032 A 
ATOM      3  C   UNL d   1      21.773 -17.218  -0.895  0.00  0.00     0.039 A 
ATOM      4  C   UNL d   1      21.993 -18.590  -1.112  0.00  0.00     0.076 A 
ATOM      5  C   UNL d   1      23.301 -19.026  -1.268  0.00  0.00     0.039 A 
ATOM      6  C   UNL d   1      24.360 -18.125  -1.162  0.00  0.00     0.032 A 
ENDROOT
BRANCH   1   7
ATOM      7  N   UNL d   1      25.310 -15.855  -0.883  0.00  0.00    -0.309 N 
ATOM      8  C   UNL d   1      25.532 -15.084  -2.007  0.00  0.00     0.325 C 
ATOM      9  N   UNL d   1      26.654 -14.283  -2.100  0.00  0.00    -0.308 N 
ATOM     10  O   UNL d   1      24.661 -15.171  -2.867  0.00  0.00    -0.247 OA
ATOM     11  H   UNL d   1      27.223 -14.177  -1.272  0.00  0.00     0.170 HD
ATOM     12  H   UNL d   1      25.576 -15.485   0.017  0.00  0.00     0.170 HD
BRANCH   9  13
ATOM     13  C   UNL d   1      27.077 -13.506  -3.271  0.00  0.00     0.042 A 
ATOM     14  C   UNL d   1      27.662 -12.235  -3.060  0.00  0.00     0.030 A 
ATOM     15  C   UNL d   1      28.114 -11.429  -4.137  0.00  0.00     0.002 A 
ATOM     16  C   UNL d   1      27.990 -11.857  -5.451  0.00  0.00     0.001 A 
ATOM     17  C   UNL d   1      27.423 -13.089  -5.688  0.00  0.00     0.009 A 
ATOM     18  C   UNL d   1      26.979 -13.909  -4.630  0.00  0.00    -0.035 A 
ATOM     19  C   UNL d   1      26.416 -15.200  -5.124  0.00  0.00     0.050 C 
ENDBRANCH   9  13
ENDBRANCH   1   7
BRANCH   4  20
ATOM     20  O   UNL d   1      20.881 -19.408  -1.197  0.00  0.00    -0.311 OA
BRANCH  20  21
ATOM     21  C   UNL d   1      20.219 -19.761  -0.037  0.00  0.00     0.076 A 
ATOM     22  C   UNL d   1      19.039 -20.500  -0.145  0.00  0.00     0.037 A 
ATOM     23  C   UNL d   1      18.303 -20.814   1.004  0.00  0.00     0.003 A 
ATOM     24  C   UNL d   1      18.782 -20.449   2.264  0.00  0.00     0.000 A 
ATOM     25  C   UNL d   1      19.959 -19.710   2.372  0.00  0.00     0.003 A 
ATOM     26  C   UNL d   1      20.655 -19.332   1.222  0.00  0.00     0.037 A 
ENDBRANCH  20  21
ENDBRANCH   4  20
TORSDOF 4
ENDMDL
MODEL 5
REMARK VINA RESULT:    -7.657      4.144      4.878
REMARK INTER + INTRA:          -9.249
REMARK INTER:                  -8.851
REMARK INTRA:                  -0.399
REMARK CONF_INDEPENDENT:        1.193
REMARK UNBOUND:                -0.399
REMARK  4 active torsions:
REMARK  status: ('A' for Active; 'I' for Inactive)
REMARK    1  A    between atoms: C_7  and  N_8 
REMARK       I    between atoms: N_8  and  C_9 
REMARK       I    between atoms: C_9  and  N_11 
REMARK    2  A    between atoms: N_11  and  C_12 
REMARK    3  A    between atoms: C_15  and  O_16 
REMARK    4  A    between atoms: O_16  and  C_17 
ROOT
ATOM      1  C   UNL d   1      26.221 -17.026   0.070  0.00  0.00     0.036 A 
ATOM      2  C   UNL d   1      25.622 -16.402  -1.024  0.00  0.00     0.032 A 
ATOM      3  C   UNL d   1      24.399 -16.896  -1.543  0.00  0.00     0.039 A 
ATOM      4  C   UNL d   1      23.806 -18.066  -1.037  0.00  0.00     0.076 A 
ATOM      5  C   UNL d   1      24.442 -18.724   0.006  0.00  0.00     0.039 A 
ATOM      6  C   UNL d   1      25.610 -18.200   0.558  0.00  0.00     0.032 A 
ENDROOT
BRANCH   1   7
ATOM      7  N   UNL d   1      27.462 -16.558   0.664  0.00  0.00    -0.309 N 
ATOM      8  C   UNL d   1      27.475 -15.238   1.071  0.00  0.00     0.325 C 
ATOM      9  N   UNL d   1      28.635 -14.661   1.549  0.00  0.00    -0.308 N 
ATOM     10  O   UNL d   1      26.394 -14.665   0.980  0.00  0.00    -0.247 OA
ATOM     11  H   UNL d   1      29.425 -15.269   1.719  0.00  0.00     0.170 HD
ATOM     12  H   UNL d   1      28.025 -17.225   1.169  0.00  0.00     0.170 HD
BRANCH   9  13
ATOM     13  C   UNL d   1      28.826 -13.251   1.906  0.00  0.00     0.042 A 
ATOM     14  C   UNL d   1      28.495 -12.263   0.949  0.00  0.00     0.030 A 
ATOM     15  C   UNL d   1      28.634 -10.877   1.221  0.00  0.00     0.002 A 
ATOM     16  C   UNL d   1      29.111 -10.435   2.447  0.00  0.00     0.001 A 
ATOM     17  C   UNL d   1      29.443 -11.373   3.398  0.00  0.00     0.009 A 
ATOM     18  C   UNL d   1      29.302 -12.754   3.150  0.00  0.00    -0.035 A 
ATOM     19  C   UNL d   1      29.706 -13.577   4.326  0.00  0.00     0.050 C 
ENDBRANCH   9  13
ENDBRANCH   1   7
BRANCH   4  20
ATOM     20  O   UNL d   1      22.644 -18.507  -1.645  0.00  0.00    -0.311 OA
BRANCH  20  21
ATOM     21  C   UNL d   1      21.592 -18.927  -0.855  0.00  0.00     0.076 A 
ATOM     22  C   UNL d   1      20.408 -19.325  -1.480  0.00  0.00     0.037 A 
ATOM     23  C   UNL d   1      19.298 -19.689  -0.709  0.00  0.00     0.003 A 
ATOM     24  C   UNL d   1      19.393 -19.723   0.683  0.00  0.00     0.000 A 
ATOM     25  C   UNL d   1      20.573 -19.325   1.309  0.00  0.00     0.003 A 
ATOM     26  C   UNL d   1      21.658 -18.889   0.543  0.00  0.00     0.037 A 
ENDBRANCH  20  21
ENDBRANCH   4  20
TORSDOF 4
ENDMDL
MODEL 6
REMARK VINA RESULT:    -7.560      2.149      9.374
REMARK INTER + INTRA:          -9.432
REMARK INTER:                  -8.753
REMARK INTRA:                  -0.680
REMARK CONF_INDEPENDENT:        1.193
REMARK UNBOUND:                -0.680
REMARK  4 active torsions:
REMARK  status: ('A' for Active; 'I' for Inactive)
REMARK    1  A    between atoms: C_7  and  N_8 
REMARK       I    between atoms: N_8  and  C_9 
REMARK       I    between atoms: C_9  and  N_11 
REMARK    2  A    between atoms: N_11  and  C_12 
REMARK    3  A    between atoms: C_15  and  O_16 
REMARK    4  A    between atoms: O_16  and  C_17 
ROOT
ATOM      1  C   UNL d   1      24.623 -17.102  -0.458  0.00  0.00     0.036 A 
ATOM      2  C   UNL d   1      24.154 -16.198  -1.410  0.00  0.00     0.032 A 
ATOM      3  C   UNL d   1      25.020 -15.728  -2.431  0.00  0.00     0.039 A 
ATOM      4  C   UNL d   1      26.380 -16.084  -2.461  0.00  0.00     0.076 A 
ATOM      5  C   UNL d   1      26.858 -16.928  -1.470  0.00  0.00     0.039 A 
ATOM      6  C   UNL d   1      25.991 -17.441  -0.506  0.00  0.00     0.032 A 
ENDROOT
BRANCH   1   7
ATOM      7  N   UNL d   1      23.783 -17.639   0.600  0.00  0.00    -0.309 N 
ATOM      8  C   UNL d   1      22.678 -18.358   0.187  0.00  0.00     0.325 C 
ATOM      9  N   UNL d   1      21.757 -18.820   1.106  0.00  0.00    -0.308 N 
ATOM     10  O   UNL d   1      22.614 -18.545  -1.024  0.00  0.00    -0.247 OA
ATOM     11  H   UNL d   1      21.989 -18.736   2.086  0.00  0.00     0.170 HD
ATOM     12  H   UNL d   1      24.224 -17.889   1.472  0.00  0.00     0.170 HD
BRANCH   9  13
ATOM     13  C   UNL d   1      20.486 -19.491   0.806  0.00  0.00     0.042 A 
ATOM     14  C   UNL d   1      19.991 -19.437  -0.518  0.00  0.00     0.030 A 
ATOM     15  C   UNL d   1      18.781 -20.074  -0.894  0.00  0.00     0.002 A 
ATOM     16  C   UNL d   1      18.025 -20.776   0.035  0.00  0.00     0.001 A 
ATOM     17  C   UNL d   1      18.480 -20.846   1.332  0.00  0.00     0.009 A 
ATOM     18  C   UNL d   1      19.687 -20.229   1.722  0.00  0.00    -0.035 A 
ATOM     19  C   UNL d   1      19.987 -20.450   3.167  0.00  0.00     0.050 C 
ENDBRANCH   9  13
ENDBRANCH   1   7
BRANCH   4  20
ATOM     20  O   UNL d   1      27.161 -15.530  -3.459  0.00  0.00    -0.311 OA
BRANCH  20  21
ATOM     21  C   UNL d   1      26.975 -14.203  -3.798  0.00  0.00     0.076 A 
ATOM     22  C   UNL d   1      26.739 -13.886  -5.137  0.00  0.00     0.037 A 
ATOM     23  C   UNL d   1      26.616 -12.548  -5.527  0.00  0.00     0.003 A 
ATOM     24  C   UNL d   1      26.659 -11.532  -4.571  0.00  0.00     0.000 A 
ATOM     25  C   UNL d   1      26.895 -11.847  -3.234  0.00  0.00     0.003 A 
ATOM     26  C   UNL d   1      27.093 -13.177  -2.853  0.00  0.00     0.037 A 
ENDBRANCH  20  21
ENDBRANCH   4  20
TORSDOF 4
ENDMDL
MODEL 7
REMARK VINA RESULT:    -7.486      1.697      2.864
REMARK INTER + INTRA:          -9.477
REMARK INTER:                  -8.679
REMARK INTRA:                  -0.798
REMARK CONF_INDEPENDENT:        1.193
REMARK UNBOUND:                -0.798
REMARK  4 active torsions:
REMARK  status: ('A' for Active; 'I' for Inactive)
REMARK    1  A    between atoms: C_7  and  N_8 
REMARK       I    between atoms: N_8  and  C_9 
REMARK       I    between atoms: C_9  and  N_11 
REMARK    2  A    between atoms: N_11  and  C_12 
REMARK    3  A    between atoms: C_15  and  O_16 
REMARK    4  A    between atoms: O_16  and  C_17 
ROOT
ATOM      1  C   UNL d   1      25.292 -15.951  -1.243  0.00  0.00     0.036 A 
ATOM      2  C   UNL d   1      25.897 -17.079  -0.688  0.00  0.00     0.032 A 
ATOM      3  C   UNL d   1      25.108 -18.195  -0.308  0.00  0.00     0.039 A 
ATOM      4  C   UNL d   1      23.705 -18.165  -0.393  0.00  0.00     0.076 A 
ATOM      5  C   UNL d   1      23.103 -17.014  -0.880  0.00  0.00     0.039 A 
ATOM      6  C   UNL d   1      23.883 -15.943  -1.315  0.00  0.00     0.032 A 
ENDROOT
BRANCH   1   7
ATOM      7  N   UNL d   1      26.043 -14.784  -1.674  0.00  0.00    -0.309 N 
ATOM      8  C   UNL d   1      26.352 -14.730  -3.019  0.00  0.00     0.325 C 
ATOM      9  N   UNL d   1      27.154 -13.721  -3.515  0.00  0.00    -0.308 N 
ATOM     10  O   UNL d   1      25.851 -15.623  -3.695  0.00  0.00    -0.247 OA
ATOM     11  H   UNL d   1      27.386 -12.958  -2.893  0.00  0.00     0.170 HD
ATOM     12  H   UNL d   1      25.899 -13.919  -1.175  0.00  0.00     0.170 HD
BRANCH   9  13
ATOM     13  C   UNL d   1      27.657 -13.601  -4.888  0.00  0.00     0.042 A 
ATOM     14  C   UNL d   1      27.365 -12.421  -5.613  0.00  0.00     0.030 A 
ATOM     15  C   UNL d   1      27.829 -12.220  -6.938  0.00  0.00     0.002 A 
ATOM     16  C   UNL d   1      28.589 -13.185  -7.583  0.00  0.00     0.001 A 
ATOM     17  C   UNL d   1      28.889 -14.344  -6.905  0.00  0.00     0.009 A 
ATOM     18  C   UNL d   1      28.446 -14.558  -5.583  0.00  0.00    -0.035 A 
ATOM     19  C   UNL d   1      28.903 -15.873  -5.046  0.00  0.00     0.050 C 
ENDBRANCH   9  13
ENDBRANCH   1   7
BRANCH   4  20
ATOM     20  O   UNL d   1      23.016 -19.277   0.056  0.00  0.00    -0.311 OA
BRANCH  20  21
ATOM     21  C   UNL d   1      21.636 -19.284  -0.014  0.00  0.00     0.076 A 
ATOM     22  C   UNL d   1      20.911 -19.327   1.179  0.00  0.00     0.037 A 
ATOM     23  C   UNL d   1      19.514 -19.407   1.145  0.00  0.00     0.003 A 
ATOM     24  C   UNL d   1      18.840 -19.372  -0.077  0.00  0.00     0.000 A 
ATOM     25  C   UNL d   1      19.563 -19.329  -1.268  0.00  0.00     0.003 A 
ATOM     26  C   UNL d   1      20.959 -19.325  -1.238  0.00  0.00     0.037 A 
ENDBRANCH  20  21
ENDBRANCH   4  20
TORSDOF 4
ENDMDL
MODEL 8
REMARK VINA RESULT:    -7.471      2.050      2.708
REMARK INTER + INTRA:          -9.188
REMARK INTER:                  -8.664
REMARK INTRA:                  -0.524
REMARK CONF_INDEPENDENT:        1.193
REMARK UNBOUND:                -0.524
REMARK  4 active torsions:
REMARK  status: ('A' for Active; 'I' for Inactive)
REMARK    1  A    between atoms: C_7  and  N_8 
REMARK       I    between atoms: N_8  and  C_9 
REMARK       I    between atoms: C_9  and  N_11 
REMARK    2  A    between atoms: N_11  and  C_12 
REMARK    3  A    between atoms: C_15  and  O_16 
REMARK    4  A    between atoms: O_16  and  C_17 
ROOT
ATOM      1  C   UNL d   1      25.723 -17.257   0.104  0.00  0.00     0.036 A 
ATOM      2  C   UNL d   1      24.906 -16.310  -0.513  0.00  0.00     0.032 A 
ATOM      3  C   UNL d   1      23.613 -16.674  -0.967  0.00  0.00     0.039 A 
ATOM      4  C   UNL d   1      23.155 -18.001  -0.892  0.00  0.00     0.076 A 
ATOM      5  C   UNL d   1      23.998 -18.955  -0.341  0.00  0.00     0.039 A 
ATOM      6  C   UNL d   1      25.244 -18.582   0.165  0.00  0.00     0.032 A 
ENDROOT
BRANCH   1   7
ATOM      7  N   UNL d   1      27.049 -16.946   0.612  0.00  0.00    -0.309 N 
ATOM      8  C   UNL d   1      27.925 -16.385  -0.295  0.00  0.00     0.325 C 
ATOM      9  N   UNL d   1      29.241 -16.149   0.052  0.00  0.00    -0.308 N 
ATOM     10  O   UNL d   1      27.430 -16.117  -1.386  0.00  0.00    -0.247 OA
ATOM     11  H   UNL d   1      29.499 -16.271   1.022  0.00  0.00     0.170 HD
ATOM     12  H   UNL d   1      27.135 -16.697   1.586  0.00  0.00     0.170 HD
BRANCH   9  13
ATOM     13  C   UNL d   1      30.306 -15.670  -0.837  0.00  0.00     0.042 A 
ATOM     14  C   UNL d   1      31.200 -14.688  -0.348  0.00  0.00     0.030 A 
ATOM     15  C   UNL d   1      32.267 -14.185  -1.137  0.00  0.00     0.002 A 
ATOM     16  C   UNL d   1      32.471 -14.637  -2.433  0.00  0.00     0.001 A 
ATOM     17  C   UNL d   1      31.617 -15.591  -2.937  0.00  0.00     0.009 A 
ATOM     18  C   UNL d   1      30.558 -16.111  -2.164  0.00  0.00    -0.035 A 
ATOM     19  C   UNL d   1      29.777 -17.141  -2.909  0.00  0.00     0.050 C 
ENDBRANCH   9  13
ENDBRANCH   1   7
BRANCH   4  20
ATOM     20  O   UNL d   1      21.904 -18.273  -1.415  0.00  0.00    -0.311 OA
BRANCH  20  21
ATOM     21  C   UNL d   1      20.958 -18.876  -0.608  0.00  0.00     0.076 A 
ATOM     22  C   UNL d   1      21.204 -18.949   0.765  0.00  0.00     0.037 A 
ATOM     23  C   UNL d   1      20.302 -19.615   1.602  0.00  0.00     0.003 A 
ATOM     24  C   UNL d   1      19.122 -20.147   1.079  0.00  0.00     0.000 A 
ATOM     25  C   UNL d   1      18.876 -20.077  -0.291  0.00  0.00     0.003 A 
ATOM     26  C   UNL d   1      19.811 -19.478  -1.139  0.00  0.00     0.037 A 
ENDBRANCH  20  21
ENDBRANCH   4  20
TORSDOF 4
ENDMDL
MODEL 9
REMARK VINA RESULT:    -7.444      6.592      8.243
REMARK INTER + INTRA:          -9.340
REMARK INTER:                  -8.638
REMARK INTRA:                  -0.702
REMARK CONF_INDEPENDENT:        1.193
REMARK UNBOUND:                -0.702
REMARK  4 active torsions:
REMARK  status: ('A' for Active; 'I' for Inactive)
REMARK    1  A    between atoms: C_7  and  N_8 
REMARK       I    between atoms: N_8  and  C_9 
REMARK       I    between atoms: C_9  and  N_11 
REMARK    2  A    between atoms: N_11  and  C_12 
REMARK    3  A    between atoms: C_15  and  O_16 
REMARK    4  A    between atoms: O_16  and  C_17 
ROOT
ATOM      1  C   UNL d   1      28.361 -14.792   1.753  0.00  0.00     0.036 A 
ATOM      2  C   UNL d   1      27.303 -13.909   1.537  0.00  0.00     0.032 A 
ATOM      3  C   UNL d   1      26.285 -14.234   0.605  0.00  0.00     0.039 A 
ATOM      4  C   UNL d   1      26.357 -15.395  -0.185  0.00  0.00     0.076 A 
ATOM      5  C   UNL d   1      27.448 -16.235  -0.018  0.00  0.00     0.039 A 
ATOM      6  C   UNL d   1      28.413 -15.948   0.947  0.00  0.00     0.032 A 
ENDROOT
BRANCH   1   7
ATOM      7  N   UNL d   1      29.424 -14.531   2.710  0.00  0.00    -0.309 N 
ATOM      8  C   UNL d   1      29.020 -14.290   4.008  0.00  0.00     0.325 C 
ATOM      9  N   UNL d   1      29.938 -13.925   4.974  0.00  0.00    -0.308 N 
ATOM     10  O   UNL d   1      27.818 -14.441   4.206  0.00  0.00    -0.247 OA
ATOM     11  H   UNL d   1      30.918 -13.977   4.731  0.00  0.00     0.170 HD
ATOM     12  H   UNL d   1      30.317 -14.972   2.555  0.00  0.00     0.170 HD
BRANCH   9  13
ATOM     13  C   UNL d   1      29.642 -13.529   6.355  0.00  0.00     0.042 A 
ATOM     14  C   UNL d   1      30.376 -14.133   7.402  0.00  0.00     0.030 A 
ATOM     15  C   UNL d   1      30.163 -13.792   8.763  0.00  0.00     0.002 A 
ATOM     16  C   UNL d   1      29.211 -12.849   9.122  0.00  0.00     0.001 A 
ATOM     17  C   UNL d   1      28.479 -12.244   8.126  0.00  0.00     0.009 A 
ATOM     18  C   UNL d   1      28.684 -12.562   6.767  0.00  0.00    -0.035 A 
ATOM     19  C   UNL d   1      27.792 -11.773   5.868  0.00  0.00     0.050 C 
ENDBRANCH   9  13
ENDBRANCH   1   7
BRANCH   4  20
ATOM     20  O   UNL d   1      25.349 -15.599  -1.111  0.00  0.00    -0.311 OA
BRANCH  20  21
ATOM     21  C   UNL d   1      24.448 -16.626  -0.905  0.00  0.00     0.076 A 
ATOM     22  C   UNL d   1      23.085 -16.322  -0.895  0.00  0.00     0.037 A 
ATOM     23  C   UNL d   1      22.148 -17.324  -0.620  0.00  0.00     0.003 A 
ATOM     24  C   UNL d   1      22.567 -18.641  -0.423  0.00  0.00     0.000 A 
ATOM     25  C   UNL d   1      23.927 -18.946  -0.432  0.00  0.00     0.003 A 
ATOM     26  C   UNL d   1      24.869 -17.933  -0.633  0.00  0.00     0.037 A 
ENDBRANCH  20  21
ENDBRANCH   4  20
TORSDOF 4
ENDMDL
