MODEL 1
REMARK VINA RESULT:    -7.621      0.000      0.000
REMARK INTER + INTRA:         -16.379
REMARK INTER:                 -12.394
REMARK INTRA:                  -3.986
REMARK CONF_INDEPENDENT:        4.773
REMARK UNBOUND:                -3.986
REMARK  16 active torsions:
REMARK  status: ('A' for Active; 'I' for Inactive)
REMARK    1  A    between atoms: C_2  and  C_3 
REMARK    2  A    between atoms: C_3  and  C_4 
REMARK    3  A    between atoms: C_4  and  C_5 
REMARK    4  A    between atoms: C_5  and  C_6 
REMARK    5  A    between atoms: C_6  and  N_7 
REMARK       I    between atoms: N_7  and  C_8 
REMARK    6  A    between atoms: N_7  and  C_18 
REMARK    7  A    between atoms: C_8  and  C_10 
REMARK    8  A    between atoms: C_10  and  C_11 
REMARK    9  A    between atoms: C_18  and  C_19 
REMARK   10  A    between atoms: C_18  and  C_26 
REMARK       I    between atoms: C_19  and  N_21 
REMARK   11  A    between atoms: N_21  and  C_22 
REMARK   12  A    between atoms: C_22  and  C_23 
REMARK   13  A    between atoms: C_23  and  C_24 
REMARK   14  A    between atoms: C_27  and  O_28 
REMARK   15  A    between atoms: C_30  and  O_31 
REMARK   16  A    between atoms: C_33  and  O_34 
ROOT
ATOM      1  C   UNL d   1      25.936 -15.279  -0.763  0.00  0.00     0.212 C 
ENDROOT
BRANCH   1   2
ATOM      2  N   UNL d   1      27.083 -15.137   0.220  0.00  0.00    -0.335 N 
ATOM      3  C   UNL d   1      27.443 -13.784   0.506  0.00  0.00     0.225 C 
ATOM      4  O   UNL d   1      26.742 -12.837   0.114  0.00  0.00    -0.273 OA
BRANCH   2   5
ATOM      5  C   UNL d   1      27.735 -16.440   0.709  0.00  0.00     0.127 C 
BRANCH   5   6
ATOM      6  C   UNL d   1      28.132 -17.418  -0.372  0.00  0.00     0.020 C 
BRANCH   6   7
ATOM      7  C   UNL d   1      29.537 -17.524  -0.904  0.00  0.00     0.002 C 
BRANCH   7   8
ATOM      8  C   UNL d   1      30.435 -16.614  -0.048  0.00  0.00    -0.000 C 
BRANCH   8   9
ATOM      9  C   UNL d   1      31.807 -17.212   0.104  0.00  0.00    -0.005 C 
ATOM     10  C   UNL d   1      32.280 -17.114   1.541  0.00  0.00     0.005 C 
ENDBRANCH   8   9
ENDBRANCH   7   8
ENDBRANCH   6   7
ENDBRANCH   5   6
ENDBRANCH   2   5
BRANCH   3  11
ATOM     11  C   UNL d   1      28.694 -13.397   1.295  0.00  0.00     0.142 C 
BRANCH  11  12
ATOM     12  C   UNL d   1      28.615 -13.584   2.830  0.00  0.00    -0.043 C 
ATOM     13  C   UNL d   1      27.355 -13.535   3.435  0.00  0.00     0.008 C 
ATOM     14  C   UNL d   1      27.175 -14.077   4.725  0.00  0.00     0.001 C 
ATOM     15  C   UNL d   1      28.200 -14.756   5.386  0.00  0.00     0.001 C 
ATOM     16  C   UNL d   1      29.436 -14.820   4.812  0.00  0.00     0.007 C 
ATOM     17  C   UNL d   1      29.660 -14.172   3.607  0.00  0.00    -0.055 C 
ATOM     18  C   UNL d   1      31.045 -14.351   3.158  0.00  0.00     0.049 C 
ENDBRANCH  11  12
ENDBRANCH   3  11
ENDBRANCH   1   2
BRANCH   1  19
ATOM     19  C   UNL d   1      24.994 -16.667  -0.634  0.00  0.00     0.225 C 
ATOM     20  O   UNL d   1      25.053 -17.481   0.252  0.00  0.00    -0.277 OA
ATOM     21  N   UNL d   1      24.029 -16.971  -1.592  0.00  0.00    -0.261 NA
ATOM     22  H   UNL d   1      24.343 -16.870  -2.547  0.00  0.00     0.130 HD
BRANCH  21  23
ATOM     23  C   UNL d   1      23.317 -18.238  -1.384  0.00  0.00     0.095 C 
BRANCH  23  24
ATOM     24  C   UNL d   1      22.103 -18.024  -0.509  0.00  0.00     0.014 C 
BRANCH  24  25
ATOM     25  C   UNL d   1      21.341 -19.326  -0.308  0.00  0.00    -0.003 C 
ATOM     26  C   UNL d   1      19.873 -19.112  -0.620  0.00  0.00     0.005 C 
ENDBRANCH  24  25
ENDBRANCH  23  24
ENDBRANCH  21  23
ENDBRANCH   1  19
BRANCH   1  27
ATOM     27  C   UNL d   1      26.410 -15.048  -2.194  0.00  0.00     0.040 C 
ATOM     28  C   UNL d   1      25.494 -14.952  -3.247  0.00  0.00     0.080 C 
ATOM     29  C   UNL d   1      25.913 -15.020  -4.572  0.00  0.00     0.073 C 
ATOM     30  C   UNL d   1      27.267 -15.160  -4.855  0.00  0.00     0.071 C 
ATOM     31  C   UNL d   1      28.205 -15.182  -3.851  0.00  0.00     0.073 C 
ATOM     32  C   UNL d   1      27.780 -15.030  -2.549  0.00  0.00     0.080 C 
BRANCH  28  33
ATOM     33  O   UNL d   1      24.149 -14.762  -3.063  0.00  0.00    -0.360 OA
ATOM     34  H   UNL d   1      23.855 -15.222  -2.253  0.00  0.00     0.217 HD
ENDBRANCH  28  33
BRANCH  30  35
ATOM     35  O   UNL d   1      27.747 -15.200  -6.126  0.00  0.00    -0.361 OA
ATOM     36  H   UNL d   1      28.434 -14.522  -6.207  0.00  0.00     0.217 HD
ENDBRANCH  30  35
BRANCH  32  37
ATOM     37  O   UNL d   1      28.797 -14.802  -1.654  0.00  0.00    -0.360 OA
ATOM     38  H   UNL d   1      28.612 -13.934  -1.250  0.00  0.00     0.217 HD
ENDBRANCH  32  37
ENDBRANCH   1  27
TORSDOF 16
ENDMDL
MODEL 2
REMARK VINA RESULT:    -7.547      1.675      2.960
REMARK INTER + INTRA:         -16.651
REMARK INTER:                 -12.320
REMARK INTRA:                  -4.331
REMARK CONF_INDEPENDENT:        4.773
REMARK UNBOUND:                -4.331
REMARK  16 active torsions:
REMARK  status: ('A' for Active; 'I' for Inactive)
REMARK    1  A    between atoms: C_2  and  C_3 
REMARK    2  A    between atoms: C_3  and  C_4 
REMARK    3  A    between atoms: C_4  and  C_5 
REMARK    4  A    between atoms: C_5  and  C_6 
REMARK    5  A    between atoms: C_6  and  N_7 
REMARK       I    between atoms: N_7  and  C_8 
REMARK    6  A    between atoms: N_7  and  C_18 
REMARK    7  A    between atoms: C_8  and  C_10 
REMARK    8  A    between atoms: C_10  and  C_11 
REMARK    9  A    between atoms: C_18  and  C_19 
REMARK   10  A    between atoms: C_18  and  C_26 
REMARK       I    between atoms: C_19  and  N_21 
REMARK   11  A    between atoms: N_21  and  C_22 
REMARK   12  A    between atoms: C_22  and  C_23 
REMARK   13  A    between atoms: C_23  and  C_24 
REMARK   14  A    between atoms: C_27  and  O_28 
REMARK   15  A    between atoms: C_30  and  O_31 
REMARK   16  A    between atoms: C_33  and  O_34 
ROOT
ATOM      1  C   UNL d   1      25.964 -15.365  -0.191  0.00  0.00     0.212 C 
ENDROOT
BRANCH   1   2
ATOM      2  N   UNL d   1      27.337 -15.340   0.455  0.00  0.00    -0.335 N 
ATOM      3  C   UNL d   1      27.486 -14.344   1.469  0.00  0.00     0.225 C 
ATOM      4  O   UNL d   1      26.510 -13.701   1.886  0.00  0.00    -0.273 OA
BRANCH   2   5
ATOM      5  C   UNL d   1      28.379 -16.320  -0.105  0.00  0.00     0.127 C 
BRANCH   5   6
ATOM      6  C   UNL d   1      29.050 -15.895  -1.391  0.00  0.00     0.020 C 
BRANCH   6   7
ATOM      7  C   UNL d   1      28.566 -16.332  -2.750  0.00  0.00     0.002 C 
BRANCH   7   8
ATOM      8  C   UNL d   1      28.958 -15.242  -3.762  0.00  0.00    -0.000 C 
BRANCH   8   9
ATOM      9  C   UNL d   1      28.104 -15.333  -4.998  0.00  0.00    -0.005 C 
ATOM     10  C   UNL d   1      28.796 -14.678  -6.178  0.00  0.00     0.005 C 
ENDBRANCH   8   9
ENDBRANCH   7   8
ENDBRANCH   6   7
ENDBRANCH   5   6
ENDBRANCH   2   5
BRANCH   3  11
ATOM     11  C   UNL d   1      28.831 -13.990   2.106  0.00  0.00     0.142 C 
BRANCH  11  12
ATOM     12  C   UNL d   1      28.767 -13.192   3.432  0.00  0.00    -0.043 C 
ATOM     13  C   UNL d   1      28.751 -11.796   3.359  0.00  0.00     0.008 C 
ATOM     14  C   UNL d   1      28.305 -11.041   4.465  0.00  0.00     0.001 C 
ATOM     15  C   UNL d   1      27.780 -11.650   5.605  0.00  0.00     0.001 C 
ATOM     16  C   UNL d   1      27.782 -13.011   5.696  0.00  0.00     0.007 C 
ATOM     17  C   UNL d   1      28.344 -13.759   4.673  0.00  0.00    -0.055 C 
ATOM     18  C   UNL d   1      28.256 -15.196   4.956  0.00  0.00     0.049 C 
ENDBRANCH  11  12
ENDBRANCH   3  11
ENDBRANCH   1   2
BRANCH   1  19
ATOM     19  C   UNL d   1      25.204 -16.862  -0.297  0.00  0.00     0.225 C 
ATOM     20  O   UNL d   1      25.702 -17.928  -0.036  0.00  0.00    -0.277 OA
ATOM     21  N   UNL d   1      23.876 -16.965  -0.707  0.00  0.00    -0.261 NA
ATOM     22  H   UNL d   1      23.649 -16.418  -1.525  0.00  0.00     0.130 HD
BRANCH  21  23
ATOM     23  C   UNL d   1      23.355 -18.334  -0.806  0.00  0.00     0.095 C 
BRANCH  23  24
ATOM     24  C   UNL d   1      22.032 -18.449  -0.084  0.00  0.00     0.014 C 
BRANCH  24  25
ATOM     25  C   UNL d   1      20.951 -18.985  -1.010  0.00  0.00    -0.003 C 
ATOM     26  C   UNL d   1      19.896 -19.710  -0.198  0.00  0.00     0.005 C 
ENDBRANCH  24  25
ENDBRANCH  23  24
ENDBRANCH  21  23
ENDBRANCH   1  19
BRANCH   1  27
ATOM     27  C   UNL d   1      25.978 -14.640  -1.532  0.00  0.00     0.040 C 
ATOM     28  C   UNL d   1      26.392 -13.307  -1.624  0.00  0.00     0.080 C 
ATOM     29  C   UNL d   1      26.150 -12.557  -2.770  0.00  0.00     0.073 C 
ATOM     30  C   UNL d   1      25.509 -13.148  -3.852  0.00  0.00     0.071 C 
ATOM     31  C   UNL d   1      25.155 -14.476  -3.831  0.00  0.00     0.073 C 
ATOM     32  C   UNL d   1      25.476 -15.226  -2.719  0.00  0.00     0.080 C 
BRANCH  28  33
ATOM     33  O   UNL d   1      27.075 -12.658  -0.628  0.00  0.00    -0.360 OA
ATOM     34  H   UNL d   1      26.529 -12.624   0.182  0.00  0.00     0.217 HD
ENDBRANCH  28  33
BRANCH  30  35
ATOM     35  O   UNL d   1      25.272 -12.484  -5.014  0.00  0.00    -0.361 OA
ATOM     36  H   UNL d   1      24.792 -11.670  -4.800  0.00  0.00     0.217 HD
ENDBRANCH  30  35
BRANCH  32  37
ATOM     37  O   UNL d   1      25.322 -16.579  -2.896  0.00  0.00    -0.360 OA
ATOM     38  H   UNL d   1      25.750 -17.002  -2.129  0.00  0.00     0.217 HD
ENDBRANCH  32  37
ENDBRANCH   1  27
TORSDOF 16
ENDMDL
MODEL 3
REMARK VINA RESULT:    -7.276      2.296      6.298
REMARK INTER + INTRA:         -16.781
REMARK INTER:                 -12.049
REMARK INTRA:                  -4.732
REMARK CONF_INDEPENDENT:        4.773
REMARK UNBOUND:                -4.732
REMARK  16 active torsions:
REMARK  status: ('A' for Active; 'I' for Inactive)
REMARK    1  A    between atoms: C_2  and  C_3 
REMARK    2  A    between atoms: C_3  and  C_4 
REMARK    3  A    between atoms: C_4  and  C_5 
REMARK    4  A    between atoms: C_5  and  C_6 
REMARK    5  A    between atoms: C_6  and  N_7 
REMARK       I    between atoms: N_7  and  C_8 
REMARK    6  A    between atoms: N_7  and  C_18 
REMARK    7  A    between atoms: C_8  and  C_10 
REMARK    8  A    between atoms: C_10  and  C_11 
REMARK    9  A    between atoms: C_18  and  C_19 
REMARK   10  A    between atoms: C_18  and  C_26 
REMARK       I    between atoms: C_19  and  N_21 
REMARK   11  A    between atoms: N_21  and  C_22 
REMARK   12  A    between atoms: C_22  and  C_23 
REMARK   13  A    between atoms: C_23  and  C_24 
REMARK   14  A    between atoms: C_27  and  O_28 
REMARK   15  A    between atoms: C_30  and  O_31 
REMARK   16  A    between atoms: C_33  and  O_34 
ROOT
ATOM      1  C   UNL d   1      25.837 -15.970  -2.441  0.00  0.00     0.212 C 
ENDROOT
BRANCH   1   2
ATOM      2  N   UNL d   1      25.768 -14.504  -2.823  0.00  0.00    -0.335 N 
ATOM      3  C   UNL d   1      25.649 -14.272  -4.228  0.00  0.00     0.225 C 
ATOM      4  O   UNL d   1      25.437 -15.207  -5.017  0.00  0.00    -0.273 OA
BRANCH   2   5
ATOM      5  C   UNL d   1      25.905 -13.488  -1.679  0.00  0.00     0.127 C 
BRANCH   5   6
ATOM      6  C   UNL d   1      27.306 -12.987  -1.413  0.00  0.00     0.020 C 
BRANCH   6   7
ATOM      7  C   UNL d   1      27.888 -12.880  -0.027  0.00  0.00     0.002 C 
BRANCH   7   8
ATOM      8  C   UNL d   1      26.929 -13.590   0.943  0.00  0.00    -0.000 C 
BRANCH   8   9
ATOM      9  C   UNL d   1      27.679 -14.135   2.128  0.00  0.00    -0.005 C 
ATOM     10  C   UNL d   1      29.115 -14.447   1.758  0.00  0.00     0.005 C 
ENDBRANCH   8   9
ENDBRANCH   7   8
ENDBRANCH   6   7
ENDBRANCH   5   6
ENDBRANCH   2   5
BRANCH   3  11
ATOM     11  C   UNL d   1      25.774 -12.887  -4.863  0.00  0.00     0.142 C 
BRANCH  11  12
ATOM     12  C   UNL d   1      27.024 -12.654  -5.747  0.00  0.00    -0.043 C 
ATOM     13  C   UNL d   1      27.925 -13.713  -5.905  0.00  0.00     0.008 C 
ATOM     14  C   UNL d   1      28.841 -13.701  -6.978  0.00  0.00     0.001 C 
ATOM     15  C   UNL d   1      28.813 -12.706  -7.956  0.00  0.00     0.001 C 
ATOM     16  C   UNL d   1      27.939 -11.666  -7.825  0.00  0.00     0.007 C 
ATOM     17  C   UNL d   1      27.130 -11.596  -6.702  0.00  0.00    -0.055 C 
ATOM     18  C   UNL d   1      26.269 -10.409  -6.740  0.00  0.00     0.049 C 
ENDBRANCH  11  12
ENDBRANCH   3  11
ENDBRANCH   1   2
BRANCH   1  19
ATOM     19  C   UNL d   1      24.595 -16.561  -1.474  0.00  0.00     0.225 C 
ATOM     20  O   UNL d   1      23.614 -15.950  -1.131  0.00  0.00    -0.277 OA
ATOM     21  N   UNL d   1      24.620 -17.868  -0.991  0.00  0.00    -0.261 NA
ATOM     22  H   UNL d   1      25.507 -18.151  -0.601  0.00  0.00     0.130 HD
BRANCH  21  23
ATOM     23  C   UNL d   1      23.499 -18.235  -0.116  0.00  0.00     0.095 C 
BRANCH  23  24
ATOM     24  C   UNL d   1      22.366 -18.822  -0.927  0.00  0.00     0.014 C 
BRANCH  24  25
ATOM     25  C   UNL d   1      21.172 -19.144  -0.041  0.00  0.00    -0.003 C 
ATOM     26  C   UNL d   1      19.935 -19.330  -0.897  0.00  0.00     0.005 C 
ENDBRANCH  24  25
ENDBRANCH  23  24
ENDBRANCH  21  23
ENDBRANCH   1  19
BRANCH   1  27
ATOM     27  C   UNL d   1      27.210 -16.325  -1.878  0.00  0.00     0.040 C 
ATOM     28  C   UNL d   1      28.344 -16.325  -2.699  0.00  0.00     0.080 C 
ATOM     29  C   UNL d   1      29.535 -16.906  -2.276  0.00  0.00     0.073 C 
ATOM     30  C   UNL d   1      29.608 -17.475  -1.010  0.00  0.00     0.071 C 
ATOM     31  C   UNL d   1      28.540 -17.428  -0.146  0.00  0.00     0.073 C 
ATOM     32  C   UNL d   1      27.395 -16.775  -0.550  0.00  0.00     0.080 C 
BRANCH  28  33
ATOM     33  O   UNL d   1      28.378 -15.744  -3.939  0.00  0.00    -0.360 OA
ATOM     34  H   UNL d   1      27.473 -15.679  -4.302  0.00  0.00     0.217 HD
ENDBRANCH  28  33
BRANCH  30  35
ATOM     35  O   UNL d   1      30.749 -18.029  -0.523  0.00  0.00    -0.361 OA
ATOM     36  H   UNL d   1      30.614 -18.212   0.418  0.00  0.00     0.217 HD
ENDBRANCH  30  35
BRANCH  32  37
ATOM     37  O   UNL d   1      26.494 -16.554   0.463  0.00  0.00    -0.360 OA
ATOM     38  H   UNL d   1      26.021 -17.398   0.592  0.00  0.00     0.217 HD
ENDBRANCH  32  37
ENDBRANCH   1  27
TORSDOF 16
ENDMDL
MODEL 4
REMARK VINA RESULT:    -6.989      1.937      3.812
REMARK INTER + INTRA:         -16.828
REMARK INTER:                 -11.762
REMARK INTRA:                  -5.067
REMARK CONF_INDEPENDENT:        4.773
REMARK UNBOUND:                -5.067
REMARK  16 active torsions:
REMARK  status: ('A' for Active; 'I' for Inactive)
REMARK    1  A    between atoms: C_2  and  C_3 
REMARK    2  A    between atoms: C_3  and  C_4 
REMARK    3  A    between atoms: C_4  and  C_5 
REMARK    4  A    between atoms: C_5  and  C_6 
REMARK    5  A    between atoms: C_6  and  N_7 
REMARK       I    between atoms: N_7  and  C_8 
REMARK    6  A    between atoms: N_7  and  C_18 
REMARK    7  A    between atoms: C_8  and  C_10 
REMARK    8  A    between atoms: C_10  and  C_11 
REMARK    9  A    between atoms: C_18  and  C_19 
REMARK   10  A    between atoms: C_18  and  C_26 
REMARK       I    between atoms: C_19  and  N_21 
REMARK   11  A    between atoms: N_21  and  C_22 
REMARK   12  A    between atoms: C_22  and  C_23 
REMARK   13  A    between atoms: C_23  and  C_24 
REMARK   14  A    between atoms: C_27  and  O_28 
REMARK   15  A    between atoms: C_30  and  O_31 
REMARK   16  A    between atoms: C_33  and  O_34 
ROOT
ATOM      1  C   UNL d   1      25.904 -14.651  -1.477  0.00  0.00     0.212 C 
ENDROOT
BRANCH   1   2
ATOM      2  N   UNL d   1      26.963 -13.906  -0.686  0.00  0.00    -0.335 N 
ATOM      3  C   UNL d   1      27.688 -14.725   0.233  0.00  0.00     0.225 C 
ATOM      4  O   UNL d   1      27.566 -15.961   0.227  0.00  0.00    -0.273 OA
BRANCH   2   5
ATOM      5  C   UNL d   1      27.061 -12.392  -0.925  0.00  0.00     0.127 C 
BRANCH   5   6
ATOM      6  C   UNL d   1      28.207 -11.941  -1.801  0.00  0.00     0.020 C 
BRANCH   6   7
ATOM      7  C   UNL d   1      28.304 -12.287  -3.264  0.00  0.00     0.002 C 
BRANCH   7   8
ATOM      8  C   UNL d   1      27.675 -11.133  -4.064  0.00  0.00    -0.000 C 
BRANCH   8   9
ATOM      9  C   UNL d   1      26.175 -11.252  -4.078  0.00  0.00    -0.005 C 
ATOM     10  C   UNL d   1      25.530  -9.970  -3.590  0.00  0.00     0.005 C 
ENDBRANCH   8   9
ENDBRANCH   7   8
ENDBRANCH   6   7
ENDBRANCH   5   6
ENDBRANCH   2   5
BRANCH   3  11
ATOM     11  C   UNL d   1      28.649 -14.162   1.281  0.00  0.00     0.142 C 
BRANCH  11  12
ATOM     12  C   UNL d   1      28.031 -13.827   2.661  0.00  0.00    -0.043 C 
ATOM     13  C   UNL d   1      28.031 -14.825   3.641  0.00  0.00     0.008 C 
ATOM     14  C   UNL d   1      27.855 -14.476   4.997  0.00  0.00     0.001 C 
ATOM     15  C   UNL d   1      27.778 -13.145   5.408  0.00  0.00     0.001 C 
ATOM     16  C   UNL d   1      27.780 -12.155   4.469  0.00  0.00     0.007 C 
ATOM     17  C   UNL d   1      27.815 -12.494   3.126  0.00  0.00    -0.055 C 
ATOM     18  C   UNL d   1      27.805 -11.298   2.276  0.00  0.00     0.049 C 
ENDBRANCH  11  12
ENDBRANCH   3  11
ENDBRANCH   1   2
BRANCH   1  19
ATOM     19  C   UNL d   1      25.197 -15.982  -0.730  0.00  0.00     0.225 C 
ATOM     20  O   UNL d   1      24.279 -15.950   0.051  0.00  0.00    -0.277 OA
ATOM     21  N   UNL d   1      25.646 -17.275  -0.991  0.00  0.00    -0.261 NA
ATOM     22  H   UNL d   1      26.651 -17.379  -0.971  0.00  0.00     0.130 HD
BRANCH  21  23
ATOM     23  C   UNL d   1      24.975 -18.337  -0.231  0.00  0.00     0.095 C 
BRANCH  23  24
ATOM     24  C   UNL d   1      23.671 -18.718  -0.894  0.00  0.00     0.014 C 
BRANCH  24  25
ATOM     25  C   UNL d   1      22.494 -18.472   0.039  0.00  0.00    -0.003 C 
ATOM     26  C   UNL d   1      21.214 -18.950  -0.617  0.00  0.00     0.005 C 
ENDBRANCH  24  25
ENDBRANCH  23  24
ENDBRANCH  21  23
ENDBRANCH   1  19
BRANCH   1  27
ATOM     27  C   UNL d   1      26.403 -14.988  -2.878  0.00  0.00     0.040 C 
ATOM     28  C   UNL d   1      27.604 -15.681  -3.066  0.00  0.00     0.080 C 
ATOM     29  C   UNL d   1      28.205 -15.750  -4.318  0.00  0.00     0.073 C 
ATOM     30  C   UNL d   1      27.591 -15.143  -5.406  0.00  0.00     0.071 C 
ATOM     31  C   UNL d   1      26.373 -14.517  -5.279  0.00  0.00     0.073 C 
ATOM     32  C   UNL d   1      25.752 -14.530  -4.048  0.00  0.00     0.080 C 
BRANCH  28  33
ATOM     33  O   UNL d   1      28.253 -16.352  -2.062  0.00  0.00    -0.360 OA
ATOM     34  H   UNL d   1      27.638 -16.519  -1.321  0.00  0.00     0.217 HD
ENDBRANCH  28  33
BRANCH  30  35
ATOM     35  O   UNL d   1      28.106 -15.200  -6.663  0.00  0.00    -0.361 OA
ATOM     36  H   UNL d   1      28.616 -14.391  -6.814  0.00  0.00     0.217 HD
ENDBRANCH  30  35
BRANCH  32  37
ATOM     37  O   UNL d   1      24.443 -14.118  -4.082  0.00  0.00    -0.360 OA
ATOM     38  H   UNL d   1      24.262 -13.865  -5.006  0.00  0.00     0.217 HD
ENDBRANCH  32  37
ENDBRANCH   1  27
TORSDOF 16
ENDMDL
MODEL 5
REMARK VINA RESULT:    -6.920      3.003      6.841
REMARK INTER + INTRA:         -16.352
REMARK INTER:                 -11.693
REMARK INTRA:                  -4.659
REMARK CONF_INDEPENDENT:        4.773
REMARK UNBOUND:                -4.659
REMARK  16 active torsions:
REMARK  status: ('A' for Active; 'I' for Inactive)
REMARK    1  A    between atoms: C_2  and  C_3 
REMARK    2  A    between atoms: C_3  and  C_4 
REMARK    3  A    between atoms: C_4  and  C_5 
REMARK    4  A    between atoms: C_5  and  C_6 
REMARK    5  A    between atoms: C_6  and  N_7 
REMARK       I    between atoms: N_7  and  C_8 
REMARK    6  A    between atoms: N_7  and  C_18 
REMARK    7  A    between atoms: C_8  and  C_10 
REMARK    8  A    between atoms: C_10  and  C_11 
REMARK    9  A    between atoms: C_18  and  C_19 
REMARK   10  A    between atoms: C_18  and  C_26 
REMARK       I    between atoms: C_19  and  N_21 
REMARK   11  A    between atoms: N_21  and  C_22 
REMARK   12  A    between atoms: C_22  and  C_23 
REMARK   13  A    between atoms: C_23  and  C_24 
REMARK   14  A    between atoms: C_27  and  O_28 
REMARK   15  A    between atoms: C_30  and  O_31 
REMARK   16  A    between atoms: C_33  and  O_34 
ROOT
ATOM      1  C   UNL d   1      25.836 -15.922  -2.466  0.00  0.00     0.212 C 
ENDROOT
BRANCH   1   2
ATOM      2  N   UNL d   1      25.731 -14.458  -2.847  0.00  0.00    -0.335 N 
ATOM      3  C   UNL d   1      25.545 -14.231  -4.246  0.00  0.00     0.225 C 
ATOM      4  O   UNL d   1      25.310 -15.171  -5.023  0.00  0.00    -0.273 OA
BRANCH   2   5
ATOM      5  C   UNL d   1      25.905 -13.437  -1.712  0.00  0.00     0.127 C 
BRANCH   5   6
ATOM      6  C   UNL d   1      27.249 -12.748  -1.654  0.00  0.00     0.020 C 
BRANCH   6   7
ATOM      7  C   UNL d   1      27.651 -11.656  -2.611  0.00  0.00     0.002 C 
BRANCH   7   8
ATOM      8  C   UNL d   1      26.949 -10.361  -2.169  0.00  0.00    -0.000 C 
BRANCH   8   9
ATOM      9  C   UNL d   1      25.938  -9.928  -3.196  0.00  0.00    -0.005 C 
ATOM     10  C   UNL d   1      26.328  -8.597  -3.807  0.00  0.00     0.005 C 
ENDBRANCH   8   9
ENDBRANCH   7   8
ENDBRANCH   6   7
ENDBRANCH   5   6
ENDBRANCH   2   5
BRANCH   3  11
ATOM     11  C   UNL d   1      25.624 -12.846  -4.889  0.00  0.00     0.142 C 
BRANCH  11  12
ATOM     12  C   UNL d   1      26.884 -12.564  -5.744  0.00  0.00    -0.043 C 
ATOM     13  C   UNL d   1      27.829 -13.586  -5.881  0.00  0.00     0.008 C 
ATOM     14  C   UNL d   1      28.768 -13.536  -6.933  0.00  0.00     0.001 C 
ATOM     15  C   UNL d   1      28.722 -12.543  -7.912  0.00  0.00     0.001 C 
ATOM     16  C   UNL d   1      27.805 -11.538  -7.801  0.00  0.00     0.007 C 
ATOM     17  C   UNL d   1      26.968 -11.502  -6.697  0.00  0.00    -0.055 C 
ATOM     18  C   UNL d   1      26.062 -10.349  -6.755  0.00  0.00     0.049 C 
ENDBRANCH  11  12
ENDBRANCH   3  11
ENDBRANCH   1   2
BRANCH   1  19
ATOM     19  C   UNL d   1      24.617 -16.540  -1.485  0.00  0.00     0.225 C 
ATOM     20  O   UNL d   1      23.580 -15.989  -1.215  0.00  0.00    -0.277 OA
ATOM     21  N   UNL d   1      24.734 -17.800  -0.902  0.00  0.00    -0.261 NA
ATOM     22  H   UNL d   1      25.630 -17.977  -0.469  0.00  0.00     0.130 HD
BRANCH  21  23
ATOM     23  C   UNL d   1      23.622 -18.192  -0.028  0.00  0.00     0.095 C 
BRANCH  23  24
ATOM     24  C   UNL d   1      22.705 -19.159  -0.741  0.00  0.00     0.014 C 
BRANCH  24  25
ATOM     25  C   UNL d   1      21.308 -18.576  -0.890  0.00  0.00    -0.003 C 
ATOM     26  C   UNL d   1      20.275 -19.623  -0.520  0.00  0.00     0.005 C 
ENDBRANCH  24  25
ENDBRANCH  23  24
ENDBRANCH  21  23
ENDBRANCH   1  19
BRANCH   1  27
ATOM     27  C   UNL d   1      27.222 -16.247  -1.918  0.00  0.00     0.040 C 
ATOM     28  C   UNL d   1      28.330 -16.328  -2.770  0.00  0.00     0.080 C 
ATOM     29  C   UNL d   1      29.528 -16.888  -2.338  0.00  0.00     0.073 C 
ATOM     30  C   UNL d   1      29.635 -17.351  -1.032  0.00  0.00     0.071 C 
ATOM     31  C   UNL d   1      28.595 -17.219  -0.142  0.00  0.00     0.073 C 
ATOM     32  C   UNL d   1      27.444 -16.588  -0.563  0.00  0.00     0.080 C 
BRANCH  28  33
ATOM     33  O   UNL d   1      28.330 -15.852  -4.055  0.00  0.00    -0.360 OA
ATOM     34  H   UNL d   1      27.453 -15.483  -4.274  0.00  0.00     0.217 HD
ENDBRANCH  28  33
BRANCH  30  35
ATOM     35  O   UNL d   1      30.786 -17.878  -0.535  0.00  0.00    -0.361 OA
ATOM     36  H   UNL d   1      30.606 -18.197   0.361  0.00  0.00     0.217 HD
ENDBRANCH  30  35
BRANCH  32  37
ATOM     37  O   UNL d   1      26.578 -16.273   0.455  0.00  0.00    -0.360 OA
ATOM     38  H   UNL d   1      26.061 -17.082   0.628  0.00  0.00     0.217 HD
ENDBRANCH  32  37
ENDBRANCH   1  27
TORSDOF 16
ENDMDL
MODEL 6
REMARK VINA RESULT:    -6.870      1.992      5.277
REMARK INTER + INTRA:         -16.618
REMARK INTER:                 -11.642
REMARK INTRA:                  -4.976
REMARK CONF_INDEPENDENT:        4.773
REMARK UNBOUND:                -4.976
REMARK  16 active torsions:
REMARK  status: ('A' for Active; 'I' for Inactive)
REMARK    1  A    between atoms: C_2  and  C_3 
REMARK    2  A    between atoms: C_3  and  C_4 
REMARK    3  A    between atoms: C_4  and  C_5 
REMARK    4  A    between atoms: C_5  and  C_6 
REMARK    5  A    between atoms: C_6  and  N_7 
REMARK       I    between atoms: N_7  and  C_8 
REMARK    6  A    between atoms: N_7  and  C_18 
REMARK    7  A    between atoms: C_8  and  C_10 
REMARK    8  A    between atoms: C_10  and  C_11 
REMARK    9  A    between atoms: C_18  and  C_19 
REMARK   10  A    between atoms: C_18  and  C_26 
REMARK       I    between atoms: C_19  and  N_21 
REMARK   11  A    between atoms: N_21  and  C_22 
REMARK   12  A    between atoms: C_22  and  C_23 
REMARK   13  A    between atoms: C_23  and  C_24 
REMARK   14  A    between atoms: C_27  and  O_28 
REMARK   15  A    between atoms: C_30  and  O_31 
REMARK   16  A    between atoms: C_33  and  O_34 
ROOT
ATOM      1  C   UNL d   1      26.249 -16.432  -2.037  0.00  0.00     0.212 C 
ENDROOT
BRANCH   1   2
ATOM      2  N   UNL d   1      27.371 -15.929  -1.149  0.00  0.00    -0.335 N 
ATOM      3  C   UNL d   1      27.058 -14.731  -0.436  0.00  0.00     0.225 C 
ATOM      4  O   UNL d   1      25.904 -14.274  -0.423  0.00  0.00    -0.273 OA
BRANCH   2   5
ATOM      5  C   UNL d   1      28.688 -16.720  -1.190  0.00  0.00     0.127 C 
BRANCH   5   6
ATOM      6  C   UNL d   1      29.455 -16.645  -2.490  0.00  0.00     0.020 C 
BRANCH   6   7
ATOM      7  C   UNL d   1      29.398 -15.449  -3.406  0.00  0.00     0.002 C 
BRANCH   7   8
ATOM      8  C   UNL d   1      29.014 -15.948  -4.809  0.00  0.00    -0.000 C 
BRANCH   8   9
ATOM      9  C   UNL d   1      28.189 -14.918  -5.532  0.00  0.00    -0.005 C 
ATOM     10  C   UNL d   1      28.901 -14.439  -6.781  0.00  0.00     0.005 C 
ENDBRANCH   8   9
ENDBRANCH   7   8
ENDBRANCH   6   7
ENDBRANCH   5   6
ENDBRANCH   2   5
BRANCH   3  11
ATOM     11  C   UNL d   1      28.096 -13.927   0.350  0.00  0.00     0.142 C 
BRANCH  11  12
ATOM     12  C   UNL d   1      27.760 -13.652   1.836  0.00  0.00    -0.043 C 
ATOM     13  C   UNL d   1      28.151 -14.602   2.786  0.00  0.00     0.008 C 
ATOM     14  C   UNL d   1      28.232 -14.240   4.147  0.00  0.00     0.001 C 
ATOM     15  C   UNL d   1      28.028 -12.927   4.571  0.00  0.00     0.001 C 
ATOM     16  C   UNL d   1      27.650 -11.983   3.661  0.00  0.00     0.007 C 
ATOM     17  C   UNL d   1      27.434 -12.357   2.344  0.00  0.00    -0.055 C 
ATOM     18  C   UNL d   1      27.030 -11.209   1.525  0.00  0.00     0.049 C 
ENDBRANCH  11  12
ENDBRANCH   3  11
ENDBRANCH   1   2
BRANCH   1  19
ATOM     19  C   UNL d   1      25.754 -15.415  -3.282  0.00  0.00     0.225 C 
ATOM     20  O   UNL d   1      25.566 -15.740  -4.428  0.00  0.00    -0.277 OA
ATOM     21  N   UNL d   1      25.510 -14.064  -3.051  0.00  0.00    -0.261 NA
ATOM     22  H   UNL d   1      26.222 -13.598  -2.506  0.00  0.00     0.130 HD
BRANCH  21  23
ATOM     23  C   UNL d   1      25.136 -13.282  -4.237  0.00  0.00     0.095 C 
BRANCH  23  24
ATOM     24  C   UNL d   1      25.998 -12.045  -4.348  0.00  0.00     0.014 C 
BRANCH  24  25
ATOM     25  C   UNL d   1      26.374 -11.518  -2.971  0.00  0.00    -0.003 C 
ATOM     26  C   UNL d   1      27.810 -11.890  -2.656  0.00  0.00     0.005 C 
ENDBRANCH  24  25
ENDBRANCH  23  24
ENDBRANCH  21  23
ENDBRANCH   1  19
BRANCH   1  27
ATOM     27  C   UNL d   1      25.069 -16.922  -1.204  0.00  0.00     0.040 C 
ATOM     28  C   UNL d   1      25.216 -17.987  -0.308  0.00  0.00     0.080 C 
ATOM     29  C   UNL d   1      24.106 -18.618   0.245  0.00  0.00     0.073 C 
ATOM     30  C   UNL d   1      22.832 -18.169  -0.079  0.00  0.00     0.071 C 
ATOM     31  C   UNL d   1      22.647 -17.079  -0.895  0.00  0.00     0.073 C 
ATOM     32  C   UNL d   1      23.759 -16.414  -1.367  0.00  0.00     0.080 C 
BRANCH  28  33
ATOM     33  O   UNL d   1      26.433 -18.462   0.107  0.00  0.00    -0.360 OA
ATOM     34  H   UNL d   1      26.833 -17.842   0.746  0.00  0.00     0.217 HD
ENDBRANCH  28  33
BRANCH  30  35
ATOM     35  O   UNL d   1      21.707 -18.719   0.450  0.00  0.00    -0.361 OA
ATOM     36  H   UNL d   1      21.973 -19.309   1.171  0.00  0.00     0.217 HD
ENDBRANCH  30  35
BRANCH  32  37
ATOM     37  O   UNL d   1      23.477 -15.201  -1.947  0.00  0.00    -0.360 OA
ATOM     38  H   UNL d   1      24.250 -14.632  -1.772  0.00  0.00     0.217 HD
ENDBRANCH  32  37
ENDBRANCH   1  27
TORSDOF 16
ENDMDL
MODEL 7
REMARK VINA RESULT:    -6.555      1.936      5.446
REMARK INTER + INTRA:         -16.354
REMARK INTER:                 -11.328
REMARK INTRA:                  -5.026
REMARK CONF_INDEPENDENT:        4.773
REMARK UNBOUND:                -5.026
REMARK  16 active torsions:
REMARK  status: ('A' for Active; 'I' for Inactive)
REMARK    1  A    between atoms: C_2  and  C_3 
REMARK    2  A    between atoms: C_3  and  C_4 
REMARK    3  A    between atoms: C_4  and  C_5 
REMARK    4  A    between atoms: C_5  and  C_6 
REMARK    5  A    between atoms: C_6  and  N_7 
REMARK       I    between atoms: N_7  and  C_8 
REMARK    6  A    between atoms: N_7  and  C_18 
REMARK    7  A    between atoms: C_8  and  C_10 
REMARK    8  A    between atoms: C_10  and  C_11 
REMARK    9  A    between atoms: C_18  and  C_19 
REMARK   10  A    between atoms: C_18  and  C_26 
REMARK       I    between atoms: C_19  and  N_21 
REMARK   11  A    between atoms: N_21  and  C_22 
REMARK   12  A    between atoms: C_22  and  C_23 
REMARK   13  A    between atoms: C_23  and  C_24 
REMARK   14  A    between atoms: C_27  and  O_28 
REMARK   15  A    between atoms: C_30  and  O_31 
REMARK   16  A    between atoms: C_33  and  O_34 
ROOT
ATOM      1  C   UNL d   1      25.534 -16.284  -2.356  0.00  0.00     0.212 C 
ENDROOT
BRANCH   1   2
ATOM      2  N   UNL d   1      25.580 -14.856  -2.868  0.00  0.00    -0.335 N 
ATOM      3  C   UNL d   1      25.652 -14.748  -4.291  0.00  0.00     0.225 C 
ATOM      4  O   UNL d   1      25.501 -15.743  -5.018  0.00  0.00    -0.273 OA
BRANCH   2   5
ATOM      5  C   UNL d   1      25.614 -13.746  -1.806  0.00  0.00     0.127 C 
BRANCH   5   6
ATOM      6  C   UNL d   1      26.786 -13.788  -0.853  0.00  0.00     0.020 C 
BRANCH   6   7
ATOM      7  C   UNL d   1      26.650 -14.177   0.596  0.00  0.00     0.002 C 
BRANCH   7   8
ATOM      8  C   UNL d   1      28.064 -14.260   1.196  0.00  0.00    -0.000 C 
BRANCH   8   9
ATOM      9  C   UNL d   1      27.998 -14.447   2.688  0.00  0.00    -0.005 C 
ATOM     10  C   UNL d   1      28.191 -13.125   3.404  0.00  0.00     0.005 C 
ENDBRANCH   8   9
ENDBRANCH   7   8
ENDBRANCH   6   7
ENDBRANCH   5   6
ENDBRANCH   2   5
BRANCH   3  11
ATOM     11  C   UNL d   1      25.919 -13.431  -5.020  0.00  0.00     0.142 C 
BRANCH  11  12
ATOM     12  C   UNL d   1      27.348 -12.852  -4.877  0.00  0.00    -0.043 C 
ATOM     13  C   UNL d   1      27.587 -11.934  -3.849  0.00  0.00     0.008 C 
ATOM     14  C   UNL d   1      28.910 -11.682  -3.427  0.00  0.00     0.001 C 
ATOM     15  C   UNL d   1      29.992 -12.399  -3.938  0.00  0.00     0.001 C 
ATOM     16  C   UNL d   1      29.782 -13.303  -4.938  0.00  0.00     0.007 C 
ATOM     17  C   UNL d   1      28.506 -13.458  -5.455  0.00  0.00    -0.055 C 
ATOM     18  C   UNL d   1      28.484 -14.466  -6.522  0.00  0.00     0.049 C 
ENDBRANCH  11  12
ENDBRANCH   3  11
ENDBRANCH   1   2
BRANCH   1  19
ATOM     19  C   UNL d   1      24.259 -16.682  -1.334  0.00  0.00     0.225 C 
ATOM     20  O   UNL d   1      23.744 -15.950  -0.527  0.00  0.00    -0.277 OA
ATOM     21  N   UNL d   1      23.683 -17.950  -1.366  0.00  0.00    -0.261 NA
ATOM     22  H   UNL d   1      24.348 -18.711  -1.378  0.00  0.00     0.130 HD
BRANCH  21  23
ATOM     23  C   UNL d   1      22.615 -18.179  -0.384  0.00  0.00     0.095 C 
BRANCH  23  24
ATOM     24  C   UNL d   1      21.484 -18.964  -1.006  0.00  0.00     0.014 C 
BRANCH  24  25
ATOM     25  C   UNL d   1      20.636 -19.638   0.062  0.00  0.00    -0.003 C 
ATOM     26  C   UNL d   1      19.191 -19.695  -0.393  0.00  0.00     0.005 C 
ENDBRANCH  24  25
ENDBRANCH  23  24
ENDBRANCH  21  23
ENDBRANCH   1  19
BRANCH   1  27
ATOM     27  C   UNL d   1      26.880 -16.699  -1.771  0.00  0.00     0.040 C 
ATOM     28  C   UNL d   1      26.950 -17.422  -0.575  0.00  0.00     0.080 C 
ATOM     29  C   UNL d   1      28.154 -17.565   0.107  0.00  0.00     0.073 C 
ATOM     30  C   UNL d   1      29.310 -17.002  -0.419  0.00  0.00     0.071 C 
ATOM     31  C   UNL d   1      29.297 -16.349  -1.629  0.00  0.00     0.073 C 
ATOM     32  C   UNL d   1      28.113 -16.289  -2.332  0.00  0.00     0.080 C 
BRANCH  28  33
ATOM     33  O   UNL d   1      25.873 -18.053  -0.010  0.00  0.00    -0.360 OA
ATOM     34  H   UNL d   1      25.197 -17.395   0.245  0.00  0.00     0.217 HD
ENDBRANCH  28  33
BRANCH  30  35
ATOM     35  O   UNL d   1      30.524 -17.131   0.178  0.00  0.00    -0.361 OA
ATOM     36  H   UNL d   1      30.409 -17.669   0.976  0.00  0.00     0.217 HD
ENDBRANCH  30  35
BRANCH  32  37
ATOM     37  O   UNL d   1      28.255 -15.856  -3.627  0.00  0.00    -0.360 OA
ATOM     38  H   UNL d   1      27.379 -15.958  -4.044  0.00  0.00     0.217 HD
ENDBRANCH  32  37
ENDBRANCH   1  27
TORSDOF 16
ENDMDL
MODEL 8
REMARK VINA RESULT:    -6.084      2.750      7.092
REMARK INTER + INTRA:         -16.351
REMARK INTER:                 -10.856
REMARK INTRA:                  -5.494
REMARK CONF_INDEPENDENT:        4.773
REMARK UNBOUND:                -5.494
REMARK  16 active torsions:
REMARK  status: ('A' for Active; 'I' for Inactive)
REMARK    1  A    between atoms: C_2  and  C_3 
REMARK    2  A    between atoms: C_3  and  C_4 
REMARK    3  A    between atoms: C_4  and  C_5 
REMARK    4  A    between atoms: C_5  and  C_6 
REMARK    5  A    between atoms: C_6  and  N_7 
REMARK       I    between atoms: N_7  and  C_8 
REMARK    6  A    between atoms: N_7  and  C_18 
REMARK    7  A    between atoms: C_8  and  C_10 
REMARK    8  A    between atoms: C_10  and  C_11 
REMARK    9  A    between atoms: C_18  and  C_19 
REMARK   10  A    between atoms: C_18  and  C_26 
REMARK       I    between atoms: C_19  and  N_21 
REMARK   11  A    between atoms: N_21  and  C_22 
REMARK   12  A    between atoms: C_22  and  C_23 
REMARK   13  A    between atoms: C_23  and  C_24 
REMARK   14  A    between atoms: C_27  and  O_28 
REMARK   15  A    between atoms: C_30  and  O_31 
REMARK   16  A    between atoms: C_33  and  O_34 
ROOT
ATOM      1  C   UNL d   1      28.909 -12.783   0.327  0.00  0.00     0.212 C 
ENDROOT
BRANCH   1   2
ATOM      2  N   UNL d   1      28.231 -13.645  -0.722  0.00  0.00    -0.335 N 
ATOM      3  C   UNL d   1      27.571 -14.797  -0.192  0.00  0.00     0.225 C 
ATOM      4  O   UNL d   1      27.427 -14.948   1.032  0.00  0.00    -0.273 OA
BRANCH   2   5
ATOM      5  C   UNL d   1      28.403 -13.211  -2.185  0.00  0.00     0.127 C 
BRANCH   5   6
ATOM      6  C   UNL d   1      27.164 -12.660  -2.853  0.00  0.00     0.020 C 
BRANCH   6   7
ATOM      7  C   UNL d   1      25.769 -12.989  -2.389  0.00  0.00     0.002 C 
BRANCH   7   8
ATOM      8  C   UNL d   1      24.991 -13.549  -3.593  0.00  0.00    -0.000 C 
BRANCH   8   9
ATOM      9  C   UNL d   1      25.937 -14.061  -4.645  0.00  0.00    -0.005 C 
ATOM     10  C   UNL d   1      25.905 -15.575  -4.706  0.00  0.00     0.005 C 
ENDBRANCH   8   9
ENDBRANCH   7   8
ENDBRANCH   6   7
ENDBRANCH   5   6
ENDBRANCH   2   5
BRANCH   3  11
ATOM     11  C   UNL d   1      27.006 -15.916  -1.067  0.00  0.00     0.142 C 
BRANCH  11  12
ATOM     12  C   UNL d   1      25.656 -16.522  -0.608  0.00  0.00    -0.043 C 
ATOM     13  C   UNL d   1      24.479 -15.988  -1.144  0.00  0.00     0.008 C 
ATOM     14  C   UNL d   1      23.280 -16.729  -1.080  0.00  0.00     0.001 C 
ATOM     15  C   UNL d   1      23.248 -18.032  -0.582  0.00  0.00     0.001 C 
ATOM     16  C   UNL d   1      24.386 -18.575  -0.058  0.00  0.00     0.007 C 
ATOM     17  C   UNL d   1      25.537 -17.805   0.009  0.00  0.00    -0.055 C 
ATOM     18  C   UNL d   1      26.645 -18.558   0.606  0.00  0.00     0.049 C 
ENDBRANCH  11  12
ENDBRANCH   3  11
ENDBRANCH   1   2
BRANCH   1  19
ATOM     19  C   UNL d   1      29.553 -13.578   1.662  0.00  0.00     0.225 C 
ATOM     20  O   UNL d   1      30.611 -14.155   1.699  0.00  0.00    -0.277 OA
ATOM     21  N   UNL d   1      28.870 -13.612   2.875  0.00  0.00    -0.261 NA
ATOM     22  H   UNL d   1      27.889 -13.839   2.796  0.00  0.00     0.130 HD
BRANCH  21  23
ATOM     23  C   UNL d   1      29.522 -14.385   3.940  0.00  0.00     0.095 C 
BRANCH  23  24
ATOM     24  C   UNL d   1      28.498 -14.881   4.935  0.00  0.00     0.014 C 
BRANCH  24  25
ATOM     25  C   UNL d   1      27.349 -13.893   5.073  0.00  0.00    -0.003 C 
ATOM     26  C   UNL d   1      27.835 -12.637   5.770  0.00  0.00     0.005 C 
ENDBRANCH  24  25
ENDBRANCH  23  24
ENDBRANCH  21  23
ENDBRANCH   1  19
BRANCH   1  27
ATOM     27  C   UNL d   1      28.015 -11.618   0.739  0.00  0.00     0.040 C 
ATOM     28  C   UNL d   1      28.354 -10.301   0.409  0.00  0.00     0.080 C 
ATOM     29  C   UNL d   1      27.709  -9.223   1.007  0.00  0.00     0.073 C 
ATOM     30  C   UNL d   1      26.694  -9.457   1.927  0.00  0.00     0.071 C 
ATOM     31  C   UNL d   1      26.280 -10.734   2.220  0.00  0.00     0.073 C 
ATOM     32  C   UNL d   1      26.873 -11.787   1.557  0.00  0.00     0.080 C 
BRANCH  28  33
ATOM     33  O   UNL d   1      29.305  -9.977  -0.523  0.00  0.00    -0.360 OA
ATOM     34  H   UNL d   1      29.209 -10.547  -1.310  0.00  0.00     0.217 HD
ENDBRANCH  28  33
BRANCH  30  35
ATOM     35  O   UNL d   1      26.001  -8.450   2.522  0.00  0.00    -0.361 OA
ATOM     36  H   UNL d   1      26.462  -7.619   2.336  0.00  0.00     0.217 HD
ENDBRANCH  30  35
BRANCH  32  37
ATOM     37  O   UNL d   1      26.221 -12.985   1.719  0.00  0.00    -0.360 OA
ATOM     38  H   UNL d   1      26.908 -13.636   1.955  0.00  0.00     0.217 HD
ENDBRANCH  32  37
ENDBRANCH   1  27
TORSDOF 16
ENDMDL
MODEL 9
REMARK VINA RESULT:    -5.953      2.899      6.041
REMARK INTER + INTRA:         -16.541
REMARK INTER:                 -10.726
REMARK INTRA:                  -5.815
REMARK CONF_INDEPENDENT:        4.773
REMARK UNBOUND:                -5.815
REMARK  16 active torsions:
REMARK  status: ('A' for Active; 'I' for Inactive)
REMARK    1  A    between atoms: C_2  and  C_3 
REMARK    2  A    between atoms: C_3  and  C_4 
REMARK    3  A    between atoms: C_4  and  C_5 
REMARK    4  A    between atoms: C_5  and  C_6 
REMARK    5  A    between atoms: C_6  and  N_7 
REMARK       I    between atoms: N_7  and  C_8 
REMARK    6  A    between atoms: N_7  and  C_18 
REMARK    7  A    between atoms: C_8  and  C_10 
REMARK    8  A    between atoms: C_10  and  C_11 
REMARK    9  A    between atoms: C_18  and  C_19 
REMARK   10  A    between atoms: C_18  and  C_26 
REMARK       I    between atoms: C_19  and  N_21 
REMARK   11  A    between atoms: N_21  and  C_22 
REMARK   12  A    between atoms: C_22  and  C_23 
REMARK   13  A    between atoms: C_23  and  C_24 
REMARK   14  A    between atoms: C_27  and  O_28 
REMARK   15  A    between atoms: C_30  and  O_31 
REMARK   16  A    between atoms: C_33  and  O_34 
ROOT
ATOM      1  C   UNL d   1      27.403 -12.906  -3.613  0.00  0.00     0.212 C 
ENDROOT
BRANCH   1   2
ATOM      2  N   UNL d   1      26.443 -14.071  -3.771  0.00  0.00    -0.335 N 
ATOM      3  C   UNL d   1      25.656 -14.339  -2.609  0.00  0.00     0.225 C 
ATOM      4  O   UNL d   1      25.649 -13.558  -1.644  0.00  0.00    -0.273 OA
BRANCH   2   5
ATOM      5  C   UNL d   1      26.499 -14.831  -5.105  0.00  0.00     0.127 C 
BRANCH   5   6
ATOM      6  C   UNL d   1      27.816 -14.762  -5.843  0.00  0.00     0.020 C 
BRANCH   6   7
ATOM      7  C   UNL d   1      29.012 -15.596  -5.464  0.00  0.00     0.002 C 
BRANCH   7   8
ATOM      8  C   UNL d   1      28.885 -15.951  -3.972  0.00  0.00    -0.000 C 
BRANCH   8   9
ATOM      9  C   UNL d   1      30.026 -16.829  -3.536  0.00  0.00    -0.005 C 
ATOM     10  C   UNL d   1      30.063 -16.952  -2.026  0.00  0.00     0.005 C 
ENDBRANCH   8   9
ENDBRANCH   7   8
ENDBRANCH   6   7
ENDBRANCH   5   6
ENDBRANCH   2   5
BRANCH   3  11
ATOM     11  C   UNL d   1      24.780 -15.583  -2.459  0.00  0.00     0.142 C 
BRANCH  11  12
ATOM     12  C   UNL d   1      25.364 -16.724  -1.589  0.00  0.00    -0.043 C 
ATOM     13  C   UNL d   1      26.732 -16.697  -1.299  0.00  0.00     0.008 C 
ATOM     14  C   UNL d   1      27.236 -17.455  -0.221  0.00  0.00     0.001 C 
ATOM     15  C   UNL d   1      26.392 -18.163   0.636  0.00  0.00     0.001 C 
ATOM     16  C   UNL d   1      25.053 -18.201   0.374  0.00  0.00     0.007 C 
ATOM     17  C   UNL d   1      24.565 -17.572  -0.761  0.00  0.00    -0.055 C 
ATOM     18  C   UNL d   1      23.111 -17.729  -0.872  0.00  0.00     0.049 C 
ENDBRANCH  11  12
ENDBRANCH   3  11
ENDBRANCH   1   2
BRANCH   1  19
ATOM     19  C   UNL d   1      28.560 -13.036  -2.400  0.00  0.00     0.225 C 
ATOM     20  O   UNL d   1      29.733 -12.782  -2.511  0.00  0.00    -0.277 OA
ATOM     21  N   UNL d   1      28.213 -13.460  -1.119  0.00  0.00    -0.261 NA
ATOM     22  H   UNL d   1      27.616 -14.274  -1.097  0.00  0.00     0.130 HD
BRANCH  21  23
ATOM     23  C   UNL d   1      29.330 -13.579  -0.173  0.00  0.00     0.095 C 
BRANCH  23  24
ATOM     24  C   UNL d   1      29.078 -14.706   0.802  0.00  0.00     0.014 C 
BRANCH  24  25
ATOM     25  C   UNL d   1      27.686 -14.602   1.407  0.00  0.00    -0.003 C 
ATOM     26  C   UNL d   1      27.416 -13.171   1.827  0.00  0.00     0.005 C 
ENDBRANCH  24  25
ENDBRANCH  23  24
ENDBRANCH  21  23
ENDBRANCH   1  19
BRANCH   1  27
ATOM     27  C   UNL d   1      26.649 -11.582  -3.537  0.00  0.00     0.040 C 
ATOM     28  C   UNL d   1      25.967 -11.079  -4.651  0.00  0.00     0.080 C 
ATOM     29  C   UNL d   1      25.517  -9.763  -4.683  0.00  0.00     0.073 C 
ATOM     30  C   UNL d   1      25.725  -8.942  -3.581  0.00  0.00     0.071 C 
ATOM     31  C   UNL d   1      26.323  -9.420  -2.439  0.00  0.00     0.073 C 
ATOM     32  C   UNL d   1      26.688 -10.749  -2.394  0.00  0.00     0.080 C 
BRANCH  28  33
ATOM     33  O   UNL d   1      25.674 -11.831  -5.759  0.00  0.00    -0.360 OA
ATOM     34  H   UNL d   1      24.712 -11.997  -5.804  0.00  0.00     0.217 HD
ENDBRANCH  28  33
BRANCH  30  35
ATOM     35  O   UNL d   1      25.282  -7.658  -3.533  0.00  0.00    -0.361 OA
ATOM     36  H   UNL d   1      24.433  -7.652  -3.068  0.00  0.00     0.217 HD
ENDBRANCH  30  35
BRANCH  32  37
ATOM     37  O   UNL d   1      27.029 -11.190  -1.139  0.00  0.00    -0.360 OA
ATOM     38  H   UNL d   1      26.585 -12.052  -1.026  0.00  0.00     0.217 HD
ENDBRANCH  32  37
ENDBRANCH   1  27
TORSDOF 16
ENDMDL
