MODEL 1
REMARK VINA RESULT:    -8.572      0.000      0.000
REMARK INTER + INTRA:         -11.536
REMARK INTER:                 -10.362
REMARK INTRA:                  -1.174
REMARK CONF_INDEPENDENT:        1.790
REMARK UNBOUND:                -1.174
REMARK  6 active torsions:
REMARK  status: ('A' for Active; 'I' for Inactive)
REMARK    1  A    between atoms: O_2  and  C_3 
REMARK    2  A    between atoms: C_6  and  C_7 
REMARK       I    between atoms: C_7  and  N_9 
REMARK       I    between atoms: C_10  and  N_11 
REMARK       I    between atoms: C_10  and  N_19 
REMARK    3  A    between atoms: N_11  and  C_12 
REMARK    4  A    between atoms: C_12  and  C_13 
REMARK    5  A    between atoms: N_19  and  C_20 
REMARK    6  A    between atoms: C_29  and  O_30 
ROOT
ATOM      1  C   UNL d   1      27.202 -12.852  -0.710  0.00  0.00     0.294 C 
ATOM      2  O   UNL d   1      27.265 -11.918   0.073  0.00  0.00    -0.265 OA
ATOM      3  N   UNL d   1      27.530 -14.167  -0.410  0.00  0.00    -0.023 NA
ATOM      4  C   UNL d   1      27.852 -14.489   0.813  0.00  0.00     0.704 C 
ATOM      5  N   UNL d   1      28.152 -15.788   1.130  0.00  0.00    -0.220 N 
ATOM      6  N   UNL d   1      27.865 -13.636   1.896  0.00  0.00    -0.190 N 
ATOM      7  H   UNL d   1      28.302 -15.970   2.105  0.00  0.00     0.178 HD
ATOM      8  H   UNL d   1      27.665 -12.664   1.643  0.00  0.00     0.184 HD
ENDROOT
BRANCH   5   9
ATOM      9  C   UNL d   1      28.069 -16.933   0.252  0.00  0.00     0.178 C 
BRANCH   9  10
ATOM     10  C   UNL d   1      26.647 -17.295  -0.141  0.00  0.00    -0.022 A 
ATOM     11  C   UNL d   1      26.037 -16.665  -1.237  0.00  0.00     0.012 A 
ATOM     12  C   UNL d   1      24.727 -16.987  -1.598  0.00  0.00     0.020 A 
ATOM     13  C   UNL d   1      24.051 -17.931  -0.848  0.00  0.00     0.116 A 
ATOM     14  N   UNL d   1      24.580 -18.535   0.232  0.00  0.00    -0.273 NA
ATOM     15  C   UNL d   1      25.847 -18.190   0.568  0.00  0.00     0.124 A 
ENDBRANCH   9  10
ENDBRANCH   5   9
BRANCH   6  16
ATOM     16  C   UNL d   1      28.430 -13.735   3.184  0.00  0.00     0.049 A 
ATOM     17  C   UNL d   1      29.623 -14.450   3.350  0.00  0.00     0.030 A 
ATOM     18  C   UNL d   1      30.212 -14.589   4.613  0.00  0.00     0.009 A 
ATOM     19  C   UNL d   1      29.676 -13.933   5.728  0.00  0.00    -0.056 A 
ATOM     20  C   UNL d   1      30.405 -13.973   7.041  0.00  0.00     0.049 C 
ATOM     21  C   UNL d   1      28.479 -13.216   5.581  0.00  0.00    -0.054 A 
ATOM     22  C   UNL d   1      27.780 -12.548   6.731  0.00  0.00     0.049 C 
ATOM     23  C   UNL d   1      27.870 -13.139   4.317  0.00  0.00     0.037 A 
ENDBRANCH   6  16
BRANCH   1  24
ATOM     24  C   UNL d   1      26.701 -12.581  -2.106  0.00  0.00     0.037 A 
ATOM     25  C   UNL d   1      26.860 -11.315  -2.673  0.00  0.00     0.020 A 
ATOM     26  C   UNL d   1      26.312 -11.022  -3.938  0.00  0.00     0.040 A 
ATOM     27  C   UNL d   1      25.657 -12.000  -4.719  0.00  0.00     0.101 A 
ATOM     28  C   UNL d   1      25.520 -13.286  -4.150  0.00  0.00     0.102 A 
ATOM     29  C   UNL d   1      26.038 -13.550  -2.856  0.00  0.00     0.056 A 
BRANCH  27  30
ATOM     30  O   UNL d   1      25.518 -11.608  -6.034  0.00  0.00    -0.353 OA
ATOM     31  C   UNL d   1      25.629 -10.257  -6.480  0.00  0.00     0.210 C 
ENDBRANCH  27  30
BRANCH  28  32
ATOM     32  O   UNL d   1      24.981 -14.450  -4.645  0.00  0.00    -0.353 OA
ATOM     33  C   UNL d   1      25.905 -15.420  -5.042  0.00  0.00     0.210 C 
ENDBRANCH  28  32
ENDBRANCH   1  24
TORSDOF 6
ENDMDL
MODEL 2
REMARK VINA RESULT:    -8.060      3.324      7.942
REMARK INTER + INTRA:         -10.759
REMARK INTER:                  -9.850
REMARK INTRA:                  -0.909
REMARK CONF_INDEPENDENT:        1.790
REMARK UNBOUND:                -0.909
REMARK  6 active torsions:
REMARK  status: ('A' for Active; 'I' for Inactive)
REMARK    1  A    between atoms: O_2  and  C_3 
REMARK    2  A    between atoms: C_6  and  C_7 
REMARK       I    between atoms: C_7  and  N_9 
REMARK       I    between atoms: C_10  and  N_11 
REMARK       I    between atoms: C_10  and  N_19 
REMARK    3  A    between atoms: N_11  and  C_12 
REMARK    4  A    between atoms: C_12  and  C_13 
REMARK    5  A    between atoms: N_19  and  C_20 
REMARK    6  A    between atoms: C_29  and  O_30 
ROOT
ATOM      1  C   UNL d   1      28.728 -14.518   1.751  0.00  0.00     0.294 C 
ATOM      2  O   UNL d   1      29.621 -14.000   1.100  0.00  0.00    -0.265 OA
ATOM      3  N   UNL d   1      27.966 -15.602   1.336  0.00  0.00    -0.023 NA
ATOM      4  C   UNL d   1      28.248 -16.197   0.210  0.00  0.00     0.704 C 
ATOM      5  N   UNL d   1      27.522 -17.285  -0.199  0.00  0.00    -0.220 N 
ATOM      6  N   UNL d   1      29.292 -15.878  -0.632  0.00  0.00    -0.190 N 
ATOM      7  H   UNL d   1      27.857 -17.738  -1.030  0.00  0.00     0.178 HD
ATOM      8  H   UNL d   1      29.812 -15.049  -0.330  0.00  0.00     0.184 HD
ENDROOT
BRANCH   5   9
ATOM      9  C   UNL d   1      26.476 -17.953   0.540  0.00  0.00     0.178 C 
BRANCH   9  10
ATOM     10  C   UNL d   1      25.078 -17.632   0.039  0.00  0.00    -0.022 A 
ATOM     11  C   UNL d   1      24.046 -18.574   0.178  0.00  0.00     0.012 A 
ATOM     12  C   UNL d   1      22.761 -18.290  -0.289  0.00  0.00     0.020 A 
ATOM     13  C   UNL d   1      22.537 -17.066  -0.892  0.00  0.00     0.116 A 
ATOM     14  N   UNL d   1      23.501 -16.146  -1.081  0.00  0.00    -0.273 NA
ATOM     15  C   UNL d   1      24.741 -16.458  -0.633  0.00  0.00     0.124 A 
ENDBRANCH   9  10
ENDBRANCH   5   9
BRANCH   6  16
ATOM     16  C   UNL d   1      29.576 -16.213  -1.972  0.00  0.00     0.049 A 
ATOM     17  C   UNL d   1      30.492 -17.239  -2.238  0.00  0.00     0.030 A 
ATOM     18  C   UNL d   1      30.817 -17.594  -3.552  0.00  0.00     0.009 A 
ATOM     19  C   UNL d   1      30.160 -17.001  -4.638  0.00  0.00    -0.056 A 
ATOM     20  C   UNL d   1      30.415 -17.501  -6.031  0.00  0.00     0.049 C 
ATOM     21  C   UNL d   1      29.243 -15.968  -4.391  0.00  0.00    -0.054 A 
ATOM     22  C   UNL d   1      28.549 -15.211  -5.487  0.00  0.00     0.049 C 
ATOM     23  C   UNL d   1      28.975 -15.583  -3.066  0.00  0.00     0.037 A 
ENDBRANCH   6  16
BRANCH   1  24
ATOM     24  C   UNL d   1      28.437 -13.974   3.126  0.00  0.00     0.037 A 
ATOM     25  C   UNL d   1      28.452 -14.826   4.233  0.00  0.00     0.020 A 
ATOM     26  C   UNL d   1      28.090 -14.350   5.509  0.00  0.00     0.040 A 
ATOM     27  C   UNL d   1      27.776 -12.993   5.745  0.00  0.00     0.101 A 
ATOM     28  C   UNL d   1      27.785 -12.131   4.625  0.00  0.00     0.102 A 
ATOM     29  C   UNL d   1      28.110 -12.637   3.341  0.00  0.00     0.056 A 
BRANCH  27  30
ATOM     30  O   UNL d   1      27.799 -12.681   7.088  0.00  0.00    -0.353 OA
ATOM     31  C   UNL d   1      28.909 -12.934   7.949  0.00  0.00     0.210 C 
ENDBRANCH  27  30
BRANCH  28  32
ATOM     32  O   UNL d   1      27.570 -10.778   4.515  0.00  0.00    -0.353 OA
ATOM     33  C   UNL d   1      28.518  -9.964   5.140  0.00  0.00     0.210 C 
ENDBRANCH  28  32
ENDBRANCH   1  24
TORSDOF 6
ENDMDL
MODEL 3
REMARK VINA RESULT:    -7.871      2.431      3.153
REMARK INTER + INTRA:         -10.675
REMARK INTER:                  -9.661
REMARK INTRA:                  -1.014
REMARK CONF_INDEPENDENT:        1.790
REMARK UNBOUND:                -1.014
REMARK  6 active torsions:
REMARK  status: ('A' for Active; 'I' for Inactive)
REMARK    1  A    between atoms: O_2  and  C_3 
REMARK    2  A    between atoms: C_6  and  C_7 
REMARK       I    between atoms: C_7  and  N_9 
REMARK       I    between atoms: C_10  and  N_11 
REMARK       I    between atoms: C_10  and  N_19 
REMARK    3  A    between atoms: N_11  and  C_12 
REMARK    4  A    between atoms: C_12  and  C_13 
REMARK    5  A    between atoms: N_19  and  C_20 
REMARK    6  A    between atoms: C_29  and  O_30 
ROOT
ATOM      1  C   UNL d   1      28.879 -14.432  -1.611  0.00  0.00     0.294 C 
ATOM      2  O   UNL d   1      29.163 -13.310  -1.225  0.00  0.00    -0.265 OA
ATOM      3  N   UNL d   1      28.351 -15.439  -0.815  0.00  0.00    -0.023 NA
ATOM      4  C   UNL d   1      28.038 -15.184   0.425  0.00  0.00     0.704 C 
ATOM      5  N   UNL d   1      27.491 -16.161   1.216  0.00  0.00    -0.220 N 
ATOM      6  N   UNL d   1      28.142 -13.959   1.049  0.00  0.00    -0.190 N 
ATOM      7  H   UNL d   1      27.197 -15.862   2.128  0.00  0.00     0.178 HD
ATOM      8  H   UNL d   1      28.576 -13.244   0.458  0.00  0.00     0.184 HD
ENDROOT
BRANCH   5   9
ATOM      9  C   UNL d   1      27.112 -17.493   0.805  0.00  0.00     0.178 C 
BRANCH   9  10
ATOM     10  C   UNL d   1      25.785 -17.547   0.067  0.00  0.00    -0.022 A 
ATOM     11  C   UNL d   1      25.624 -16.855  -1.144  0.00  0.00     0.012 A 
ATOM     12  C   UNL d   1      24.404 -16.893  -1.823  0.00  0.00     0.020 A 
ATOM     13  C   UNL d   1      23.367 -17.620  -1.270  0.00  0.00     0.116 A 
ATOM     14  N   UNL d   1      23.461 -18.269  -0.095  0.00  0.00    -0.273 NA
ATOM     15  C   UNL d   1      24.652 -18.200   0.549  0.00  0.00     0.124 A 
ENDBRANCH   9  10
ENDBRANCH   5   9
BRANCH   6  16
ATOM     16  C   UNL d   1      28.116 -13.571   2.404  0.00  0.00     0.049 A 
ATOM     17  C   UNL d   1      27.802 -12.245   2.727  0.00  0.00     0.030 A 
ATOM     18  C   UNL d   1      27.780 -11.810   4.058  0.00  0.00     0.009 A 
ATOM     19  C   UNL d   1      27.975 -12.715   5.109  0.00  0.00    -0.056 A 
ATOM     20  C   UNL d   1      27.800 -12.261   6.530  0.00  0.00     0.049 C 
ATOM     21  C   UNL d   1      28.295 -14.047   4.805  0.00  0.00    -0.054 A 
ATOM     22  C   UNL d   1      28.604 -15.074   5.856  0.00  0.00     0.049 C 
ATOM     23  C   UNL d   1      28.372 -14.450   3.460  0.00  0.00     0.037 A 
ENDBRANCH   6  16
BRANCH   1  24
ATOM     24  C   UNL d   1      29.081 -14.758  -3.069  0.00  0.00     0.037 A 
ATOM     25  C   UNL d   1      30.372 -14.845  -3.594  0.00  0.00     0.020 A 
ATOM     26  C   UNL d   1      30.573 -15.055  -4.973  0.00  0.00     0.040 A 
ATOM     27  C   UNL d   1      29.499 -15.266  -5.866  0.00  0.00     0.101 A 
ATOM     28  C   UNL d   1      28.195 -15.200  -5.325  0.00  0.00     0.102 A 
ATOM     29  C   UNL d   1      28.012 -14.944  -3.942  0.00  0.00     0.056 A 
BRANCH  27  30
ATOM     30  O   UNL d   1      29.920 -15.793  -7.070  0.00  0.00    -0.353 OA
ATOM     31  C   UNL d   1      30.960 -16.762  -7.197  0.00  0.00     0.210 C 
ENDBRANCH  27  30
BRANCH  28  32
ATOM     32  O   UNL d   1      26.960 -15.393  -5.896  0.00  0.00    -0.353 OA
ATOM     33  C   UNL d   1      25.869 -15.251  -5.034  0.00  0.00     0.210 C 
ENDBRANCH  28  32
ENDBRANCH   1  24
TORSDOF 6
ENDMDL
MODEL 4
REMARK VINA RESULT:    -7.867      3.007      4.127
REMARK INTER + INTRA:         -10.523
REMARK INTER:                  -9.657
REMARK INTRA:                  -0.865
REMARK CONF_INDEPENDENT:        1.790
REMARK UNBOUND:                -0.865
REMARK  6 active torsions:
REMARK  status: ('A' for Active; 'I' for Inactive)
REMARK    1  A    between atoms: O_2  and  C_3 
REMARK    2  A    between atoms: C_6  and  C_7 
REMARK       I    between atoms: C_7  and  N_9 
REMARK       I    between atoms: C_10  and  N_11 
REMARK       I    between atoms: C_10  and  N_19 
REMARK    3  A    between atoms: N_11  and  C_12 
REMARK    4  A    between atoms: C_12  and  C_13 
REMARK    5  A    between atoms: N_19  and  C_20 
REMARK    6  A    between atoms: C_29  and  O_30 
ROOT
ATOM      1  C   UNL d   1      29.260 -15.525  -1.815  0.00  0.00     0.294 C 
ATOM      2  O   UNL d   1      29.754 -14.457  -1.494  0.00  0.00    -0.265 OA
ATOM      3  N   UNL d   1      28.421 -16.287  -1.015  0.00  0.00    -0.023 NA
ATOM      4  C   UNL d   1      28.036 -15.825   0.143  0.00  0.00     0.704 C 
ATOM      5  N   UNL d   1      27.186 -16.555   0.932  0.00  0.00    -0.220 N 
ATOM      6  N   UNL d   1      28.355 -14.589   0.665  0.00  0.00    -0.190 N 
ATOM      7  H   UNL d   1      26.868 -16.092   1.765  0.00  0.00     0.178 HD
ATOM      8  H   UNL d   1      29.010 -14.063   0.079  0.00  0.00     0.184 HD
ENDROOT
BRANCH   5   9
ATOM      9  C   UNL d   1      26.552 -17.807   0.592  0.00  0.00     0.178 C 
BRANCH   9  10
ATOM     10  C   UNL d   1      25.139 -17.648   0.060  0.00  0.00    -0.022 A 
ATOM     11  C   UNL d   1      24.771 -16.478  -0.624  0.00  0.00     0.012 A 
ATOM     12  C   UNL d   1      23.471 -16.321  -1.108  0.00  0.00     0.020 A 
ATOM     13  C   UNL d   1      22.562 -17.339  -0.893  0.00  0.00     0.116 A 
ATOM     14  N   UNL d   1      22.856 -18.462  -0.212  0.00  0.00    -0.273 NA
ATOM     15  C   UNL d   1      24.121 -18.579   0.260  0.00  0.00     0.124 A 
ENDBRANCH   9  10
ENDBRANCH   5   9
BRANCH   6  16
ATOM     16  C   UNL d   1      28.266 -14.048   1.963  0.00  0.00     0.049 A 
ATOM     17  C   UNL d   1      28.108 -12.664   2.116  0.00  0.00     0.030 A 
ATOM     18  C   UNL d   1      28.031 -12.081   3.386  0.00  0.00     0.009 A 
ATOM     19  C   UNL d   1      28.011 -12.877   4.539  0.00  0.00    -0.056 A 
ATOM     20  C   UNL d   1      27.779 -12.244   5.881  0.00  0.00     0.049 C 
ATOM     21  C   UNL d   1      28.173 -14.264   4.406  0.00  0.00    -0.054 A 
ATOM     22  C   UNL d   1      28.249 -15.195   5.583  0.00  0.00     0.049 C 
ATOM     23  C   UNL d   1      28.309 -14.825   3.124  0.00  0.00     0.037 A 
ENDBRANCH   6  16
BRANCH   1  24
ATOM     24  C   UNL d   1      29.545 -16.057  -3.196  0.00  0.00     0.037 A 
ATOM     25  C   UNL d   1      30.437 -17.118  -3.366  0.00  0.00     0.020 A 
ATOM     26  C   UNL d   1      30.785 -17.563  -4.658  0.00  0.00     0.040 A 
ATOM     27  C   UNL d   1      30.197 -17.023  -5.823  0.00  0.00     0.101 A 
ATOM     28  C   UNL d   1      29.277 -15.965  -5.644  0.00  0.00     0.102 A 
ATOM     29  C   UNL d   1      28.973 -15.501  -4.339  0.00  0.00     0.056 A 
BRANCH  27  30
ATOM     30  O   UNL d   1      30.405 -17.821  -6.929  0.00  0.00    -0.353 OA
ATOM     31  C   UNL d   1      30.800 -19.191  -6.861  0.00  0.00     0.210 C 
ENDBRANCH  27  30
BRANCH  28  32
ATOM     32  O   UNL d   1      28.514 -15.258  -6.542  0.00  0.00    -0.353 OA
ATOM     33  C   UNL d   1      28.695 -13.872  -6.525  0.00  0.00     0.210 C 
ENDBRANCH  28  32
ENDBRANCH   1  24
TORSDOF 6
ENDMDL
MODEL 5
REMARK VINA RESULT:    -7.561      2.287      8.293
REMARK INTER + INTRA:         -10.206
REMARK INTER:                  -9.351
REMARK INTRA:                  -0.855
REMARK CONF_INDEPENDENT:        1.790
REMARK UNBOUND:                -0.855
REMARK  6 active torsions:
REMARK  status: ('A' for Active; 'I' for Inactive)
REMARK    1  A    between atoms: O_2  and  C_3 
REMARK    2  A    between atoms: C_6  and  C_7 
REMARK       I    between atoms: C_7  and  N_9 
REMARK       I    between atoms: C_10  and  N_11 
REMARK       I    between atoms: C_10  and  N_19 
REMARK    3  A    between atoms: N_11  and  C_12 
REMARK    4  A    between atoms: C_12  and  C_13 
REMARK    5  A    between atoms: N_19  and  C_20 
REMARK    6  A    between atoms: C_29  and  O_30 
ROOT
ATOM      1  C   UNL d   1      27.780 -13.240   2.146  0.00  0.00     0.294 C 
ATOM      2  O   UNL d   1      28.029 -12.164   1.627  0.00  0.00    -0.265 OA
ATOM      3  N   UNL d   1      27.268 -14.346   1.481  0.00  0.00    -0.023 NA
ATOM      4  C   UNL d   1      27.108 -14.304   0.187  0.00  0.00     0.704 C 
ATOM      5  N   UNL d   1      26.629 -15.397  -0.487  0.00  0.00    -0.220 N 
ATOM      6  N   UNL d   1      27.442 -13.247  -0.634  0.00  0.00    -0.190 N 
ATOM      7  H   UNL d   1      26.618 -15.315  -1.488  0.00  0.00     0.178 HD
ATOM      8  H   UNL d   1      27.774 -12.428  -0.118  0.00  0.00     0.184 HD
ENDROOT
BRANCH   5   9
ATOM      9  C   UNL d   1      26.344 -16.699   0.070  0.00  0.00     0.178 C 
BRANCH   9  10
ATOM     10  C   UNL d   1      24.959 -17.217  -0.278  0.00  0.00    -0.022 A 
ATOM     11  C   UNL d   1      23.880 -16.326  -0.390  0.00  0.00     0.012 A 
ATOM     12  C   UNL d   1      22.603 -16.797  -0.700  0.00  0.00     0.020 A 
ATOM     13  C   UNL d   1      22.431 -18.156  -0.886  0.00  0.00     0.116 A 
ATOM     14  N   UNL d   1      23.425 -19.053  -0.753  0.00  0.00    -0.273 NA
ATOM     15  C   UNL d   1      24.650 -18.568  -0.435  0.00  0.00     0.124 A 
ENDBRANCH   9  10
ENDBRANCH   5   9
BRANCH   6  16
ATOM     16  C   UNL d   1      27.100 -12.924  -1.963  0.00  0.00     0.049 A 
ATOM     17  C   UNL d   1      26.667 -11.625  -2.258  0.00  0.00     0.030 A 
ATOM     18  C   UNL d   1      26.300 -11.264  -3.560  0.00  0.00     0.009 A 
ATOM     19  C   UNL d   1      26.451 -12.165  -4.622  0.00  0.00    -0.056 A 
ATOM     20  C   UNL d   1      26.194 -11.711  -6.031  0.00  0.00     0.049 C 
ATOM     21  C   UNL d   1      26.879 -13.472  -4.345  0.00  0.00    -0.054 A 
ATOM     22  C   UNL d   1      26.992 -14.536  -5.399  0.00  0.00     0.049 C 
ATOM     23  C   UNL d   1      27.184 -13.834  -3.021  0.00  0.00     0.037 A 
ENDBRANCH   6  16
BRANCH   1  24
ATOM     24  C   UNL d   1      28.074 -13.411   3.615  0.00  0.00     0.037 A 
ATOM     25  C   UNL d   1      28.543 -14.635   4.096  0.00  0.00     0.020 A 
ATOM     26  C   UNL d   1      28.731 -14.838   5.478  0.00  0.00     0.040 A 
ATOM     27  C   UNL d   1      28.536 -13.807   6.423  0.00  0.00     0.101 A 
ATOM     28  C   UNL d   1      28.082 -12.563   5.928  0.00  0.00     0.102 A 
ATOM     29  C   UNL d   1      27.856 -12.391   4.538  0.00  0.00     0.056 A 
BRANCH  27  30
ATOM     30  O   UNL d   1      29.103 -14.106   7.644  0.00  0.00    -0.353 OA
ATOM     31  C   UNL d   1      30.506 -14.072   7.902  0.00  0.00     0.210 C 
ENDBRANCH  27  30
BRANCH  28  32
ATOM     32  O   UNL d   1      27.834 -11.366   6.557  0.00  0.00    -0.353 OA
ATOM     33  C   UNL d   1      28.831 -10.929   7.434  0.00  0.00     0.210 C 
ENDBRANCH  28  32
ENDBRANCH   1  24
TORSDOF 6
ENDMDL
MODEL 6
REMARK VINA RESULT:    -7.513      3.659      4.798
REMARK INTER + INTRA:         -10.165
REMARK INTER:                  -9.303
REMARK INTRA:                  -0.862
REMARK CONF_INDEPENDENT:        1.790
REMARK UNBOUND:                -0.862
REMARK  6 active torsions:
REMARK  status: ('A' for Active; 'I' for Inactive)
REMARK    1  A    between atoms: O_2  and  C_3 
REMARK    2  A    between atoms: C_6  and  C_7 
REMARK       I    between atoms: C_7  and  N_9 
REMARK       I    between atoms: C_10  and  N_11 
REMARK       I    between atoms: C_10  and  N_19 
REMARK    3  A    between atoms: N_11  and  C_12 
REMARK    4  A    between atoms: C_12  and  C_13 
REMARK    5  A    between atoms: N_19  and  C_20 
REMARK    6  A    between atoms: C_29  and  O_30 
ROOT
ATOM      1  C   UNL d   1      29.548 -15.954  -2.223  0.00  0.00     0.294 C 
ATOM      2  O   UNL d   1      30.104 -14.927  -1.870  0.00  0.00    -0.265 OA
ATOM      3  N   UNL d   1      28.592 -16.637  -1.484  0.00  0.00    -0.023 NA
ATOM      4  C   UNL d   1      28.162 -16.133  -0.360  0.00  0.00     0.704 C 
ATOM      5  N   UNL d   1      27.199 -16.783   0.367  0.00  0.00    -0.220 N 
ATOM      6  N   UNL d   1      28.543 -14.922   0.179  0.00  0.00    -0.190 N 
ATOM      7  H   UNL d   1      26.860 -16.287   1.172  0.00  0.00     0.178 HD
ATOM      8  H   UNL d   1      29.280 -14.458  -0.358  0.00  0.00     0.184 HD
ENDROOT
BRANCH   5   9
ATOM      9  C   UNL d   1      26.491 -17.983  -0.014  0.00  0.00     0.178 C 
BRANCH   9  10
ATOM     10  C   UNL d   1      25.008 -17.763  -0.253  0.00  0.00    -0.022 A 
ATOM     11  C   UNL d   1      24.107 -18.831  -0.124  0.00  0.00     0.012 A 
ATOM     12  C   UNL d   1      22.743 -18.638  -0.352  0.00  0.00     0.020 A 
ATOM     13  C   UNL d   1      22.309 -17.376  -0.710  0.00  0.00     0.116 A 
ATOM     14  N   UNL d   1      23.137 -16.329  -0.882  0.00  0.00    -0.273 NA
ATOM     15  C   UNL d   1      24.457 -16.552  -0.670  0.00  0.00     0.124 A 
ENDBRANCH   9  10
ENDBRANCH   5   9
BRANCH   6  16
ATOM     16  C   UNL d   1      28.402 -14.362   1.465  0.00  0.00     0.049 A 
ATOM     17  C   UNL d   1      27.216 -13.693   1.791  0.00  0.00     0.030 A 
ATOM     18  C   UNL d   1      27.038 -13.107   3.050  0.00  0.00     0.009 A 
ATOM     19  C   UNL d   1      28.005 -13.260   4.053  0.00  0.00    -0.056 A 
ATOM     20  C   UNL d   1      27.730 -12.753   5.440  0.00  0.00     0.049 C 
ATOM     21  C   UNL d   1      29.202 -13.924   3.743  0.00  0.00    -0.054 A 
ATOM     22  C   UNL d   1      30.333 -14.067   4.721  0.00  0.00     0.049 C 
ATOM     23  C   UNL d   1      29.386 -14.452   2.454  0.00  0.00     0.037 A 
ENDBRANCH   6  16
BRANCH   1  24
ATOM     24  C   UNL d   1      29.889 -16.523  -3.576  0.00  0.00     0.037 A 
ATOM     25  C   UNL d   1      29.654 -15.771  -4.730  0.00  0.00     0.020 A 
ATOM     26  C   UNL d   1      29.879 -16.326  -6.006  0.00  0.00     0.040 A 
ATOM     27  C   UNL d   1      30.422 -17.619  -6.179  0.00  0.00     0.101 A 
ATOM     28  C   UNL d   1      30.679 -18.366  -5.007  0.00  0.00     0.102 A 
ATOM     29  C   UNL d   1      30.404 -17.808  -3.733  0.00  0.00     0.056 A 
BRANCH  27  30
ATOM     30  O   UNL d   1      30.882 -17.822  -7.463  0.00  0.00    -0.353 OA
ATOM     31  C   UNL d   1      30.881 -19.089  -8.121  0.00  0.00     0.210 C 
ENDBRANCH  27  30
BRANCH  28  32
ATOM     32  O   UNL d   1      31.229 -19.613  -4.823  0.00  0.00    -0.353 OA
ATOM     33  C   UNL d   1      30.435 -20.687  -5.233  0.00  0.00     0.210 C 
ENDBRANCH  28  32
ENDBRANCH   1  24
TORSDOF 6
ENDMDL
MODEL 7
REMARK VINA RESULT:    -7.221      2.596      3.682
REMARK INTER + INTRA:         -10.002
REMARK INTER:                  -9.011
REMARK INTRA:                  -0.991
REMARK CONF_INDEPENDENT:        1.790
REMARK UNBOUND:                -0.991
REMARK  6 active torsions:
REMARK  status: ('A' for Active; 'I' for Inactive)
REMARK    1  A    between atoms: O_2  and  C_3 
REMARK    2  A    between atoms: C_6  and  C_7 
REMARK       I    between atoms: C_7  and  N_9 
REMARK       I    between atoms: C_10  and  N_11 
REMARK       I    between atoms: C_10  and  N_19 
REMARK    3  A    between atoms: N_11  and  C_12 
REMARK    4  A    between atoms: C_12  and  C_13 
REMARK    5  A    between atoms: N_19  and  C_20 
REMARK    6  A    between atoms: C_29  and  O_30 
ROOT
ATOM      1  C   UNL d   1      27.934 -14.409  -0.597  0.00  0.00     0.294 C 
ATOM      2  O   UNL d   1      26.943 -14.056   0.021  0.00  0.00    -0.265 OA
ATOM      3  N   UNL d   1      29.166 -14.701  -0.028  0.00  0.00    -0.023 NA
ATOM      4  C   UNL d   1      29.296 -14.693   1.270  0.00  0.00     0.704 C 
ATOM      5  N   UNL d   1      30.499 -15.004   1.848  0.00  0.00    -0.220 N 
ATOM      6  N   UNL d   1      28.288 -14.454   2.181  0.00  0.00    -0.190 N 
ATOM      7  H   UNL d   1      30.493 -15.062   2.850  0.00  0.00     0.178 HD
ATOM      8  H   UNL d   1      27.401 -14.197   1.739  0.00  0.00     0.184 HD
ENDROOT
BRANCH   5   9
ATOM      9  C   UNL d   1      31.693 -15.453   1.169  0.00  0.00     0.178 C 
BRANCH   9  10
ATOM     10  C   UNL d   1      31.562 -16.839   0.564  0.00  0.00    -0.022 A 
ATOM     11  C   UNL d   1      32.388 -17.884   1.010  0.00  0.00     0.012 A 
ATOM     12  C   UNL d   1      32.280 -19.159   0.451  0.00  0.00     0.020 A 
ATOM     13  C   UNL d   1      31.348 -19.361  -0.550  0.00  0.00     0.116 A 
ATOM     14  N   UNL d   1      30.561 -18.384  -1.036  0.00  0.00    -0.273 NA
ATOM     15  C   UNL d   1      30.700 -17.154  -0.486  0.00  0.00     0.124 A 
ENDBRANCH   9  10
ENDBRANCH   5   9
BRANCH   6  16
ATOM     16  C   UNL d   1      28.296 -14.141   3.556  0.00  0.00     0.049 A 
ATOM     17  C   UNL d   1      28.529 -15.164   4.485  0.00  0.00     0.030 A 
ATOM     18  C   UNL d   1      28.530 -14.903   5.861  0.00  0.00     0.009 A 
ATOM     19  C   UNL d   1      28.396 -13.594   6.341  0.00  0.00    -0.056 A 
ATOM     20  C   UNL d   1      28.550 -13.317   7.809  0.00  0.00     0.049 C 
ATOM     21  C   UNL d   1      28.158 -12.558   5.425  0.00  0.00    -0.054 A 
ATOM     22  C   UNL d   1      27.918 -11.136   5.844  0.00  0.00     0.049 C 
ATOM     23  C   UNL d   1      28.100 -12.850   4.051  0.00  0.00     0.037 A 
ENDBRANCH   6  16
BRANCH   1  24
ATOM     24  C   UNL d   1      27.823 -14.580  -2.091  0.00  0.00     0.037 A 
ATOM     25  C   UNL d   1      28.977 -14.678  -2.871  0.00  0.00     0.020 A 
ATOM     26  C   UNL d   1      28.889 -14.741  -4.277  0.00  0.00     0.040 A 
ATOM     27  C   UNL d   1      27.649 -14.790  -4.952  0.00  0.00     0.101 A 
ATOM     28  C   UNL d   1      26.484 -14.714  -4.154  0.00  0.00     0.102 A 
ATOM     29  C   UNL d   1      26.593 -14.606  -2.745  0.00  0.00     0.056 A 
BRANCH  27  30
ATOM     30  O   UNL d   1      27.786 -15.200  -6.261  0.00  0.00    -0.353 OA
ATOM     31  C   UNL d   1      28.532 -14.487  -7.247  0.00  0.00     0.210 C 
ENDBRANCH  27  30
BRANCH  28  32
ATOM     32  O   UNL d   1      25.150 -14.772  -4.482  0.00  0.00    -0.353 OA
ATOM     33  C   UNL d   1      24.373 -13.700  -4.033  0.00  0.00     0.210 C 
ENDBRANCH  28  32
ENDBRANCH   1  24
TORSDOF 6
ENDMDL
MODEL 8
REMARK VINA RESULT:    -7.178      4.027      5.377
REMARK INTER + INTRA:         -10.090
REMARK INTER:                  -8.968
REMARK INTRA:                  -1.122
REMARK CONF_INDEPENDENT:        1.790
REMARK UNBOUND:                -1.122
REMARK  6 active torsions:
REMARK  status: ('A' for Active; 'I' for Inactive)
REMARK    1  A    between atoms: O_2  and  C_3 
REMARK    2  A    between atoms: C_6  and  C_7 
REMARK       I    between atoms: C_7  and  N_9 
REMARK       I    between atoms: C_10  and  N_11 
REMARK       I    between atoms: C_10  and  N_19 
REMARK    3  A    between atoms: N_11  and  C_12 
REMARK    4  A    between atoms: C_12  and  C_13 
REMARK    5  A    between atoms: N_19  and  C_20 
REMARK    6  A    between atoms: C_29  and  O_30 
ROOT
ATOM      1  C   UNL d   1      30.354 -16.612  -3.263  0.00  0.00     0.294 C 
ATOM      2  O   UNL d   1      31.359 -17.285  -3.427  0.00  0.00    -0.265 OA
ATOM      3  N   UNL d   1      29.683 -16.464  -2.057  0.00  0.00    -0.023 NA
ATOM      4  C   UNL d   1      30.177 -16.995  -0.973  0.00  0.00     0.704 C 
ATOM      5  N   UNL d   1      29.540 -16.834   0.230  0.00  0.00    -0.220 N 
ATOM      6  N   UNL d   1      31.367 -17.687  -0.883  0.00  0.00    -0.190 N 
ATOM      7  H   UNL d   1      30.029 -17.197   1.028  0.00  0.00     0.178 HD
ATOM      8  H   UNL d   1      31.821 -17.824  -1.790  0.00  0.00     0.184 HD
ENDROOT
BRANCH   5   9
ATOM      9  C   UNL d   1      28.367 -16.030   0.486  0.00  0.00     0.178 C 
BRANCH   9  10
ATOM     10  C   UNL d   1      27.073 -16.684   0.035  0.00  0.00    -0.022 A 
ATOM     11  C   UNL d   1      26.261 -16.055  -0.922  0.00  0.00     0.012 A 
ATOM     12  C   UNL d   1      25.065 -16.646  -1.335  0.00  0.00     0.020 A 
ATOM     13  C   UNL d   1      24.704 -17.857  -0.775  0.00  0.00     0.116 A 
ATOM     14  N   UNL d   1      25.429 -18.481   0.172  0.00  0.00    -0.273 NA
ATOM     15  C   UNL d   1      26.576 -17.875   0.563  0.00  0.00     0.124 A 
ENDBRANCH   9  10
ENDBRANCH   5   9
BRANCH   6  16
ATOM     16  C   UNL d   1      31.906 -18.538   0.104  0.00  0.00     0.049 A 
ATOM     17  C   UNL d   1      32.584 -17.974   1.193  0.00  0.00     0.030 A 
ATOM     18  C   UNL d   1      33.149 -18.780   2.188  0.00  0.00     0.009 A 
ATOM     19  C   UNL d   1      32.966 -20.169   2.174  0.00  0.00    -0.056 A 
ATOM     20  C   UNL d   1      33.452 -21.000   3.327  0.00  0.00     0.049 C 
ATOM     21  C   UNL d   1      32.293 -20.751   1.089  0.00  0.00    -0.054 A 
ATOM     22  C   UNL d   1      32.117 -22.236   0.938  0.00  0.00     0.049 C 
ATOM     23  C   UNL d   1      31.785 -19.930   0.068  0.00  0.00     0.037 A 
ENDBRANCH   6  16
BRANCH   1  24
ATOM     24  C   UNL d   1      29.803 -15.852  -4.442  0.00  0.00     0.037 A 
ATOM     25  C   UNL d   1      30.669 -15.173  -5.302  0.00  0.00     0.020 A 
ATOM     26  C   UNL d   1      30.161 -14.380  -6.351  0.00  0.00     0.040 A 
ATOM     27  C   UNL d   1      28.779 -14.298  -6.631  0.00  0.00     0.101 A 
ATOM     28  C   UNL d   1      27.909 -15.006  -5.771  0.00  0.00     0.102 A 
ATOM     29  C   UNL d   1      28.436 -15.763  -4.693  0.00  0.00     0.056 A 
BRANCH  27  30
ATOM     30  O   UNL d   1      28.532 -13.771  -7.882  0.00  0.00    -0.353 OA
ATOM     31  C   UNL d   1      29.170 -12.603  -8.396  0.00  0.00     0.210 C 
ENDBRANCH  27  30
BRANCH  28  32
ATOM     32  O   UNL d   1      26.544 -15.166  -5.784  0.00  0.00    -0.353 OA
ATOM     33  C   UNL d   1      25.929 -15.200  -4.530  0.00  0.00     0.210 C 
ENDBRANCH  28  32
ENDBRANCH   1  24
TORSDOF 6
ENDMDL
MODEL 9
REMARK VINA RESULT:    -6.996      1.879      2.275
REMARK INTER + INTRA:         -10.140
REMARK INTER:                  -8.786
REMARK INTRA:                  -1.354
REMARK CONF_INDEPENDENT:        1.790
REMARK UNBOUND:                -1.354
REMARK  6 active torsions:
REMARK  status: ('A' for Active; 'I' for Inactive)
REMARK    1  A    between atoms: O_2  and  C_3 
REMARK    2  A    between atoms: C_6  and  C_7 
REMARK       I    between atoms: C_7  and  N_9 
REMARK       I    between atoms: C_10  and  N_11 
REMARK       I    between atoms: C_10  and  N_19 
REMARK    3  A    between atoms: N_11  and  C_12 
REMARK    4  A    between atoms: C_12  and  C_13 
REMARK    5  A    between atoms: N_19  and  C_20 
REMARK    6  A    between atoms: C_29  and  O_30 
ROOT
ATOM      1  C   UNL d   1      27.031 -13.058  -0.124  0.00  0.00     0.294 C 
ATOM      2  O   UNL d   1      26.281 -12.611   0.728  0.00  0.00    -0.265 OA
ATOM      3  N   UNL d   1      28.189 -13.779   0.132  0.00  0.00    -0.023 NA
ATOM      4  C   UNL d   1      28.492 -14.100   1.359  0.00  0.00     0.704 C 
ATOM      5  N   UNL d   1      29.618 -14.835   1.625  0.00  0.00    -0.220 N 
ATOM      6  N   UNL d   1      27.732 -13.823   2.477  0.00  0.00    -0.190 N 
ATOM      7  H   UNL d   1      29.733 -15.115   2.582  0.00  0.00     0.178 HD
ATOM      8  H   UNL d   1      26.908 -13.252   2.270  0.00  0.00     0.184 HD
ENDROOT
BRANCH   5   9
ATOM      9  C   UNL d   1      30.523 -15.409   0.657  0.00  0.00     0.178 C 
BRANCH   9  10
ATOM     10  C   UNL d   1      29.862 -15.742  -0.670  0.00  0.00    -0.022 A 
ATOM     11  C   UNL d   1      30.243 -15.061  -1.837  0.00  0.00     0.012 A 
ATOM     12  C   UNL d   1      29.634 -15.356  -3.058  0.00  0.00     0.020 A 
ATOM     13  C   UNL d   1      28.648 -16.325  -3.084  0.00  0.00     0.116 A 
ATOM     14  N   UNL d   1      28.223 -16.978  -1.987  0.00  0.00    -0.273 NA
ATOM     15  C   UNL d   1      28.822 -16.659  -0.814  0.00  0.00     0.124 A 
ENDBRANCH   9  10
ENDBRANCH   5   9
BRANCH   6  16
ATOM     16  C   UNL d   1      28.020 -13.845   3.857  0.00  0.00     0.049 A 
ATOM     17  C   UNL d   1      28.258 -15.075   4.483  0.00  0.00     0.030 A 
ATOM     18  C   UNL d   1      28.531 -15.147   5.855  0.00  0.00     0.009 A 
ATOM     19  C   UNL d   1      28.672 -13.981   6.618  0.00  0.00    -0.056 A 
ATOM     20  C   UNL d   1      29.111 -14.073   8.051  0.00  0.00     0.049 C 
ATOM     21  C   UNL d   1      28.433 -12.740   6.008  0.00  0.00    -0.054 A 
ATOM     22  C   UNL d   1      28.476 -11.439   6.758  0.00  0.00     0.049 C 
ATOM     23  C   UNL d   1      28.100 -12.693   4.644  0.00  0.00     0.037 A 
ENDBRANCH   6  16
BRANCH   1  24
ATOM     24  C   UNL d   1      26.671 -12.848  -1.573  0.00  0.00     0.037 A 
ATOM     25  C   UNL d   1      26.938 -11.624  -2.190  0.00  0.00     0.020 A 
ATOM     26  C   UNL d   1      26.521 -11.383  -3.515  0.00  0.00     0.040 A 
ATOM     27  C   UNL d   1      25.896 -12.377  -4.300  0.00  0.00     0.101 A 
ATOM     28  C   UNL d   1      25.649 -13.622  -3.677  0.00  0.00     0.102 A 
ATOM     29  C   UNL d   1      26.036 -13.831  -2.329  0.00  0.00     0.056 A 
BRANCH  27  30
ATOM     30  O   UNL d   1      25.895 -12.056  -5.641  0.00  0.00    -0.353 OA
ATOM     31  C   UNL d   1      25.901 -10.720  -6.142  0.00  0.00     0.210 C 
ENDBRANCH  27  30
BRANCH  28  32
ATOM     32  O   UNL d   1      25.105 -14.789  -4.157  0.00  0.00    -0.353 OA
ATOM     33  C   UNL d   1      25.914 -15.512  -5.038  0.00  0.00     0.210 C 
ENDBRANCH  28  32
ENDBRANCH   1  24
TORSDOF 6
ENDMDL
