MODEL 1
REMARK VINA RESULT:    -8.849      0.000      0.000
REMARK INTER + INTRA:         -11.199
REMARK INTER:                 -10.340
REMARK INTRA:                  -0.859
REMARK CONF_INDEPENDENT:        1.492
REMARK UNBOUND:                -0.859
REMARK  5 active torsions:
REMARK  status: ('A' for Active; 'I' for Inactive)
REMARK       I    between atoms: C_2  and  N_3 
REMARK       I    between atoms: C_2  and  N_12 
REMARK    1  A    between atoms: N_3  and  O_4 
REMARK    2  A    between atoms: O_4  and  C_5 
REMARK    3  A    between atoms: C_5  and  C_6 
REMARK    4  A    between atoms: C_13  and  N_12 
REMARK    5  A    between atoms: C_15  and  C_16 
ROOT
ATOM      1  O   UNL d   1      23.702 -17.314  -1.359  0.00  0.00    -0.245 OA
ATOM      2  C   UNL d   1      24.052 -18.265  -0.661  0.00  0.00     0.340 C 
ATOM      3  N   UNL d   1      23.273 -19.409  -0.626  0.00  0.00    -0.216 N 
ATOM      4  N   UNL d   1      25.227 -18.313   0.053  0.00  0.00    -0.336 N 
ATOM      5  H   UNL d   1      23.094 -19.915   0.233  0.00  0.00     0.199 HD
ATOM      6  H   UNL d   1      25.175 -18.935   0.853  0.00  0.00     0.164 HD
ENDROOT
BRANCH   3   7
ATOM      7  O   UNL d   1      22.162 -19.241  -1.528  0.00  0.00    -0.272 OA
BRANCH   7   8
ATOM      8  C   UNL d   1      21.129 -18.459  -0.954  0.00  0.00     0.240 C 
BRANCH   8   9
ATOM      9  C   UNL d   1      20.284 -19.278  -0.004  0.00  0.00    -0.032 A 
ATOM     10  C   UNL d   1      19.228 -20.048  -0.516  0.00  0.00     0.009 A 
ATOM     11  C   UNL d   1      18.406 -20.793   0.329  0.00  0.00     0.001 A 
ATOM     12  C   UNL d   1      18.688 -20.859   1.691  0.00  0.00     0.000 A 
ATOM     13  C   UNL d   1      19.749 -20.123   2.216  0.00  0.00     0.001 A 
ATOM     14  C   UNL d   1      20.535 -19.324   1.376  0.00  0.00     0.009 A 
ENDBRANCH   8   9
ENDBRANCH   7   8
ENDBRANCH   3   7
BRANCH   4  15
ATOM     15  C   UNL d   1      26.218 -17.252   0.214  0.00  0.00     0.095 A 
ATOM     16  C   UNL d   1      27.541 -17.287  -0.522  0.00  0.00     0.037 A 
ATOM     17  C   UNL d   1      26.672 -16.049  -0.592  0.00  0.00     0.043 A 
BRANCH  17  18
ATOM     18  C   UNL d   1      26.305 -15.481  -1.959  0.00  0.00    -0.049 A 
ATOM     19  C   UNL d   1      25.099 -14.846  -2.268  0.00  0.00     0.008 A 
ATOM     20  C   UNL d   1      24.780 -14.326  -3.525  0.00  0.00     0.004 A 
ATOM     21  C   UNL d   1      25.641 -14.531  -4.584  0.00  0.00     0.042 A 
ATOM     22  C   UNL d   1      26.820 -15.221  -4.346  0.00  0.00     0.116 A 
ATOM     23  F   UNL d   1      27.614 -15.527  -5.381  0.00  0.00    -0.206 F 
ATOM     24  C   UNL d   1      27.171 -15.654  -3.059  0.00  0.00     0.049 A 
ENDBRANCH  17  18
ENDBRANCH   4  15
TORSDOF 5
ENDMDL
MODEL 2
REMARK VINA RESULT:    -8.833      0.953      1.725
REMARK INTER + INTRA:         -11.163
REMARK INTER:                 -10.324
REMARK INTRA:                  -0.839
REMARK CONF_INDEPENDENT:        1.492
REMARK UNBOUND:                -0.839
REMARK  5 active torsions:
REMARK  status: ('A' for Active; 'I' for Inactive)
REMARK       I    between atoms: C_2  and  N_3 
REMARK       I    between atoms: C_2  and  N_12 
REMARK    1  A    between atoms: N_3  and  O_4 
REMARK    2  A    between atoms: O_4  and  C_5 
REMARK    3  A    between atoms: C_5  and  C_6 
REMARK    4  A    between atoms: C_13  and  N_12 
REMARK    5  A    between atoms: C_15  and  C_16 
ROOT
ATOM      1  O   UNL d   1      23.574 -17.265  -1.348  0.00  0.00    -0.245 OA
ATOM      2  C   UNL d   1      23.921 -18.221  -0.657  0.00  0.00     0.340 C 
ATOM      3  N   UNL d   1      23.152 -19.373  -0.648  0.00  0.00    -0.216 N 
ATOM      4  N   UNL d   1      25.085 -18.268   0.074  0.00  0.00    -0.336 N 
ATOM      5  H   UNL d   1      22.965 -19.892   0.202  0.00  0.00     0.199 HD
ATOM      6  H   UNL d   1      25.027 -18.901   0.865  0.00  0.00     0.164 HD
ENDROOT
BRANCH   3   7
ATOM      7  O   UNL d   1      22.054 -19.204  -1.566  0.00  0.00    -0.272 OA
BRANCH   7   8
ATOM      8  C   UNL d   1      20.993 -18.462  -0.988  0.00  0.00     0.240 C 
BRANCH   8   9
ATOM      9  C   UNL d   1      20.161 -19.324  -0.063  0.00  0.00    -0.032 A 
ATOM     10  C   UNL d   1      20.474 -19.361   1.304  0.00  0.00     0.009 A 
ATOM     11  C   UNL d   1      19.751 -20.166   2.184  0.00  0.00     0.001 A 
ATOM     12  C   UNL d   1      18.642 -20.873   1.728  0.00  0.00     0.000 A 
ATOM     13  C   UNL d   1      18.299 -20.829   0.378  0.00  0.00     0.001 A 
ATOM     14  C   UNL d   1      19.063 -20.070  -0.518  0.00  0.00     0.009 A 
ENDBRANCH   8   9
ENDBRANCH   7   8
ENDBRANCH   3   7
BRANCH   4  15
ATOM     15  C   UNL d   1      26.065 -17.201   0.263  0.00  0.00     0.095 A 
ATOM     16  C   UNL d   1      27.456 -17.290  -0.328  0.00  0.00     0.037 A 
ATOM     17  C   UNL d   1      26.610 -16.058  -0.572  0.00  0.00     0.043 A 
BRANCH  17  18
ATOM     18  C   UNL d   1      26.391 -15.585  -2.005  0.00  0.00    -0.049 A 
ATOM     19  C   UNL d   1      27.349 -15.628  -3.021  0.00  0.00     0.008 A 
ATOM     20  C   UNL d   1      27.131 -15.194  -4.332  0.00  0.00     0.004 A 
ATOM     21  C   UNL d   1      25.941 -14.576  -4.653  0.00  0.00     0.042 A 
ATOM     22  C   UNL d   1      24.982 -14.442  -3.660  0.00  0.00     0.116 A 
ATOM     23  F   UNL d   1      23.867 -13.747  -3.923  0.00  0.00    -0.206 F 
ATOM     24  C   UNL d   1      25.178 -14.967  -2.375  0.00  0.00     0.049 A 
ENDBRANCH  17  18
ENDBRANCH   4  15
TORSDOF 5
ENDMDL
MODEL 3
REMARK VINA RESULT:    -7.336      1.153      1.255
REMARK INTER + INTRA:          -9.431
REMARK INTER:                  -8.828
REMARK INTRA:                  -0.604
REMARK CONF_INDEPENDENT:        1.492
REMARK UNBOUND:                -0.604
REMARK  5 active torsions:
REMARK  status: ('A' for Active; 'I' for Inactive)
REMARK       I    between atoms: C_2  and  N_3 
REMARK       I    between atoms: C_2  and  N_12 
REMARK    1  A    between atoms: N_3  and  O_4 
REMARK    2  A    between atoms: O_4  and  C_5 
REMARK    3  A    between atoms: C_5  and  C_6 
REMARK    4  A    between atoms: C_13  and  N_12 
REMARK    5  A    between atoms: C_15  and  C_16 
ROOT
ATOM      1  O   UNL d   1      24.331 -18.687  -0.669  0.00  0.00    -0.245 OA
ATOM      2  C   UNL d   1      23.754 -17.601  -0.712  0.00  0.00     0.340 C 
ATOM      3  N   UNL d   1      22.382 -17.564  -0.894  0.00  0.00    -0.216 N 
ATOM      4  N   UNL d   1      24.370 -16.387  -0.516  0.00  0.00    -0.336 N 
ATOM      5  H   UNL d   1      21.935 -16.886  -1.501  0.00  0.00     0.199 HD
ATOM      6  H   UNL d   1      23.883 -15.622  -0.970  0.00  0.00     0.164 HD
ENDROOT
BRANCH   3   7
ATOM      7  O   UNL d   1      21.883 -18.915  -0.944  0.00  0.00    -0.272 OA
BRANCH   7   8
ATOM      8  C   UNL d   1      20.479 -18.952  -1.129  0.00  0.00     0.240 C 
BRANCH   8   9
ATOM      9  C   UNL d   1      19.792 -19.650   0.024  0.00  0.00    -0.032 A 
ATOM     10  C   UNL d   1      18.669 -20.452  -0.232  0.00  0.00     0.009 A 
ATOM     11  C   UNL d   1      17.989 -21.088   0.807  0.00  0.00     0.001 A 
ATOM     12  C   UNL d   1      18.479 -21.011   2.108  0.00  0.00     0.000 A 
ATOM     13  C   UNL d   1      19.609 -20.241   2.379  0.00  0.00     0.001 A 
ATOM     14  C   UNL d   1      20.254 -19.551   1.345  0.00  0.00     0.009 A 
ENDBRANCH   8   9
ENDBRANCH   7   8
ENDBRANCH   3   7
BRANCH   4  15
ATOM     15  C   UNL d   1      25.795 -16.129  -0.327  0.00  0.00     0.095 A 
ATOM     16  C   UNL d   1      26.849 -17.067  -0.876  0.00  0.00     0.037 A 
ATOM     17  C   UNL d   1      26.929 -15.585  -1.176  0.00  0.00     0.043 A 
BRANCH  17  18
ATOM     18  C   UNL d   1      27.053 -15.132  -2.627  0.00  0.00    -0.049 A 
ATOM     19  C   UNL d   1      26.115 -14.352  -3.309  0.00  0.00     0.008 A 
ATOM     20  C   UNL d   1      26.245 -13.941  -4.637  0.00  0.00     0.004 A 
ATOM     21  C   UNL d   1      27.302 -14.406  -5.392  0.00  0.00     0.042 A 
ATOM     22  C   UNL d   1      28.224 -15.244  -4.783  0.00  0.00     0.116 A 
ATOM     23  F   UNL d   1      29.193 -15.794  -5.527  0.00  0.00    -0.206 F 
ATOM     24  C   UNL d   1      28.132 -15.571  -3.422  0.00  0.00     0.049 A 
ENDBRANCH  17  18
ENDBRANCH   4  15
TORSDOF 5
ENDMDL
MODEL 4
REMARK VINA RESULT:    -7.307      1.568      2.671
REMARK INTER + INTRA:          -9.367
REMARK INTER:                  -8.799
REMARK INTRA:                  -0.568
REMARK CONF_INDEPENDENT:        1.492
REMARK UNBOUND:                -0.568
REMARK  5 active torsions:
REMARK  status: ('A' for Active; 'I' for Inactive)
REMARK       I    between atoms: C_2  and  N_3 
REMARK       I    between atoms: C_2  and  N_12 
REMARK    1  A    between atoms: N_3  and  O_4 
REMARK    2  A    between atoms: O_4  and  C_5 
REMARK    3  A    between atoms: C_5  and  C_6 
REMARK    4  A    between atoms: C_13  and  N_12 
REMARK    5  A    between atoms: C_15  and  C_16 
ROOT
ATOM      1  O   UNL d   1      23.039 -16.222  -0.506  0.00  0.00    -0.245 OA
ATOM      2  C   UNL d   1      23.893 -16.938  -1.028  0.00  0.00     0.340 C 
ATOM      3  N   UNL d   1      23.887 -18.300  -0.779  0.00  0.00    -0.216 N 
ATOM      4  N   UNL d   1      24.838 -16.492  -1.922  0.00  0.00    -0.336 N 
ATOM      5  H   UNL d   1      24.739 -18.824  -0.619  0.00  0.00     0.199 HD
ATOM      6  H   UNL d   1      25.672 -17.070  -1.933  0.00  0.00     0.164 HD
ENDROOT
BRANCH   3   7
ATOM      7  O   UNL d   1      22.759 -18.613   0.061  0.00  0.00    -0.272 OA
BRANCH   7   8
ATOM      8  C   UNL d   1      21.554 -18.696  -0.683  0.00  0.00     0.240 C 
BRANCH   8   9
ATOM      9  C   UNL d   1      20.472 -19.401   0.105  0.00  0.00    -0.032 A 
ATOM     10  C   UNL d   1      20.511 -19.365   1.507  0.00  0.00     0.009 A 
ATOM     11  C   UNL d   1      19.549 -20.027   2.270  0.00  0.00     0.001 A 
ATOM     12  C   UNL d   1      18.476 -20.654   1.642  0.00  0.00     0.000 A 
ATOM     13  C   UNL d   1      18.405 -20.679   0.250  0.00  0.00     0.001 A 
ATOM     14  C   UNL d   1      19.405 -20.068  -0.517  0.00  0.00     0.009 A 
ENDBRANCH   8   9
ENDBRANCH   7   8
ENDBRANCH   3   7
BRANCH   4  15
ATOM     15  C   UNL d   1      25.088 -15.116  -2.346  0.00  0.00     0.095 A 
ATOM     16  C   UNL d   1      26.232 -14.307  -1.773  0.00  0.00     0.037 A 
ATOM     17  C   UNL d   1      26.065 -14.419  -3.274  0.00  0.00     0.043 A 
BRANCH  17  18
ATOM     18  C   UNL d   1      27.250 -14.879  -4.116  0.00  0.00    -0.049 A 
ATOM     19  C   UNL d   1      28.342 -15.609  -3.637  0.00  0.00     0.008 A 
ATOM     20  C   UNL d   1      29.418 -16.027  -4.423  0.00  0.00     0.004 A 
ATOM     21  C   UNL d   1      29.498 -15.619  -5.739  0.00  0.00     0.042 A 
ATOM     22  C   UNL d   1      28.475 -14.831  -6.244  0.00  0.00     0.116 A 
ATOM     23  F   UNL d   1      28.589 -14.333  -7.483  0.00  0.00    -0.206 F 
ATOM     24  C   UNL d   1      27.354 -14.498  -5.470  0.00  0.00     0.049 A 
ENDBRANCH  17  18
ENDBRANCH   4  15
TORSDOF 5
ENDMDL
MODEL 5
REMARK VINA RESULT:    -7.164      5.985      8.838
REMARK INTER + INTRA:          -9.273
REMARK INTER:                  -8.656
REMARK INTRA:                  -0.617
REMARK CONF_INDEPENDENT:        1.492
REMARK UNBOUND:                -0.617
REMARK  5 active torsions:
REMARK  status: ('A' for Active; 'I' for Inactive)
REMARK       I    between atoms: C_2  and  N_3 
REMARK       I    between atoms: C_2  and  N_12 
REMARK    1  A    between atoms: N_3  and  O_4 
REMARK    2  A    between atoms: O_4  and  C_5 
REMARK    3  A    between atoms: C_5  and  C_6 
REMARK    4  A    between atoms: C_13  and  N_12 
REMARK    5  A    between atoms: C_15  and  C_16 
ROOT
ATOM      1  O   UNL d   1      27.021 -13.641   2.098  0.00  0.00    -0.245 OA
ATOM      2  C   UNL d   1      27.724 -14.623   2.333  0.00  0.00     0.340 C 
ATOM      3  N   UNL d   1      28.159 -14.857   3.627  0.00  0.00    -0.216 N 
ATOM      4  N   UNL d   1      28.064 -15.576   1.401  0.00  0.00    -0.336 N 
ATOM      5  H   UNL d   1      29.100 -15.172   3.832  0.00  0.00     0.199 HD
ATOM      6  H   UNL d   1      28.929 -16.055   1.627  0.00  0.00     0.164 HD
ENDROOT
BRANCH   3   7
ATOM      7  O   UNL d   1      27.604 -13.847   4.493  0.00  0.00    -0.272 OA
BRANCH   7   8
ATOM      8  C   UNL d   1      28.585 -12.911   4.908  0.00  0.00     0.240 C 
BRANCH   8   9
ATOM      9  C   UNL d   1      28.736 -12.907   6.413  0.00  0.00    -0.032 A 
ATOM     10  C   UNL d   1      28.572 -11.702   7.114  0.00  0.00     0.009 A 
ATOM     11  C   UNL d   1      28.733 -11.649   8.499  0.00  0.00     0.001 A 
ATOM     12  C   UNL d   1      28.964 -12.820   9.216  0.00  0.00     0.000 A 
ATOM     13  C   UNL d   1      29.105 -14.031   8.541  0.00  0.00     0.001 A 
ATOM     14  C   UNL d   1      29.006 -14.073   7.144  0.00  0.00     0.009 A 
ENDBRANCH   8   9
ENDBRANCH   7   8
ENDBRANCH   3   7
BRANCH   4  15
ATOM     15  C   UNL d   1      27.764 -15.573  -0.028  0.00  0.00     0.095 A 
ATOM     16  C   UNL d   1      27.958 -16.810  -0.880  0.00  0.00     0.037 A 
ATOM     17  C   UNL d   1      26.635 -16.075  -0.909  0.00  0.00     0.043 A 
BRANCH  17  18
ATOM     18  C   UNL d   1      25.351 -16.857  -0.655  0.00  0.00    -0.049 A 
ATOM     19  C   UNL d   1      25.284 -18.226  -0.381  0.00  0.00     0.008 A 
ATOM     20  C   UNL d   1      24.099 -18.927  -0.145  0.00  0.00     0.004 A 
ATOM     21  C   UNL d   1      22.888 -18.284  -0.293  0.00  0.00     0.042 A 
ATOM     22  C   UNL d   1      22.897 -16.941  -0.638  0.00  0.00     0.116 A 
ATOM     23  F   UNL d   1      21.733 -16.328  -0.894  0.00  0.00    -0.206 F 
ATOM     24  C   UNL d   1      24.096 -16.226  -0.777  0.00  0.00     0.049 A 
ENDBRANCH  17  18
ENDBRANCH   4  15
TORSDOF 5
ENDMDL
MODEL 6
REMARK VINA RESULT:    -7.121      2.755      3.835
REMARK INTER + INTRA:          -9.216
REMARK INTER:                  -8.612
REMARK INTRA:                  -0.604
REMARK CONF_INDEPENDENT:        1.492
REMARK UNBOUND:                -0.604
REMARK  5 active torsions:
REMARK  status: ('A' for Active; 'I' for Inactive)
REMARK       I    between atoms: C_2  and  N_3 
REMARK       I    between atoms: C_2  and  N_12 
REMARK    1  A    between atoms: N_3  and  O_4 
REMARK    2  A    between atoms: O_4  and  C_5 
REMARK    3  A    between atoms: C_5  and  C_6 
REMARK    4  A    between atoms: C_13  and  N_12 
REMARK    5  A    between atoms: C_15  and  C_16 
ROOT
ATOM      1  O   UNL d   1      24.007 -17.744  -2.031  0.00  0.00    -0.245 OA
ATOM      2  C   UNL d   1      24.442 -17.882  -0.889  0.00  0.00     0.340 C 
ATOM      3  N   UNL d   1      23.792 -18.731  -0.009  0.00  0.00    -0.216 N 
ATOM      4  N   UNL d   1      25.598 -17.300  -0.423  0.00  0.00    -0.336 N 
ATOM      5  H   UNL d   1      23.651 -18.494   0.966  0.00  0.00     0.199 HD
ATOM      6  H   UNL d   1      25.596 -17.174   0.584  0.00  0.00     0.164 HD
ENDROOT
BRANCH   3   7
ATOM      7  O   UNL d   1      22.691 -19.357  -0.696  0.00  0.00    -0.272 OA
BRANCH   7   8
ATOM      8  C   UNL d   1      21.498 -18.602  -0.578  0.00  0.00     0.240 C 
BRANCH   8   9
ATOM      9  C   UNL d   1      20.431 -19.376   0.165  0.00  0.00    -0.032 A 
ATOM     10  C   UNL d   1      20.451 -19.395   1.568  0.00  0.00     0.009 A 
ATOM     11  C   UNL d   1      19.504 -20.121   2.290  0.00  0.00     0.001 A 
ATOM     12  C   UNL d   1      18.462 -20.760   1.623  0.00  0.00     0.000 A 
ATOM     13  C   UNL d   1      18.409 -20.731   0.230  0.00  0.00     0.001 A 
ATOM     14  C   UNL d   1      19.397 -20.055  -0.497  0.00  0.00     0.009 A 
ENDBRANCH   8   9
ENDBRANCH   7   8
ENDBRANCH   3   7
BRANCH   4  15
ATOM     15  C   UNL d   1      26.464 -16.351  -1.119  0.00  0.00     0.095 A 
ATOM     16  C   UNL d   1      25.952 -15.001  -1.576  0.00  0.00     0.037 A 
ATOM     17  C   UNL d   1      27.218 -15.087  -0.751  0.00  0.00     0.043 A 
BRANCH  17  18
ATOM     18  C   UNL d   1      27.334 -14.244   0.514  0.00  0.00    -0.049 A 
ATOM     19  C   UNL d   1      27.635 -14.739   1.786  0.00  0.00     0.008 A 
ATOM     20  C   UNL d   1      27.742 -13.951   2.935  0.00  0.00     0.004 A 
ATOM     21  C   UNL d   1      27.428 -12.609   2.871  0.00  0.00     0.042 A 
ATOM     22  C   UNL d   1      27.051 -12.082   1.645  0.00  0.00     0.116 A 
ATOM     23  F   UNL d   1      26.637 -10.809   1.584  0.00  0.00    -0.206 F 
ATOM     24  C   UNL d   1      27.041 -12.864   0.481  0.00  0.00     0.049 A 
ENDBRANCH  17  18
ENDBRANCH   4  15
TORSDOF 5
ENDMDL
MODEL 7
REMARK VINA RESULT:    -6.955      4.509      6.790
REMARK INTER + INTRA:          -9.153
REMARK INTER:                  -8.446
REMARK INTRA:                  -0.707
REMARK CONF_INDEPENDENT:        1.492
REMARK UNBOUND:                -0.707
REMARK  5 active torsions:
REMARK  status: ('A' for Active; 'I' for Inactive)
REMARK       I    between atoms: C_2  and  N_3 
REMARK       I    between atoms: C_2  and  N_12 
REMARK    1  A    between atoms: N_3  and  O_4 
REMARK    2  A    between atoms: O_4  and  C_5 
REMARK    3  A    between atoms: C_5  and  C_6 
REMARK    4  A    between atoms: C_13  and  N_12 
REMARK    5  A    between atoms: C_15  and  C_16 
ROOT
ATOM      1  O   UNL d   1      26.774 -15.565  -5.886  0.00  0.00    -0.245 OA
ATOM      2  C   UNL d   1      27.437 -15.061  -4.981  0.00  0.00     0.340 C 
ATOM      3  N   UNL d   1      26.829 -14.766  -3.772  0.00  0.00    -0.216 N 
ATOM      4  N   UNL d   1      28.791 -14.825  -5.049  0.00  0.00    -0.336 N 
ATOM      5  H   UNL d   1      27.023 -13.911  -3.264  0.00  0.00     0.199 HD
ATOM      6  H   UNL d   1      29.090 -14.074  -4.436  0.00  0.00     0.164 HD
ENDROOT
BRANCH   3   7
ATOM      7  O   UNL d   1      25.456 -15.199  -3.826  0.00  0.00    -0.272 OA
BRANCH   7   8
ATOM      8  C   UNL d   1      24.764 -14.910  -2.623  0.00  0.00     0.240 C 
BRANCH   8   9
ATOM      9  C   UNL d   1      24.833 -16.073  -1.659  0.00  0.00    -0.032 A 
ATOM     10  C   UNL d   1      26.074 -16.438  -1.114  0.00  0.00     0.009 A 
ATOM     11  C   UNL d   1      26.185 -17.524  -0.245  0.00  0.00     0.001 A 
ATOM     12  C   UNL d   1      25.042 -18.201   0.171  0.00  0.00     0.000 A 
ATOM     13  C   UNL d   1      23.796 -17.837  -0.339  0.00  0.00     0.001 A 
ATOM     14  C   UNL d   1      23.693 -16.788  -1.261  0.00  0.00     0.009 A 
ENDBRANCH   8   9
ENDBRANCH   7   8
ENDBRANCH   3   7
BRANCH   4  15
ATOM     15  C   UNL d   1      29.674 -15.017  -6.196  0.00  0.00     0.095 A 
ATOM     16  C   UNL d   1      31.167 -15.203  -6.023  0.00  0.00     0.037 A 
ATOM     17  C   UNL d   1      30.375 -16.192  -6.852  0.00  0.00     0.043 A 
BRANCH  17  18
ATOM     18  C   UNL d   1      30.488 -17.679  -6.534  0.00  0.00    -0.049 A 
ATOM     19  C   UNL d   1      30.408 -18.236  -5.255  0.00  0.00     0.008 A 
ATOM     20  C   UNL d   1      30.509 -19.602  -4.980  0.00  0.00     0.004 A 
ATOM     21  C   UNL d   1      30.817 -20.479  -6.000  0.00  0.00     0.042 A 
ATOM     22  C   UNL d   1      30.979 -19.967  -7.278  0.00  0.00     0.116 A 
ATOM     23  F   UNL d   1      31.386 -20.785  -8.259  0.00  0.00    -0.206 F 
ATOM     24  C   UNL d   1      30.780 -18.607  -7.555  0.00  0.00     0.049 A 
ENDBRANCH  17  18
ENDBRANCH   4  15
TORSDOF 5
ENDMDL
MODEL 8
REMARK VINA RESULT:    -6.928      5.009      6.877
REMARK INTER + INTRA:          -9.158
REMARK INTER:                  -8.419
REMARK INTRA:                  -0.739
REMARK CONF_INDEPENDENT:        1.492
REMARK UNBOUND:                -0.739
REMARK  5 active torsions:
REMARK  status: ('A' for Active; 'I' for Inactive)
REMARK       I    between atoms: C_2  and  N_3 
REMARK       I    between atoms: C_2  and  N_12 
REMARK    1  A    between atoms: N_3  and  O_4 
REMARK    2  A    between atoms: O_4  and  C_5 
REMARK    3  A    between atoms: C_5  and  C_6 
REMARK    4  A    between atoms: C_13  and  N_12 
REMARK    5  A    between atoms: C_15  and  C_16 
ROOT
ATOM      1  O   UNL d   1      27.037 -15.412  -0.258  0.00  0.00    -0.245 OA
ATOM      2  C   UNL d   1      28.047 -15.991   0.138  0.00  0.00     0.340 C 
ATOM      3  N   UNL d   1      28.157 -17.362  -0.027  0.00  0.00    -0.216 N 
ATOM      4  N   UNL d   1      29.141 -15.360   0.683  0.00  0.00    -0.336 N 
ATOM      5  H   UNL d   1      28.538 -17.964   0.693  0.00  0.00     0.199 HD
ATOM      6  H   UNL d   1      29.673 -15.961   1.303  0.00  0.00     0.164 HD
ENDROOT
BRANCH   3   7
ATOM      7  O   UNL d   1      26.994 -17.839  -0.732  0.00  0.00    -0.272 OA
BRANCH   7   8
ATOM      8  C   UNL d   1      26.057 -18.440   0.145  0.00  0.00     0.240 C 
BRANCH   8   9
ATOM      9  C   UNL d   1      24.638 -18.075  -0.234  0.00  0.00    -0.032 A 
ATOM     10  C   UNL d   1      23.658 -19.079  -0.264  0.00  0.00     0.009 A 
ATOM     11  C   UNL d   1      22.346 -18.789  -0.638  0.00  0.00     0.001 A 
ATOM     12  C   UNL d   1      21.970 -17.473  -0.894  0.00  0.00     0.000 A 
ATOM     13  C   UNL d   1      22.924 -16.458  -0.844  0.00  0.00     0.001 A 
ATOM     14  C   UNL d   1      24.255 -16.758  -0.530  0.00  0.00     0.009 A 
ENDBRANCH   8   9
ENDBRANCH   7   8
ENDBRANCH   3   7
BRANCH   4  15
ATOM     15  C   UNL d   1      29.290 -13.940   0.993  0.00  0.00     0.095 A 
ATOM     16  C   UNL d   1      28.095 -13.072   1.324  0.00  0.00     0.037 A 
ATOM     17  C   UNL d   1      29.293 -13.090   2.249  0.00  0.00     0.043 A 
BRANCH  17  18
ATOM     18  C   UNL d   1      29.077 -13.376   3.731  0.00  0.00    -0.049 A 
ATOM     19  C   UNL d   1      29.397 -14.576   4.374  0.00  0.00     0.008 A 
ATOM     20  C   UNL d   1      29.198 -14.820   5.735  0.00  0.00     0.004 A 
ATOM     21  C   UNL d   1      28.543 -13.882   6.505  0.00  0.00     0.042 A 
ATOM     22  C   UNL d   1      28.139 -12.702   5.898  0.00  0.00     0.116 A 
ATOM     23  F   UNL d   1      27.405 -11.828   6.601  0.00  0.00    -0.206 F 
ATOM     24  C   UNL d   1      28.431 -12.430   4.554  0.00  0.00     0.049 A 
ENDBRANCH  17  18
ENDBRANCH   4  15
TORSDOF 5
ENDMDL
MODEL 9
REMARK VINA RESULT:    -6.833      4.086      6.473
REMARK INTER + INTRA:          -9.312
REMARK INTER:                  -8.324
REMARK INTRA:                  -0.987
REMARK CONF_INDEPENDENT:        1.492
REMARK UNBOUND:                -0.987
REMARK  5 active torsions:
REMARK  status: ('A' for Active; 'I' for Inactive)
REMARK       I    between atoms: C_2  and  N_3 
REMARK       I    between atoms: C_2  and  N_12 
REMARK    1  A    between atoms: N_3  and  O_4 
REMARK    2  A    between atoms: O_4  and  C_5 
REMARK    3  A    between atoms: C_5  and  C_6 
REMARK    4  A    between atoms: C_13  and  N_12 
REMARK    5  A    between atoms: C_15  and  C_16 
ROOT
ATOM      1  O   UNL d   1      26.999 -15.575  -5.098  0.00  0.00    -0.245 OA
ATOM      2  C   UNL d   1      26.670 -14.418  -5.354  0.00  0.00     0.340 C 
ATOM      3  N   UNL d   1      25.530 -13.887  -4.774  0.00  0.00    -0.216 N 
ATOM      4  N   UNL d   1      27.405 -13.557  -6.136  0.00  0.00    -0.336 N 
ATOM      5  H   UNL d   1      24.881 -13.306  -5.291  0.00  0.00     0.199 HD
ATOM      6  H   UNL d   1      26.836 -12.836  -6.568  0.00  0.00     0.164 HD
ENDROOT
BRANCH   3   7
ATOM      7  O   UNL d   1      24.962 -14.870  -3.886  0.00  0.00    -0.272 OA
BRANCH   7   8
ATOM      8  C   UNL d   1      25.368 -14.664  -2.543  0.00  0.00     0.240 C 
BRANCH   8   9
ATOM      9  C   UNL d   1      25.141 -15.903  -1.706  0.00  0.00    -0.032 A 
ATOM     10  C   UNL d   1      26.249 -16.645  -1.268  0.00  0.00     0.009 A 
ATOM     11  C   UNL d   1      26.082 -17.811  -0.520  0.00  0.00     0.001 A 
ATOM     12  C   UNL d   1      24.808 -18.199  -0.114  0.00  0.00     0.000 A 
ATOM     13  C   UNL d   1      23.697 -17.461  -0.516  0.00  0.00     0.001 A 
ATOM     14  C   UNL d   1      23.860 -16.326  -1.321  0.00  0.00     0.009 A 
ENDBRANCH   8   9
ENDBRANCH   7   8
ENDBRANCH   3   7
BRANCH   4  15
ATOM     15  C   UNL d   1      28.625 -13.851  -6.884  0.00  0.00     0.095 A 
ATOM     16  C   UNL d   1      29.996 -13.571  -6.304  0.00  0.00     0.037 A 
ATOM     17  C   UNL d   1      29.681 -14.940  -6.868  0.00  0.00     0.043 A 
BRANCH  17  18
ATOM     18  C   UNL d   1      29.932 -16.170  -6.002  0.00  0.00    -0.049 A 
ATOM     19  C   UNL d   1      29.813 -16.211  -4.609  0.00  0.00     0.008 A 
ATOM     20  C   UNL d   1      30.042 -17.348  -3.830  0.00  0.00     0.004 A 
ATOM     21  C   UNL d   1      30.524 -18.494  -4.427  0.00  0.00     0.042 A 
ATOM     22  C   UNL d   1      30.729 -18.484  -5.798  0.00  0.00     0.116 A 
ATOM     23  F   UNL d   1      31.301 -19.548  -6.378  0.00  0.00    -0.206 F 
ATOM     24  C   UNL d   1      30.405 -17.366  -6.580  0.00  0.00     0.049 A 
ENDBRANCH  17  18
ENDBRANCH   4  15
TORSDOF 5
ENDMDL
