MODEL 1
REMARK VINA RESULT:    -7.733      0.000      0.000
REMARK INTER + INTRA:         -11.187
REMARK INTER:                  -9.523
REMARK INTRA:                  -1.664
REMARK CONF_INDEPENDENT:        1.790
REMARK UNBOUND:                -1.664
REMARK  6 active torsions:
REMARK  status: ('A' for Active; 'I' for Inactive)
REMARK       I    between atoms: C_2  and  N_3 
REMARK    1  A    between atoms: C_2  and  C_19 
REMARK    2  A    between atoms: N_3  and  C_4 
REMARK    3  A    between atoms: C_7  and  N_8 
REMARK    4  A    between atoms: C_14  and  N_15 
REMARK    5  A    between atoms: C_21  and  N_22 
REMARK    6  A    between atoms: C_27  and  N_28 
ROOT
ATOM      1  O   UNL d   1      26.965 -16.301  -2.604  0.00  0.00    -0.267 OA
ATOM      2  C   UNL d   1      25.764 -16.081  -2.424  0.00  0.00     0.258 C 
ATOM      3  N   UNL d   1      25.071 -15.025  -3.022  0.00  0.00    -0.323 N 
ATOM      4  H   UNL d   1      24.127 -14.817  -2.714  0.00  0.00     0.169 HD
ENDROOT
BRANCH   3   5
ATOM      5  C   UNL d   1      25.698 -14.110  -3.908  0.00  0.00     0.037 A 
ATOM      6  C   UNL d   1      25.366 -12.761  -3.918  0.00  0.00     0.032 A 
ATOM      7  C   UNL d   1      25.978 -11.887  -4.847  0.00  0.00     0.034 A 
ATOM      8  C   UNL d   1      26.961 -12.303  -5.784  0.00  0.00     0.063 A 
ATOM      9  C   UNL d   1      27.247 -13.693  -5.772  0.00  0.00     0.131 A 
ATOM     10  C   UNL d   1      26.638 -14.554  -4.832  0.00  0.00     0.068 A 
BRANCH   8  11
ATOM     11  N   UNL d   1      27.586 -11.328  -6.555  0.00  0.00    -0.376 N 
ATOM     12  C   UNL d   1      27.096 -10.867  -7.872  0.00  0.00     0.150 C 
ATOM     13  C   UNL d   1      28.258 -10.864  -8.904  0.00  0.00     0.252 C 
ATOM     14  N   UNL d   1      29.414 -10.042  -8.373  0.00  0.00    -0.072 N 
ATOM     15  C   UNL d   1      29.885 -10.546  -7.027  0.00  0.00     0.252 C 
ATOM     16  H   UNL d   1      29.130  -9.058  -8.308  0.00  0.00     0.277 HD
ATOM     17  H   UNL d   1      30.188 -10.092  -9.047  0.00  0.00     0.277 HD
ATOM     18  C   UNL d   1      28.721 -10.560  -6.008  0.00  0.00     0.150 C 
ENDBRANCH   8  11
BRANCH   9  19
ATOM     19  N   UNL d   1      28.205 -14.363  -6.676  0.00  0.00    -0.113 N 
ATOM     20  O   UNL d   1      28.727 -13.722  -7.589  0.00  0.00    -0.532 OA
ATOM     21  O   UNL d   1      28.446 -15.563  -6.491  0.00  0.00    -0.532 OA
ENDBRANCH   9  19
ENDBRANCH   3   5
BRANCH   2  22
ATOM     22  C   UNL d   1      25.027 -16.937  -1.454  0.00  0.00     0.061 A 
ATOM     23  C   UNL d   1      23.735 -17.377  -1.813  0.00  0.00     0.055 A 
ATOM     24  C   UNL d   1      22.987 -18.140  -0.905  0.00  0.00     0.104 A 
ATOM     25  C   UNL d   1      23.558 -18.583   0.287  0.00  0.00     0.038 A 
ATOM     26  C   UNL d   1      24.865 -18.198   0.601  0.00  0.00     0.033 A 
ATOM     27  C   UNL d   1      25.627 -17.354  -0.234  0.00  0.00     0.046 A 
BRANCH  24  28
ATOM     28  N   UNL d   1      21.555 -18.374  -1.144  0.00  0.00    -0.116 N 
ATOM     29  O   UNL d   1      21.229 -19.463  -1.640  0.00  0.00    -0.532 OA
ATOM     30  O   UNL d   1      20.768 -17.451  -0.895  0.00  0.00    -0.532 OA
ENDBRANCH  24  28
BRANCH  27  31
ATOM     31  N   UNL d   1      26.865 -16.971   0.246  0.00  0.00    -0.380 N 
ATOM     32  C   UNL d   1      27.190 -15.639   0.730  0.00  0.00     0.123 C 
ATOM     33  C   UNL d   1      28.528 -15.321   0.078  0.00  0.00     0.021 C 
ATOM     34  C   UNL d   1      29.221 -16.674   0.043  0.00  0.00     0.021 C 
ATOM     35  C   UNL d   1      28.087 -17.698  -0.124  0.00  0.00     0.123 C 
ENDBRANCH  27  31
ENDBRANCH   2  22
TORSDOF 6
ENDMDL
MODEL 2
REMARK VINA RESULT:    -7.531      5.155      8.873
REMARK INTER + INTRA:         -10.485
REMARK INTER:                  -9.321
REMARK INTRA:                  -1.165
REMARK CONF_INDEPENDENT:        1.790
REMARK UNBOUND:                -1.165
REMARK  6 active torsions:
REMARK  status: ('A' for Active; 'I' for Inactive)
REMARK       I    between atoms: C_2  and  N_3 
REMARK    1  A    between atoms: C_2  and  C_19 
REMARK    2  A    between atoms: N_3  and  C_4 
REMARK    3  A    between atoms: C_7  and  N_8 
REMARK    4  A    between atoms: C_14  and  N_15 
REMARK    5  A    between atoms: C_21  and  N_22 
REMARK    6  A    between atoms: C_27  and  N_28 
ROOT
ATOM      1  O   UNL d   1      26.746 -15.200   0.745  0.00  0.00    -0.267 OA
ATOM      2  C   UNL d   1      26.801 -14.365  -0.161  0.00  0.00     0.258 C 
ATOM      3  N   UNL d   1      27.076 -13.010   0.050  0.00  0.00    -0.323 N 
ATOM      4  H   UNL d   1      26.959 -12.357  -0.719  0.00  0.00     0.169 HD
ENDROOT
BRANCH   3   5
ATOM      5  C   UNL d   1      27.329 -12.478   1.341  0.00  0.00     0.037 A 
ATOM      6  C   UNL d   1      28.049 -13.187   2.294  0.00  0.00     0.032 A 
ATOM      7  C   UNL d   1      28.241 -12.645   3.587  0.00  0.00     0.034 A 
ATOM      8  C   UNL d   1      27.754 -11.370   3.981  0.00  0.00     0.063 A 
ATOM      9  C   UNL d   1      26.991 -10.691   2.997  0.00  0.00     0.131 A 
ATOM     10  C   UNL d   1      26.816 -11.237   1.706  0.00  0.00     0.068 A 
BRANCH   8  11
ATOM     11  N   UNL d   1      28.120 -10.889   5.235  0.00  0.00    -0.376 N 
ATOM     12  C   UNL d   1      28.707  -9.554   5.475  0.00  0.00     0.150 C 
ATOM     13  C   UNL d   1      29.972  -9.678   6.370  0.00  0.00     0.252 C 
ATOM     14  N   UNL d   1      29.628 -10.420   7.644  0.00  0.00    -0.072 N 
ATOM     15  C   UNL d   1      29.032 -11.779   7.355  0.00  0.00     0.252 C 
ATOM     16  H   UNL d   1      28.978  -9.854   8.202  0.00  0.00     0.277 HD
ATOM     17  H   UNL d   1      30.486 -10.532   8.199  0.00  0.00     0.277 HD
ATOM     18  C   UNL d   1      27.782 -11.650   6.453  0.00  0.00     0.150 C 
ENDBRANCH   8  11
BRANCH   9  19
ATOM     19  N   UNL d   1      26.355  -9.371   3.188  0.00  0.00    -0.113 N 
ATOM     20  O   UNL d   1      27.029  -8.428   3.605  0.00  0.00    -0.532 OA
ATOM     21  O   UNL d   1      25.149  -9.258   2.931  0.00  0.00    -0.532 OA
ENDBRANCH   9  19
ENDBRANCH   3   5
BRANCH   2  22
ATOM     22  C   UNL d   1      26.478 -14.802  -1.547  0.00  0.00     0.061 A 
ATOM     23  C   UNL d   1      27.194 -14.208  -2.609  0.00  0.00     0.055 A 
ATOM     24  C   UNL d   1      26.882 -14.554  -3.932  0.00  0.00     0.104 A 
ATOM     25  C   UNL d   1      25.972 -15.575  -4.201  0.00  0.00     0.038 A 
ATOM     26  C   UNL d   1      25.319 -16.205  -3.137  0.00  0.00     0.033 A 
ATOM     27  C   UNL d   1      25.527 -15.831  -1.793  0.00  0.00     0.046 A 
BRANCH  24  28
ATOM     28  N   UNL d   1      27.416 -13.758  -5.047  0.00  0.00    -0.116 N 
ATOM     29  O   UNL d   1      27.710 -14.360  -6.090  0.00  0.00    -0.532 OA
ATOM     30  O   UNL d   1      27.600 -12.547  -4.858  0.00  0.00    -0.532 OA
ENDBRANCH  24  28
BRANCH  27  31
ATOM     31  N   UNL d   1      24.743 -16.466  -0.850  0.00  0.00    -0.380 N 
ATOM     32  C   UNL d   1      25.148 -17.637  -0.088  0.00  0.00     0.123 C 
ATOM     33  C   UNL d   1      23.945 -18.566  -0.161  0.00  0.00     0.021 C 
ATOM     34  C   UNL d   1      22.769 -17.602  -0.147  0.00  0.00     0.021 C 
ATOM     35  C   UNL d   1      23.280 -16.340  -0.861  0.00  0.00     0.123 C 
ENDBRANCH  27  31
ENDBRANCH   2  22
TORSDOF 6
ENDMDL
MODEL 3
REMARK VINA RESULT:    -7.518      1.298      1.596
REMARK INTER + INTRA:         -11.103
REMARK INTER:                  -9.308
REMARK INTRA:                  -1.796
REMARK CONF_INDEPENDENT:        1.790
REMARK UNBOUND:                -1.796
REMARK  6 active torsions:
REMARK  status: ('A' for Active; 'I' for Inactive)
REMARK       I    between atoms: C_2  and  N_3 
REMARK    1  A    between atoms: C_2  and  C_19 
REMARK    2  A    between atoms: N_3  and  C_4 
REMARK    3  A    between atoms: C_7  and  N_8 
REMARK    4  A    between atoms: C_14  and  N_15 
REMARK    5  A    between atoms: C_21  and  N_22 
REMARK    6  A    between atoms: C_27  and  N_28 
ROOT
ATOM      1  O   UNL d   1      24.475 -14.829  -2.824  0.00  0.00    -0.267 OA
ATOM      2  C   UNL d   1      25.231 -15.728  -2.446  0.00  0.00     0.258 C 
ATOM      3  N   UNL d   1      26.512 -15.933  -2.968  0.00  0.00    -0.323 N 
ATOM      4  H   UNL d   1      27.017 -16.777  -2.717  0.00  0.00     0.169 HD
ENDROOT
BRANCH   3   5
ATOM      5  C   UNL d   1      27.061 -15.106  -3.982  0.00  0.00     0.037 A 
ATOM      6  C   UNL d   1      26.552 -13.841  -4.246  0.00  0.00     0.032 A 
ATOM      7  C   UNL d   1      27.095 -13.063  -5.296  0.00  0.00     0.034 A 
ATOM      8  C   UNL d   1      28.178 -13.491  -6.109  0.00  0.00     0.063 A 
ATOM      9  C   UNL d   1      28.647 -14.802  -5.837  0.00  0.00     0.131 A 
ATOM     10  C   UNL d   1      28.106 -15.565  -4.778  0.00  0.00     0.068 A 
BRANCH   8  11
ATOM     11  N   UNL d   1      28.710 -12.585  -7.021  0.00  0.00    -0.376 N 
ATOM     12  C   UNL d   1      28.036 -12.167  -8.268  0.00  0.00     0.150 C 
ATOM     13  C   UNL d   1      29.019 -12.270  -9.469  0.00  0.00     0.252 C 
ATOM     14  N   UNL d   1      30.276 -11.478  -9.171  0.00  0.00    -0.072 N 
ATOM     15  C   UNL d   1      30.934 -11.938  -7.890  0.00  0.00     0.252 C 
ATOM     16  H   UNL d   1      30.044 -10.480  -9.118  0.00  0.00     0.277 HD
ATOM     17  H   UNL d   1      30.930 -11.598  -9.955  0.00  0.00     0.277 HD
ATOM     18  C   UNL d   1      29.947 -11.846  -6.702  0.00  0.00     0.150 C 
ENDBRANCH   8  11
BRANCH   9  19
ATOM     19  N   UNL d   1      29.739 -15.475  -6.571  0.00  0.00    -0.113 N 
ATOM     20  O   UNL d   1      29.852 -16.699  -6.502  0.00  0.00    -0.532 OA
ATOM     21  O   UNL d   1      30.521 -14.776  -7.230  0.00  0.00    -0.532 OA
ENDBRANCH   9  19
ENDBRANCH   3   5
BRANCH   2  22
ATOM     22  C   UNL d   1      24.726 -16.700  -1.438  0.00  0.00     0.061 A 
ATOM     23  C   UNL d   1      23.445 -17.258  -1.645  0.00  0.00     0.055 A 
ATOM     24  C   UNL d   1      22.911 -18.136  -0.691  0.00  0.00     0.104 A 
ATOM     25  C   UNL d   1      23.686 -18.570   0.384  0.00  0.00     0.038 A 
ATOM     26  C   UNL d   1      24.980 -18.064   0.540  0.00  0.00     0.033 A 
ATOM     27  C   UNL d   1      25.530 -17.107  -0.339  0.00  0.00     0.046 A 
BRANCH  24  28
ATOM     28  N   UNL d   1      21.490 -18.509  -0.747  0.00  0.00    -0.116 N 
ATOM     29  O   UNL d   1      20.665 -17.594  -0.895  0.00  0.00    -0.532 OA
ATOM     30  O   UNL d   1      21.196 -19.701  -0.580  0.00  0.00    -0.532 OA
ENDBRANCH  24  28
BRANCH  27  31
ATOM     31  N   UNL d   1      26.779 -16.618  -0.010  0.00  0.00    -0.380 N 
ATOM     32  C   UNL d   1      27.072 -15.226   0.293  0.00  0.00     0.123 C 
ATOM     33  C   UNL d   1      28.336 -14.929  -0.499  0.00  0.00     0.021 C 
ATOM     34  C   UNL d   1      29.094 -16.246  -0.439  0.00  0.00     0.021 C 
ATOM     35  C   UNL d   1      28.005 -17.330  -0.395  0.00  0.00     0.123 C 
ENDBRANCH  27  31
ENDBRANCH   2  22
TORSDOF 6
ENDMDL
MODEL 4
REMARK VINA RESULT:    -7.430      1.576      2.072
REMARK INTER + INTRA:         -10.689
REMARK INTER:                  -9.220
REMARK INTRA:                  -1.469
REMARK CONF_INDEPENDENT:        1.790
REMARK UNBOUND:                -1.469
REMARK  6 active torsions:
REMARK  status: ('A' for Active; 'I' for Inactive)
REMARK       I    between atoms: C_2  and  N_3 
REMARK    1  A    between atoms: C_2  and  C_19 
REMARK    2  A    between atoms: N_3  and  C_4 
REMARK    3  A    between atoms: C_7  and  N_8 
REMARK    4  A    between atoms: C_14  and  N_15 
REMARK    5  A    between atoms: C_21  and  N_22 
REMARK    6  A    between atoms: C_27  and  N_28 
ROOT
ATOM      1  O   UNL d   1      26.190 -14.505  -1.639  0.00  0.00    -0.267 OA
ATOM      2  C   UNL d   1      25.869 -15.578  -2.158  0.00  0.00     0.258 C 
ATOM      3  N   UNL d   1      26.020 -15.856  -3.520  0.00  0.00    -0.323 N 
ATOM      4  H   UNL d   1      25.600 -16.697  -3.901  0.00  0.00     0.169 HD
ENDROOT
BRANCH   3   5
ATOM      5  C   UNL d   1      26.574 -14.918  -4.430  0.00  0.00     0.037 A 
ATOM      6  C   UNL d   1      27.721 -15.200  -5.161  0.00  0.00     0.032 A 
ATOM      7  C   UNL d   1      28.271 -14.223  -6.023  0.00  0.00     0.034 A 
ATOM      8  C   UNL d   1      27.696 -12.939  -6.220  0.00  0.00     0.063 A 
ATOM      9  C   UNL d   1      26.549 -12.671  -5.430  0.00  0.00     0.131 A 
ATOM     10  C   UNL d   1      26.001 -13.659  -4.580  0.00  0.00     0.068 A 
BRANCH   8  11
ATOM     11  N   UNL d   1      28.252 -12.114  -7.193  0.00  0.00    -0.376 N 
ATOM     12  C   UNL d   1      28.527 -12.535  -8.583  0.00  0.00     0.150 C 
ATOM     13  C   UNL d   1      29.975 -12.138  -8.986  0.00  0.00     0.252 C 
ATOM     14  N   UNL d   1      30.184 -10.656  -8.756  0.00  0.00    -0.072 N 
ATOM     15  C   UNL d   1      29.894 -10.268  -7.324  0.00  0.00     0.252 C 
ATOM     16  H   UNL d   1      29.587 -10.125  -9.399  0.00  0.00     0.277 HD
ATOM     17  H   UNL d   1      31.159 -10.424  -8.983  0.00  0.00     0.277 HD
ATOM     18  C   UNL d   1      28.456 -10.677  -6.924  0.00  0.00     0.150 C 
ENDBRANCH   8  11
BRANCH   9  19
ATOM     19  N   UNL d   1      25.802 -11.396  -5.436  0.00  0.00    -0.113 N 
ATOM     20  O   UNL d   1      25.794 -10.692  -4.425  0.00  0.00    -0.532 OA
ATOM     21  O   UNL d   1      25.190 -11.079  -6.465  0.00  0.00    -0.532 OA
ENDBRANCH   9  19
ENDBRANCH   3   5
BRANCH   2  22
ATOM     22  C   UNL d   1      25.209 -16.605  -1.307  0.00  0.00     0.061 A 
ATOM     23  C   UNL d   1      23.904 -17.014  -1.660  0.00  0.00     0.055 A 
ATOM     24  C   UNL d   1      23.227 -17.940  -0.853  0.00  0.00     0.104 A 
ATOM     25  C   UNL d   1      23.880 -18.562   0.210  0.00  0.00     0.038 A 
ATOM     26  C   UNL d   1      25.197 -18.200   0.508  0.00  0.00     0.033 A 
ATOM     27  C   UNL d   1      25.891 -17.207  -0.214  0.00  0.00     0.046 A 
BRANCH  24  28
ATOM     28  N   UNL d   1      21.787 -18.169  -1.044  0.00  0.00    -0.116 N 
ATOM     29  O   UNL d   1      21.030 -17.199  -0.895  0.00  0.00    -0.532 OA
ATOM     30  O   UNL d   1      21.411 -19.326  -1.280  0.00  0.00    -0.532 OA
ENDBRANCH  24  28
BRANCH  27  31
ATOM     31  N   UNL d   1      27.149 -16.877   0.250  0.00  0.00    -0.380 N 
ATOM     32  C   UNL d   1      27.465 -15.676   1.008  0.00  0.00     0.123 C 
ATOM     33  C   UNL d   1      28.731 -15.143   0.353  0.00  0.00     0.021 C 
ATOM     34  C   UNL d   1      29.468 -16.412  -0.048  0.00  0.00     0.021 C 
ATOM     35  C   UNL d   1      28.362 -17.431  -0.367  0.00  0.00     0.123 C 
ENDBRANCH  27  31
ENDBRANCH   2  22
TORSDOF 6
ENDMDL
MODEL 5
REMARK VINA RESULT:    -7.406      1.626      2.161
REMARK INTER + INTRA:         -10.866
REMARK INTER:                  -9.196
REMARK INTRA:                  -1.669
REMARK CONF_INDEPENDENT:        1.790
REMARK UNBOUND:                -1.669
REMARK  6 active torsions:
REMARK  status: ('A' for Active; 'I' for Inactive)
REMARK       I    between atoms: C_2  and  N_3 
REMARK    1  A    between atoms: C_2  and  C_19 
REMARK    2  A    between atoms: N_3  and  C_4 
REMARK    3  A    between atoms: C_7  and  N_8 
REMARK    4  A    between atoms: C_14  and  N_15 
REMARK    5  A    between atoms: C_21  and  N_22 
REMARK    6  A    between atoms: C_27  and  N_28 
ROOT
ATOM      1  O   UNL d   1      26.194 -14.457  -1.577  0.00  0.00    -0.267 OA
ATOM      2  C   UNL d   1      25.826 -15.496  -2.131  0.00  0.00     0.258 C 
ATOM      3  N   UNL d   1      25.900 -15.706  -3.512  0.00  0.00    -0.323 N 
ATOM      4  H   UNL d   1      25.446 -16.520  -3.912  0.00  0.00     0.169 HD
ENDROOT
BRANCH   3   5
ATOM      5  C   UNL d   1      26.421 -14.730  -4.402  0.00  0.00     0.037 A 
ATOM      6  C   UNL d   1      27.461 -15.021  -5.276  0.00  0.00     0.032 A 
ATOM      7  C   UNL d   1      27.985 -14.010  -6.115  0.00  0.00     0.034 A 
ATOM      8  C   UNL d   1      27.486 -12.680  -6.145  0.00  0.00     0.063 A 
ATOM      9  C   UNL d   1      26.451 -12.409  -5.214  0.00  0.00     0.131 A 
ATOM     10  C   UNL d   1      25.927 -13.429  -4.388  0.00  0.00     0.068 A 
BRANCH   8  11
ATOM     11  N   UNL d   1      27.994 -11.812  -7.107  0.00  0.00    -0.376 N 
ATOM     12  C   UNL d   1      28.539 -10.470  -6.812  0.00  0.00     0.150 C 
ATOM     13  C   UNL d   1      27.920  -9.417  -7.775  0.00  0.00     0.252 C 
ATOM     14  N   UNL d   1      28.133  -9.849  -9.210  0.00  0.00    -0.072 N 
ATOM     15  C   UNL d   1      27.562 -11.224  -9.470  0.00  0.00     0.252 C 
ATOM     16  H   UNL d   1      29.136  -9.830  -9.426  0.00  0.00     0.277 HD
ATOM     17  H   UNL d   1      27.677  -9.165  -9.829  0.00  0.00     0.277 HD
ATOM     18  C   UNL d   1      28.171 -12.264  -8.500  0.00  0.00     0.150 C 
ENDBRANCH   8  11
BRANCH   9  19
ATOM     19  N   UNL d   1      25.801 -11.094  -5.037  0.00  0.00    -0.113 N 
ATOM     20  O   UNL d   1      25.488 -10.434  -6.029  0.00  0.00    -0.532 OA
ATOM     21  O   UNL d   1      25.602 -10.687  -3.884  0.00  0.00    -0.532 OA
ENDBRANCH   9  19
ENDBRANCH   3   5
BRANCH   2  22
ATOM     22  C   UNL d   1      25.195 -16.557  -1.299  0.00  0.00     0.061 A 
ATOM     23  C   UNL d   1      23.892 -16.977  -1.645  0.00  0.00     0.055 A 
ATOM     24  C   UNL d   1      23.242 -17.935  -0.853  0.00  0.00     0.104 A 
ATOM     25  C   UNL d   1      23.920 -18.575   0.183  0.00  0.00     0.038 A 
ATOM     26  C   UNL d   1      25.235 -18.200   0.472  0.00  0.00     0.033 A 
ATOM     27  C   UNL d   1      25.902 -17.176  -0.233  0.00  0.00     0.046 A 
BRANCH  24  28
ATOM     28  N   UNL d   1      21.803 -18.183  -1.030  0.00  0.00    -0.116 N 
ATOM     29  O   UNL d   1      21.457 -19.325  -1.365  0.00  0.00    -0.532 OA
ATOM     30  O   UNL d   1      21.030 -17.224  -0.895  0.00  0.00    -0.532 OA
ENDBRANCH  24  28
BRANCH  27  31
ATOM     31  N   UNL d   1      27.162 -16.839   0.222  0.00  0.00    -0.380 N 
ATOM     32  C   UNL d   1      27.478 -15.632   0.971  0.00  0.00     0.123 C 
ATOM     33  C   UNL d   1      28.737 -15.098   0.306  0.00  0.00     0.021 C 
ATOM     34  C   UNL d   1      29.477 -16.366  -0.092  0.00  0.00     0.021 C 
ATOM     35  C   UNL d   1      28.374 -17.391  -0.399  0.00  0.00     0.123 C 
ENDBRANCH  27  31
ENDBRANCH   2  22
TORSDOF 6
ENDMDL
MODEL 6
REMARK VINA RESULT:    -7.371      4.836      6.613
REMARK INTER + INTRA:         -10.347
REMARK INTER:                  -9.161
REMARK INTRA:                  -1.186
REMARK CONF_INDEPENDENT:        1.790
REMARK UNBOUND:                -1.186
REMARK  6 active torsions:
REMARK  status: ('A' for Active; 'I' for Inactive)
REMARK       I    between atoms: C_2  and  N_3 
REMARK    1  A    between atoms: C_2  and  C_19 
REMARK    2  A    between atoms: N_3  and  C_4 
REMARK    3  A    between atoms: C_7  and  N_8 
REMARK    4  A    between atoms: C_14  and  N_15 
REMARK    5  A    between atoms: C_21  and  N_22 
REMARK    6  A    between atoms: C_27  and  N_28 
ROOT
ATOM      1  O   UNL d   1      28.531 -13.636   1.043  0.00  0.00    -0.267 OA
ATOM      2  C   UNL d   1      27.885 -12.619   0.778  0.00  0.00     0.258 C 
ATOM      3  N   UNL d   1      27.541 -12.237  -0.522  0.00  0.00    -0.323 N 
ATOM      4  H   UNL d   1      27.139 -11.317  -0.676  0.00  0.00     0.169 HD
ENDROOT
BRANCH   3   5
ATOM      5  C   UNL d   1      27.904 -13.002  -1.661  0.00  0.00     0.037 A 
ATOM      6  C   UNL d   1      29.232 -13.175  -2.031  0.00  0.00     0.032 A 
ATOM      7  C   UNL d   1      29.553 -13.906  -3.199  0.00  0.00     0.034 A 
ATOM      8  C   UNL d   1      28.579 -14.518  -4.033  0.00  0.00     0.063 A 
ATOM      9  C   UNL d   1      27.234 -14.288  -3.648  0.00  0.00     0.131 A 
ATOM     10  C   UNL d   1      26.925 -13.567  -2.472  0.00  0.00     0.068 A 
BRANCH   8  11
ATOM     11  N   UNL d   1      29.024 -15.321  -5.079  0.00  0.00    -0.376 N 
ATOM     12  C   UNL d   1      29.544 -16.694  -4.910  0.00  0.00     0.150 C 
ATOM     13  C   UNL d   1      30.889 -16.855  -5.673  0.00  0.00     0.252 C 
ATOM     14  N   UNL d   1      30.708 -16.456  -7.122  0.00  0.00    -0.072 N 
ATOM     15  C   UNL d   1      30.177 -15.046  -7.250  0.00  0.00     0.252 C 
ATOM     16  H   UNL d   1      30.075 -17.121  -7.581  0.00  0.00     0.277 HD
ATOM     17  H   UNL d   1      31.617 -16.524  -7.597  0.00  0.00     0.277 HD
ATOM     18  C   UNL d   1      28.845 -14.889  -6.478  0.00  0.00     0.150 C 
ENDBRANCH   8  11
BRANCH   9  19
ATOM     19  N   UNL d   1      26.052 -14.793  -4.377  0.00  0.00    -0.113 N 
ATOM     20  O   UNL d   1      26.206 -15.579  -5.312  0.00  0.00    -0.532 OA
ATOM     21  O   UNL d   1      24.932 -14.394  -4.028  0.00  0.00    -0.532 OA
ENDBRANCH   9  19
ENDBRANCH   3   5
BRANCH   2  22
ATOM     22  C   UNL d   1      27.518 -11.705   1.893  0.00  0.00     0.061 A 
ATOM     23  C   UNL d   1      26.789 -10.537   1.575  0.00  0.00     0.055 A 
ATOM     24  C   UNL d   1      26.470  -9.623   2.590  0.00  0.00     0.104 A 
ATOM     25  C   UNL d   1      26.743  -9.923   3.923  0.00  0.00     0.038 A 
ATOM     26  C   UNL d   1      27.403 -11.115   4.234  0.00  0.00     0.033 A 
ATOM     27  C   UNL d   1      27.829 -12.025   3.243  0.00  0.00     0.046 A 
BRANCH  24  28
ATOM     28  N   UNL d   1      25.960  -8.288   2.244  0.00  0.00    -0.116 N 
ATOM     29  O   UNL d   1      26.321  -7.338   2.954  0.00  0.00    -0.532 OA
ATOM     30  O   UNL d   1      25.155  -8.200   1.307  0.00  0.00    -0.532 OA
ENDBRANCH  24  28
BRANCH  27  31
ATOM     31  N   UNL d   1      28.558 -13.113   3.681  0.00  0.00    -0.380 N 
ATOM     32  C   UNL d   1      28.019 -14.450   3.871  0.00  0.00     0.123 C 
ATOM     33  C   UNL d   1      28.566 -14.885   5.222  0.00  0.00     0.021 C 
ATOM     34  C   UNL d   1      29.945 -14.245   5.255  0.00  0.00     0.021 C 
ATOM     35  C   UNL d   1      29.799 -12.944   4.450  0.00  0.00     0.123 C 
ENDBRANCH  27  31
ENDBRANCH   2  22
TORSDOF 6
ENDMDL
MODEL 7
REMARK VINA RESULT:    -7.211      5.460      9.351
REMARK INTER + INTRA:         -10.441
REMARK INTER:                  -9.001
REMARK INTRA:                  -1.441
REMARK CONF_INDEPENDENT:        1.790
REMARK UNBOUND:                -1.441
REMARK  6 active torsions:
REMARK  status: ('A' for Active; 'I' for Inactive)
REMARK       I    between atoms: C_2  and  N_3 
REMARK    1  A    between atoms: C_2  and  C_19 
REMARK    2  A    between atoms: N_3  and  C_4 
REMARK    3  A    between atoms: C_7  and  N_8 
REMARK    4  A    between atoms: C_14  and  N_15 
REMARK    5  A    between atoms: C_21  and  N_22 
REMARK    6  A    between atoms: C_27  and  N_28 
ROOT
ATOM      1  O   UNL d   1      28.390 -14.100   0.159  0.00  0.00    -0.267 OA
ATOM      2  C   UNL d   1      27.246 -13.671  -0.015  0.00  0.00     0.258 C 
ATOM      3  N   UNL d   1      26.520 -12.981   0.961  0.00  0.00    -0.323 N 
ATOM      4  H   UNL d   1      25.536 -12.790   0.800  0.00  0.00     0.169 HD
ENDROOT
BRANCH   3   5
ATOM      5  C   UNL d   1      27.050 -12.704   2.248  0.00  0.00     0.037 A 
ATOM      6  C   UNL d   1      27.399 -13.720   3.128  0.00  0.00     0.032 A 
ATOM      7  C   UNL d   1      27.880 -13.406   4.420  0.00  0.00     0.034 A 
ATOM      8  C   UNL d   1      28.061 -12.076   4.886  0.00  0.00     0.063 A 
ATOM      9  C   UNL d   1      27.659 -11.064   3.977  0.00  0.00     0.131 A 
ATOM     10  C   UNL d   1      27.191 -11.390   2.684  0.00  0.00     0.068 A 
BRANCH   8  11
ATOM     11  N   UNL d   1      28.666 -11.893   6.126  0.00  0.00    -0.376 N 
ATOM     12  C   UNL d   1      28.533 -12.828   7.263  0.00  0.00     0.150 C 
ATOM     13  C   UNL d   1      28.166 -12.049   8.557  0.00  0.00     0.252 C 
ATOM     14  N   UNL d   1      29.180 -10.951   8.799  0.00  0.00    -0.072 N 
ATOM     15  C   UNL d   1      29.285 -10.017   7.615  0.00  0.00     0.252 C 
ATOM     16  H   UNL d   1      30.093 -11.371   9.007  0.00  0.00     0.277 HD
ATOM     17  H   UNL d   1      28.893 -10.419   9.631  0.00  0.00     0.277 HD
ATOM     18  C   UNL d   1      29.637 -10.800   6.328  0.00  0.00     0.150 C 
ENDBRANCH   8  11
BRANCH   9  19
ATOM     19  N   UNL d   1      27.720  -9.613   4.251  0.00  0.00    -0.113 N 
ATOM     20  O   UNL d   1      28.816  -9.067   4.381  0.00  0.00    -0.532 OA
ATOM     21  O   UNL d   1      26.655  -8.990   4.355  0.00  0.00    -0.532 OA
ENDBRANCH   9  19
ENDBRANCH   3   5
BRANCH   2  22
ATOM     22  C   UNL d   1      26.567 -13.973  -1.305  0.00  0.00     0.061 A 
ATOM     23  C   UNL d   1      26.724 -13.051  -2.363  0.00  0.00     0.055 A 
ATOM     24  C   UNL d   1      26.057 -13.272  -3.577  0.00  0.00     0.104 A 
ATOM     25  C   UNL d   1      25.356 -14.457  -3.794  0.00  0.00     0.038 A 
ATOM     26  C   UNL d   1      25.265 -15.395  -2.761  0.00  0.00     0.033 A 
ATOM     27  C   UNL d   1      25.839 -15.180  -1.491  0.00  0.00     0.046 A 
BRANCH  24  28
ATOM     28  N   UNL d   1      25.986 -12.202  -4.584  0.00  0.00    -0.116 N 
ATOM     29  O   UNL d   1      26.378 -12.469  -5.729  0.00  0.00    -0.532 OA
ATOM     30  O   UNL d   1      25.600 -11.085  -4.215  0.00  0.00    -0.532 OA
ENDBRANCH  24  28
BRANCH  27  31
ATOM     31  N   UNL d   1      25.587 -16.142  -0.532  0.00  0.00    -0.380 N 
ATOM     32  C   UNL d   1      26.611 -16.861   0.210  0.00  0.00     0.123 C 
ATOM     33  C   UNL d   1      26.159 -18.312   0.161  0.00  0.00     0.021 C 
ATOM     34  C   UNL d   1      24.643 -18.200   0.213  0.00  0.00     0.021 C 
ATOM     35  C   UNL d   1      24.317 -16.880  -0.504  0.00  0.00     0.123 C 
ENDBRANCH  27  31
ENDBRANCH   2  22
TORSDOF 6
ENDMDL
MODEL 8
REMARK VINA RESULT:    -7.202      4.337      5.816
REMARK INTER + INTRA:         -10.641
REMARK INTER:                  -8.992
REMARK INTRA:                  -1.649
REMARK CONF_INDEPENDENT:        1.790
REMARK UNBOUND:                -1.649
REMARK  6 active torsions:
REMARK  status: ('A' for Active; 'I' for Inactive)
REMARK       I    between atoms: C_2  and  N_3 
REMARK    1  A    between atoms: C_2  and  C_19 
REMARK    2  A    between atoms: N_3  and  C_4 
REMARK    3  A    between atoms: C_7  and  N_8 
REMARK    4  A    between atoms: C_14  and  N_15 
REMARK    5  A    between atoms: C_21  and  N_22 
REMARK    6  A    between atoms: C_27  and  N_28 
ROOT
ATOM      1  O   UNL d   1      29.206 -10.907  -1.243  0.00  0.00    -0.267 OA
ATOM      2  C   UNL d   1      28.055 -11.295  -1.028  0.00  0.00     0.258 C 
ATOM      3  N   UNL d   1      27.262 -11.937  -1.985  0.00  0.00    -0.323 N 
ATOM      4  H   UNL d   1      26.280 -12.095  -1.786  0.00  0.00     0.169 HD
ENDROOT
BRANCH   3   5
ATOM      5  C   UNL d   1      27.727 -12.208  -3.299  0.00  0.00     0.037 A 
ATOM      6  C   UNL d   1      28.280 -11.214  -4.096  0.00  0.00     0.032 A 
ATOM      7  C   UNL d   1      28.689 -11.510  -5.418  0.00  0.00     0.034 A 
ATOM      8  C   UNL d   1      28.594 -12.804  -5.995  0.00  0.00     0.063 A 
ATOM      9  C   UNL d   1      27.990 -13.785  -5.167  0.00  0.00     0.131 A 
ATOM     10  C   UNL d   1      27.596 -13.481  -3.845  0.00  0.00     0.068 A 
BRANCH   8  11
ATOM     11  N   UNL d   1      29.151 -13.001  -7.255  0.00  0.00    -0.376 N 
ATOM     12  C   UNL d   1      30.387 -13.772  -7.508  0.00  0.00     0.150 C 
ATOM     13  C   UNL d   1      31.348 -12.959  -8.421  0.00  0.00     0.252 C 
ATOM     14  N   UNL d   1      30.626 -12.550  -9.687  0.00  0.00    -0.072 N 
ATOM     15  C   UNL d   1      29.371 -11.764  -9.385  0.00  0.00     0.252 C 
ATOM     16  H   UNL d   1      30.402 -13.387 -10.237  0.00  0.00     0.277 HD
ATOM     17  H   UNL d   1      31.263 -11.975 -10.255  0.00  0.00     0.277 HD
ATOM     18  C   UNL d   1      28.425 -12.572  -8.466  0.00  0.00     0.150 C 
ENDBRANCH   8  11
BRANCH   9  19
ATOM     19  N   UNL d   1      27.753 -15.189  -5.562  0.00  0.00    -0.113 N 
ATOM     20  O   UNL d   1      26.602 -15.575  -5.769  0.00  0.00    -0.532 OA
ATOM     21  O   UNL d   1      28.730 -15.944  -5.661  0.00  0.00    -0.532 OA
ENDBRANCH   9  19
ENDBRANCH   3   5
BRANCH   2  22
ATOM     22  C   UNL d   1      27.442 -10.996   0.295  0.00  0.00     0.061 A 
ATOM     23  C   UNL d   1      26.961  -9.687   0.516  0.00  0.00     0.055 A 
ATOM     24  C   UNL d   1      26.425  -9.350   1.768  0.00  0.00     0.104 A 
ATOM     25  C   UNL d   1      26.238 -10.327   2.744  0.00  0.00     0.038 A 
ATOM     26  C   UNL d   1      26.655 -11.636   2.488  0.00  0.00     0.033 A 
ATOM     27  C   UNL d   1      27.285 -12.007   1.281  0.00  0.00     0.046 A 
BRANCH  24  28
ATOM     28  N   UNL d   1      26.174  -7.941   2.106  0.00  0.00    -0.116 N 
ATOM     29  O   UNL d   1      26.667  -7.509   3.159  0.00  0.00    -0.532 OA
ATOM     30  O   UNL d   1      25.437  -7.287   1.355  0.00  0.00    -0.532 OA
ENDBRANCH  24  28
BRANCH  27  31
ATOM     31  N   UNL d   1      27.737 -13.310   1.200  0.00  0.00    -0.380 N 
ATOM     32  C   UNL d   1      29.114 -13.725   1.417  0.00  0.00     0.123 C 
ATOM     33  C   UNL d   1      29.403 -14.677   0.267  0.00  0.00     0.021 C 
ATOM     34  C   UNL d   1      28.068 -15.376   0.058  0.00  0.00     0.021 C 
ATOM     35  C   UNL d   1      27.008 -14.327   0.430  0.00  0.00     0.123 C 
ENDBRANCH  27  31
ENDBRANCH   2  22
TORSDOF 6
ENDMDL
MODEL 9
REMARK VINA RESULT:    -7.048      4.398      8.999
REMARK INTER + INTRA:         -10.366
REMARK INTER:                  -8.838
REMARK INTRA:                  -1.528
REMARK CONF_INDEPENDENT:        1.790
REMARK UNBOUND:                -1.528
REMARK  6 active torsions:
REMARK  status: ('A' for Active; 'I' for Inactive)
REMARK       I    between atoms: C_2  and  N_3 
REMARK    1  A    between atoms: C_2  and  C_19 
REMARK    2  A    between atoms: N_3  and  C_4 
REMARK    3  A    between atoms: C_7  and  N_8 
REMARK    4  A    between atoms: C_14  and  N_15 
REMARK    5  A    between atoms: C_21  and  N_22 
REMARK    6  A    between atoms: C_27  and  N_28 
ROOT
ATOM      1  O   UNL d   1      27.505  -9.462  -3.120  0.00  0.00    -0.267 OA
ATOM      2  C   UNL d   1      26.362  -9.505  -3.582  0.00  0.00     0.258 C 
ATOM      3  N   UNL d   1      25.616 -10.681  -3.696  0.00  0.00    -0.323 N 
ATOM      4  H   UNL d   1      24.746 -10.665  -4.219  0.00  0.00     0.169 HD
ENDROOT
BRANCH   3   5
ATOM      5  C   UNL d   1      26.115 -11.941  -3.274  0.00  0.00     0.037 A 
ATOM      6  C   UNL d   1      26.662 -12.123  -2.010  0.00  0.00     0.032 A 
ATOM      7  C   UNL d   1      27.192 -13.382  -1.641  0.00  0.00     0.034 A 
ATOM      8  C   UNL d   1      27.179 -14.518  -2.494  0.00  0.00     0.063 A 
ATOM      9  C   UNL d   1      26.648 -14.286  -3.789  0.00  0.00     0.131 A 
ATOM     10  C   UNL d   1      26.110 -13.028  -4.143  0.00  0.00     0.068 A 
BRANCH   8  11
ATOM     11  N   UNL d   1      27.608 -15.734  -1.972  0.00  0.00    -0.376 N 
ATOM     12  C   UNL d   1      26.768 -16.630  -1.149  0.00  0.00     0.150 C 
ATOM     13  C   UNL d   1      27.540 -17.062   0.130  0.00  0.00     0.252 C 
ATOM     14  N   UNL d   1      28.870 -17.674  -0.256  0.00  0.00    -0.072 N 
ATOM     15  C   UNL d   1      29.698 -16.726  -1.095  0.00  0.00     0.252 C 
ATOM     16  H   UNL d   1      28.707 -18.551  -0.762  0.00  0.00     0.277 HD
ATOM     17  H   UNL d   1      29.383 -17.909   0.603  0.00  0.00     0.277 HD
ATOM     18  C   UNL d   1      28.920 -16.289  -2.359  0.00  0.00     0.150 C 
ENDBRANCH   8  11
BRANCH   9  19
ATOM     19  N   UNL d   1      26.562 -15.304  -4.858  0.00  0.00    -0.113 N 
ATOM     20  O   UNL d   1      25.529 -15.961  -4.987  0.00  0.00    -0.532 OA
ATOM     21  O   UNL d   1      27.547 -15.472  -5.589  0.00  0.00    -0.532 OA
ENDBRANCH   9  19
ENDBRANCH   3   5
BRANCH   2  22
ATOM     22  C   UNL d   1      25.771  -8.250  -4.124  0.00  0.00     0.061 A 
ATOM     23  C   UNL d   1      25.428  -7.234  -3.206  0.00  0.00     0.055 A 
ATOM     24  C   UNL d   1      24.820  -6.059  -3.671  0.00  0.00     0.104 A 
ATOM     25  C   UNL d   1      24.679  -5.828  -5.038  0.00  0.00     0.038 A 
ATOM     26  C   UNL d   1      25.087  -6.813  -5.942  0.00  0.00     0.033 A 
ATOM     27  C   UNL d   1      25.618  -8.051  -5.523  0.00  0.00     0.046 A 
BRANCH  24  28
ATOM     28  N   UNL d   1      24.212  -5.117  -2.718  0.00  0.00    -0.116 N 
ATOM     29  O   UNL d   1      24.915  -4.729  -1.773  0.00  0.00    -0.532 OA
ATOM     30  O   UNL d   1      23.022  -4.817  -2.880  0.00  0.00    -0.532 OA
ENDBRANCH  24  28
BRANCH  27  31
ATOM     31  N   UNL d   1      25.885  -8.972  -6.518  0.00  0.00    -0.380 N 
ATOM     32  C   UNL d   1      25.438 -10.356  -6.508  0.00  0.00     0.123 C 
ATOM     33  C   UNL d   1      26.671 -11.150  -6.914  0.00  0.00     0.021 C 
ATOM     34  C   UNL d   1      27.359 -10.228  -7.908  0.00  0.00     0.021 C 
ATOM     35  C   UNL d   1      27.026  -8.806  -7.428  0.00  0.00     0.123 C 
ENDBRANCH  27  31
ENDBRANCH   2  22
TORSDOF 6
ENDMDL
