MODEL 1
REMARK VINA RESULT:    -7.355      0.000      0.000
REMARK INTER + INTRA:          -8.617
REMARK INTER:                  -8.250
REMARK INTRA:                  -0.367
REMARK CONF_INDEPENDENT:        0.895
REMARK UNBOUND:                -0.367
REMARK  3 active torsions:
REMARK  status: ('A' for Active; 'I' for Inactive)
REMARK    1  A    between atoms: C_7  and  N_8 
REMARK       I    between atoms: N_8  and  C_9 
REMARK    2  A    between atoms: C_9  and  C_11 
REMARK    3  A    between atoms: C_14  and  O_15 
ROOT
ATOM      1  C   UNL d   1      19.803 -20.719   4.010  0.00  0.00     0.018 C 
ATOM      2  C   UNL d   1      19.862 -20.450   2.839  0.00  0.00    -0.078 C 
ATOM      3  C   UNL d   1      19.919 -20.095   1.456  0.00  0.00     0.019 A 
ATOM      4  C   UNL d   1      18.892 -20.439   0.592  0.00  0.00     0.021 A 
ATOM      5  C   UNL d   1      18.946 -20.017  -0.738  0.00  0.00     0.004 A 
ATOM      6  C   UNL d   1      20.035 -19.255  -1.207  0.00  0.00     0.029 A 
ATOM      7  C   UNL d   1      21.096 -18.933  -0.346  0.00  0.00     0.036 A 
ATOM      8  C   UNL d   1      21.008 -19.369   0.981  0.00  0.00     0.050 A 
ENDROOT
BRANCH   7   9
ATOM      9  N   UNL d   1      22.222 -18.188  -0.813  0.00  0.00    -0.323 N 
ATOM     10  C   UNL d   1      23.432 -18.080  -0.121  0.00  0.00     0.256 C 
ATOM     11  O   UNL d   1      23.708 -18.573   0.969  0.00  0.00    -0.267 OA
ATOM     12  H   UNL d   1      22.143 -17.768  -1.732  0.00  0.00     0.169 HD
BRANCH  10  13
ATOM     13  C   UNL d   1      24.539 -17.311  -0.729  0.00  0.00     0.034 A 
ATOM     14  C   UNL d   1      25.871 -17.698  -0.577  0.00  0.00     0.020 A 
ATOM     15  C   UNL d   1      26.877 -17.010  -1.269  0.00  0.00     0.039 A 
ATOM     16  C   UNL d   1      26.548 -15.940  -2.108  0.00  0.00     0.087 A 
ATOM     17  C   UNL d   1      25.213 -15.561  -2.269  0.00  0.00     0.068 A 
ATOM     18 CL   UNL d   1      24.780 -14.230  -3.281  0.00  0.00    -0.081 Cl
ATOM     19  C   UNL d   1      24.208 -16.255  -1.597  0.00  0.00     0.043 A 
BRANCH  16  20
ATOM     20  O   UNL d   1      27.520 -15.253  -2.783  0.00  0.00    -0.359 OA
ATOM     21  H   UNL d   1      27.444 -14.300  -2.623  0.00  0.00     0.217 HD
ENDBRANCH  16  20
ENDBRANCH  10  13
ENDBRANCH   7   9
TORSDOF 3
ENDMDL
MODEL 2
REMARK VINA RESULT:    -7.179      3.000      7.390
REMARK INTER + INTRA:          -8.483
REMARK INTER:                  -8.074
REMARK INTRA:                  -0.409
REMARK CONF_INDEPENDENT:        0.895
REMARK UNBOUND:                -0.409
REMARK  3 active torsions:
REMARK  status: ('A' for Active; 'I' for Inactive)
REMARK    1  A    between atoms: C_7  and  N_8 
REMARK       I    between atoms: N_8  and  C_9 
REMARK    2  A    between atoms: C_9  and  C_11 
REMARK    3  A    between atoms: C_14  and  O_15 
ROOT
ATOM      1  C   UNL d   1      28.542 -16.749   0.246  0.00  0.00     0.018 C 
ATOM      2  C   UNL d   1      27.475 -16.439  -0.216  0.00  0.00    -0.078 C 
ATOM      3  C   UNL d   1      26.210 -16.102  -0.786  0.00  0.00     0.019 A 
ATOM      4  C   UNL d   1      26.114 -15.159  -1.797  0.00  0.00     0.021 A 
ATOM      5  C   UNL d   1      24.872 -14.902  -2.380  0.00  0.00     0.004 A 
ATOM      6  C   UNL d   1      23.719 -15.587  -1.946  0.00  0.00     0.029 A 
ATOM      7  C   UNL d   1      23.801 -16.518  -0.898  0.00  0.00     0.036 A 
ATOM      8  C   UNL d   1      25.062 -16.753  -0.338  0.00  0.00     0.050 A 
ENDROOT
BRANCH   7   9
ATOM      9  N   UNL d   1      22.637 -17.197  -0.425  0.00  0.00    -0.323 N 
ATOM     10  C   UNL d   1      22.139 -18.379  -0.981  0.00  0.00     0.256 C 
ATOM     11  O   UNL d   1      22.593 -18.993  -1.943  0.00  0.00    -0.267 OA
ATOM     12  H   UNL d   1      22.191 -16.819   0.403  0.00  0.00     0.169 HD
BRANCH  10  13
ATOM     13  C   UNL d   1      20.947 -19.009  -0.375  0.00  0.00     0.034 A 
ATOM     14  C   UNL d   1      19.837 -19.367  -1.142  0.00  0.00     0.020 A 
ATOM     15  C   UNL d   1      18.779 -20.069  -0.547  0.00  0.00     0.039 A 
ATOM     16  C   UNL d   1      18.836 -20.409   0.808  0.00  0.00     0.087 A 
ATOM     17  C   UNL d   1      19.953 -20.062   1.572  0.00  0.00     0.068 A 
ATOM     18 CL   UNL d   1      20.039 -20.450   3.253  0.00  0.00    -0.081 Cl
ATOM     19  C   UNL d   1      21.014 -19.380   0.980  0.00  0.00     0.043 A 
BRANCH  16  20
ATOM     20  O   UNL d   1      17.807 -21.087   1.404  0.00  0.00    -0.359 OA
ATOM     21  H   UNL d   1      18.140 -21.697   2.081  0.00  0.00     0.217 HD
ENDBRANCH  16  20
ENDBRANCH  10  13
ENDBRANCH   7   9
TORSDOF 3
ENDMDL
MODEL 3
REMARK VINA RESULT:    -7.149      3.378      5.613
REMARK INTER + INTRA:          -8.453
REMARK INTER:                  -8.044
REMARK INTRA:                  -0.409
REMARK CONF_INDEPENDENT:        0.895
REMARK UNBOUND:                -0.409
REMARK  3 active torsions:
REMARK  status: ('A' for Active; 'I' for Inactive)
REMARK    1  A    between atoms: C_7  and  N_8 
REMARK       I    between atoms: N_8  and  C_9 
REMARK    2  A    between atoms: C_9  and  C_11 
REMARK    3  A    between atoms: C_14  and  O_15 
ROOT
ATOM      1  C   UNL d   1      21.268 -18.753  -0.887  0.00  0.00     0.018 C 
ATOM      2  C   UNL d   1      22.394 -18.347  -0.763  0.00  0.00    -0.078 C 
ATOM      3  C   UNL d   1      23.742 -17.893  -0.638  0.00  0.00     0.019 A 
ATOM      4  C   UNL d   1      24.501 -18.217   0.475  0.00  0.00     0.021 A 
ATOM      5  C   UNL d   1      25.837 -17.816   0.534  0.00  0.00     0.004 A 
ATOM      6  C   UNL d   1      26.415 -17.082  -0.522  0.00  0.00     0.029 A 
ATOM      7  C   UNL d   1      25.643 -16.720  -1.637  0.00  0.00     0.036 A 
ATOM      8  C   UNL d   1      24.308 -17.140  -1.665  0.00  0.00     0.050 A 
ENDROOT
BRANCH   7   9
ATOM      9  N   UNL d   1      26.204 -15.949  -2.701  0.00  0.00    -0.323 N 
ATOM     10  C   UNL d   1      25.534 -14.912  -3.356  0.00  0.00     0.256 C 
ATOM     11  O   UNL d   1      24.389 -14.521  -3.145  0.00  0.00    -0.267 OA
ATOM     12  H   UNL d   1      27.170 -16.140  -2.944  0.00  0.00     0.169 HD
BRANCH  10  13
ATOM     13  C   UNL d   1      26.238 -14.162  -4.418  0.00  0.00     0.034 A 
ATOM     14  C   UNL d   1      25.956 -12.821  -4.679  0.00  0.00     0.020 A 
ATOM     15  C   UNL d   1      26.730 -12.117  -5.612  0.00  0.00     0.039 A 
ATOM     16  C   UNL d   1      27.781 -12.755  -6.277  0.00  0.00     0.087 A 
ATOM     17  C   UNL d   1      28.071 -14.095  -6.006  0.00  0.00     0.068 A 
ATOM     18 CL   UNL d   1      29.349 -14.914  -6.831  0.00  0.00    -0.081 Cl
ATOM     19  C   UNL d   1      27.315 -14.793  -5.066  0.00  0.00     0.043 A 
BRANCH  16  20
ATOM     20  O   UNL d   1      28.539 -12.083  -7.197  0.00  0.00    -0.359 OA
ATOM     21  H   UNL d   1      28.876 -12.688  -7.876  0.00  0.00     0.217 HD
ENDBRANCH  16  20
ENDBRANCH  10  13
ENDBRANCH   7   9
TORSDOF 3
ENDMDL
MODEL 4
REMARK VINA RESULT:    -7.023      3.360      5.559
REMARK INTER + INTRA:          -8.305
REMARK INTER:                  -7.918
REMARK INTRA:                  -0.387
REMARK CONF_INDEPENDENT:        0.895
REMARK UNBOUND:                -0.387
REMARK  3 active torsions:
REMARK  status: ('A' for Active; 'I' for Inactive)
REMARK    1  A    between atoms: C_7  and  N_8 
REMARK       I    between atoms: N_8  and  C_9 
REMARK    2  A    between atoms: C_9  and  C_11 
REMARK    3  A    between atoms: C_14  and  O_15 
ROOT
ATOM      1  C   UNL d   1      21.300 -18.587  -0.895  0.00  0.00     0.018 C 
ATOM      2  C   UNL d   1      22.435 -18.212  -0.759  0.00  0.00    -0.078 C 
ATOM      3  C   UNL d   1      23.793 -17.795  -0.621  0.00  0.00     0.019 A 
ATOM      4  C   UNL d   1      24.555 -18.200   0.463  0.00  0.00     0.021 A 
ATOM      5  C   UNL d   1      25.900 -17.831   0.533  0.00  0.00     0.004 A 
ATOM      6  C   UNL d   1      26.483 -17.046  -0.483  0.00  0.00     0.029 A 
ATOM      7  C   UNL d   1      25.709 -16.602  -1.567  0.00  0.00     0.036 A 
ATOM      8  C   UNL d   1      24.366 -16.993  -1.606  0.00  0.00     0.050 A 
ENDROOT
BRANCH   7   9
ATOM      9  N   UNL d   1      26.276 -15.780  -2.588  0.00  0.00    -0.323 N 
ATOM     10  C   UNL d   1      25.571 -14.793  -3.281  0.00  0.00     0.256 C 
ATOM     11  O   UNL d   1      24.388 -14.494  -3.145  0.00  0.00    -0.267 OA
ATOM     12  H   UNL d   1      27.268 -15.892  -2.767  0.00  0.00     0.169 HD
BRANCH  10  13
ATOM     13  C   UNL d   1      26.282 -13.980  -4.291  0.00  0.00     0.034 A 
ATOM     14  C   UNL d   1      27.257 -14.532  -5.123  0.00  0.00     0.020 A 
ATOM     15  C   UNL d   1      27.820 -13.754  -6.145  0.00  0.00     0.039 A 
ATOM     16  C   UNL d   1      27.405 -12.432  -6.331  0.00  0.00     0.087 A 
ATOM     17  C   UNL d   1      26.419 -11.884  -5.506  0.00  0.00     0.068 A 
ATOM     18 CL   UNL d   1      25.906 -10.246  -5.699  0.00  0.00    -0.081 Cl
ATOM     19  C   UNL d   1      25.846 -12.659  -4.501  0.00  0.00     0.043 A 
BRANCH  16  20
ATOM     20  O   UNL d   1      27.952 -11.658  -7.319  0.00  0.00    -0.359 OA
ATOM     21  H   UNL d   1      28.882 -11.461  -7.129  0.00  0.00     0.217 HD
ENDBRANCH  16  20
ENDBRANCH  10  13
ENDBRANCH   7   9
TORSDOF 3
ENDMDL
MODEL 5
REMARK VINA RESULT:    -6.416      4.475      8.847
REMARK INTER + INTRA:          -7.673
REMARK INTER:                  -7.311
REMARK INTRA:                  -0.361
REMARK CONF_INDEPENDENT:        0.895
REMARK UNBOUND:                -0.361
REMARK  3 active torsions:
REMARK  status: ('A' for Active; 'I' for Inactive)
REMARK    1  A    between atoms: C_7  and  N_8 
REMARK       I    between atoms: N_8  and  C_9 
REMARK    2  A    between atoms: C_9  and  C_11 
REMARK    3  A    between atoms: C_14  and  O_15 
ROOT
ATOM      1  C   UNL d   1      25.708  -7.315  -3.007  0.00  0.00     0.018 C 
ATOM      2  C   UNL d   1      25.720  -8.415  -3.494  0.00  0.00    -0.078 C 
ATOM      3  C   UNL d   1      25.772  -9.722  -4.067  0.00  0.00     0.019 A 
ATOM      4  C   UNL d   1      25.784  -9.896  -5.442  0.00  0.00     0.021 A 
ATOM      5  C   UNL d   1      25.905 -11.182  -5.970  0.00  0.00     0.004 A 
ATOM      6  C   UNL d   1      26.008 -12.302  -5.119  0.00  0.00     0.029 A 
ATOM      7  C   UNL d   1      25.961 -12.138  -3.725  0.00  0.00     0.036 A 
ATOM      8  C   UNL d   1      25.842 -10.834  -3.231  0.00  0.00     0.050 A 
ENDROOT
BRANCH   7   9
ATOM      9  N   UNL d   1      26.032 -13.264  -2.849  0.00  0.00    -0.323 N 
ATOM     10  C   UNL d   1      25.445 -14.503  -3.118  0.00  0.00     0.256 C 
ATOM     11  O   UNL d   1      24.780 -14.810  -4.103  0.00  0.00    -0.267 OA
ATOM     12  H   UNL d   1      26.598 -13.159  -2.015  0.00  0.00     0.169 HD
BRANCH  10  13
ATOM     13  C   UNL d   1      25.624 -15.606  -2.148  0.00  0.00     0.034 A 
ATOM     14  C   UNL d   1      26.818 -15.780  -1.448  0.00  0.00     0.020 A 
ATOM     15  C   UNL d   1      26.902 -16.763  -0.452  0.00  0.00     0.039 A 
ATOM     16  C   UNL d   1      25.795 -17.566  -0.162  0.00  0.00     0.087 A 
ATOM     17  C   UNL d   1      24.595 -17.383  -0.855  0.00  0.00     0.068 A 
ATOM     18 CL   UNL d   1      23.219 -18.376  -0.533  0.00  0.00    -0.081 Cl
ATOM     19  C   UNL d   1      24.502 -16.394  -1.833  0.00  0.00     0.043 A 
BRANCH  16  20
ATOM     20  O   UNL d   1      25.865 -18.536   0.801  0.00  0.00    -0.359 OA
ATOM     21  H   UNL d   1      26.784 -18.805   0.955  0.00  0.00     0.217 HD
ENDBRANCH  16  20
ENDBRANCH  10  13
ENDBRANCH   7   9
TORSDOF 3
ENDMDL
MODEL 6
REMARK VINA RESULT:    -6.324      4.497      9.057
REMARK INTER + INTRA:          -7.621
REMARK INTER:                  -7.219
REMARK INTRA:                  -0.402
REMARK CONF_INDEPENDENT:        0.895
REMARK UNBOUND:                -0.402
REMARK  3 active torsions:
REMARK  status: ('A' for Active; 'I' for Inactive)
REMARK    1  A    between atoms: C_7  and  N_8 
REMARK       I    between atoms: N_8  and  C_9 
REMARK    2  A    between atoms: C_9  and  C_11 
REMARK    3  A    between atoms: C_14  and  O_15 
ROOT
ATOM      1  C   UNL d   1      24.499  -8.637  -5.523  0.00  0.00     0.018 C 
ATOM      2  C   UNL d   1      25.157  -9.630  -5.688  0.00  0.00    -0.078 C 
ATOM      3  C   UNL d   1      25.965 -10.796  -5.860  0.00  0.00     0.019 A 
ATOM      4  C   UNL d   1      26.792 -10.930  -6.964  0.00  0.00     0.021 A 
ATOM      5  C   UNL d   1      27.620 -12.050  -7.068  0.00  0.00     0.004 A 
ATOM      6  C   UNL d   1      27.615 -13.042  -6.066  0.00  0.00     0.029 A 
ATOM      7  C   UNL d   1      26.754 -12.931  -4.963  0.00  0.00     0.036 A 
ATOM      8  C   UNL d   1      25.940 -11.795  -4.890  0.00  0.00     0.050 A 
ENDROOT
BRANCH   7   9
ATOM      9  N   UNL d   1      26.714 -13.943  -3.956  0.00  0.00    -0.323 N 
ATOM     10  C   UNL d   1      25.543 -14.569  -3.520  0.00  0.00     0.256 C 
ATOM     11  O   UNL d   1      24.398 -14.346  -3.903  0.00  0.00    -0.267 OA
ATOM     12  H   UNL d   1      27.605 -14.257  -3.588  0.00  0.00     0.169 HD
BRANCH  10  13
ATOM     13  C   UNL d   1      25.638 -15.633  -2.497  0.00  0.00     0.034 A 
ATOM     14  C   UNL d   1      26.855 -15.978  -1.908  0.00  0.00     0.020 A 
ATOM     15  C   UNL d   1      26.879 -16.907  -0.859  0.00  0.00     0.039 A 
ATOM     16  C   UNL d   1      25.690 -17.485  -0.404  0.00  0.00     0.087 A 
ATOM     17  C   UNL d   1      24.471 -17.129  -0.985  0.00  0.00     0.068 A 
ATOM     18 CL   UNL d   1      22.990 -17.844  -0.457  0.00  0.00    -0.081 Cl
ATOM     19  C   UNL d   1      24.440 -16.192  -2.016  0.00  0.00     0.043 A 
BRANCH  16  20
ATOM     20  O   UNL d   1      25.700 -18.400   0.614  0.00  0.00    -0.359 OA
ATOM     21  H   UNL d   1      26.605 -18.687   0.813  0.00  0.00     0.217 HD
ENDBRANCH  16  20
ENDBRANCH  10  13
ENDBRANCH   7   9
TORSDOF 3
ENDMDL
MODEL 7
REMARK VINA RESULT:    -6.262      4.537      9.247
REMARK INTER + INTRA:          -7.562
REMARK INTER:                  -7.157
REMARK INTRA:                  -0.405
REMARK CONF_INDEPENDENT:        0.895
REMARK UNBOUND:                -0.405
REMARK  3 active torsions:
REMARK  status: ('A' for Active; 'I' for Inactive)
REMARK    1  A    between atoms: C_7  and  N_8 
REMARK       I    between atoms: N_8  and  C_9 
REMARK    2  A    between atoms: C_9  and  C_11 
REMARK    3  A    between atoms: C_14  and  O_15 
ROOT
ATOM      1  C   UNL d   1      27.726 -11.483  -8.740  0.00  0.00     0.018 C 
ATOM      2  C   UNL d   1      27.282 -11.322  -7.633  0.00  0.00    -0.078 C 
ATOM      3  C   UNL d   1      26.723 -11.148  -6.330  0.00  0.00     0.019 A 
ATOM      4  C   UNL d   1      26.158  -9.940  -5.955  0.00  0.00     0.021 A 
ATOM      5  C   UNL d   1      25.559  -9.824  -4.700  0.00  0.00     0.004 A 
ATOM      6  C   UNL d   1      25.531 -10.920  -3.812  0.00  0.00     0.029 A 
ATOM      7  C   UNL d   1      26.134 -12.136  -4.171  0.00  0.00     0.036 A 
ATOM      8  C   UNL d   1      26.723 -12.218  -5.438  0.00  0.00     0.050 A 
ENDROOT
BRANCH   7   9
ATOM      9  N   UNL d   1      26.143 -13.246  -3.271  0.00  0.00    -0.323 N 
ATOM     10  C   UNL d   1      25.502 -14.463  -3.522  0.00  0.00     0.256 C 
ATOM     11  O   UNL d   1      24.836 -14.759  -4.510  0.00  0.00    -0.267 OA
ATOM     12  H   UNL d   1      26.702 -13.149  -2.432  0.00  0.00     0.169 HD
BRANCH  10  13
ATOM     13  C   UNL d   1      25.618 -15.551  -2.528  0.00  0.00     0.034 A 
ATOM     14  C   UNL d   1      26.852 -15.934  -2.001  0.00  0.00     0.020 A 
ATOM     15  C   UNL d   1      26.903 -16.888  -0.974  0.00  0.00     0.039 A 
ATOM     16  C   UNL d   1      25.723 -17.452  -0.480  0.00  0.00     0.087 A 
ATOM     17  C   UNL d   1      24.487 -17.058  -0.999  0.00  0.00     0.068 A 
ATOM     18 CL   UNL d   1      23.015 -17.755  -0.424  0.00  0.00    -0.081 Cl
ATOM     19  C   UNL d   1      24.431 -16.098  -2.008  0.00  0.00     0.043 A 
BRANCH  16  20
ATOM     20  O   UNL d   1      25.757 -18.390   0.516  0.00  0.00    -0.359 OA
ATOM     21  H   UNL d   1      26.470 -18.200   1.145  0.00  0.00     0.217 HD
ENDBRANCH  16  20
ENDBRANCH  10  13
ENDBRANCH   7   9
TORSDOF 3
ENDMDL
MODEL 8
REMARK VINA RESULT:    -6.222      5.330      7.688
REMARK INTER + INTRA:          -7.518
REMARK INTER:                  -7.117
REMARK INTRA:                  -0.401
REMARK CONF_INDEPENDENT:        0.895
REMARK UNBOUND:                -0.401
REMARK  3 active torsions:
REMARK  status: ('A' for Active; 'I' for Inactive)
REMARK    1  A    between atoms: C_7  and  N_8 
REMARK       I    between atoms: N_8  and  C_9 
REMARK    2  A    between atoms: C_9  and  C_11 
REMARK    3  A    between atoms: C_14  and  O_15 
ROOT
ATOM      1  C   UNL d   1      25.540 -14.716  -4.489  0.00  0.00     0.018 C 
ATOM      2  C   UNL d   1      25.536 -15.290  -3.432  0.00  0.00    -0.078 C 
ATOM      3  C   UNL d   1      25.562 -15.991  -2.187  0.00  0.00     0.019 A 
ATOM      4  C   UNL d   1      24.780 -17.117  -1.988  0.00  0.00     0.021 A 
ATOM      5  C   UNL d   1      24.881 -17.818  -0.785  0.00  0.00     0.004 A 
ATOM      6  C   UNL d   1      25.763 -17.386   0.226  0.00  0.00     0.029 A 
ATOM      7  C   UNL d   1      26.533 -16.226   0.046  0.00  0.00     0.036 A 
ATOM      8  C   UNL d   1      26.409 -15.550  -1.173  0.00  0.00     0.050 A 
ENDROOT
BRANCH   7   9
ATOM      9  N   UNL d   1      27.408 -15.758   1.073  0.00  0.00    -0.323 N 
ATOM     10  C   UNL d   1      27.407 -14.451   1.568  0.00  0.00     0.256 C 
ATOM     11  O   UNL d   1      26.693 -13.521   1.202  0.00  0.00    -0.267 OA
ATOM     12  H   UNL d   1      28.021 -16.444   1.500  0.00  0.00     0.169 HD
BRANCH  10  13
ATOM     13  C   UNL d   1      28.337 -14.098   2.663  0.00  0.00     0.034 A 
ATOM     14  C   UNL d   1      29.709 -13.968   2.445  0.00  0.00     0.020 A 
ATOM     15  C   UNL d   1      30.536 -13.516   3.483  0.00  0.00     0.039 A 
ATOM     16  C   UNL d   1      29.990 -13.197   4.729  0.00  0.00     0.087 A 
ATOM     17  C   UNL d   1      28.614 -13.315   4.942  0.00  0.00     0.068 A 
ATOM     18 CL   UNL d   1      27.915 -12.950   6.479  0.00  0.00    -0.081 Cl
ATOM     19  C   UNL d   1      27.786 -13.747   3.908  0.00  0.00     0.043 A 
BRANCH  16  20
ATOM     20  O   UNL d   1      30.786 -12.763   5.754  0.00  0.00    -0.359 OA
ATOM     21  H   UNL d   1      31.720 -12.951   5.571  0.00  0.00     0.217 HD
ENDBRANCH  16  20
ENDBRANCH  10  13
ENDBRANCH   7   9
TORSDOF 3
ENDMDL
MODEL 9
REMARK VINA RESULT:    -5.856      5.864      7.793
REMARK INTER + INTRA:          -7.144
REMARK INTER:                  -6.751
REMARK INTRA:                  -0.393
REMARK CONF_INDEPENDENT:        0.895
REMARK UNBOUND:                -0.393
REMARK  3 active torsions:
REMARK  status: ('A' for Active; 'I' for Inactive)
REMARK    1  A    between atoms: C_7  and  N_8 
REMARK       I    between atoms: N_8  and  C_9 
REMARK    2  A    between atoms: C_9  and  C_11 
REMARK    3  A    between atoms: C_14  and  O_15 
ROOT
ATOM      1  C   UNL d   1      23.629 -18.680  -0.813  0.00  0.00     0.018 C 
ATOM      2  C   UNL d   1      24.499 -17.852  -0.875  0.00  0.00    -0.078 C 
ATOM      3  C   UNL d   1      25.507 -16.842  -0.936  0.00  0.00     0.019 A 
ATOM      4  C   UNL d   1      25.800 -16.201  -2.129  0.00  0.00     0.021 A 
ATOM      5  C   UNL d   1      26.742 -15.170  -2.140  0.00  0.00     0.004 A 
ATOM      6  C   UNL d   1      27.400 -14.785  -0.954  0.00  0.00     0.029 A 
ATOM      7  C   UNL d   1      27.135 -15.454   0.251  0.00  0.00     0.036 A 
ATOM      8  C   UNL d   1      26.183 -16.479   0.227  0.00  0.00     0.050 A 
ENDROOT
BRANCH   7   9
ATOM      9  N   UNL d   1      27.816 -15.097   1.456  0.00  0.00    -0.323 N 
ATOM     10  C   UNL d   1      27.406 -14.071   2.313  0.00  0.00     0.256 C 
ATOM     11  O   UNL d   1      26.442 -13.325   2.166  0.00  0.00    -0.267 OA
ATOM     12  H   UNL d   1      28.607 -15.671   1.721  0.00  0.00     0.169 HD
BRANCH  10  13
ATOM     13  C   UNL d   1      28.173 -13.824   3.552  0.00  0.00     0.034 A 
ATOM     14  C   UNL d   1      28.947 -14.822   4.147  0.00  0.00     0.020 A 
ATOM     15  C   UNL d   1      29.752 -14.510   5.252  0.00  0.00     0.039 A 
ATOM     16  C   UNL d   1      29.780 -13.206   5.755  0.00  0.00     0.087 A 
ATOM     17  C   UNL d   1      29.016 -12.205   5.150  0.00  0.00     0.068 A 
ATOM     18 CL   UNL d   1      29.015 -10.590   5.765  0.00  0.00    -0.081 Cl
ATOM     19  C   UNL d   1      28.228 -12.506   4.041  0.00  0.00     0.043 A 
BRANCH  16  20
ATOM     20  O   UNL d   1      30.554 -12.889   6.838  0.00  0.00    -0.359 OA
ATOM     21  H   UNL d   1      31.398 -13.366   6.812  0.00  0.00     0.217 HD
ENDBRANCH  16  20
ENDBRANCH  10  13
ENDBRANCH   7   9
TORSDOF 3
ENDMDL
