MODEL 1
REMARK VINA RESULT:   -28.419      0.000      0.000
REMARK INTER + INTRA:         -30.908
REMARK INTER:                 -29.910
REMARK INTRA:                  -0.997
REMARK CONF_INDEPENDENT:        1.492
REMARK UNBOUND:                -0.997
REMARK  5 active torsions:
REMARK  status: ('A' for Active; 'I' for Inactive)
REMARK    1  A    between atoms: C_2  and  C_12 
REMARK    2  A    between atoms: C_2  and  C_3 
REMARK    3  A    between atoms: C_3  and  N_4 
REMARK    4  A    between atoms: N_4  and  C_5 
REMARK       I    between atoms: C_12  and  N_14 
REMARK    5  A    between atoms: N_14  and  N_15 
ROOT
ATOM      1  C   UNL d   1      24.589 -18.444  -0.527  0.00  0.00     0.133 C 
ENDROOT
BRANCH   1   2
ATOM      2  N   UNL d   1      25.627 -17.461  -0.226  0.00  0.00    -0.388 N 
ATOM      3  H   UNL d   1      26.157 -17.509   0.633  0.00  0.00     0.159 HD
BRANCH   2   4
ATOM      4  C   UNL d   1      25.912 -16.356  -1.013  0.00  0.00     0.050 A 
ATOM      5  C   UNL d   1      25.408 -16.377  -2.331  0.00  0.00     0.031 A 
ATOM      6  C   UNL d   1      25.583 -15.296  -3.200  0.00  0.00     0.002 A 
ATOM      7  C   UNL d   1      26.268 -14.168  -2.767  0.00  0.00     0.002 A 
ATOM      8  C   UNL d   1      26.792 -14.132  -1.480  0.00  0.00     0.026 A 
ATOM      9  C   UNL d   1      26.626 -15.213  -0.611  0.00  0.00     0.060 A 
ATOM     10 CL   UNL d   1      27.488 -15.073   0.884  0.00  0.00    -0.082 Cl
ENDBRANCH   2   4
ENDBRANCH   1   2
BRANCH   1  11
ATOM     11  C   UNL d   1      23.158 -18.007  -0.133  0.00  0.00     0.093 C 
ATOM     12  C   UNL d   1      22.962 -16.494  -0.168  0.00  0.00     0.021 C 
BRANCH  11  13
ATOM     13  C   UNL d   1      22.115 -18.710  -1.015  0.00  0.00     0.237 C 
ATOM     14  O   UNL d   1      22.380 -19.312  -2.061  0.00  0.00    -0.272 OA
ATOM     15  N   UNL d   1      20.806 -18.651  -0.549  0.00  0.00    -0.294 N 
ATOM     16  H   UNL d   1      20.588 -18.281   0.373  0.00  0.00     0.183 HD
BRANCH  15  17
ATOM     17  N   UNL d   1      19.791 -19.325  -1.270  0.00  0.00    -0.247 NA
ATOM     18  H   UNL d   1      20.228 -19.666  -2.143  0.00  0.00     0.143 HD
ATOM     19  H   UNL d   1      19.108 -18.635  -1.590  0.00  0.00     0.143 HD
ENDBRANCH  15  17
ENDBRANCH  11  13
ENDBRANCH   1  11
TORSDOF 5
ENDMDL
MODEL 2
REMARK VINA RESULT:   -28.363      1.510      2.054
REMARK INTER + INTRA:         -30.997
REMARK INTER:                 -29.855
REMARK INTRA:                  -1.142
REMARK CONF_INDEPENDENT:        1.492
REMARK UNBOUND:                -1.142
REMARK  5 active torsions:
REMARK  status: ('A' for Active; 'I' for Inactive)
REMARK    1  A    between atoms: C_2  and  C_12 
REMARK    2  A    between atoms: C_2  and  C_3 
REMARK    3  A    between atoms: C_3  and  N_4 
REMARK    4  A    between atoms: N_4  and  C_5 
REMARK       I    between atoms: C_12  and  N_14 
REMARK    5  A    between atoms: N_14  and  N_15 
ROOT
ATOM      1  C   UNL d   1      24.214 -18.293  -0.131  0.00  0.00     0.133 C 
ENDROOT
BRANCH   1   2
ATOM      2  N   UNL d   1      24.985 -17.664  -1.201  0.00  0.00    -0.388 N 
ATOM      3  H   UNL d   1      24.820 -17.900  -2.170  0.00  0.00     0.159 HD
BRANCH   2   4
ATOM      4  C   UNL d   1      26.040 -16.789  -0.997  0.00  0.00     0.050 A 
ATOM      5  C   UNL d   1      26.948 -17.128   0.028  0.00  0.00     0.031 A 
ATOM      6  C   UNL d   1      28.081 -16.353   0.290  0.00  0.00     0.002 A 
ATOM      7  C   UNL d   1      28.330 -15.218  -0.471  0.00  0.00     0.002 A 
ATOM      8  C   UNL d   1      27.440 -14.852  -1.473  0.00  0.00     0.026 A 
ATOM      9  C   UNL d   1      26.302 -15.619  -1.733  0.00  0.00     0.060 A 
ATOM     10 CL   UNL d   1      25.216 -14.927  -2.890  0.00  0.00    -0.082 Cl
ENDBRANCH   2   4
ENDBRANCH   1   2
BRANCH   1  11
ATOM     11  C   UNL d   1      22.767 -17.765   0.015  0.00  0.00     0.093 C 
ATOM     12  C   UNL d   1      22.654 -16.258  -0.208  0.00  0.00     0.021 C 
BRANCH  11  13
ATOM     13  C   UNL d   1      21.815 -18.525  -0.920  0.00  0.00     0.237 C 
ATOM     14  O   UNL d   1      22.162 -19.071  -1.972  0.00  0.00    -0.272 OA
ATOM     15  N   UNL d   1      20.493 -18.590  -0.495  0.00  0.00    -0.294 N 
ATOM     16  H   UNL d   1      20.216 -18.267   0.429  0.00  0.00     0.183 HD
BRANCH  15  17
ATOM     17  N   UNL d   1      19.560 -19.325  -1.268  0.00  0.00    -0.247 NA
ATOM     18  H   UNL d   1      20.059 -19.623  -2.122  0.00  0.00     0.143 HD
ATOM     19  H   UNL d   1      18.846 -18.680  -1.613  0.00  0.00     0.143 HD
ENDBRANCH  15  17
ENDBRANCH  11  13
ENDBRANCH   1  11
TORSDOF 5
ENDMDL
MODEL 3
REMARK VINA RESULT:   -28.227      1.613      2.012
REMARK INTER + INTRA:         -30.673
REMARK INTER:                 -29.719
REMARK INTRA:                  -0.955
REMARK CONF_INDEPENDENT:        1.492
REMARK UNBOUND:                -0.955
REMARK  5 active torsions:
REMARK  status: ('A' for Active; 'I' for Inactive)
REMARK    1  A    between atoms: C_2  and  C_12 
REMARK    2  A    between atoms: C_2  and  C_3 
REMARK    3  A    between atoms: C_3  and  N_4 
REMARK    4  A    between atoms: N_4  and  C_5 
REMARK       I    between atoms: C_12  and  N_14 
REMARK    5  A    between atoms: N_14  and  N_15 
ROOT
ATOM      1  C   UNL d   1      23.855 -18.456  -1.082  0.00  0.00     0.133 C 
ENDROOT
BRANCH   1   2
ATOM      2  N   UNL d   1      24.750 -17.515  -1.751  0.00  0.00    -0.388 N 
ATOM      3  H   UNL d   1      24.811 -17.480  -2.759  0.00  0.00     0.159 HD
BRANCH   2   4
ATOM      4  C   UNL d   1      25.636 -16.675  -1.095  0.00  0.00     0.050 A 
ATOM      5  C   UNL d   1      25.687 -15.339  -1.545  0.00  0.00     0.031 A 
ATOM      6  C   UNL d   1      26.500 -14.386  -0.926  0.00  0.00     0.002 A 
ATOM      7  C   UNL d   1      27.284 -14.752   0.161  0.00  0.00     0.002 A 
ATOM      8  C   UNL d   1      27.268 -16.067   0.610  0.00  0.00     0.026 A 
ATOM      9  C   UNL d   1      26.462 -17.024  -0.011  0.00  0.00     0.060 A 
ATOM     10 CL   UNL d   1      26.694 -18.642   0.562  0.00  0.00    -0.082 Cl
ENDBRANCH   2   4
ENDBRANCH   1   2
BRANCH   1  11
ATOM     11  C   UNL d   1      22.815 -17.799  -0.144  0.00  0.00     0.093 C 
ATOM     12  C   UNL d   1      22.499 -16.353  -0.518  0.00  0.00     0.021 C 
BRANCH  11  13
ATOM     13  C   UNL d   1      21.529 -18.638  -0.087  0.00  0.00     0.237 C 
ATOM     14  O   UNL d   1      21.158 -19.277   0.902  0.00  0.00    -0.272 OA
ATOM     15  N   UNL d   1      20.762 -18.626  -1.247  0.00  0.00    -0.294 N 
ATOM     16  H   UNL d   1      20.979 -18.002  -2.020  0.00  0.00     0.183 HD
BRANCH  15  17
ATOM     17  N   UNL d   1      19.530 -19.325  -1.261  0.00  0.00    -0.247 NA
ATOM     18  H   UNL d   1      18.807 -18.638  -1.531  0.00  0.00     0.143 HD
ATOM     19  H   UNL d   1      19.287 -19.572  -0.299  0.00  0.00     0.143 HD
ENDBRANCH  15  17
ENDBRANCH  11  13
ENDBRANCH   1  11
TORSDOF 5
ENDMDL
MODEL 4
REMARK VINA RESULT:   -28.196      1.496      1.692
REMARK INTER + INTRA:         -31.215
REMARK INTER:                 -29.687
REMARK INTRA:                  -1.528
REMARK CONF_INDEPENDENT:        1.492
REMARK UNBOUND:                -1.528
REMARK  5 active torsions:
REMARK  status: ('A' for Active; 'I' for Inactive)
REMARK    1  A    between atoms: C_2  and  C_12 
REMARK    2  A    between atoms: C_2  and  C_3 
REMARK    3  A    between atoms: C_3  and  N_4 
REMARK    4  A    between atoms: N_4  and  C_5 
REMARK       I    between atoms: C_12  and  N_14 
REMARK    5  A    between atoms: N_14  and  N_15 
ROOT
ATOM      1  C   UNL d   1      24.196 -17.635  -1.887  0.00  0.00     0.133 C 
ENDROOT
BRANCH   1   2
ATOM      2  N   UNL d   1      24.132 -16.177  -1.829  0.00  0.00    -0.388 N 
ATOM      3  H   UNL d   1      23.272 -15.702  -1.594  0.00  0.00     0.159 HD
BRANCH   2   4
ATOM      4  C   UNL d   1      25.178 -15.332  -2.167  0.00  0.00     0.050 A 
ATOM      5  C   UNL d   1      24.923 -14.396  -3.192  0.00  0.00     0.031 A 
ATOM      6  C   UNL d   1      25.880 -13.456  -3.581  0.00  0.00     0.002 A 
ATOM      7  C   UNL d   1      27.118 -13.433  -2.952  0.00  0.00     0.002 A 
ATOM      8  C   UNL d   1      27.401 -14.358  -1.954  0.00  0.00     0.026 A 
ATOM      9  C   UNL d   1      26.450 -15.304  -1.567  0.00  0.00     0.060 A 
ATOM     10 CL   UNL d   1      27.026 -16.485  -0.440  0.00  0.00    -0.082 Cl
ENDBRANCH   2   4
ENDBRANCH   1   2
BRANCH   1  11
ATOM     11  C   UNL d   1      23.369 -18.359  -0.799  0.00  0.00     0.093 C 
ATOM     12  C   UNL d   1      23.954 -18.201   0.603  0.00  0.00     0.021 C 
BRANCH  11  13
ATOM     13  C   UNL d   1      21.905 -17.895  -0.831  0.00  0.00     0.237 C 
ATOM     14  O   UNL d   1      21.552 -16.713  -0.895  0.00  0.00    -0.272 OA
ATOM     15  N   UNL d   1      20.959 -18.914  -0.807  0.00  0.00    -0.294 N 
ATOM     16  H   UNL d   1      21.229 -19.890  -0.892  0.00  0.00     0.183 HD
BRANCH  15  17
ATOM     17  N   UNL d   1      19.586 -18.576  -0.895  0.00  0.00    -0.247 NA
ATOM     18  H   UNL d   1      19.194 -19.146  -1.663  0.00  0.00     0.143 HD
ATOM     19  H   UNL d   1      19.510 -17.616  -1.237  0.00  0.00     0.143 HD
ENDBRANCH  15  17
ENDBRANCH  11  13
ENDBRANCH   1  11
TORSDOF 5
ENDMDL
MODEL 5
REMARK VINA RESULT:   -28.011      1.932      2.343
REMARK INTER + INTRA:         -31.062
REMARK INTER:                 -29.502
REMARK INTRA:                  -1.560
REMARK CONF_INDEPENDENT:        1.492
REMARK UNBOUND:                -1.560
REMARK  5 active torsions:
REMARK  status: ('A' for Active; 'I' for Inactive)
REMARK    1  A    between atoms: C_2  and  C_12 
REMARK    2  A    between atoms: C_2  and  C_3 
REMARK    3  A    between atoms: C_3  and  N_4 
REMARK    4  A    between atoms: N_4  and  C_5 
REMARK       I    between atoms: C_12  and  N_14 
REMARK    5  A    between atoms: N_14  and  N_15 
ROOT
ATOM      1  C   UNL d   1      24.215 -17.779  -1.864  0.00  0.00     0.133 C 
ENDROOT
BRANCH   1   2
ATOM      2  N   UNL d   1      24.215 -16.329  -1.686  0.00  0.00    -0.388 N 
ATOM      3  H   UNL d   1      23.358 -15.796  -1.747  0.00  0.00     0.159 HD
BRANCH   2   4
ATOM      4  C   UNL d   1      25.356 -15.560  -1.516  0.00  0.00     0.050 A 
ATOM      5  C   UNL d   1      26.071 -15.754  -0.315  0.00  0.00     0.031 A 
ATOM      6  C   UNL d   1      27.266 -15.078  -0.057  0.00  0.00     0.002 A 
ATOM      7  C   UNL d   1      27.773 -14.190  -0.997  0.00  0.00     0.002 A 
ATOM      8  C   UNL d   1      27.076 -13.966  -2.178  0.00  0.00     0.026 A 
ATOM      9  C   UNL d   1      25.877 -14.634  -2.438  0.00  0.00     0.060 A 
ATOM     10 CL   UNL d   1      25.055 -14.109  -3.869  0.00  0.00    -0.082 Cl
ENDBRANCH   2   4
ENDBRANCH   1   2
BRANCH   1  11
ATOM     11  C   UNL d   1      23.337 -18.551  -0.850  0.00  0.00     0.093 C 
ATOM     12  C   UNL d   1      23.905 -18.538   0.567  0.00  0.00     0.021 C 
BRANCH  11  13
ATOM     13  C   UNL d   1      21.897 -18.016  -0.863  0.00  0.00     0.237 C 
ATOM     14  O   UNL d   1      21.599 -16.819  -0.921  0.00  0.00    -0.272 OA
ATOM     15  N   UNL d   1      20.903 -18.988  -0.826  0.00  0.00    -0.294 N 
ATOM     16  H   UNL d   1      21.124 -19.977  -0.915  0.00  0.00     0.183 HD
BRANCH  15  17
ATOM     17  N   UNL d   1      19.547 -18.585  -0.895  0.00  0.00    -0.247 NA
ATOM     18  H   UNL d   1      19.168 -18.981  -1.771  0.00  0.00     0.143 HD
ATOM     19  H   UNL d   1      19.517 -17.575  -1.049  0.00  0.00     0.143 HD
ENDBRANCH  15  17
ENDBRANCH  11  13
ENDBRANCH   1  11
TORSDOF 5
ENDMDL
MODEL 6
REMARK VINA RESULT:   -27.183      2.243      2.673
REMARK INTER + INTRA:         -28.838
REMARK INTER:                 -28.674
REMARK INTRA:                  -0.163
REMARK CONF_INDEPENDENT:        1.492
REMARK UNBOUND:                -0.163
REMARK  5 active torsions:
REMARK  status: ('A' for Active; 'I' for Inactive)
REMARK    1  A    between atoms: C_2  and  C_12 
REMARK    2  A    between atoms: C_2  and  C_3 
REMARK    3  A    between atoms: C_3  and  N_4 
REMARK    4  A    between atoms: N_4  and  C_5 
REMARK       I    between atoms: C_12  and  N_14 
REMARK    5  A    between atoms: N_14  and  N_15 
ROOT
ATOM      1  C   UNL d   1      24.220 -16.514  -1.783  0.00  0.00     0.133 C 
ENDROOT
BRANCH   1   2
ATOM      2  N   UNL d   1      25.580 -16.676  -2.293  0.00  0.00    -0.388 N 
ATOM      3  H   UNL d   1      26.139 -17.478  -2.040  0.00  0.00     0.159 HD
BRANCH   2   4
ATOM      4  C   UNL d   1      26.244 -15.737  -3.068  0.00  0.00     0.050 A 
ATOM      5  C   UNL d   1      27.627 -15.945  -3.258  0.00  0.00     0.031 A 
ATOM      6  C   UNL d   1      28.391 -15.098  -4.064  0.00  0.00     0.002 A 
ATOM      7  C   UNL d   1      27.786 -14.021  -4.700  0.00  0.00     0.002 A 
ATOM      8  C   UNL d   1      26.430 -13.783  -4.512  0.00  0.00     0.026 A 
ATOM      9  C   UNL d   1      25.663 -14.623  -3.700  0.00  0.00     0.060 A 
ATOM     10 CL   UNL d   1      24.039 -14.084  -3.437  0.00  0.00    -0.082 Cl
ENDBRANCH   2   4
ENDBRANCH   1   2
BRANCH   1  11
ATOM     11  C   UNL d   1      23.602 -17.798  -1.182  0.00  0.00     0.093 C 
ATOM     12  C   UNL d   1      24.329 -18.284   0.070  0.00  0.00     0.021 C 
BRANCH  11  13
ATOM     13  C   UNL d   1      22.106 -17.596  -0.897  0.00  0.00     0.237 C 
ATOM     14  O   UNL d   1      21.607 -16.533  -0.516  0.00  0.00    -0.272 OA
ATOM     15  N   UNL d   1      21.305 -18.711  -1.118  0.00  0.00    -0.294 N 
ATOM     16  H   UNL d   1      21.673 -19.550  -1.558  0.00  0.00     0.183 HD
BRANCH  15  17
ATOM     17  N   UNL d   1      19.905 -18.596  -0.937  0.00  0.00    -0.247 NA
ATOM     18  H   UNL d   1      19.491 -19.477  -1.283  0.00  0.00     0.143 HD
ATOM     19  H   UNL d   1      19.552 -17.888  -1.584  0.00  0.00     0.143 HD
ENDBRANCH  15  17
ENDBRANCH  11  13
ENDBRANCH   1  11
TORSDOF 5
ENDMDL
