MODEL 1
REMARK VINA RESULT:    -7.767      0.000      0.000
REMARK INTER + INTRA:          -9.614
REMARK INTER:                  -8.960
REMARK INTRA:                  -0.654
REMARK CONF_INDEPENDENT:        1.193
REMARK UNBOUND:                -0.654
REMARK  4 active torsions:
REMARK  status: ('A' for Active; 'I' for Inactive)
REMARK    1  A    between atoms: C_6  and  O_7 
REMARK    2  A    between atoms: O_7  and  C_8 
REMARK    3  A    between atoms: C_8  and  C_10 
REMARK    4  A    between atoms: C_14  and  N_15 
REMARK       I    between atoms: N_15  and  C_16 
REMARK       I    between atoms: C_16  and  N_17 
ROOT
ATOM      1  C   UNL d   1      24.519 -17.589  -0.377  0.00  0.00     0.042 A 
ATOM      2  C   UNL d   1      24.035 -16.328  -0.698  0.00  0.00     0.018 A 
ATOM      3  C   UNL d   1      22.661 -16.164  -0.895  0.00  0.00     0.003 A 
ATOM      4  C   UNL d   1      21.780 -17.260  -0.770  0.00  0.00     0.029 A 
ATOM      5  C   UNL d   1      22.276 -18.524  -0.412  0.00  0.00     0.037 A 
ATOM      6  C   UNL d   1      23.647 -18.652  -0.279  0.00  0.00     0.047 A 
ENDROOT
BRANCH   1   7
ATOM      7  C   UNL d   1      25.888 -17.799   0.122  0.00  0.00     0.298 C 
ATOM      8  O   UNL d   1      26.042 -18.575   1.043  0.00  0.00    -0.259 OA
BRANCH   7   9
ATOM      9  O   UNL d   1      26.861 -17.116  -0.636  0.00  0.00    -0.274 OA
BRANCH   9  10
ATOM     10  C   UNL d   1      26.999 -15.689  -0.630  0.00  0.00     0.086 A 
ATOM     11  C   UNL d   1      27.419 -15.030   0.527  0.00  0.00     0.038 A 
ATOM     12  C   UNL d   1      27.527 -13.651   0.580  0.00  0.00     0.003 A 
ATOM     13  C   UNL d   1      27.197 -12.894  -0.528  0.00  0.00     0.007 A 
ATOM     14  C   UNL d   1      26.769 -13.513  -1.713  0.00  0.00    -0.053 A 
ATOM     15  C   UNL d   1      26.406 -12.614  -2.868  0.00  0.00     0.049 C 
ATOM     16  C   UNL d   1      26.682 -14.935  -1.786  0.00  0.00    -0.022 A 
ATOM     17  C   UNL d   1      26.260 -15.575  -3.083  0.00  0.00     0.052 C 
ENDBRANCH   9  10
ENDBRANCH   7   9
ENDBRANCH   1   7
BRANCH   5  18
ATOM     18  N   UNL d   1      21.414 -19.615  -0.172  0.00  0.00    -0.309 N 
ATOM     19  C   UNL d   1      20.078 -19.804  -0.390  0.00  0.00     0.318 C 
ATOM     20  N   UNL d   1      19.297 -18.825  -0.903  0.00  0.00    -0.352 N 
ATOM     21  O   UNL d   1      19.546 -20.867  -0.078  0.00  0.00    -0.247 OA
ATOM     22  H   UNL d   1      19.606 -18.200  -1.627  0.00  0.00     0.160 HD
ATOM     23  H   UNL d   1      18.334 -19.086  -1.062  0.00  0.00     0.160 HD
ATOM     24  H   UNL d   1      21.834 -20.448   0.230  0.00  0.00     0.170 HD
ENDBRANCH   5  18
TORSDOF 4
ENDMDL
MODEL 2
REMARK VINA RESULT:    -7.590      1.680      2.194
REMARK INTER + INTRA:          -9.405
REMARK INTER:                  -8.783
REMARK INTRA:                  -0.622
REMARK CONF_INDEPENDENT:        1.193
REMARK UNBOUND:                -0.622
REMARK  4 active torsions:
REMARK  status: ('A' for Active; 'I' for Inactive)
REMARK    1  A    between atoms: C_6  and  O_7 
REMARK    2  A    between atoms: O_7  and  C_8 
REMARK    3  A    between atoms: C_8  and  C_10 
REMARK    4  A    between atoms: C_14  and  N_15 
REMARK       I    between atoms: N_15  and  C_16 
REMARK       I    between atoms: C_16  and  N_17 
ROOT
ATOM      1  C   UNL d   1      24.640 -17.619  -0.368  0.00  0.00     0.042 A 
ATOM      2  C   UNL d   1      24.176 -16.353  -0.693  0.00  0.00     0.018 A 
ATOM      3  C   UNL d   1      22.804 -16.170  -0.895  0.00  0.00     0.003 A 
ATOM      4  C   UNL d   1      21.908 -17.253  -0.771  0.00  0.00     0.029 A 
ATOM      5  C   UNL d   1      22.384 -18.523  -0.409  0.00  0.00     0.037 A 
ATOM      6  C   UNL d   1      23.753 -18.670  -0.270  0.00  0.00     0.047 A 
ENDROOT
BRANCH   1   7
ATOM      7  C   UNL d   1      26.005 -17.848   0.136  0.00  0.00     0.298 C 
ATOM      8  O   UNL d   1      26.263 -18.942   0.594  0.00  0.00    -0.259 OA
BRANCH   7   9
ATOM      9  O   UNL d   1      26.864 -16.752  -0.085  0.00  0.00    -0.274 OA
BRANCH   9  10
ATOM     10  C   UNL d   1      27.925 -16.771  -1.049  0.00  0.00     0.086 A 
ATOM     11  C   UNL d   1      29.134 -17.401  -0.747  0.00  0.00     0.038 A 
ATOM     12  C   UNL d   1      30.193 -17.407  -1.640  0.00  0.00     0.003 A 
ATOM     13  C   UNL d   1      30.069 -16.761  -2.855  0.00  0.00     0.007 A 
ATOM     14  C   UNL d   1      28.873 -16.113  -3.200  0.00  0.00    -0.053 A 
ATOM     15  C   UNL d   1      28.829 -15.412  -4.534  0.00  0.00     0.049 C 
ATOM     16  C   UNL d   1      27.767 -16.127  -2.300  0.00  0.00    -0.022 A 
ATOM     17  C   UNL d   1      26.481 -15.459  -2.713  0.00  0.00     0.052 C 
ENDBRANCH   9  10
ENDBRANCH   7   9
ENDBRANCH   1   7
BRANCH   5  18
ATOM     18  N   UNL d   1      21.507 -19.602  -0.169  0.00  0.00    -0.309 N 
ATOM     19  C   UNL d   1      20.167 -19.769  -0.385  0.00  0.00     0.318 C 
ATOM     20  N   UNL d   1      19.401 -18.778  -0.895  0.00  0.00    -0.352 N 
ATOM     21  O   UNL d   1      19.619 -20.825  -0.075  0.00  0.00    -0.247 OA
ATOM     22  H   UNL d   1      19.718 -18.156  -1.618  0.00  0.00     0.160 HD
ATOM     23  H   UNL d   1      18.434 -19.024  -1.053  0.00  0.00     0.160 HD
ATOM     24  H   UNL d   1      21.915 -20.442   0.230  0.00  0.00     0.170 HD
ENDBRANCH   5  18
TORSDOF 4
ENDMDL
MODEL 3
REMARK VINA RESULT:    -7.520      2.160      3.331
REMARK INTER + INTRA:          -9.268
REMARK INTER:                  -8.714
REMARK INTRA:                  -0.554
REMARK CONF_INDEPENDENT:        1.193
REMARK UNBOUND:                -0.554
REMARK  4 active torsions:
REMARK  status: ('A' for Active; 'I' for Inactive)
REMARK    1  A    between atoms: C_6  and  O_7 
REMARK    2  A    between atoms: O_7  and  C_8 
REMARK    3  A    between atoms: C_8  and  C_10 
REMARK    4  A    between atoms: C_14  and  N_15 
REMARK       I    between atoms: N_15  and  C_16 
REMARK       I    between atoms: C_16  and  N_17 
ROOT
ATOM      1  C   UNL d   1      25.393 -16.708  -1.415  0.00  0.00     0.042 A 
ATOM      2  C   UNL d   1      26.017 -17.076  -0.232  0.00  0.00     0.018 A 
ATOM      3  C   UNL d   1      25.382 -17.999   0.606  0.00  0.00     0.003 A 
ATOM      4  C   UNL d   1      24.130 -18.547   0.254  0.00  0.00     0.029 A 
ATOM      5  C   UNL d   1      23.523 -18.194  -0.962  0.00  0.00     0.037 A 
ATOM      6  C   UNL d   1      24.161 -17.239  -1.733  0.00  0.00     0.047 A 
ENDROOT
BRANCH   1   7
ATOM      7  C   UNL d   1      26.101 -15.976  -2.479  0.00  0.00     0.298 C 
ATOM      8  O   UNL d   1      27.279 -16.219  -2.645  0.00  0.00    -0.259 OA
BRANCH   7   9
ATOM      9  O   UNL d   1      25.250 -15.146  -3.236  0.00  0.00    -0.274 OA
BRANCH   9  10
ATOM     10  C   UNL d   1      25.678 -13.906  -3.814  0.00  0.00     0.086 A 
ATOM     11  C   UNL d   1      25.170 -12.697  -3.334  0.00  0.00     0.038 A 
ATOM     12  C   UNL d   1      25.531 -11.483  -3.893  0.00  0.00     0.003 A 
ATOM     13  C   UNL d   1      26.403 -11.454  -4.965  0.00  0.00     0.007 A 
ATOM     14  C   UNL d   1      26.937 -12.645  -5.482  0.00  0.00    -0.053 A 
ATOM     15  C   UNL d   1      27.861 -12.527  -6.668  0.00  0.00     0.049 C 
ATOM     16  C   UNL d   1      26.593 -13.898  -4.894  0.00  0.00    -0.022 A 
ATOM     17  C   UNL d   1      27.214 -15.157  -5.443  0.00  0.00     0.052 C 
ENDBRANCH   9  10
ENDBRANCH   7   9
ENDBRANCH   1   7
BRANCH   5  18
ATOM     18  N   UNL d   1      22.327 -18.803  -1.396  0.00  0.00    -0.309 N 
ATOM     19  C   UNL d   1      21.178 -19.153  -0.744  0.00  0.00     0.318 C 
ATOM     20  N   UNL d   1      21.032 -18.965   0.588  0.00  0.00    -0.352 N 
ATOM     21  O   UNL d   1      20.260 -19.693  -1.358  0.00  0.00    -0.247 OA
ATOM     22  H   UNL d   1      21.384 -18.156   1.069  0.00  0.00     0.160 HD
ATOM     23  H   UNL d   1      20.127 -19.220   0.959  0.00  0.00     0.160 HD
ATOM     24  H   UNL d   1      22.264 -19.030  -2.384  0.00  0.00     0.170 HD
ENDBRANCH   5  18
TORSDOF 4
ENDMDL
MODEL 4
REMARK VINA RESULT:    -7.486      3.073      4.559
REMARK INTER + INTRA:          -9.336
REMARK INTER:                  -8.679
REMARK INTRA:                  -0.657
REMARK CONF_INDEPENDENT:        1.193
REMARK UNBOUND:                -0.657
REMARK  4 active torsions:
REMARK  status: ('A' for Active; 'I' for Inactive)
REMARK    1  A    between atoms: C_6  and  O_7 
REMARK    2  A    between atoms: O_7  and  C_8 
REMARK    3  A    between atoms: C_8  and  C_10 
REMARK    4  A    between atoms: C_14  and  N_15 
REMARK       I    between atoms: N_15  and  C_16 
REMARK       I    between atoms: C_16  and  N_17 
ROOT
ATOM      1  C   UNL d   1      25.710 -15.939  -2.088  0.00  0.00     0.042 A 
ATOM      2  C   UNL d   1      26.663 -16.605  -1.332  0.00  0.00     0.018 A 
ATOM      3  C   UNL d   1      26.238 -17.531  -0.375  0.00  0.00     0.003 A 
ATOM      4  C   UNL d   1      24.863 -17.785  -0.182  0.00  0.00     0.029 A 
ATOM      5  C   UNL d   1      23.908 -17.130  -0.975  0.00  0.00     0.037 A 
ATOM      6  C   UNL d   1      24.371 -16.184  -1.873  0.00  0.00     0.047 A 
ENDROOT
BRANCH   1   7
ATOM      7  C   UNL d   1      26.064 -15.173  -3.295  0.00  0.00     0.298 C 
ATOM      8  O   UNL d   1      25.163 -14.844  -4.040  0.00  0.00    -0.259 OA
BRANCH   7   9
ATOM      9  O   UNL d   1      27.432 -14.841  -3.356  0.00  0.00    -0.274 OA
BRANCH   9  10
ATOM     10  C   UNL d   1      28.230 -15.021  -4.532  0.00  0.00     0.086 A 
ATOM     11  C   UNL d   1      27.961 -14.276  -5.682  0.00  0.00     0.038 A 
ATOM     12  C   UNL d   1      28.688 -14.450  -6.849  0.00  0.00     0.003 A 
ATOM     13  C   UNL d   1      29.695 -15.395  -6.894  0.00  0.00     0.007 A 
ATOM     14  C   UNL d   1      30.000 -16.168  -5.763  0.00  0.00    -0.053 A 
ATOM     15  C   UNL d   1      31.096 -17.193  -5.904  0.00  0.00     0.049 C 
ATOM     16  C   UNL d   1      29.276 -15.975  -4.549  0.00  0.00    -0.022 A 
ATOM     17  C   UNL d   1      29.652 -16.790  -3.338  0.00  0.00     0.052 C 
ENDBRANCH   9  10
ENDBRANCH   7   9
ENDBRANCH   1   7
BRANCH   5  18
ATOM     18  N   UNL d   1      22.533 -17.439  -0.886  0.00  0.00    -0.309 N 
ATOM     19  C   UNL d   1      21.863 -18.567  -0.503  0.00  0.00     0.318 C 
ATOM     20  N   UNL d   1      22.518 -19.695  -0.144  0.00  0.00    -0.352 N 
ATOM     21  O   UNL d   1      20.634 -18.590  -0.520  0.00  0.00    -0.247 OA
ATOM     22  H   UNL d   1      23.368 -19.689   0.391  0.00  0.00     0.160 HD
ATOM     23  H   UNL d   1      21.925 -20.454   0.161  0.00  0.00     0.160 HD
ATOM     24  H   UNL d   1      21.883 -16.700  -1.133  0.00  0.00     0.170 HD
ENDBRANCH   5  18
TORSDOF 4
ENDMDL
MODEL 5
REMARK VINA RESULT:    -7.432      2.177      3.533
REMARK INTER + INTRA:          -9.267
REMARK INTER:                  -8.625
REMARK INTRA:                  -0.642
REMARK CONF_INDEPENDENT:        1.193
REMARK UNBOUND:                -0.642
REMARK  4 active torsions:
REMARK  status: ('A' for Active; 'I' for Inactive)
REMARK    1  A    between atoms: C_6  and  O_7 
REMARK    2  A    between atoms: O_7  and  C_8 
REMARK    3  A    between atoms: C_8  and  C_10 
REMARK    4  A    between atoms: C_14  and  N_15 
REMARK       I    between atoms: N_15  and  C_16 
REMARK       I    between atoms: C_16  and  N_17 
ROOT
ATOM      1  C   UNL d   1      25.102 -16.359  -1.088  0.00  0.00     0.042 A 
ATOM      2  C   UNL d   1      26.017 -17.037  -0.296  0.00  0.00     0.018 A 
ATOM      3  C   UNL d   1      25.685 -18.309   0.180  0.00  0.00     0.003 A 
ATOM      4  C   UNL d   1      24.442 -18.895  -0.141  0.00  0.00     0.029 A 
ATOM      5  C   UNL d   1      23.537 -18.215  -0.972  0.00  0.00     0.037 A 
ATOM      6  C   UNL d   1      23.884 -16.939  -1.376  0.00  0.00     0.047 A 
ENDROOT
BRANCH   1   7
ATOM      7  C   UNL d   1      25.470 -15.159  -1.859  0.00  0.00     0.298 C 
ATOM      8  O   UNL d   1      25.910 -14.207  -1.247  0.00  0.00    -0.259 OA
BRANCH   7   9
ATOM      9  O   UNL d   1      25.341 -15.338  -3.251  0.00  0.00    -0.274 OA
BRANCH   9  10
ATOM     10  C   UNL d   1      26.245 -14.761  -4.201  0.00  0.00     0.086 A 
ATOM     11  C   UNL d   1      27.194 -15.562  -4.841  0.00  0.00     0.038 A 
ATOM     12  C   UNL d   1      28.108 -15.032  -5.736  0.00  0.00     0.003 A 
ATOM     13  C   UNL d   1      28.102 -13.676  -6.000  0.00  0.00     0.007 A 
ATOM     14  C   UNL d   1      27.167 -12.832  -5.379  0.00  0.00    -0.053 A 
ATOM     15  C   UNL d   1      27.246 -11.362  -5.703  0.00  0.00     0.049 C 
ATOM     16  C   UNL d   1      26.204 -13.373  -4.477  0.00  0.00    -0.022 A 
ATOM     17  C   UNL d   1      25.186 -12.451  -3.858  0.00  0.00     0.052 C 
ENDBRANCH   9  10
ENDBRANCH   7   9
ENDBRANCH   1   7
BRANCH   5  18
ATOM     18  N   UNL d   1      22.334 -18.815  -1.402  0.00  0.00    -0.309 N 
ATOM     19  C   UNL d   1      21.182 -19.149  -0.746  0.00  0.00     0.318 C 
ATOM     20  N   UNL d   1      21.040 -18.953   0.585  0.00  0.00    -0.352 N 
ATOM     21  O   UNL d   1      20.257 -19.683  -1.357  0.00  0.00    -0.247 OA
ATOM     22  H   UNL d   1      21.400 -18.145   1.062  0.00  0.00     0.160 HD
ATOM     23  H   UNL d   1      20.133 -19.198   0.958  0.00  0.00     0.160 HD
ATOM     24  H   UNL d   1      22.267 -19.046  -2.388  0.00  0.00     0.170 HD
ENDBRANCH   5  18
TORSDOF 4
ENDMDL
MODEL 6
REMARK VINA RESULT:    -7.420      2.488      3.532
REMARK INTER + INTRA:          -9.300
REMARK INTER:                  -8.613
REMARK INTRA:                  -0.687
REMARK CONF_INDEPENDENT:        1.193
REMARK UNBOUND:                -0.687
REMARK  4 active torsions:
REMARK  status: ('A' for Active; 'I' for Inactive)
REMARK    1  A    between atoms: C_6  and  O_7 
REMARK    2  A    between atoms: O_7  and  C_8 
REMARK    3  A    between atoms: C_8  and  C_10 
REMARK    4  A    between atoms: C_14  and  N_15 
REMARK       I    between atoms: N_15  and  C_16 
REMARK       I    between atoms: C_16  and  N_17 
ROOT
ATOM      1  C   UNL d   1      25.125 -16.315  -1.395  0.00  0.00     0.042 A 
ATOM      2  C   UNL d   1      25.960 -16.824  -0.410  0.00  0.00     0.018 A 
ATOM      3  C   UNL d   1      25.554 -17.959   0.297  0.00  0.00     0.003 A 
ATOM      4  C   UNL d   1      24.318 -18.579   0.015  0.00  0.00     0.029 A 
ATOM      5  C   UNL d   1      23.496 -18.076  -1.007  0.00  0.00     0.037 A 
ATOM      6  C   UNL d   1      23.912 -16.921  -1.644  0.00  0.00     0.047 A 
ENDROOT
BRANCH   1   7
ATOM      7  C   UNL d   1      25.585 -15.313  -2.371  0.00  0.00     0.298 C 
ATOM      8  O   UNL d   1      24.755 -14.816  -3.105  0.00  0.00    -0.259 OA
BRANCH   7   9
ATOM      9  O   UNL d   1      26.953 -15.000  -2.236  0.00  0.00    -0.274 OA
BRANCH   9  10
ATOM     10  C   UNL d   1      27.964 -15.514  -3.113  0.00  0.00     0.086 A 
ATOM     11  C   UNL d   1      28.904 -16.430  -2.637  0.00  0.00     0.038 A 
ATOM     12  C   UNL d   1      29.917 -16.919  -3.445  0.00  0.00     0.003 A 
ATOM     13  C   UNL d   1      30.022 -16.483  -4.752  0.00  0.00     0.007 A 
ATOM     14  C   UNL d   1      29.100 -15.561  -5.273  0.00  0.00    -0.053 A 
ATOM     15  C   UNL d   1      29.300 -15.118  -6.700  0.00  0.00     0.049 C 
ATOM     16  C   UNL d   1      28.036 -15.074  -4.457  0.00  0.00    -0.022 A 
ATOM     17  C   UNL d   1      27.037 -14.118  -5.054  0.00  0.00     0.052 C 
ENDBRANCH   9  10
ENDBRANCH   7   9
ENDBRANCH   1   7
BRANCH   5  18
ATOM     18  N   UNL d   1      22.307 -18.733  -1.390  0.00  0.00    -0.309 N 
ATOM     19  C   UNL d   1      21.202 -19.129  -0.689  0.00  0.00     0.318 C 
ATOM     20  N   UNL d   1      21.108 -18.947   0.649  0.00  0.00    -0.352 N 
ATOM     21  O   UNL d   1      20.280 -19.705  -1.263  0.00  0.00    -0.247 OA
ATOM     22  H   UNL d   1      21.447 -18.125   1.116  0.00  0.00     0.160 HD
ATOM     23  H   UNL d   1      20.231 -19.239   1.058  0.00  0.00     0.160 HD
ATOM     24  H   UNL d   1      22.209 -18.962  -2.374  0.00  0.00     0.170 HD
ENDBRANCH   5  18
TORSDOF 4
ENDMDL
MODEL 7
REMARK VINA RESULT:    -7.241      1.767      2.201
REMARK INTER + INTRA:          -9.008
REMARK INTER:                  -8.434
REMARK INTRA:                  -0.573
REMARK CONF_INDEPENDENT:        1.193
REMARK UNBOUND:                -0.573
REMARK  4 active torsions:
REMARK  status: ('A' for Active; 'I' for Inactive)
REMARK    1  A    between atoms: C_6  and  O_7 
REMARK    2  A    between atoms: O_7  and  C_8 
REMARK    3  A    between atoms: C_8  and  C_10 
REMARK    4  A    between atoms: C_14  and  N_15 
REMARK       I    between atoms: N_15  and  C_16 
REMARK       I    between atoms: C_16  and  N_17 
ROOT
ATOM      1  C   UNL d   1      24.798 -17.649  -0.234  0.00  0.00     0.042 A 
ATOM      2  C   UNL d   1      24.404 -16.382  -0.638  0.00  0.00     0.018 A 
ATOM      3  C   UNL d   1      23.056 -16.157  -0.934  0.00  0.00     0.003 A 
ATOM      4  C   UNL d   1      22.112 -17.200  -0.822  0.00  0.00     0.029 A 
ATOM      5  C   UNL d   1      22.515 -18.470  -0.380  0.00  0.00     0.037 A 
ATOM      6  C   UNL d   1      23.866 -18.662  -0.150  0.00  0.00     0.047 A 
ENDROOT
BRANCH   1   7
ATOM      7  C   UNL d   1      26.119 -17.906   0.364  0.00  0.00     0.298 C 
ATOM      8  O   UNL d   1      26.162 -18.575   1.376  0.00  0.00    -0.259 OA
BRANCH   7   9
ATOM      9  O   UNL d   1      27.182 -17.398  -0.410  0.00  0.00    -0.274 OA
BRANCH   9  10
ATOM     10  C   UNL d   1      28.062 -16.365   0.050  0.00  0.00     0.086 A 
ATOM     11  C   UNL d   1      27.612 -15.422   0.977  0.00  0.00     0.038 A 
ATOM     12  C   UNL d   1      28.422 -14.388   1.415  0.00  0.00     0.003 A 
ATOM     13  C   UNL d   1      29.705 -14.265   0.917  0.00  0.00     0.007 A 
ATOM     14  C   UNL d   1      30.200 -15.188  -0.018  0.00  0.00    -0.053 A 
ATOM     15  C   UNL d   1      31.601 -14.967  -0.529  0.00  0.00     0.049 C 
ATOM     16  C   UNL d   1      29.383 -16.273  -0.453  0.00  0.00    -0.022 A 
ATOM     17  C   UNL d   1      29.954 -17.273  -1.425  0.00  0.00     0.052 C 
ENDBRANCH   9  10
ENDBRANCH   7   9
ENDBRANCH   1   7
BRANCH   5  18
ATOM     18  N   UNL d   1      21.583 -19.505  -0.153  0.00  0.00    -0.309 N 
ATOM     19  C   UNL d   1      20.239 -19.605  -0.382  0.00  0.00     0.318 C 
ATOM     20  N   UNL d   1      19.528 -18.575  -0.895  0.00  0.00    -0.352 N 
ATOM     21  O   UNL d   1      19.636 -20.633  -0.081  0.00  0.00    -0.247 OA
ATOM     22  H   UNL d   1      19.882 -17.967  -1.612  0.00  0.00     0.160 HD
ATOM     23  H   UNL d   1      18.551 -18.772  -1.063  0.00  0.00     0.160 HD
ATOM     24  H   UNL d   1      21.945 -20.366   0.247  0.00  0.00     0.170 HD
ENDBRANCH   5  18
TORSDOF 4
ENDMDL
MODEL 8
REMARK VINA RESULT:    -7.003      4.909      7.850
REMARK INTER + INTRA:          -8.904
REMARK INTER:                  -8.197
REMARK INTRA:                  -0.707
REMARK CONF_INDEPENDENT:        1.193
REMARK UNBOUND:                -0.707
REMARK  4 active torsions:
REMARK  status: ('A' for Active; 'I' for Inactive)
REMARK    1  A    between atoms: C_6  and  O_7 
REMARK    2  A    between atoms: O_7  and  C_8 
REMARK    3  A    between atoms: C_8  and  C_10 
REMARK    4  A    between atoms: C_14  and  N_15 
REMARK       I    between atoms: N_15  and  C_16 
REMARK       I    between atoms: C_16  and  N_17 
ROOT
ATOM      1  C   UNL d   1      26.850 -15.085  -4.148  0.00  0.00     0.042 A 
ATOM      2  C   UNL d   1      27.877 -15.672  -3.423  0.00  0.00     0.018 A 
ATOM      3  C   UNL d   1      29.132 -15.811  -4.023  0.00  0.00     0.003 A 
ATOM      4  C   UNL d   1      29.352 -15.361  -5.343  0.00  0.00     0.029 A 
ATOM      5  C   UNL d   1      28.315 -14.739  -6.056  0.00  0.00     0.037 A 
ATOM      6  C   UNL d   1      27.077 -14.670  -5.443  0.00  0.00     0.047 A 
ENDROOT
BRANCH   1   7
ATOM      7  C   UNL d   1      25.596 -14.643  -3.514  0.00  0.00     0.298 C 
ATOM      8  O   UNL d   1      24.690 -14.287  -4.239  0.00  0.00    -0.259 OA
BRANCH   7   9
ATOM      9  O   UNL d   1      25.603 -14.798  -2.113  0.00  0.00    -0.274 OA
BRANCH   9  10
ATOM     10  C   UNL d   1      25.257 -16.025  -1.459  0.00  0.00     0.086 A 
ATOM     11  C   UNL d   1      23.991 -16.585  -1.644  0.00  0.00     0.038 A 
ATOM     12  C   UNL d   1      23.609 -17.749  -0.999  0.00  0.00     0.003 A 
ATOM     13  C   UNL d   1      24.487 -18.373  -0.133  0.00  0.00     0.007 A 
ATOM     14  C   UNL d   1      25.769 -17.845   0.085  0.00  0.00    -0.053 A 
ATOM     15  C   UNL d   1      26.655 -18.573   1.064  0.00  0.00     0.049 C 
ATOM     16  C   UNL d   1      26.182 -16.663  -0.597  0.00  0.00    -0.022 A 
ATOM     17  C   UNL d   1      27.578 -16.142  -0.375  0.00  0.00     0.052 C 
ENDBRANCH   9  10
ENDBRANCH   7   9
ENDBRANCH   1   7
BRANCH   5  18
ATOM     18  N   UNL d   1      28.528 -14.180  -7.334  0.00  0.00    -0.309 N 
ATOM     19  C   UNL d   1      28.671 -12.892  -7.767  0.00  0.00     0.318 C 
ATOM     20  N   UNL d   1      28.582 -11.843  -6.918  0.00  0.00    -0.352 N 
ATOM     21  O   UNL d   1      28.843 -12.658  -8.962  0.00  0.00    -0.247 OA
ATOM     22  H   UNL d   1      28.955 -11.859  -5.985  0.00  0.00     0.160 HD
ATOM     23  H   UNL d   1      28.746 -10.938  -7.338  0.00  0.00     0.160 HD
ATOM     24  H   UNL d   1      28.610 -14.832  -8.109  0.00  0.00     0.170 HD
ENDBRANCH   5  18
TORSDOF 4
ENDMDL
MODEL 9
REMARK VINA RESULT:    -6.817      2.174      3.586
REMARK INTER + INTRA:          -8.733
REMARK INTER:                  -8.010
REMARK INTRA:                  -0.722
REMARK CONF_INDEPENDENT:        1.193
REMARK UNBOUND:                -0.722
REMARK  4 active torsions:
REMARK  status: ('A' for Active; 'I' for Inactive)
REMARK    1  A    between atoms: C_6  and  O_7 
REMARK    2  A    between atoms: O_7  and  C_8 
REMARK    3  A    between atoms: C_8  and  C_10 
REMARK    4  A    between atoms: C_14  and  N_15 
REMARK       I    between atoms: N_15  and  C_16 
REMARK       I    between atoms: C_16  and  N_17 
ROOT
ATOM      1  C   UNL d   1      26.080 -16.202  -0.140  0.00  0.00     0.042 A 
ATOM      2  C   UNL d   1      26.730 -17.384   0.185  0.00  0.00     0.018 A 
ATOM      3  C   UNL d   1      25.996 -18.575   0.200  0.00  0.00     0.003 A 
ATOM      4  C   UNL d   1      24.620 -18.575  -0.112  0.00  0.00     0.029 A 
ATOM      5  C   UNL d   1      23.979 -17.379  -0.473  0.00  0.00     0.037 A 
ATOM      6  C   UNL d   1      24.731 -16.218  -0.423  0.00  0.00     0.047 A 
ENDROOT
BRANCH   1   7
ATOM      7  C   UNL d   1      26.815 -14.966  -0.456  0.00  0.00     0.298 C 
ATOM      8  O   UNL d   1      26.567 -13.976   0.202  0.00  0.00    -0.259 OA
BRANCH   7   9
ATOM      9  O   UNL d   1      27.802 -15.150  -1.446  0.00  0.00    -0.274 OA
BRANCH   9  10
ATOM     10  C   UNL d   1      27.519 -15.112  -2.850  0.00  0.00     0.086 A 
ATOM     11  C   UNL d   1      26.197 -15.047  -3.297  0.00  0.00     0.038 A 
ATOM     12  C   UNL d   1      25.885 -15.047  -4.646  0.00  0.00     0.003 A 
ATOM     13  C   UNL d   1      26.896 -15.131  -5.584  0.00  0.00     0.007 A 
ATOM     14  C   UNL d   1      28.239 -15.200  -5.181  0.00  0.00    -0.053 A 
ATOM     15  C   UNL d   1      29.279 -15.314  -6.267  0.00  0.00     0.049 C 
ATOM     16  C   UNL d   1      28.572 -15.172  -3.794  0.00  0.00    -0.022 A 
ATOM     17  C   UNL d   1      30.024 -15.205  -3.392  0.00  0.00     0.052 C 
ENDBRANCH   9  10
ENDBRANCH   7   9
ENDBRANCH   1   7
BRANCH   5  18
ATOM     18  N   UNL d   1      22.633 -17.359  -0.896  0.00  0.00    -0.309 N 
ATOM     19  C   UNL d   1      21.613 -18.260  -0.775  0.00  0.00     0.318 C 
ATOM     20  N   UNL d   1      21.794 -19.463  -0.183  0.00  0.00    -0.352 N 
ATOM     21  O   UNL d   1      20.506 -18.006  -1.248  0.00  0.00    -0.247 OA
ATOM     22  H   UNL d   1      22.371 -19.593   0.629  0.00  0.00     0.160 HD
ATOM     23  H   UNL d   1      20.963 -20.032  -0.111  0.00  0.00     0.160 HD
ATOM     24  H   UNL d   1      22.319 -16.522  -1.378  0.00  0.00     0.170 HD
ENDBRANCH   5  18
TORSDOF 4
ENDMDL
