MODEL 1
REMARK VINA RESULT:   -26.642      0.000      0.000
REMARK INTER + INTRA:         -29.566
REMARK INTER:                 -28.730
REMARK INTRA:                  -0.836
REMARK CONF_INDEPENDENT:        2.088
REMARK UNBOUND:                -0.836
REMARK  7 active torsions:
REMARK  status: ('A' for Active; 'I' for Inactive)
REMARK    1  A    between atoms: O_2  and  C_3 
REMARK    2  A    between atoms: C_6  and  C_7 
REMARK    3  A    between atoms: C_8  and  C_9 
REMARK       I    between atoms: C_9  and  N_11 
REMARK    4  A    between atoms: N_11  and  C_12 
REMARK    5  A    between atoms: C_15  and  S_16 
REMARK    6  A    between atoms: S_16  and  N_19 
REMARK    7  A    between atoms: N_19  and  C_20 
ROOT
ATOM      1  C   UNL d   1      26.251 -15.122  -0.854  0.00  0.00     0.035 A 
ATOM      2  C   UNL d   1      26.304 -16.242  -0.018  0.00  0.00     0.031 A 
ATOM      3  C   UNL d   1      25.429 -17.336  -0.226  0.00  0.00     0.027 A 
ATOM      4  C   UNL d   1      24.470 -17.309  -1.259  0.00  0.00     0.080 A 
ATOM      5  C   UNL d   1      24.439 -16.208  -2.109  0.00  0.00     0.027 A 
ATOM      6  C   UNL d   1      25.315 -15.125  -1.896  0.00  0.00     0.031 A 
ENDROOT
BRANCH   1   7
ATOM      7  N   UNL d   1      27.157 -14.036  -0.683  0.00  0.00    -0.324 N 
ATOM      8  C   UNL d   1      27.083 -13.139   0.379  0.00  0.00     0.245 C 
ATOM      9  O   UNL d   1      26.299 -13.227   1.318  0.00  0.00    -0.268 OA
ATOM     10  H   UNL d   1      27.942 -13.990  -1.321  0.00  0.00     0.169 HD
BRANCH   8  11
ATOM     11  C   UNL d   1      28.093 -12.032   0.344  0.00  0.00     0.075 C 
ATOM     12  C   UNL d   1      27.829 -10.835   0.913  0.00  0.00     0.017 C 
BRANCH  12  13
ATOM     13  C   UNL d   1      28.710  -9.639   0.885  0.00  0.00    -0.036 A 
ATOM     14  C   UNL d   1      28.633  -8.714  -0.171  0.00  0.00     0.014 A 
ATOM     15  C   UNL d   1      29.546  -7.648  -0.265  0.00  0.00     0.037 A 
ATOM     16  C   UNL d   1      30.506  -7.442   0.725  0.00  0.00     0.068 A 
ATOM     17  C   UNL d   1      30.561  -8.324   1.798  0.00  0.00     0.037 A 
ATOM     18  C   UNL d   1      29.674  -9.405   1.872  0.00  0.00     0.014 A 
BRANCH  16  19
ATOM     19  O   UNL d   1      31.255  -6.305   0.612  0.00  0.00    -0.356 OA
ATOM     20  C   UNL d   1      31.944  -5.881   1.785  0.00  0.00     0.210 C 
ENDBRANCH  16  19
ENDBRANCH  12  13
ENDBRANCH   8  11
ENDBRANCH   1   7
BRANCH   4  21
ATOM     21  S   UNL d   1      23.267 -18.662  -1.351  0.00  0.00     0.264 S 
ATOM     22  O   UNL d   1      23.280 -19.093  -2.728  0.00  0.00    -0.200 OA
ATOM     23  O   UNL d   1      23.639 -19.555  -0.266  0.00  0.00    -0.200 OA
BRANCH  21  24
ATOM     24  N   UNL d   1      21.743 -18.026  -1.023  0.00  0.00    -0.264 N 
ATOM     25  H   UNL d   1      21.391 -17.225  -1.524  0.00  0.00     0.180 HD
BRANCH  24  26
ATOM     26  C   UNL d   1      20.826 -18.791  -0.245  0.00  0.00     0.141 A 
ATOM     27  C   UNL d   1      21.076 -19.032   1.092  0.00  0.00     0.077 A 
ATOM     28  C   UNL d   1      20.150 -19.810   1.767  0.00  0.00     0.036 A 
ATOM     29  C   UNL d   1      20.279 -20.077   3.240  0.00  0.00     0.070 C 
ATOM     30  N   UNL d   1      19.081 -20.345   1.144  0.00  0.00    -0.239 NA
ATOM     31  C   UNL d   1      18.943 -20.085  -0.171  0.00  0.00     0.124 A 
ATOM     32  C   UNL d   1      17.754 -20.676  -0.871  0.00  0.00     0.093 C 
ATOM     33  N   UNL d   1      19.787 -19.325  -0.895  0.00  0.00    -0.216 NA
ENDBRANCH  24  26
ENDBRANCH  21  24
ENDBRANCH   4  21
TORSDOF 7
ENDMDL
MODEL 2
REMARK VINA RESULT:   -26.633      2.920      3.221
REMARK INTER + INTRA:         -29.549
REMARK INTER:                 -28.721
REMARK INTRA:                  -0.828
REMARK CONF_INDEPENDENT:        2.088
REMARK UNBOUND:                -0.828
REMARK  7 active torsions:
REMARK  status: ('A' for Active; 'I' for Inactive)
REMARK    1  A    between atoms: O_2  and  C_3 
REMARK    2  A    between atoms: C_6  and  C_7 
REMARK    3  A    between atoms: C_8  and  C_9 
REMARK       I    between atoms: C_9  and  N_11 
REMARK    4  A    between atoms: N_11  and  C_12 
REMARK    5  A    between atoms: C_15  and  S_16 
REMARK    6  A    between atoms: S_16  and  N_19 
REMARK    7  A    between atoms: N_19  and  C_20 
ROOT
ATOM      1  C   UNL d   1      26.658 -15.979   0.467  0.00  0.00     0.035 A 
ATOM      2  C   UNL d   1      26.852 -17.362   0.384  0.00  0.00     0.031 A 
ATOM      3  C   UNL d   1      25.874 -18.189  -0.218  0.00  0.00     0.027 A 
ATOM      4  C   UNL d   1      24.675 -17.644  -0.720  0.00  0.00     0.080 A 
ATOM      5  C   UNL d   1      24.497 -16.265  -0.665  0.00  0.00     0.027 A 
ATOM      6  C   UNL d   1      25.477 -15.450  -0.066  0.00  0.00     0.031 A 
ENDROOT
BRANCH   1   7
ATOM      7  N   UNL d   1      27.656 -15.132   1.029  0.00  0.00    -0.324 N 
ATOM      8  C   UNL d   1      27.375 -13.891   1.595  0.00  0.00     0.245 C 
ATOM      9  O   UNL d   1      26.248 -13.432   1.752  0.00  0.00    -0.268 OA
ATOM     10  H   UNL d   1      28.593 -15.509   1.097  0.00  0.00     0.169 HD
BRANCH   8  11
ATOM     11  C   UNL d   1      28.572 -13.129   2.078  0.00  0.00     0.075 C 
ATOM     12  C   UNL d   1      29.082 -13.347   3.310  0.00  0.00     0.017 C 
BRANCH  12  13
ATOM     13  C   UNL d   1      30.212 -12.611   3.932  0.00  0.00    -0.036 A 
ATOM     14  C   UNL d   1      31.478 -12.586   3.320  0.00  0.00     0.014 A 
ATOM     15  C   UNL d   1      32.580 -11.995   3.964  0.00  0.00     0.037 A 
ATOM     16  C   UNL d   1      32.428 -11.355   5.194  0.00  0.00     0.068 A 
ATOM     17  C   UNL d   1      31.171 -11.333   5.786  0.00  0.00     0.037 A 
ATOM     18  C   UNL d   1      30.082 -11.953   5.161  0.00  0.00     0.014 A 
BRANCH  16  19
ATOM     19  O   UNL d   1      33.526 -10.697   5.671  0.00  0.00    -0.356 OA
ATOM     20  C   UNL d   1      34.782 -11.343   5.482  0.00  0.00     0.210 C 
ENDBRANCH  16  19
ENDBRANCH  12  13
ENDBRANCH   8  11
ENDBRANCH   1   7
BRANCH   4  21
ATOM     21  S   UNL d   1      23.394 -18.782  -1.312  0.00  0.00     0.264 S 
ATOM     22  O   UNL d   1      23.564 -18.840  -2.744  0.00  0.00    -0.200 OA
ATOM     23  O   UNL d   1      23.540 -19.962  -0.475  0.00  0.00    -0.200 OA
BRANCH  21  24
ATOM     24  N   UNL d   1      21.894 -18.085  -0.997  0.00  0.00    -0.264 N 
ATOM     25  H   UNL d   1      21.580 -17.270  -1.499  0.00  0.00     0.180 HD
BRANCH  24  26
ATOM     26  C   UNL d   1      20.939 -18.814  -0.230  0.00  0.00     0.141 A 
ATOM     27  C   UNL d   1      21.154 -19.046   1.115  0.00  0.00     0.077 A 
ATOM     28  C   UNL d   1      20.191 -19.788   1.779  0.00  0.00     0.036 A 
ATOM     29  C   UNL d   1      20.282 -20.041   3.258  0.00  0.00     0.070 C 
ATOM     30  N   UNL d   1      19.121 -20.300   1.141  0.00  0.00    -0.239 NA
ATOM     31  C   UNL d   1      19.018 -20.052  -0.180  0.00  0.00     0.124 A 
ATOM     32  C   UNL d   1      17.827 -20.617  -0.898  0.00  0.00     0.093 C 
ATOM     33  N   UNL d   1      19.899 -19.325  -0.895  0.00  0.00    -0.216 NA
ENDBRANCH  24  26
ENDBRANCH  21  24
ENDBRANCH   4  21
TORSDOF 7
ENDMDL
MODEL 3
REMARK VINA RESULT:   -26.432      1.841      2.240
REMARK INTER + INTRA:         -29.412
REMARK INTER:                 -28.520
REMARK INTRA:                  -0.892
REMARK CONF_INDEPENDENT:        2.088
REMARK UNBOUND:                -0.892
REMARK  7 active torsions:
REMARK  status: ('A' for Active; 'I' for Inactive)
REMARK    1  A    between atoms: O_2  and  C_3 
REMARK    2  A    between atoms: C_6  and  C_7 
REMARK    3  A    between atoms: C_8  and  C_9 
REMARK       I    between atoms: C_9  and  N_11 
REMARK    4  A    between atoms: N_11  and  C_12 
REMARK    5  A    between atoms: C_15  and  S_16 
REMARK    6  A    between atoms: S_16  and  N_19 
REMARK    7  A    between atoms: N_19  and  C_20 
ROOT
ATOM      1  C   UNL d   1      26.464 -15.446  -0.328  0.00  0.00     0.035 A 
ATOM      2  C   UNL d   1      26.479 -16.693   0.304  0.00  0.00     0.031 A 
ATOM      3  C   UNL d   1      25.554 -17.699  -0.067  0.00  0.00     0.027 A 
ATOM      4  C   UNL d   1      24.581 -17.456  -1.059  0.00  0.00     0.080 A 
ATOM      5  C   UNL d   1      24.587 -16.226  -1.709  0.00  0.00     0.027 A 
ATOM      6  C   UNL d   1      25.514 -15.233  -1.334  0.00  0.00     0.031 A 
ENDROOT
BRANCH   1   7
ATOM      7  N   UNL d   1      27.420 -14.444   0.004  0.00  0.00    -0.324 N 
ATOM      8  C   UNL d   1      27.140 -13.370   0.845  0.00  0.00     0.245 C 
ATOM      9  O   UNL d   1      26.087 -13.212   1.453  0.00  0.00    -0.268 OA
ATOM     10  H   UNL d   1      28.368 -14.590  -0.319  0.00  0.00     0.169 HD
BRANCH   8  11
ATOM     11  C   UNL d   1      28.264 -12.393   1.021  0.00  0.00     0.075 C 
ATOM     12  C   UNL d   1      29.526 -12.823   1.243  0.00  0.00     0.017 C 
BRANCH  12  13
ATOM     13  C   UNL d   1      30.709 -11.964   1.505  0.00  0.00    -0.036 A 
ATOM     14  C   UNL d   1      31.618 -12.285   2.528  0.00  0.00     0.014 A 
ATOM     15  C   UNL d   1      32.670 -11.412   2.860  0.00  0.00     0.037 A 
ATOM     16  C   UNL d   1      32.879 -10.239   2.135  0.00  0.00     0.068 A 
ATOM     17  C   UNL d   1      32.013  -9.934   1.092  0.00  0.00     0.037 A 
ATOM     18  C   UNL d   1      30.945 -10.787   0.785  0.00  0.00     0.014 A 
BRANCH  16  19
ATOM     19  O   UNL d   1      34.004  -9.529   2.448  0.00  0.00    -0.356 OA
ATOM     20  C   UNL d   1      35.181  -9.852   1.712  0.00  0.00     0.210 C 
ENDBRANCH  16  19
ENDBRANCH  12  13
ENDBRANCH   8  11
ENDBRANCH   1   7
BRANCH   4  21
ATOM     21  S   UNL d   1      23.318 -18.723  -1.352  0.00  0.00     0.264 S 
ATOM     22  O   UNL d   1      23.365 -18.990  -2.770  0.00  0.00    -0.200 OA
ATOM     23  O   UNL d   1      23.602 -19.755  -0.369  0.00  0.00    -0.200 OA
BRANCH  21  24
ATOM     24  N   UNL d   1      21.815 -18.049  -1.003  0.00  0.00    -0.264 N 
ATOM     25  H   UNL d   1      21.484 -17.229  -1.486  0.00  0.00     0.180 HD
BRANCH  24  26
ATOM     26  C   UNL d   1      20.881 -18.802  -0.234  0.00  0.00     0.141 A 
ATOM     27  C   UNL d   1      21.113 -19.044   1.106  0.00  0.00     0.077 A 
ATOM     28  C   UNL d   1      20.170 -19.809   1.771  0.00  0.00     0.036 A 
ATOM     29  C   UNL d   1      20.279 -20.076   3.246  0.00  0.00     0.070 C 
ATOM     30  N   UNL d   1      19.102 -20.333   1.138  0.00  0.00    -0.239 NA
ATOM     31  C   UNL d   1      18.981 -20.074  -0.179  0.00  0.00     0.124 A 
ATOM     32  C   UNL d   1      17.794 -20.651  -0.892  0.00  0.00     0.093 C 
ATOM     33  N   UNL d   1      19.843 -19.325  -0.895  0.00  0.00    -0.216 NA
ENDBRANCH  24  26
ENDBRANCH  21  24
ENDBRANCH   4  21
TORSDOF 7
ENDMDL
MODEL 4
REMARK VINA RESULT:   -26.402      2.549      3.181
REMARK INTER + INTRA:         -29.181
REMARK INTER:                 -28.491
REMARK INTRA:                  -0.690
REMARK CONF_INDEPENDENT:        2.088
REMARK UNBOUND:                -0.690
REMARK  7 active torsions:
REMARK  status: ('A' for Active; 'I' for Inactive)
REMARK    1  A    between atoms: O_2  and  C_3 
REMARK    2  A    between atoms: C_6  and  C_7 
REMARK    3  A    between atoms: C_8  and  C_9 
REMARK       I    between atoms: C_9  and  N_11 
REMARK    4  A    between atoms: N_11  and  C_12 
REMARK    5  A    between atoms: C_15  and  S_16 
REMARK    6  A    between atoms: S_16  and  N_19 
REMARK    7  A    between atoms: N_19  and  C_20 
ROOT
ATOM      1  C   UNL d   1      26.026 -14.888  -1.851  0.00  0.00     0.035 A 
ATOM      2  C   UNL d   1      24.666 -14.826  -2.170  0.00  0.00     0.031 A 
ATOM      3  C   UNL d   1      23.820 -15.936  -1.930  0.00  0.00     0.027 A 
ATOM      4  C   UNL d   1      24.335 -17.135  -1.395  0.00  0.00     0.080 A 
ATOM      5  C   UNL d   1      25.681 -17.185  -1.049  0.00  0.00     0.027 A 
ATOM      6  C   UNL d   1      26.514 -16.074  -1.288  0.00  0.00     0.031 A 
ENDROOT
BRANCH   1   7
ATOM      7  N   UNL d   1      26.876 -13.762  -2.044  0.00  0.00    -0.324 N 
ATOM      8  C   UNL d   1      26.570 -12.711  -2.903  0.00  0.00     0.245 C 
ATOM      9  O   UNL d   1      25.514 -12.593  -3.517  0.00  0.00    -0.268 OA
ATOM     10  H   UNL d   1      27.691 -13.695  -1.445  0.00  0.00     0.169 HD
BRANCH   8  11
ATOM     11  C   UNL d   1      27.623 -11.649  -3.008  0.00  0.00     0.075 C 
ATOM     12  C   UNL d   1      27.308 -10.396  -3.404  0.00  0.00     0.017 C 
BRANCH  12  13
ATOM     13  C   UNL d   1      28.263  -9.280  -3.619  0.00  0.00    -0.036 A 
ATOM     14  C   UNL d   1      28.809  -8.582  -2.528  0.00  0.00     0.014 A 
ATOM     15  C   UNL d   1      29.617  -7.447  -2.728  0.00  0.00     0.037 A 
ATOM     16  C   UNL d   1      29.955  -7.031  -4.015  0.00  0.00     0.068 A 
ATOM     17  C   UNL d   1      29.458  -7.742  -5.101  0.00  0.00     0.037 A 
ATOM     18  C   UNL d   1      28.625  -8.849  -4.901  0.00  0.00     0.014 A 
BRANCH  16  19
ATOM     19  O   UNL d   1      30.852  -6.003  -4.101  0.00  0.00    -0.356 OA
ATOM     20  C   UNL d   1      30.413  -4.836  -4.791  0.00  0.00     0.210 C 
ENDBRANCH  16  19
ENDBRANCH  12  13
ENDBRANCH   8  11
ENDBRANCH   1   7
BRANCH   4  21
ATOM     21  S   UNL d   1      23.233 -18.571  -1.286  0.00  0.00     0.264 S 
ATOM     22  O   UNL d   1      23.283 -19.191  -2.588  0.00  0.00    -0.200 OA
ATOM     23  O   UNL d   1      23.664 -19.271  -0.087  0.00  0.00    -0.200 OA
BRANCH  21  24
ATOM     24  N   UNL d   1      21.666 -18.006  -1.042  0.00  0.00    -0.264 N 
ATOM     25  H   UNL d   1      21.289 -17.253  -1.595  0.00  0.00     0.180 HD
BRANCH  24  26
ATOM     26  C   UNL d   1      20.765 -18.781  -0.255  0.00  0.00     0.141 A 
ATOM     27  C   UNL d   1      21.032 -19.022   1.079  0.00  0.00     0.077 A 
ATOM     28  C   UNL d   1      20.120 -19.810   1.762  0.00  0.00     0.036 A 
ATOM     29  C   UNL d   1      20.268 -20.078   3.233  0.00  0.00     0.070 C 
ATOM     30  N   UNL d   1      19.051 -20.355   1.151  0.00  0.00    -0.239 NA
ATOM     31  C   UNL d   1      18.896 -20.094  -0.163  0.00  0.00     0.124 A 
ATOM     32  C   UNL d   1      17.705 -20.696  -0.851  0.00  0.00     0.093 C 
ATOM     33  N   UNL d   1      19.725 -19.325  -0.895  0.00  0.00    -0.216 NA
ENDBRANCH  24  26
ENDBRANCH  21  24
ENDBRANCH   4  21
TORSDOF 7
ENDMDL
MODEL 5
REMARK VINA RESULT:   -26.322      1.740      2.009
REMARK INTER + INTRA:         -29.273
REMARK INTER:                 -28.410
REMARK INTRA:                  -0.863
REMARK CONF_INDEPENDENT:        2.088
REMARK UNBOUND:                -0.863
REMARK  7 active torsions:
REMARK  status: ('A' for Active; 'I' for Inactive)
REMARK    1  A    between atoms: O_2  and  C_3 
REMARK    2  A    between atoms: C_6  and  C_7 
REMARK    3  A    between atoms: C_8  and  C_9 
REMARK       I    between atoms: C_9  and  N_11 
REMARK    4  A    between atoms: N_11  and  C_12 
REMARK    5  A    between atoms: C_15  and  S_16 
REMARK    6  A    between atoms: S_16  and  N_19 
REMARK    7  A    between atoms: N_19  and  C_20 
ROOT
ATOM      1  C   UNL d   1      26.348 -15.073  -1.450  0.00  0.00     0.035 A 
ATOM      2  C   UNL d   1      26.041 -15.824  -2.589  0.00  0.00     0.031 A 
ATOM      3  C   UNL d   1      25.049 -16.833  -2.538  0.00  0.00     0.027 A 
ATOM      4  C   UNL d   1      24.372 -17.122  -1.335  0.00  0.00     0.080 A 
ATOM      5  C   UNL d   1      24.657 -16.353  -0.211  0.00  0.00     0.027 A 
ATOM      6  C   UNL d   1      25.643 -15.349  -0.272  0.00  0.00     0.031 A 
ENDROOT
BRANCH   1   7
ATOM      7  N   UNL d   1      27.311 -14.024  -1.501  0.00  0.00    -0.324 N 
ATOM      8  C   UNL d   1      27.111 -12.837  -2.201  0.00  0.00     0.245 C 
ATOM      9  O   UNL d   1      26.071 -12.528  -2.772  0.00  0.00    -0.268 OA
ATOM     10  H   UNL d   1      28.131 -14.125  -0.915  0.00  0.00     0.169 HD
BRANCH   8  11
ATOM     11  C   UNL d   1      28.270 -11.886  -2.179  0.00  0.00     0.075 C 
ATOM     12  C   UNL d   1      28.829 -11.503  -1.009  0.00  0.00     0.017 C 
BRANCH  12  13
ATOM     13  C   UNL d   1      29.926 -10.516  -0.846  0.00  0.00    -0.036 A 
ATOM     14  C   UNL d   1      30.074  -9.797   0.352  0.00  0.00     0.014 A 
ATOM     15  C   UNL d   1      31.034  -8.775   0.468  0.00  0.00     0.037 A 
ATOM     16  C   UNL d   1      31.911  -8.499  -0.581  0.00  0.00     0.068 A 
ATOM     17  C   UNL d   1      31.804  -9.235  -1.754  0.00  0.00     0.037 A 
ATOM     18  C   UNL d   1      30.825 -10.228  -1.881  0.00  0.00     0.014 A 
BRANCH  16  19
ATOM     19  O   UNL d   1      32.892  -7.583  -0.322  0.00  0.00    -0.356 OA
ATOM     20  C   UNL d   1      34.229  -7.993  -0.596  0.00  0.00     0.210 C 
ENDBRANCH  16  19
ENDBRANCH  12  13
ENDBRANCH   8  11
ENDBRANCH   1   7
BRANCH   4  21
ATOM     21  S   UNL d   1      23.249 -18.545  -1.301  0.00  0.00     0.264 S 
ATOM     22  O   UNL d   1      23.280 -19.090  -2.637  0.00  0.00    -0.200 OA
ATOM     23  O   UNL d   1      23.678 -19.320  -0.149  0.00  0.00    -0.200 OA
BRANCH  21  24
ATOM     24  N   UNL d   1      21.693 -17.971  -1.013  0.00  0.00    -0.264 N 
ATOM     25  H   UNL d   1      21.316 -17.195  -1.533  0.00  0.00     0.180 HD
BRANCH  24  26
ATOM     26  C   UNL d   1      20.795 -18.764  -0.240  0.00  0.00     0.141 A 
ATOM     27  C   UNL d   1      21.047 -19.002   1.097  0.00  0.00     0.077 A 
ATOM     28  C   UNL d   1      20.140 -19.808   1.766  0.00  0.00     0.036 A 
ATOM     29  C   UNL d   1      20.272 -20.076   3.239  0.00  0.00     0.070 C 
ATOM     30  N   UNL d   1      19.089 -20.371   1.139  0.00  0.00    -0.239 NA
ATOM     31  C   UNL d   1      18.948 -20.111  -0.176  0.00  0.00     0.124 A 
ATOM     32  C   UNL d   1      17.779 -20.732  -0.882  0.00  0.00     0.093 C 
ATOM     33  N   UNL d   1      19.774 -19.325  -0.895  0.00  0.00    -0.216 NA
ENDBRANCH  24  26
ENDBRANCH  21  24
ENDBRANCH   4  21
TORSDOF 7
ENDMDL
