MODEL 1
REMARK VINA RESULT:   -10.532      0.000      0.000
REMARK INTER + INTRA:         -17.755
REMARK INTER:                 -14.708
REMARK INTRA:                  -3.047
REMARK CONF_INDEPENDENT:        4.176
REMARK UNBOUND:                -3.047
REMARK  14 active torsions:
REMARK  status: ('A' for Active; 'I' for Inactive)
REMARK    1  A    between atoms: C_2  and  C_3 
REMARK    2  A    between atoms: C_3  and  C_4 
REMARK    3  A    between atoms: C_4  and  O_5 
REMARK    4  A    between atoms: O_5  and  C_6 
REMARK    5  A    between atoms: C_9  and  C_10 
REMARK    6  A    between atoms: C_10  and  C_12 
REMARK    7  A    between atoms: C_13  and  O_14 
REMARK    8  A    between atoms: N_17  and  C_18 
REMARK    9  A    between atoms: C_18  and  C_19 
REMARK   10  A    between atoms: C_19  and  C_20 
REMARK   11  A    between atoms: C_20  and  N_21 
REMARK   12  A    between atoms: C_24  and  C_25 
REMARK   13  A    between atoms: C_28  and  O_29 
REMARK   14  A    between atoms: C_30  and  O_31 
ROOT
ATOM      1  C   UNL d   1      26.608 -14.763  -0.958  0.00  0.00     0.059 C 
ATOM      2  C   UNL d   1      27.147 -15.103   0.240  0.00  0.00     0.146 C 
ATOM      3  C   UNL d   1      27.561 -13.860   0.951  0.00  0.00     0.278 C 
ATOM      4  O   UNL d   1      26.814 -13.120   1.635  0.00  0.00    -0.265 OA
ATOM      5  N   UNL d   1      28.381 -13.269   0.043  0.00  0.00    -0.333 N 
ATOM      6  C   UNL d   1      27.063 -13.280  -1.089  0.00  0.00     0.161 C 
ENDROOT
BRANCH   1   7
ATOM      7  C   UNL d   1      25.784 -15.918  -1.564  0.00  0.00     0.194 C 
ATOM      8  O   UNL d   1      26.236 -16.339  -2.649  0.00  0.00    -0.287 OA
BRANCH   7   9
ATOM      9  C   UNL d   1      24.597 -16.745  -1.014  0.00  0.00     0.021 A 
ATOM     10  C   UNL d   1      23.281 -16.344  -1.268  0.00  0.00     0.019 A 
ATOM     11  C   UNL d   1      22.158 -17.093  -0.820  0.00  0.00     0.038 A 
ATOM     12  C   UNL d   1      22.294 -18.282  -0.108  0.00  0.00     0.069 A 
ATOM     13  C   UNL d   1      23.581 -18.691   0.217  0.00  0.00     0.044 A 
ATOM     14  C   UNL d   1      24.739 -17.958  -0.224  0.00  0.00    -0.045 A 
ATOM     15  C   UNL d   1      26.038 -18.605   0.230  0.00  0.00     0.049 C 
BRANCH  12  16
ATOM     16  O   UNL d   1      21.246 -19.038   0.358  0.00  0.00    -0.351 OA
BRANCH  16  17
ATOM     17  C   UNL d   1      20.409 -19.618  -0.659  0.00  0.00     0.175 C 
BRANCH  17  18
ATOM     18  C   UNL d   1      18.965 -19.719  -0.153  0.00  0.00     0.026 C 
BRANCH  18  19
ATOM     19  C   UNL d   1      18.887 -20.452   1.190  0.00  0.00    -0.002 C 
ATOM     20  C   UNL d   1      18.003 -21.687   1.099  0.00  0.00     0.005 C 
ENDBRANCH  18  19
ENDBRANCH  17  18
ENDBRANCH  16  17
ENDBRANCH  12  16
ENDBRANCH   7   9
ENDBRANCH   1   7
BRANCH   2  21
ATOM     21  O   UNL d   1      27.812 -16.289   0.473  0.00  0.00    -0.355 OA
ATOM     22  H   UNL d   1      28.351 -16.147   1.287  0.00  0.00     0.218 HD
ENDBRANCH   2  21
BRANCH   6  23
ATOM     23  C   UNL d   1      27.487 -12.657  -2.404  0.00  0.00    -0.028 C 
ATOM     24  C   UNL d   1      28.743 -13.077  -2.896  0.00  0.00     0.012 C 
ATOM     25  C   UNL d   1      28.740 -13.868  -4.035  0.00  0.00     0.040 C 
ATOM     26  C   UNL d   1      27.493 -14.191  -4.609  0.00  0.00     0.099 C 
ATOM     27  C   UNL d   1      26.283 -13.585  -4.167  0.00  0.00     0.101 C 
ATOM     28  C   UNL d   1      26.373 -12.585  -3.225  0.00  0.00     0.049 C 
BRANCH  26  29
ATOM     29  O   UNL d   1      27.457 -15.208  -5.530  0.00  0.00    -0.358 OA
ATOM     30  H   UNL d   1      26.520 -15.449  -5.644  0.00  0.00     0.217 HD
ENDBRANCH  26  29
BRANCH  27  31
ATOM     31  O   UNL d   1      25.047 -14.135  -4.475  0.00  0.00    -0.353 OA
ATOM     32  C   UNL d   1      23.980 -14.064  -3.489  0.00  0.00     0.210 C 
ENDBRANCH  27  31
ENDBRANCH   6  23
BRANCH   5  33
ATOM     33  C   UNL d   1      29.560 -12.238   0.704  0.00  0.00     0.129 C 
BRANCH  33  34
ATOM     34  C   UNL d   1      30.101 -12.198   2.409  0.00  0.00     0.048 C 
BRANCH  34  35
ATOM     35  C   UNL d   1      30.583 -13.623   2.961  0.00  0.00     0.235 C 
BRANCH  35  36
ATOM     36  N   UNL d   1      29.543 -14.460   3.799  0.00  0.00    -0.079 N 
ATOM     37  C   UNL d   1      30.059 -15.015   5.105  0.00  0.00     0.269 C 
ATOM     38  C   UNL d   1      28.277 -13.649   4.112  0.00  0.00     0.269 C 
ATOM     39  H   UNL d   1      29.227 -15.256   3.228  0.00  0.00     0.278 HD
ENDBRANCH  35  36
ENDBRANCH  34  35
ENDBRANCH  33  34
ENDBRANCH   5  33
TORSDOF 14
ENDMDL
MODEL 2
REMARK VINA RESULT:   -10.060      2.871      6.056
REMARK INTER + INTRA:         -17.142
REMARK INTER:                 -14.236
REMARK INTRA:                  -2.905
REMARK CONF_INDEPENDENT:        4.176
REMARK UNBOUND:                -2.905
REMARK  14 active torsions:
REMARK  status: ('A' for Active; 'I' for Inactive)
REMARK    1  A    between atoms: C_2  and  C_3 
REMARK    2  A    between atoms: C_3  and  C_4 
REMARK    3  A    between atoms: C_4  and  O_5 
REMARK    4  A    between atoms: O_5  and  C_6 
REMARK    5  A    between atoms: C_9  and  C_10 
REMARK    6  A    between atoms: C_10  and  C_12 
REMARK    7  A    between atoms: C_13  and  O_14 
REMARK    8  A    between atoms: N_17  and  C_18 
REMARK    9  A    between atoms: C_18  and  C_19 
REMARK   10  A    between atoms: C_19  and  C_20 
REMARK   11  A    between atoms: C_20  and  N_21 
REMARK   12  A    between atoms: C_24  and  C_25 
REMARK   13  A    between atoms: C_28  and  O_29 
REMARK   14  A    between atoms: C_30  and  O_31 
ROOT
ATOM      1  C   UNL d   1      26.330 -15.158  -2.544  0.00  0.00     0.059 C 
ATOM      2  C   UNL d   1      25.429 -14.869  -3.516  0.00  0.00     0.146 C 
ATOM      3  C   UNL d   1      26.121 -14.891  -4.836  0.00  0.00     0.278 C 
ATOM      4  O   UNL d   1      26.356 -15.911  -5.527  0.00  0.00    -0.265 OA
ATOM      5  N   UNL d   1      27.136 -14.008  -4.643  0.00  0.00    -0.333 N 
ATOM      6  C   UNL d   1      27.674 -14.984  -3.310  0.00  0.00     0.161 C 
ENDROOT
BRANCH   1   7
ATOM      7  C   UNL d   1      25.640 -15.569  -1.227  0.00  0.00     0.194 C 
ATOM      8  O   UNL d   1      25.928 -14.833  -0.261  0.00  0.00    -0.287 OA
BRANCH   7   9
ATOM      9  C   UNL d   1      24.553 -16.624  -0.910  0.00  0.00     0.021 A 
ATOM     10  C   UNL d   1      23.202 -16.334  -1.130  0.00  0.00     0.019 A 
ATOM     11  C   UNL d   1      22.171 -17.285  -0.894  0.00  0.00     0.038 A 
ATOM     12  C   UNL d   1      22.439 -18.573  -0.439  0.00  0.00     0.069 A 
ATOM     13  C   UNL d   1      23.761 -18.890  -0.153  0.00  0.00     0.044 A 
ATOM     14  C   UNL d   1      24.828 -17.952  -0.384  0.00  0.00    -0.045 A 
ATOM     15  C   UNL d   1      26.189 -18.526  -0.020  0.00  0.00     0.049 C 
BRANCH  12  16
ATOM     16  O   UNL d   1      21.483 -19.526  -0.184  0.00  0.00    -0.351 OA
BRANCH  16  17
ATOM     17  C   UNL d   1      20.400 -19.576  -1.130  0.00  0.00     0.175 C 
BRANCH  17  18
ATOM     18  C   UNL d   1      19.064 -19.695  -0.388  0.00  0.00     0.026 C 
BRANCH  18  19
ATOM     19  C   UNL d   1      19.121 -20.759   0.713  0.00  0.00    -0.002 C 
ATOM     20  C   UNL d   1      19.602 -20.169   2.031  0.00  0.00     0.005 C 
ENDBRANCH  18  19
ENDBRANCH  17  18
ENDBRANCH  16  17
ENDBRANCH  12  16
ENDBRANCH   7   9
ENDBRANCH   1   7
BRANCH   2  21
ATOM     21  O   UNL d   1      24.327 -14.062  -3.325  0.00  0.00    -0.355 OA
ATOM     22  H   UNL d   1      24.015 -13.803  -4.224  0.00  0.00     0.218 HD
ENDBRANCH   2  21
BRANCH   6  23
ATOM     23  C   UNL d   1      28.915 -14.385  -2.680  0.00  0.00    -0.028 C 
ATOM     24  C   UNL d   1      28.692 -13.264  -1.851  0.00  0.00     0.012 C 
ATOM     25  C   UNL d   1      28.893 -13.437  -0.490  0.00  0.00     0.040 C 
ATOM     26  C   UNL d   1      29.300 -14.710  -0.041  0.00  0.00     0.099 C 
ATOM     27  C   UNL d   1      29.680 -15.740  -0.949  0.00  0.00     0.101 C 
ATOM     28  C   UNL d   1      29.743 -15.425  -2.287  0.00  0.00     0.049 C 
BRANCH  26  29
ATOM     29  O   UNL d   1      29.200 -14.977   1.301  0.00  0.00    -0.358 OA
ATOM     30  H   UNL d   1      29.302 -15.941   1.402  0.00  0.00     0.217 HD
ENDBRANCH  26  29
BRANCH  27  31
ATOM     31  O   UNL d   1      29.744 -17.067  -0.546  0.00  0.00    -0.353 OA
ATOM     32  C   UNL d   1      31.039 -17.726  -0.502  0.00  0.00     0.210 C 
ENDBRANCH  27  31
ENDBRANCH   6  23
BRANCH   5  33
ATOM     33  C   UNL d   1      27.705 -13.249  -6.053  0.00  0.00     0.129 C 
BRANCH  33  34
ATOM     34  C   UNL d   1      28.830 -13.949  -7.256  0.00  0.00     0.048 C 
BRANCH  34  35
ATOM     35  C   UNL d   1      30.023 -12.962  -7.667  0.00  0.00     0.235 C 
BRANCH  35  36
ATOM     36  N   UNL d   1      30.197 -12.641  -9.201  0.00  0.00    -0.079 N 
ATOM     37  C   UNL d   1      28.997 -12.016  -9.872  0.00  0.00     0.269 C 
ATOM     38  C   UNL d   1      31.399 -11.721  -9.459  0.00  0.00     0.269 C 
ATOM     39  H   UNL d   1      30.408 -13.517  -9.697  0.00  0.00     0.278 HD
ENDBRANCH  35  36
ENDBRANCH  34  35
ENDBRANCH  33  34
ENDBRANCH   5  33
TORSDOF 14
ENDMDL
MODEL 3
REMARK VINA RESULT:    -9.656      2.657      5.299
REMARK INTER + INTRA:         -17.405
REMARK INTER:                 -13.832
REMARK INTRA:                  -3.573
REMARK CONF_INDEPENDENT:        4.176
REMARK UNBOUND:                -3.573
REMARK  14 active torsions:
REMARK  status: ('A' for Active; 'I' for Inactive)
REMARK    1  A    between atoms: C_2  and  C_3 
REMARK    2  A    between atoms: C_3  and  C_4 
REMARK    3  A    between atoms: C_4  and  O_5 
REMARK    4  A    between atoms: O_5  and  C_6 
REMARK    5  A    between atoms: C_9  and  C_10 
REMARK    6  A    between atoms: C_10  and  C_12 
REMARK    7  A    between atoms: C_13  and  O_14 
REMARK    8  A    between atoms: N_17  and  C_18 
REMARK    9  A    between atoms: C_18  and  C_19 
REMARK   10  A    between atoms: C_19  and  C_20 
REMARK   11  A    between atoms: C_20  and  N_21 
REMARK   12  A    between atoms: C_24  and  C_25 
REMARK   13  A    between atoms: C_28  and  O_29 
REMARK   14  A    between atoms: C_30  and  O_31 
ROOT
ATOM      1  C   UNL d   1      26.285 -15.163  -2.697  0.00  0.00     0.059 C 
ATOM      2  C   UNL d   1      25.384 -14.657  -3.576  0.00  0.00     0.146 C 
ATOM      3  C   UNL d   1      25.972 -14.696  -4.945  0.00  0.00     0.278 C 
ATOM      4  O   UNL d   1      25.980 -15.687  -5.714  0.00  0.00    -0.265 OA
ATOM      5  N   UNL d   1      27.134 -14.011  -4.779  0.00  0.00    -0.333 N 
ATOM      6  C   UNL d   1      27.585 -15.160  -3.555  0.00  0.00     0.161 C 
ENDROOT
BRANCH   1   7
ATOM      7  C   UNL d   1      25.625 -15.550  -1.358  0.00  0.00     0.194 C 
ATOM      8  O   UNL d   1      25.904 -14.774  -0.421  0.00  0.00    -0.287 OA
BRANCH   7   9
ATOM      9  C   UNL d   1      24.574 -16.625  -0.991  0.00  0.00     0.021 A 
ATOM     10  C   UNL d   1      23.211 -16.372  -1.178  0.00  0.00     0.019 A 
ATOM     11  C   UNL d   1      22.211 -17.343  -0.895  0.00  0.00     0.038 A 
ATOM     12  C   UNL d   1      22.524 -18.616  -0.424  0.00  0.00     0.069 A 
ATOM     13  C   UNL d   1      23.861 -18.895  -0.170  0.00  0.00     0.044 A 
ATOM     14  C   UNL d   1      24.897 -17.936  -0.448  0.00  0.00    -0.045 A 
ATOM     15  C   UNL d   1      26.281 -18.469  -0.113  0.00  0.00     0.049 C 
BRANCH  12  16
ATOM     16  O   UNL d   1      21.599 -19.587  -0.125  0.00  0.00    -0.351 OA
BRANCH  16  17
ATOM     17  C   UNL d   1      20.224 -19.174  -0.219  0.00  0.00     0.175 C 
BRANCH  17  18
ATOM     18  C   UNL d   1      19.304 -20.398  -0.145  0.00  0.00     0.026 C 
BRANCH  18  19
ATOM     19  C   UNL d   1      19.011 -20.799   1.304  0.00  0.00    -0.002 C 
ATOM     20  C   UNL d   1      19.904 -20.046   2.280  0.00  0.00     0.005 C 
ENDBRANCH  18  19
ENDBRANCH  17  18
ENDBRANCH  16  17
ENDBRANCH  12  16
ENDBRANCH   7   9
ENDBRANCH   1   7
BRANCH   2  21
ATOM     21  O   UNL d   1      24.453 -13.693  -3.249  0.00  0.00    -0.355 OA
ATOM     22  H   UNL d   1      24.265 -13.198  -4.081  0.00  0.00     0.218 HD
ENDBRANCH   2  21
BRANCH   6  23
ATOM     23  C   UNL d   1      28.950 -14.825  -2.989  0.00  0.00    -0.028 C 
ATOM     24  C   UNL d   1      28.998 -13.683  -2.159  0.00  0.00     0.012 C 
ATOM     25  C   UNL d   1      29.224 -13.896  -0.808  0.00  0.00     0.040 C 
ATOM     26  C   UNL d   1      29.387 -15.226  -0.369  0.00  0.00     0.099 C 
ATOM     27  C   UNL d   1      29.507 -16.310  -1.285  0.00  0.00     0.101 C 
ATOM     28  C   UNL d   1      29.568 -16.012  -2.628  0.00  0.00     0.049 C 
BRANCH  26  29
ATOM     29  O   UNL d   1      29.299 -15.470   0.978  0.00  0.00    -0.358 OA
ATOM     30  H   UNL d   1      29.424 -16.429   1.098  0.00  0.00     0.217 HD
ENDBRANCH  26  29
BRANCH  27  31
ATOM     31  O   UNL d   1      29.321 -17.623  -0.876  0.00  0.00    -0.353 OA
ATOM     32  C   UNL d   1      30.456 -18.532  -0.895  0.00  0.00     0.210 C 
ENDBRANCH  27  31
ENDBRANCH   6  23
BRANCH   5  33
ATOM     33  C   UNL d   1      27.729 -13.255  -6.179  0.00  0.00     0.129 C 
BRANCH  33  34
ATOM     34  C   UNL d   1      27.344 -11.600  -6.739  0.00  0.00     0.048 C 
BRANCH  34  35
ATOM     35  C   UNL d   1      25.913 -11.075  -6.247  0.00  0.00     0.235 C 
BRANCH  35  36
ATOM     36  N   UNL d   1      25.689 -10.945  -4.692  0.00  0.00    -0.079 N 
ATOM     37  C   UNL d   1      26.904 -11.215  -3.837  0.00  0.00     0.269 C 
ATOM     38  C   UNL d   1      25.155  -9.558  -4.306  0.00  0.00     0.269 C 
ATOM     39  H   UNL d   1      24.957 -11.611  -4.410  0.00  0.00     0.278 HD
ENDBRANCH  35  36
ENDBRANCH  34  35
ENDBRANCH  33  34
ENDBRANCH   5  33
TORSDOF 14
ENDMDL
MODEL 4
REMARK VINA RESULT:    -9.357      2.491      4.309
REMARK INTER + INTRA:         -17.092
REMARK INTER:                 -13.533
REMARK INTRA:                  -3.559
REMARK CONF_INDEPENDENT:        4.176
REMARK UNBOUND:                -3.559
REMARK  14 active torsions:
REMARK  status: ('A' for Active; 'I' for Inactive)
REMARK    1  A    between atoms: C_2  and  C_3 
REMARK    2  A    between atoms: C_3  and  C_4 
REMARK    3  A    between atoms: C_4  and  O_5 
REMARK    4  A    between atoms: O_5  and  C_6 
REMARK    5  A    between atoms: C_9  and  C_10 
REMARK    6  A    between atoms: C_10  and  C_12 
REMARK    7  A    between atoms: C_13  and  O_14 
REMARK    8  A    between atoms: N_17  and  C_18 
REMARK    9  A    between atoms: C_18  and  C_19 
REMARK   10  A    between atoms: C_19  and  C_20 
REMARK   11  A    between atoms: C_20  and  N_21 
REMARK   12  A    between atoms: C_24  and  C_25 
REMARK   13  A    between atoms: C_28  and  O_29 
REMARK   14  A    between atoms: C_30  and  O_31 
ROOT
ATOM      1  C   UNL d   1      26.699 -14.390  -1.700  0.00  0.00     0.059 C 
ATOM      2  C   UNL d   1      27.765 -13.920  -1.004  0.00  0.00     0.146 C 
ATOM      3  C   UNL d   1      27.702 -12.431  -0.976  0.00  0.00     0.278 C 
ATOM      4  O   UNL d   1      27.030 -11.738  -0.176  0.00  0.00    -0.265 OA
ATOM      5  N   UNL d   1      27.635 -12.121  -2.297  0.00  0.00    -0.333 N 
ATOM      6  C   UNL d   1      26.200 -13.096  -2.407  0.00  0.00     0.161 C 
ENDROOT
BRANCH   1   7
ATOM      7  C   UNL d   1      26.452 -15.888  -1.427  0.00  0.00     0.194 C 
ATOM      8  O   UNL d   1      27.484 -16.586  -1.494  0.00  0.00    -0.287 OA
BRANCH   7   9
ATOM      9  C   UNL d   1      25.201 -16.662  -0.946  0.00  0.00     0.021 A 
ATOM     10  C   UNL d   1      23.920 -16.209  -1.277  0.00  0.00     0.019 A 
ATOM     11  C   UNL d   1      22.741 -16.908  -0.894  0.00  0.00     0.038 A 
ATOM     12  C   UNL d   1      22.786 -18.098  -0.173  0.00  0.00     0.069 A 
ATOM     13  C   UNL d   1      24.034 -18.558   0.229  0.00  0.00     0.044 A 
ATOM     14  C   UNL d   1      25.245 -17.876  -0.146  0.00  0.00    -0.045 A 
ATOM     15  C   UNL d   1      26.487 -18.574   0.386  0.00  0.00     0.049 C 
BRANCH  12  16
ATOM     16  O   UNL d   1      21.682 -18.807   0.232  0.00  0.00    -0.351 OA
BRANCH  16  17
ATOM     17  C   UNL d   1      20.720 -19.086  -0.800  0.00  0.00     0.175 C 
BRANCH  17  18
ATOM     18  C   UNL d   1      19.385 -19.504  -0.173  0.00  0.00     0.026 C 
BRANCH  18  19
ATOM     19  C   UNL d   1      19.521 -20.796   0.638  0.00  0.00    -0.002 C 
ATOM     20  C   UNL d   1      18.159 -21.377   0.991  0.00  0.00     0.005 C 
ENDBRANCH  18  19
ENDBRANCH  17  18
ENDBRANCH  16  17
ENDBRANCH  12  16
ENDBRANCH   7   9
ENDBRANCH   1   7
BRANCH   2  21
ATOM     21  O   UNL d   1      28.983 -14.565  -0.939  0.00  0.00    -0.355 OA
ATOM     22  H   UNL d   1      28.893 -15.380  -1.487  0.00  0.00     0.218 HD
ENDBRANCH   2  21
BRANCH   6  23
ATOM     23  C   UNL d   1      25.656 -13.082  -3.821  0.00  0.00    -0.028 C 
ATOM     24  C   UNL d   1      25.906 -11.901  -4.555  0.00  0.00     0.012 C 
ATOM     25  C   UNL d   1      26.801 -11.993  -5.610  0.00  0.00     0.040 C 
ATOM     26  C   UNL d   1      27.390 -13.249  -5.866  0.00  0.00     0.099 C 
ATOM     27  C   UNL d   1      26.955 -14.432  -5.203  0.00  0.00     0.101 C 
ATOM     28  C   UNL d   1      25.861 -14.337  -4.374  0.00  0.00     0.049 C 
BRANCH  26  29
ATOM     29  O   UNL d   1      28.489 -13.284  -6.687  0.00  0.00    -0.358 OA
ATOM     30  H   UNL d   1      28.781 -14.213  -6.723  0.00  0.00     0.217 HD
ENDBRANCH  26  29
BRANCH  27  31
ATOM     31  O   UNL d   1      27.737 -15.578  -5.189  0.00  0.00    -0.353 OA
ATOM     32  C   UNL d   1      29.061 -15.518  -4.592  0.00  0.00     0.210 C 
ENDBRANCH  27  31
ENDBRANCH   6  23
BRANCH   5  33
ATOM     33  C   UNL d   1      28.236 -10.585  -2.706  0.00  0.00     0.129 C 
BRANCH  33  34
ATOM     34  C   UNL d   1      27.325  -9.045  -2.675  0.00  0.00     0.048 C 
BRANCH  34  35
ATOM     35  C   UNL d   1      25.752  -9.226  -2.918  0.00  0.00     0.235 C 
BRANCH  35  36
ATOM     36  N   UNL d   1      25.050  -8.200  -3.887  0.00  0.00    -0.079 N 
ATOM     37  C   UNL d   1      25.808  -6.918  -4.133  0.00  0.00     0.269 C 
ATOM     38  C   UNL d   1      24.746  -8.824  -5.256  0.00  0.00     0.269 C 
ATOM     39  H   UNL d   1      24.135  -7.947  -3.489  0.00  0.00     0.278 HD
ENDBRANCH  35  36
ENDBRANCH  34  35
ENDBRANCH  33  34
ENDBRANCH   5  33
TORSDOF 14
ENDMDL
MODEL 5
REMARK VINA RESULT:    -8.956      2.483      3.160
REMARK INTER + INTRA:         -17.047
REMARK INTER:                 -13.132
REMARK INTRA:                  -3.915
REMARK CONF_INDEPENDENT:        4.176
REMARK UNBOUND:                -3.915
REMARK  14 active torsions:
REMARK  status: ('A' for Active; 'I' for Inactive)
REMARK    1  A    between atoms: C_2  and  C_3 
REMARK    2  A    between atoms: C_3  and  C_4 
REMARK    3  A    between atoms: C_4  and  O_5 
REMARK    4  A    between atoms: O_5  and  C_6 
REMARK    5  A    between atoms: C_9  and  C_10 
REMARK    6  A    between atoms: C_10  and  C_12 
REMARK    7  A    between atoms: C_13  and  O_14 
REMARK    8  A    between atoms: N_17  and  C_18 
REMARK    9  A    between atoms: C_18  and  C_19 
REMARK   10  A    between atoms: C_19  and  C_20 
REMARK   11  A    between atoms: C_20  and  N_21 
REMARK   12  A    between atoms: C_24  and  C_25 
REMARK   13  A    between atoms: C_28  and  O_29 
REMARK   14  A    between atoms: C_30  and  O_31 
ROOT
ATOM      1  C   UNL d   1      27.757 -14.847  -0.881  0.00  0.00     0.059 C 
ATOM      2  C   UNL d   1      28.798 -15.214  -0.091  0.00  0.00     0.146 C 
ATOM      3  C   UNL d   1      30.039 -14.563  -0.598  0.00  0.00     0.278 C 
ATOM      4  O   UNL d   1      30.416 -13.395  -0.339  0.00  0.00    -0.265 OA
ATOM      5  N   UNL d   1      30.068 -14.968  -1.895  0.00  0.00    -0.333 N 
ATOM      6  C   UNL d   1      28.502 -14.244  -2.108  0.00  0.00     0.161 C 
ENDROOT
BRANCH   1   7
ATOM      7  C   UNL d   1      26.399 -15.118  -0.202  0.00  0.00     0.194 C 
ATOM      8  O   UNL d   1      26.024 -14.196   0.551  0.00  0.00    -0.287 OA
BRANCH   7   9
ATOM      9  C   UNL d   1      25.353 -16.243  -0.387  0.00  0.00     0.021 A 
ATOM     10  C   UNL d   1      24.143 -15.982  -1.038  0.00  0.00     0.019 A 
ATOM     11  C   UNL d   1      23.169 -16.993  -1.269  0.00  0.00     0.038 A 
ATOM     12  C   UNL d   1      23.361 -18.313  -0.871  0.00  0.00     0.069 A 
ATOM     13  C   UNL d   1      24.523 -18.610  -0.170  0.00  0.00     0.044 A 
ATOM     14  C   UNL d   1      25.530 -17.611   0.077  0.00  0.00    -0.045 A 
ATOM     15  C   UNL d   1      26.721 -18.170   0.839  0.00  0.00     0.049 C 
BRANCH  12  16
ATOM     16  O   UNL d   1      22.451 -19.325  -1.058  0.00  0.00    -0.351 OA
BRANCH  16  17
ATOM     17  C   UNL d   1      21.316 -19.300  -0.174  0.00  0.00     0.175 C 
BRANCH  17  18
ATOM     18  C   UNL d   1      20.019 -19.408  -0.984  0.00  0.00     0.026 C 
BRANCH  18  19
ATOM     19  C   UNL d   1      18.826 -19.773  -0.094  0.00  0.00    -0.002 C 
ATOM     20  C   UNL d   1      19.172 -20.904   0.863  0.00  0.00     0.005 C 
ENDBRANCH  18  19
ENDBRANCH  17  18
ENDBRANCH  16  17
ENDBRANCH  12  16
ENDBRANCH   7   9
ENDBRANCH   1   7
BRANCH   2  21
ATOM     21  O   UNL d   1      28.869 -16.422   0.571  0.00  0.00    -0.355 OA
ATOM     22  H   UNL d   1      29.284 -16.233   1.445  0.00  0.00     0.218 HD
ENDBRANCH   2  21
BRANCH   6  23
ATOM     23  C   UNL d   1      28.025 -14.422  -3.535  0.00  0.00    -0.028 C 
ATOM     24  C   UNL d   1      27.246 -15.576  -3.774  0.00  0.00     0.012 C 
ATOM     25  C   UNL d   1      25.902 -15.382  -4.051  0.00  0.00     0.040 C 
ATOM     26  C   UNL d   1      25.418 -14.057  -4.072  0.00  0.00     0.099 C 
ATOM     27  C   UNL d   1      26.295 -12.937  -4.003  0.00  0.00     0.101 C 
ATOM     28  C   UNL d   1      27.650 -13.179  -4.021  0.00  0.00     0.049 C 
BRANCH  26  29
ATOM     29  O   UNL d   1      24.059 -13.871  -4.035  0.00  0.00    -0.358 OA
ATOM     30  H   UNL d   1      23.910 -12.911  -3.965  0.00  0.00     0.217 HD
ENDBRANCH  26  29
BRANCH  27  31
ATOM     31  O   UNL d   1      25.823 -11.672  -3.679  0.00  0.00    -0.353 OA
ATOM     32  C   UNL d   1      25.977 -10.596  -4.645  0.00  0.00     0.210 C 
ENDBRANCH  27  31
ENDBRANCH   6  23
BRANCH   5  33
ATOM     33  C   UNL d   1      31.615 -15.026  -2.596  0.00  0.00     0.129 C 
BRANCH  33  34
ATOM     34  C   UNL d   1      33.097 -15.693  -1.847  0.00  0.00     0.048 C 
BRANCH  34  35
ATOM     35  C   UNL d   1      32.910 -16.096  -0.308  0.00  0.00     0.235 C 
BRANCH  35  36
ATOM     36  N   UNL d   1      31.808 -17.172   0.027  0.00  0.00    -0.079 N 
ATOM     37  C   UNL d   1      31.325 -17.991  -1.146  0.00  0.00     0.269 C 
ATOM     38  C   UNL d   1      32.280 -18.154   1.109  0.00  0.00     0.269 C 
ATOM     39  H   UNL d   1      30.991 -16.691   0.427  0.00  0.00     0.278 HD
ENDBRANCH  35  36
ENDBRANCH  34  35
ENDBRANCH  33  34
ENDBRANCH   5  33
TORSDOF 14
ENDMDL
MODEL 6
REMARK VINA RESULT:    -8.943      2.387      5.140
REMARK INTER + INTRA:         -17.220
REMARK INTER:                 -13.119
REMARK INTRA:                  -4.101
REMARK CONF_INDEPENDENT:        4.176
REMARK UNBOUND:                -4.101
REMARK  14 active torsions:
REMARK  status: ('A' for Active; 'I' for Inactive)
REMARK    1  A    between atoms: C_2  and  C_3 
REMARK    2  A    between atoms: C_3  and  C_4 
REMARK    3  A    between atoms: C_4  and  O_5 
REMARK    4  A    between atoms: O_5  and  C_6 
REMARK    5  A    between atoms: C_9  and  C_10 
REMARK    6  A    between atoms: C_10  and  C_12 
REMARK    7  A    between atoms: C_13  and  O_14 
REMARK    8  A    between atoms: N_17  and  C_18 
REMARK    9  A    between atoms: C_18  and  C_19 
REMARK   10  A    between atoms: C_19  and  C_20 
REMARK   11  A    between atoms: C_20  and  N_21 
REMARK   12  A    between atoms: C_24  and  C_25 
REMARK   13  A    between atoms: C_28  and  O_29 
REMARK   14  A    between atoms: C_30  and  O_31 
ROOT
ATOM      1  C   UNL d   1      26.224 -14.930  -2.207  0.00  0.00     0.059 C 
ATOM      2  C   UNL d   1      25.370 -14.793  -3.253  0.00  0.00     0.146 C 
ATOM      3  C   UNL d   1      26.163 -14.639  -4.505  0.00  0.00     0.278 C 
ATOM      4  O   UNL d   1      26.653 -15.572  -5.185  0.00  0.00    -0.265 OA
ATOM      5  N   UNL d   1      26.962 -13.580  -4.210  0.00  0.00    -0.333 N 
ATOM      6  C   UNL d   1      27.567 -14.473  -2.847  0.00  0.00     0.161 C 
ENDROOT
BRANCH   1   7
ATOM      7  C   UNL d   1      25.518 -15.508  -0.963  0.00  0.00     0.194 C 
ATOM      8  O   UNL d   1      25.769 -14.884   0.089  0.00  0.00    -0.287 OA
BRANCH   7   9
ATOM      9  C   UNL d   1      24.452 -16.617  -0.797  0.00  0.00     0.021 A 
ATOM     10  C   UNL d   1      23.098 -16.331  -1.001  0.00  0.00     0.019 A 
ATOM     11  C   UNL d   1      22.086 -17.326  -0.901  0.00  0.00     0.038 A 
ATOM     12  C   UNL d   1      22.378 -18.655  -0.603  0.00  0.00     0.069 A 
ATOM     13  C   UNL d   1      23.704 -18.976  -0.336  0.00  0.00     0.044 A 
ATOM     14  C   UNL d   1      24.751 -17.994  -0.433  0.00  0.00    -0.045 A 
ATOM     15  C   UNL d   1      26.120 -18.579  -0.120  0.00  0.00     0.049 C 
BRANCH  12  16
ATOM     16  O   UNL d   1      21.442 -19.652  -0.483  0.00  0.00    -0.351 OA
BRANCH  16  17
ATOM     17  C   UNL d   1      20.072 -19.213  -0.507  0.00  0.00     0.175 C 
BRANCH  17  18
ATOM     18  C   UNL d   1      19.152 -20.345  -0.035  0.00  0.00     0.026 C 
BRANCH  18  19
ATOM     19  C   UNL d   1      19.126 -20.454   1.492  0.00  0.00    -0.002 C 
ATOM     20  C   UNL d   1      20.199 -19.582   2.130  0.00  0.00     0.005 C 
ENDBRANCH  18  19
ENDBRANCH  17  18
ENDBRANCH  16  17
ENDBRANCH  12  16
ENDBRANCH   7   9
ENDBRANCH   1   7
BRANCH   2  21
ATOM     21  O   UNL d   1      24.117 -14.224  -3.151  0.00  0.00    -0.355 OA
ATOM     22  H   UNL d   1      23.762 -14.174  -4.070  0.00  0.00     0.218 HD
ENDBRANCH   2  21
BRANCH   6  23
ATOM     23  C   UNL d   1      28.606 -13.662  -2.100  0.00  0.00    -0.028 C 
ATOM     24  C   UNL d   1      28.100 -12.802  -1.100  0.00  0.00     0.012 C 
ATOM     25  C   UNL d   1      28.379 -13.136   0.216  0.00  0.00     0.040 C 
ATOM     26  C   UNL d   1      29.140 -14.299   0.454  0.00  0.00     0.099 C 
ATOM     27  C   UNL d   1      29.769 -15.014  -0.605  0.00  0.00     0.101 C 
ATOM     28  C   UNL d   1      29.704 -14.476  -1.870  0.00  0.00     0.049 C 
BRANCH  26  29
ATOM     29  O   UNL d   1      29.157 -14.803   1.730  0.00  0.00    -0.358 OA
ATOM     30  H   UNL d   1      29.655 -15.640   1.694  0.00  0.00     0.217 HD
ENDBRANCH  26  29
BRANCH  27  31
ATOM     31  O   UNL d   1      30.215 -16.317  -0.429  0.00  0.00    -0.353 OA
ATOM     32  C   UNL d   1      29.237 -17.391  -0.359  0.00  0.00     0.210 C 
ENDBRANCH  27  31
ENDBRANCH   6  23
BRANCH   5  33
ATOM     33  C   UNL d   1      27.489 -12.682  -5.553  0.00  0.00     0.129 C 
BRANCH  33  34
ATOM     34  C   UNL d   1      28.498 -13.282  -6.904  0.00  0.00     0.048 C 
BRANCH  34  35
ATOM     35  C   UNL d   1      28.872 -14.834  -6.783  0.00  0.00     0.235 C 
BRANCH  35  36
ATOM     36  N   UNL d   1      29.477 -15.325  -5.412  0.00  0.00    -0.079 N 
ATOM     37  C   UNL d   1      30.011 -16.737  -5.408  0.00  0.00     0.269 C 
ATOM     38  C   UNL d   1      30.605 -14.405  -4.924  0.00  0.00     0.269 C 
ATOM     39  H   UNL d   1      28.744 -15.269  -4.692  0.00  0.00     0.278 HD
ENDBRANCH  35  36
ENDBRANCH  34  35
ENDBRANCH  33  34
ENDBRANCH   5  33
TORSDOF 14
ENDMDL
MODEL 7
REMARK VINA RESULT:    -8.530      2.162      4.271
REMARK INTER + INTRA:         -17.178
REMARK INTER:                 -12.706
REMARK INTRA:                  -4.472
REMARK CONF_INDEPENDENT:        4.176
REMARK UNBOUND:                -4.472
REMARK  14 active torsions:
REMARK  status: ('A' for Active; 'I' for Inactive)
REMARK    1  A    between atoms: C_2  and  C_3 
REMARK    2  A    between atoms: C_3  and  C_4 
REMARK    3  A    between atoms: C_4  and  O_5 
REMARK    4  A    between atoms: O_5  and  C_6 
REMARK    5  A    between atoms: C_9  and  C_10 
REMARK    6  A    between atoms: C_10  and  C_12 
REMARK    7  A    between atoms: C_13  and  O_14 
REMARK    8  A    between atoms: N_17  and  C_18 
REMARK    9  A    between atoms: C_18  and  C_19 
REMARK   10  A    between atoms: C_19  and  C_20 
REMARK   11  A    between atoms: C_20  and  N_21 
REMARK   12  A    between atoms: C_24  and  C_25 
REMARK   13  A    between atoms: C_28  and  O_29 
REMARK   14  A    between atoms: C_30  and  O_31 
ROOT
ATOM      1  C   UNL d   1      27.218 -15.224   0.025  0.00  0.00     0.059 C 
ATOM      2  C   UNL d   1      28.255 -15.170  -0.850  0.00  0.00     0.146 C 
ATOM      3  C   UNL d   1      29.527 -15.373  -0.100  0.00  0.00     0.278 C 
ATOM      4  O   UNL d   1      30.020 -16.479   0.226  0.00  0.00    -0.265 OA
ATOM      5  N   UNL d   1      29.460 -14.402   0.848  0.00  0.00    -0.333 N 
ATOM      6  C   UNL d   1      27.960 -15.093   1.387  0.00  0.00     0.161 C 
ENDROOT
BRANCH   1   7
ATOM      7  C   UNL d   1      25.872 -15.447  -0.696  0.00  0.00     0.194 C 
ATOM      8  O   UNL d   1      25.653 -14.626  -1.610  0.00  0.00    -0.287 OA
BRANCH   7   9
ATOM      9  C   UNL d   1      24.817 -16.574  -0.597  0.00  0.00     0.021 A 
ATOM     10  C   UNL d   1      23.482 -16.323  -0.928  0.00  0.00     0.019 A 
ATOM     11  C   UNL d   1      22.484 -17.336  -0.893  0.00  0.00     0.038 A 
ATOM     12  C   UNL d   1      22.774 -18.651  -0.537  0.00  0.00     0.069 A 
ATOM     13  C   UNL d   1      24.076 -18.937  -0.145  0.00  0.00     0.044 A 
ATOM     14  C   UNL d   1      25.109 -17.936  -0.173  0.00  0.00    -0.045 A 
ATOM     15  C   UNL d   1      26.455 -18.483   0.274  0.00  0.00     0.049 C 
BRANCH  12  16
ATOM     16  O   UNL d   1      21.850 -19.665  -0.475  0.00  0.00    -0.351 OA
BRANCH  16  17
ATOM     17  C   UNL d   1      20.515 -19.302  -0.869  0.00  0.00     0.175 C 
BRANCH  17  18
ATOM     18  C   UNL d   1      19.559 -19.450   0.321  0.00  0.00     0.026 C 
BRANCH  18  19
ATOM     19  C   UNL d   1      19.391 -20.916   0.732  0.00  0.00    -0.002 C 
ATOM     20  C   UNL d   1      17.926 -21.328   0.736  0.00  0.00     0.005 C 
ENDBRANCH  18  19
ENDBRANCH  17  18
ENDBRANCH  16  17
ENDBRANCH  12  16
ENDBRANCH   7   9
ENDBRANCH   1   7
BRANCH   2  21
ATOM     21  O   UNL d   1      28.243 -14.419  -2.007  0.00  0.00    -0.355 OA
ATOM     22  H   UNL d   1      27.556 -13.724  -1.878  0.00  0.00     0.218 HD
ENDBRANCH   2  21
BRANCH   6  23
ATOM     23  C   UNL d   1      27.405 -14.311   2.560  0.00  0.00    -0.028 C 
ATOM     24  C   UNL d   1      28.224 -14.283   3.711  0.00  0.00     0.012 C 
ATOM     25  C   UNL d   1      28.813 -13.072   4.036  0.00  0.00     0.040 C 
ATOM     26  C   UNL d   1      28.553 -11.967   3.198  0.00  0.00     0.099 C 
ATOM     27  C   UNL d   1      27.577 -12.024   2.163  0.00  0.00     0.101 C 
ATOM     28  C   UNL d   1      26.808 -13.161   2.067  0.00  0.00     0.049 C 
BRANCH  26  29
ATOM     29  O   UNL d   1      29.361 -10.865   3.323  0.00  0.00    -0.358 OA
ATOM     30  H   UNL d   1      29.089 -10.239   2.627  0.00  0.00     0.217 HD
ENDBRANCH  26  29
BRANCH  27  31
ATOM     31  O   UNL d   1      27.559 -11.088   1.137  0.00  0.00    -0.353 OA
ATOM     32  C   UNL d   1      27.700 -11.548  -0.235  0.00  0.00     0.210 C 
ENDBRANCH  27  31
ENDBRANCH   6  23
BRANCH   5  33
ATOM     33  C   UNL d   1      30.962 -13.861   1.430  0.00  0.00     0.129 C 
BRANCH  33  34
ATOM     34  C   UNL d   1      32.512 -14.754   1.364  0.00  0.00     0.048 C 
BRANCH  34  35
ATOM     35  C   UNL d   1      32.562 -16.020   2.344  0.00  0.00     0.235 C 
BRANCH  35  36
ATOM     36  N   UNL d   1      32.186 -17.422   1.730  0.00  0.00    -0.079 N 
ATOM     37  C   UNL d   1      32.707 -17.681   0.337  0.00  0.00     0.269 C 
ATOM     38  C   UNL d   1      32.659 -18.580   2.620  0.00  0.00     0.269 C 
ATOM     39  H   UNL d   1      31.161 -17.501   1.697  0.00  0.00     0.278 HD
ENDBRANCH  35  36
ENDBRANCH  34  35
ENDBRANCH  33  34
ENDBRANCH   5  33
TORSDOF 14
ENDMDL
MODEL 8
REMARK VINA RESULT:    -8.265      3.066      5.434
REMARK INTER + INTRA:         -17.026
REMARK INTER:                 -12.441
REMARK INTRA:                  -4.585
REMARK CONF_INDEPENDENT:        4.176
REMARK UNBOUND:                -4.585
REMARK  14 active torsions:
REMARK  status: ('A' for Active; 'I' for Inactive)
REMARK    1  A    between atoms: C_2  and  C_3 
REMARK    2  A    between atoms: C_3  and  C_4 
REMARK    3  A    between atoms: C_4  and  O_5 
REMARK    4  A    between atoms: O_5  and  C_6 
REMARK    5  A    between atoms: C_9  and  C_10 
REMARK    6  A    between atoms: C_10  and  C_12 
REMARK    7  A    between atoms: C_13  and  O_14 
REMARK    8  A    between atoms: N_17  and  C_18 
REMARK    9  A    between atoms: C_18  and  C_19 
REMARK   10  A    between atoms: C_19  and  C_20 
REMARK   11  A    between atoms: C_20  and  N_21 
REMARK   12  A    between atoms: C_24  and  C_25 
REMARK   13  A    between atoms: C_28  and  O_29 
REMARK   14  A    between atoms: C_30  and  O_31 
ROOT
ATOM      1  C   UNL d   1      26.493 -14.531  -2.726  0.00  0.00     0.059 C 
ATOM      2  C   UNL d   1      25.615 -14.672  -3.750  0.00  0.00     0.146 C 
ATOM      3  C   UNL d   1      26.365 -14.617  -5.038  0.00  0.00     0.278 C 
ATOM      4  O   UNL d   1      26.964 -15.574  -5.582  0.00  0.00    -0.265 OA
ATOM      5  N   UNL d   1      27.020 -13.431  -4.938  0.00  0.00    -0.333 N 
ATOM      6  C   UNL d   1      27.756 -14.012  -3.474  0.00  0.00     0.161 C 
ENDROOT
BRANCH   1   7
ATOM      7  C   UNL d   1      25.887 -14.992  -1.384  0.00  0.00     0.194 C 
ATOM      8  O   UNL d   1      26.140 -14.225  -0.432  0.00  0.00    -0.287 OA
BRANCH   7   9
ATOM      9  C   UNL d   1      24.911 -16.138  -1.026  0.00  0.00     0.021 A 
ATOM     10  C   UNL d   1      23.532 -15.962  -1.172  0.00  0.00     0.019 A 
ATOM     11  C   UNL d   1      22.598 -16.999  -0.895  0.00  0.00     0.038 A 
ATOM     12  C   UNL d   1      22.998 -18.264  -0.471  0.00  0.00     0.069 A 
ATOM     13  C   UNL d   1      24.355 -18.469  -0.256  0.00  0.00     0.044 A 
ATOM     14  C   UNL d   1      25.325 -17.442  -0.530  0.00  0.00    -0.045 A 
ATOM     15  C   UNL d   1      26.746 -17.901  -0.244  0.00  0.00     0.049 C 
BRANCH  12  16
ATOM     16  O   UNL d   1      22.140 -19.296  -0.179  0.00  0.00    -0.351 OA
BRANCH  16  17
ATOM     17  C   UNL d   1      20.776 -19.095  -0.589  0.00  0.00     0.175 C 
BRANCH  17  18
ATOM     18  C   UNL d   1      19.911 -20.273  -0.125  0.00  0.00     0.026 C 
BRANCH  18  19
ATOM     19  C   UNL d   1      19.001 -19.881   1.043  0.00  0.00    -0.002 C 
ATOM     20  C   UNL d   1      19.511 -20.449   2.360  0.00  0.00     0.005 C 
ENDBRANCH  18  19
ENDBRANCH  17  18
ENDBRANCH  16  17
ENDBRANCH  12  16
ENDBRANCH   7   9
ENDBRANCH   1   7
BRANCH   2  21
ATOM     21  O   UNL d   1      24.300 -14.259  -3.695  0.00  0.00    -0.355 OA
ATOM     22  H   UNL d   1      24.059 -13.985  -4.611  0.00  0.00     0.218 HD
ENDBRANCH   2  21
BRANCH   6  23
ATOM     23  C   UNL d   1      28.689 -12.967  -2.897  0.00  0.00    -0.028 C 
ATOM     24  C   UNL d   1      29.785 -12.615  -3.716  0.00  0.00     0.012 C 
ATOM     25  C   UNL d   1      29.776 -11.343  -4.268  0.00  0.00     0.040 C 
ATOM     26  C   UNL d   1      28.681 -10.505  -3.973  0.00  0.00     0.099 C 
ATOM     27  C   UNL d   1      27.706 -10.859  -2.997  0.00  0.00     0.101 C 
ATOM     28  C   UNL d   1      27.918 -12.004  -2.264  0.00  0.00     0.049 C 
BRANCH  26  29
ATOM     29  O   UNL d   1      28.507  -9.385  -4.746  0.00  0.00    -0.358 OA
ATOM     30  H   UNL d   1      27.811  -8.854  -4.316  0.00  0.00     0.217 HD
ENDBRANCH  26  29
BRANCH  27  31
ATOM     31  O   UNL d   1      26.472 -10.225  -2.949  0.00  0.00    -0.353 OA
ATOM     32  C   UNL d   1      26.305  -9.080  -2.069  0.00  0.00     0.210 C 
ENDBRANCH  27  31
ENDBRANCH   6  23
BRANCH   5  33
ATOM     33  C   UNL d   1      27.405 -12.695  -6.420  0.00  0.00     0.129 C 
BRANCH  33  34
ATOM     34  C   UNL d   1      26.892 -11.069  -6.964  0.00  0.00     0.048 C 
BRANCH  34  35
ATOM     35  C   UNL d   1      25.619 -10.502  -6.175  0.00  0.00     0.235 C 
BRANCH  35  36
ATOM     36  N   UNL d   1      25.740  -9.057  -5.557  0.00  0.00    -0.079 N 
ATOM     37  C   UNL d   1      26.281  -7.997  -6.487  0.00  0.00     0.269 C 
ATOM     38  C   UNL d   1      24.393  -8.551  -5.020  0.00  0.00     0.269 C 
ATOM     39  H   UNL d   1      26.364  -9.100  -4.740  0.00  0.00     0.278 HD
ENDBRANCH  35  36
ENDBRANCH  34  35
ENDBRANCH  33  34
ENDBRANCH   5  33
TORSDOF 14
ENDMDL
