MODEL 1
REMARK VINA RESULT:    -7.442      0.000      0.000
REMARK INTER + INTRA:         -11.869
REMARK INTER:                  -9.828
REMARK INTRA:                  -2.041
REMARK CONF_INDEPENDENT:        2.386
REMARK UNBOUND:                -2.041
REMARK  8 active torsions:
REMARK  status: ('A' for Active; 'I' for Inactive)
REMARK    1  A    between atoms: C_2  and  C_4 
REMARK    2  A    between atoms: C_4  and  C_5 
REMARK    3  A    between atoms: C_5  and  N_6 
REMARK       I    between atoms: N_6  and  C_7 
REMARK       I    between atoms: C_7  and  N_9 
REMARK    4  A    between atoms: N_9  and  N_10 
REMARK       I    between atoms: N_10  and  C_11 
REMARK    5  A    between atoms: C_11  and  C_13 
REMARK    6  A    between atoms: C_13  and  O_14 
REMARK    7  A    between atoms: O_14  and  C_15 
REMARK    8  A    between atoms: C_18  and  C_19 
ROOT
ATOM      1  C   UNL d   1      21.466 -19.321   0.301  0.00  0.00     0.147 C 
ATOM      2  C   UNL d   1      20.211 -19.316  -0.557  0.00  0.00    -0.016 C 
ATOM      3  N   UNL d   1      19.170 -19.310  -1.268  0.00  0.00    -0.101 N 
ENDROOT
BRANCH   1   4
ATOM      4  C   UNL d   1      22.485 -18.343  -0.291  0.00  0.00    -0.046 A 
ATOM      5  C   UNL d   1      23.801 -18.751  -0.521  0.00  0.00     0.011 A 
ATOM      6  C   UNL d   1      24.773 -17.816  -0.920  0.00  0.00     0.037 A 
ATOM      7  C   UNL d   1      24.447 -16.472  -1.162  0.00  0.00     0.069 A 
ATOM      8  C   UNL d   1      23.127 -16.077  -1.010  0.00  0.00     0.037 A 
ATOM      9  C   UNL d   1      22.164 -16.998  -0.581  0.00  0.00     0.011 A 
BRANCH   7  10
ATOM     10  O   UNL d   1      25.450 -15.671  -1.641  0.00  0.00    -0.342 OA
BRANCH  10  11
ATOM     11  C   UNL d   1      26.720 -16.268  -1.954  0.00  0.00     0.280 C 
BRANCH  11  12
ATOM     12  C   UNL d   1      27.630 -16.322  -0.689  0.00  0.00     0.260 C 
ATOM     13  N   UNL d   1      27.264 -15.500   0.377  0.00  0.00    -0.264 N 
ATOM     14  H   UNL d   1      26.453 -14.883   0.386  0.00  0.00     0.190 HD
ATOM     15  O   UNL d   1      28.632 -17.038  -0.614  0.00  0.00    -0.269 OA
BRANCH  13  16
ATOM     16  N   UNL d   1      28.051 -15.512   1.580  0.00  0.00    -0.249 N 
ATOM     17  C   UNL d   1      27.780 -14.604   2.589  0.00  0.00     0.334 C 
ATOM     18  N   UNL d   1      28.580 -14.718   3.712  0.00  0.00    -0.342 N 
ATOM     19  O   UNL d   1      26.884 -13.763   2.485  0.00  0.00    -0.246 OA
ATOM     20  H   UNL d   1      29.333 -15.390   3.731  0.00  0.00     0.164 HD
ATOM     21  H   UNL d   1      28.785 -16.213   1.629  0.00  0.00     0.192 HD
BRANCH  18  22
ATOM     22  C   UNL d   1      28.423 -13.799   4.840  0.00  0.00     0.125 C 
BRANCH  22  23
ATOM     23  C   UNL d   1      28.583 -14.442   6.231  0.00  0.00     0.023 C 
BRANCH  23  24
ATOM     24  C   UNL d   1      29.293 -13.517   7.254  0.00  0.00    -0.021 C 
ATOM     25  C   UNL d   1      28.665 -12.118   7.254  0.00  0.00     0.009 C 
ATOM     26  C   UNL d   1      29.234 -14.085   8.674  0.00  0.00     0.009 C 
ENDBRANCH  23  24
ENDBRANCH  22  23
ENDBRANCH  18  22
ENDBRANCH  13  16
ENDBRANCH  11  12
ENDBRANCH  10  11
ENDBRANCH   7  10
ENDBRANCH   1   4
TORSDOF 8
ENDMDL
MODEL 2
REMARK VINA RESULT:    -7.255      5.274      7.762
REMARK INTER + INTRA:         -11.287
REMARK INTER:                  -9.641
REMARK INTRA:                  -1.646
REMARK CONF_INDEPENDENT:        2.386
REMARK UNBOUND:                -1.646
REMARK  8 active torsions:
REMARK  status: ('A' for Active; 'I' for Inactive)
REMARK    1  A    between atoms: C_2  and  C_4 
REMARK    2  A    between atoms: C_4  and  C_5 
REMARK    3  A    between atoms: C_5  and  N_6 
REMARK       I    between atoms: N_6  and  C_7 
REMARK       I    between atoms: C_7  and  N_9 
REMARK    4  A    between atoms: N_9  and  N_10 
REMARK       I    between atoms: N_10  and  C_11 
REMARK    5  A    between atoms: C_11  and  C_13 
REMARK    6  A    between atoms: C_13  and  O_14 
REMARK    7  A    between atoms: O_14  and  C_15 
REMARK    8  A    between atoms: C_18  and  C_19 
ROOT
ATOM      1  C   UNL d   1      20.914 -19.205  -0.627  0.00  0.00     0.147 C 
ATOM      2  C   UNL d   1      20.549 -19.495   0.819  0.00  0.00    -0.016 C 
ATOM      3  N   UNL d   1      20.248 -19.736   2.020  0.00  0.00    -0.101 N 
ENDROOT
BRANCH   1   4
ATOM      4  C   UNL d   1      22.165 -18.323  -0.665  0.00  0.00    -0.046 A 
ATOM      5  C   UNL d   1      22.052 -16.949  -0.889  0.00  0.00     0.011 A 
ATOM      6  C   UNL d   1      23.204 -16.164  -1.075  0.00  0.00     0.037 A 
ATOM      7  C   UNL d   1      24.492 -16.713  -0.978  0.00  0.00     0.069 A 
ATOM      8  C   UNL d   1      24.613 -18.061  -0.678  0.00  0.00     0.037 A 
ATOM      9  C   UNL d   1      23.467 -18.851  -0.526  0.00  0.00     0.011 A 
BRANCH   7  10
ATOM     10  O   UNL d   1      25.544 -15.840  -1.078  0.00  0.00    -0.342 OA
BRANCH  10  11
ATOM     11  C   UNL d   1      26.334 -15.848  -2.280  0.00  0.00     0.280 C 
BRANCH  11  12
ATOM     12  C   UNL d   1      25.778 -14.822  -3.313  0.00  0.00     0.260 C 
ATOM     13  N   UNL d   1      26.006 -13.474  -3.037  0.00  0.00    -0.264 N 
ATOM     14  H   UNL d   1      26.507 -13.122  -2.222  0.00  0.00     0.190 HD
ATOM     15  O   UNL d   1      25.157 -15.159  -4.325  0.00  0.00    -0.269 OA
BRANCH  13  16
ATOM     16  N   UNL d   1      25.532 -12.475  -3.956  0.00  0.00    -0.249 N 
ATOM     17  C   UNL d   1      26.000 -11.176  -3.862  0.00  0.00     0.334 C 
ATOM     18  N   UNL d   1      25.499 -10.302  -4.809  0.00  0.00    -0.342 N 
ATOM     19  O   UNL d   1      26.808 -10.836  -2.994  0.00  0.00    -0.246 OA
ATOM     20  H   UNL d   1      24.801 -10.614  -5.468  0.00  0.00     0.164 HD
ATOM     21  H   UNL d   1      24.862 -12.788  -4.652  0.00  0.00     0.192 HD
BRANCH  18  22
ATOM     22  C   UNL d   1      25.884  -8.889  -4.803  0.00  0.00     0.125 C 
BRANCH  22  23
ATOM     23  C   UNL d   1      24.783  -7.917  -4.340  0.00  0.00     0.023 C 
BRANCH  23  24
ATOM     24  C   UNL d   1      23.700  -7.660  -5.421  0.00  0.00    -0.021 C 
ATOM     25  C   UNL d   1      22.808  -6.475  -5.031  0.00  0.00     0.009 C 
ATOM     26  C   UNL d   1      24.317  -7.383  -6.793  0.00  0.00     0.009 C 
ENDBRANCH  23  24
ENDBRANCH  22  23
ENDBRANCH  18  22
ENDBRANCH  13  16
ENDBRANCH  11  12
ENDBRANCH  10  11
ENDBRANCH   7  10
ENDBRANCH   1   4
TORSDOF 8
ENDMDL
MODEL 3
REMARK VINA RESULT:    -7.192      5.319      8.234
REMARK INTER + INTRA:         -11.080
REMARK INTER:                  -9.578
REMARK INTRA:                  -1.502
REMARK CONF_INDEPENDENT:        2.386
REMARK UNBOUND:                -1.502
REMARK  8 active torsions:
REMARK  status: ('A' for Active; 'I' for Inactive)
REMARK    1  A    between atoms: C_2  and  C_4 
REMARK    2  A    between atoms: C_4  and  C_5 
REMARK    3  A    between atoms: C_5  and  N_6 
REMARK       I    between atoms: N_6  and  C_7 
REMARK       I    between atoms: C_7  and  N_9 
REMARK    4  A    between atoms: N_9  and  N_10 
REMARK       I    between atoms: N_10  and  C_11 
REMARK    5  A    between atoms: C_11  and  C_13 
REMARK    6  A    between atoms: C_13  and  O_14 
REMARK    7  A    between atoms: O_14  and  C_15 
REMARK    8  A    between atoms: C_18  and  C_19 
ROOT
ATOM      1  C   UNL d   1      21.404 -19.324   0.471  0.00  0.00     0.147 C 
ATOM      2  C   UNL d   1      20.174 -19.327  -0.423  0.00  0.00    -0.016 C 
ATOM      3  N   UNL d   1      19.154 -19.329  -1.164  0.00  0.00    -0.101 N 
ENDROOT
BRANCH   1   4
ATOM      4  C   UNL d   1      22.467 -18.405  -0.139  0.00  0.00    -0.046 A 
ATOM      5  C   UNL d   1      23.809 -18.790  -0.146  0.00  0.00     0.011 A 
ATOM      6  C   UNL d   1      24.803 -17.887  -0.565  0.00  0.00     0.037 A 
ATOM      7  C   UNL d   1      24.481 -16.608  -1.045  0.00  0.00     0.069 A 
ATOM      8  C   UNL d   1      23.144 -16.247  -1.113  0.00  0.00     0.037 A 
ATOM      9  C   UNL d   1      22.155 -17.132  -0.665  0.00  0.00     0.011 A 
BRANCH   7  10
ATOM     10  O   UNL d   1      25.518 -15.848  -1.518  0.00  0.00    -0.342 OA
BRANCH  10  11
ATOM     11  C   UNL d   1      26.197 -16.274  -2.712  0.00  0.00     0.280 C 
BRANCH  11  12
ATOM     12  C   UNL d   1      25.940 -15.273  -3.880  0.00  0.00     0.260 C 
ATOM     13  N   UNL d   1      25.152 -14.160  -3.583  0.00  0.00    -0.264 N 
ATOM     14  H   UNL d   1      24.746 -13.959  -2.670  0.00  0.00     0.190 HD
ATOM     15  O   UNL d   1      26.390 -15.438  -5.016  0.00  0.00    -0.269 OA
BRANCH  13  16
ATOM     16  N   UNL d   1      24.888 -13.189  -4.610  0.00  0.00    -0.249 N 
ATOM     17  C   UNL d   1      25.893 -12.329  -5.019  0.00  0.00     0.334 C 
ATOM     18  N   UNL d   1      25.540 -11.452  -6.029  0.00  0.00    -0.342 N 
ATOM     19  O   UNL d   1      27.019 -12.357  -4.516  0.00  0.00    -0.246 OA
ATOM     20  H   UNL d   1      24.591 -11.433  -6.375  0.00  0.00     0.164 HD
ATOM     21  H   UNL d   1      23.949 -13.190  -4.997  0.00  0.00     0.192 HD
BRANCH  18  22
ATOM     22  C   UNL d   1      26.497 -10.466  -6.533  0.00  0.00     0.125 C 
BRANCH  22  23
ATOM     23  C   UNL d   1      26.769 -10.538  -8.048  0.00  0.00     0.023 C 
BRANCH  23  24
ATOM     24  C   UNL d   1      27.685 -11.725  -8.448  0.00  0.00    -0.021 C 
ATOM     25  C   UNL d   1      27.453 -12.126  -9.909  0.00  0.00     0.009 C 
ATOM     26  C   UNL d   1      29.166 -11.393  -8.256  0.00  0.00     0.009 C 
ENDBRANCH  23  24
ENDBRANCH  22  23
ENDBRANCH  18  22
ENDBRANCH  13  16
ENDBRANCH  11  12
ENDBRANCH  10  11
ENDBRANCH   7  10
ENDBRANCH   1   4
TORSDOF 8
ENDMDL
MODEL 4
REMARK VINA RESULT:    -7.008      1.573      2.306
REMARK INTER + INTRA:         -10.873
REMARK INTER:                  -9.394
REMARK INTRA:                  -1.478
REMARK CONF_INDEPENDENT:        2.386
REMARK UNBOUND:                -1.478
REMARK  8 active torsions:
REMARK  status: ('A' for Active; 'I' for Inactive)
REMARK    1  A    between atoms: C_2  and  C_4 
REMARK    2  A    between atoms: C_4  and  C_5 
REMARK    3  A    between atoms: C_5  and  N_6 
REMARK       I    between atoms: N_6  and  C_7 
REMARK       I    between atoms: C_7  and  N_9 
REMARK    4  A    between atoms: N_9  and  N_10 
REMARK       I    between atoms: N_10  and  C_11 
REMARK    5  A    between atoms: C_11  and  C_13 
REMARK    6  A    between atoms: C_13  and  O_14 
REMARK    7  A    between atoms: O_14  and  C_15 
REMARK    8  A    between atoms: C_18  and  C_19 
ROOT
ATOM      1  C   UNL d   1      21.577 -18.653  -1.029  0.00  0.00     0.147 C 
ATOM      2  C   UNL d   1      21.008 -19.218   0.262  0.00  0.00    -0.016 C 
ATOM      3  N   UNL d   1      20.537 -19.687   1.334  0.00  0.00    -0.101 N 
ENDROOT
BRANCH   1   4
ATOM      4  C   UNL d   1      22.929 -17.995  -0.738  0.00  0.00    -0.046 A 
ATOM      5  C   UNL d   1      23.175 -16.682  -1.147  0.00  0.00     0.011 A 
ATOM      6  C   UNL d   1      24.462 -16.129  -1.017  0.00  0.00     0.037 A 
ATOM      7  C   UNL d   1      25.513 -16.843  -0.421  0.00  0.00     0.069 A 
ATOM      8  C   UNL d   1      25.256 -18.118   0.057  0.00  0.00     0.037 A 
ATOM      9  C   UNL d   1      23.985 -18.683  -0.101  0.00  0.00     0.011 A 
BRANCH   7  10
ATOM     10  O   UNL d   1      26.698 -16.174  -0.257  0.00  0.00    -0.342 OA
BRANCH  10  11
ATOM     11  C   UNL d   1      26.724 -15.016   0.596  0.00  0.00     0.280 C 
BRANCH  11  12
ATOM     12  C   UNL d   1      28.005 -15.015   1.484  0.00  0.00     0.260 C 
ATOM     13  N   UNL d   1      27.828 -14.699   2.831  0.00  0.00    -0.264 N 
ATOM     14  H   UNL d   1      26.933 -14.480   3.267  0.00  0.00     0.190 HD
ATOM     15  O   UNL d   1      29.129 -15.266   1.041  0.00  0.00    -0.269 OA
BRANCH  13  16
ATOM     16  N   UNL d   1      28.966 -14.694   3.710  0.00  0.00    -0.249 N 
ATOM     17  C   UNL d   1      28.893 -14.039   4.928  0.00  0.00     0.334 C 
ATOM     18  N   UNL d   1      30.034 -14.117   5.706  0.00  0.00    -0.342 N 
ATOM     19  O   UNL d   1      27.876 -13.439   5.284  0.00  0.00    -0.246 OA
ATOM     20  H   UNL d   1      30.859 -14.578   5.350  0.00  0.00     0.164 HD
ATOM     21  H   UNL d   1      29.789 -15.192   3.382  0.00  0.00     0.192 HD
BRANCH  18  22
ATOM     22  C   UNL d   1      30.104 -13.441   7.002  0.00  0.00     0.125 C 
BRANCH  22  23
ATOM     23  C   UNL d   1      29.256 -14.083   8.117  0.00  0.00     0.023 C 
BRANCH  23  24
ATOM     24  C   UNL d   1      29.049 -13.152   9.340  0.00  0.00    -0.021 C 
ATOM     25  C   UNL d   1      28.542 -11.774   8.899  0.00  0.00     0.009 C 
ATOM     26  C   UNL d   1      28.059 -13.743  10.346  0.00  0.00     0.009 C 
ENDBRANCH  23  24
ENDBRANCH  22  23
ENDBRANCH  18  22
ENDBRANCH  13  16
ENDBRANCH  11  12
ENDBRANCH  10  11
ENDBRANCH   7  10
ENDBRANCH   1   4
TORSDOF 8
ENDMDL
MODEL 5
REMARK VINA RESULT:    -6.856      5.215      7.761
REMARK INTER + INTRA:         -10.825
REMARK INTER:                  -9.243
REMARK INTRA:                  -1.582
REMARK CONF_INDEPENDENT:        2.386
REMARK UNBOUND:                -1.582
REMARK  8 active torsions:
REMARK  status: ('A' for Active; 'I' for Inactive)
REMARK    1  A    between atoms: C_2  and  C_4 
REMARK    2  A    between atoms: C_4  and  C_5 
REMARK    3  A    between atoms: C_5  and  N_6 
REMARK       I    between atoms: N_6  and  C_7 
REMARK       I    between atoms: C_7  and  N_9 
REMARK    4  A    between atoms: N_9  and  N_10 
REMARK       I    between atoms: N_10  and  C_11 
REMARK    5  A    between atoms: C_11  and  C_13 
REMARK    6  A    between atoms: C_13  and  O_14 
REMARK    7  A    between atoms: O_14  and  C_15 
REMARK    8  A    between atoms: C_18  and  C_19 
ROOT
ATOM      1  C   UNL d   1      20.916 -19.347  -0.820  0.00  0.00     0.147 C 
ATOM      2  C   UNL d   1      20.341 -19.518   0.577  0.00  0.00    -0.016 C 
ATOM      3  N   UNL d   1      19.865 -19.660   1.736  0.00  0.00    -0.101 N 
ENDROOT
BRANCH   1   4
ATOM      4  C   UNL d   1      22.133 -18.420  -0.754  0.00  0.00    -0.046 A 
ATOM      5  C   UNL d   1      21.975 -17.039  -0.895  0.00  0.00     0.011 A 
ATOM      6  C   UNL d   1      23.102 -16.203  -0.987  0.00  0.00     0.037 A 
ATOM      7  C   UNL d   1      24.406 -16.710  -0.876  0.00  0.00     0.069 A 
ATOM      8  C   UNL d   1      24.568 -18.070  -0.658  0.00  0.00     0.037 A 
ATOM      9  C   UNL d   1      23.449 -18.909  -0.600  0.00  0.00     0.011 A 
BRANCH   7  10
ATOM     10  O   UNL d   1      25.426 -15.795  -0.882  0.00  0.00    -0.342 OA
BRANCH  10  11
ATOM     11  C   UNL d   1      26.194 -15.625  -2.086  0.00  0.00     0.280 C 
BRANCH  11  12
ATOM     12  C   UNL d   1      25.547 -14.544  -3.004  0.00  0.00     0.260 C 
ATOM     13  N   UNL d   1      25.816 -13.213  -2.684  0.00  0.00    -0.264 N 
ATOM     14  H   UNL d   1      26.401 -12.907  -1.909  0.00  0.00     0.190 HD
ATOM     15  O   UNL d   1      24.823 -14.825  -3.963  0.00  0.00    -0.269 OA
BRANCH  13  16
ATOM     16  N   UNL d   1      25.262 -12.166  -3.499  0.00  0.00    -0.249 N 
ATOM     17  C   UNL d   1      25.882 -10.929  -3.545  0.00  0.00     0.334 C 
ATOM     18  N   UNL d   1      25.282 -10.002  -4.378  0.00  0.00    -0.342 N 
ATOM     19  O   UNL d   1      26.898 -10.685  -2.889  0.00  0.00    -0.246 OA
ATOM     20  H   UNL d   1      24.423 -10.232  -4.856  0.00  0.00     0.164 HD
ATOM     21  H   UNL d   1      24.422 -12.400  -4.020  0.00  0.00     0.192 HD
BRANCH  18  22
ATOM     22  C   UNL d   1      25.815  -8.643  -4.494  0.00  0.00     0.125 C 
BRANCH  22  23
ATOM     23  C   UNL d   1      26.600  -8.361  -5.789  0.00  0.00     0.023 C 
BRANCH  23  24
ATOM     24  C   UNL d   1      26.188  -9.283  -6.967  0.00  0.00    -0.021 C 
ATOM     25  C   UNL d   1      26.655  -8.701  -8.306  0.00  0.00     0.009 C 
ATOM     26  C   UNL d   1      26.760 -10.694  -6.815  0.00  0.00     0.009 C 
ENDBRANCH  23  24
ENDBRANCH  22  23
ENDBRANCH  18  22
ENDBRANCH  13  16
ENDBRANCH  11  12
ENDBRANCH  10  11
ENDBRANCH   7  10
ENDBRANCH   1   4
TORSDOF 8
ENDMDL
MODEL 6
REMARK VINA RESULT:    -6.581      5.179      9.017
REMARK INTER + INTRA:         -10.849
REMARK INTER:                  -8.968
REMARK INTRA:                  -1.881
REMARK CONF_INDEPENDENT:        2.386
REMARK UNBOUND:                -1.881
REMARK  8 active torsions:
REMARK  status: ('A' for Active; 'I' for Inactive)
REMARK    1  A    between atoms: C_2  and  C_4 
REMARK    2  A    between atoms: C_4  and  C_5 
REMARK    3  A    between atoms: C_5  and  N_6 
REMARK       I    between atoms: N_6  and  C_7 
REMARK       I    between atoms: C_7  and  N_9 
REMARK    4  A    between atoms: N_9  and  N_10 
REMARK       I    between atoms: N_10  and  C_11 
REMARK    5  A    between atoms: C_11  and  C_13 
REMARK    6  A    between atoms: C_13  and  O_14 
REMARK    7  A    between atoms: O_14  and  C_15 
REMARK    8  A    between atoms: C_18  and  C_19 
ROOT
ATOM      1  C   UNL d   1      27.847 -11.849  -5.946  0.00  0.00     0.147 C 
ATOM      2  C   UNL d   1      28.208 -12.531  -7.255  0.00  0.00    -0.016 C 
ATOM      3  N   UNL d   1      28.509 -13.097  -8.341  0.00  0.00    -0.101 N 
ENDROOT
BRANCH   1   4
ATOM      4  C   UNL d   1      27.216 -12.876  -5.000  0.00  0.00    -0.046 A 
ATOM      5  C   UNL d   1      27.791 -14.140  -4.849  0.00  0.00     0.011 A 
ATOM      6  C   UNL d   1      27.131 -15.133  -4.102  0.00  0.00     0.037 A 
ATOM      7  C   UNL d   1      25.922 -14.874  -3.438  0.00  0.00     0.069 A 
ATOM      8  C   UNL d   1      25.385 -13.598  -3.521  0.00  0.00     0.037 A 
ATOM      9  C   UNL d   1      26.023 -12.618  -4.291  0.00  0.00     0.011 A 
BRANCH   7  10
ATOM     10  O   UNL d   1      25.418 -15.882  -2.660  0.00  0.00    -0.342 OA
BRANCH  10  11
ATOM     11  C   UNL d   1      26.219 -16.384  -1.576  0.00  0.00     0.280 C 
BRANCH  11  12
ATOM     12  C   UNL d   1      25.418 -17.424  -0.734  0.00  0.00     0.260 C 
ATOM     13  N   UNL d   1      24.223 -17.885  -1.287  0.00  0.00    -0.264 N 
ATOM     14  H   UNL d   1      23.849 -17.597  -2.191  0.00  0.00     0.190 HD
ATOM     15  O   UNL d   1      25.795 -17.826   0.369  0.00  0.00    -0.269 OA
BRANCH  13  16
ATOM     16  N   UNL d   1      23.443 -18.856  -0.570  0.00  0.00    -0.249 N 
ATOM     17  C   UNL d   1      22.082 -18.956  -0.806  0.00  0.00     0.334 C 
ATOM     18  N   UNL d   1      21.432 -19.939  -0.082  0.00  0.00    -0.342 N 
ATOM     19  O   UNL d   1      21.505 -18.220  -1.611  0.00  0.00    -0.246 OA
ATOM     20  H   UNL d   1      21.938 -20.484   0.601  0.00  0.00     0.164 HD
ATOM     21  H   UNL d   1      23.949 -19.440   0.089  0.00  0.00     0.192 HD
BRANCH  18  22
ATOM     22  C   UNL d   1      19.986 -20.130  -0.210  0.00  0.00     0.125 C 
BRANCH  22  23
ATOM     23  C   UNL d   1      19.131 -19.300   0.766  0.00  0.00     0.023 C 
BRANCH  23  24
ATOM     24  C   UNL d   1      18.411 -20.164   1.835  0.00  0.00    -0.021 C 
ATOM     25  C   UNL d   1      17.916 -21.482   1.229  0.00  0.00     0.009 C 
ATOM     26  C   UNL d   1      19.321 -20.477   3.024  0.00  0.00     0.009 C 
ENDBRANCH  23  24
ENDBRANCH  22  23
ENDBRANCH  18  22
ENDBRANCH  13  16
ENDBRANCH  11  12
ENDBRANCH  10  11
ENDBRANCH   7  10
ENDBRANCH   1   4
TORSDOF 8
ENDMDL
MODEL 7
REMARK VINA RESULT:    -6.460      4.353      8.596
REMARK INTER + INTRA:         -10.888
REMARK INTER:                  -8.846
REMARK INTRA:                  -2.041
REMARK CONF_INDEPENDENT:        2.386
REMARK UNBOUND:                -2.041
REMARK  8 active torsions:
REMARK  status: ('A' for Active; 'I' for Inactive)
REMARK    1  A    between atoms: C_2  and  C_4 
REMARK    2  A    between atoms: C_4  and  C_5 
REMARK    3  A    between atoms: C_5  and  N_6 
REMARK       I    between atoms: N_6  and  C_7 
REMARK       I    between atoms: C_7  and  N_9 
REMARK    4  A    between atoms: N_9  and  N_10 
REMARK       I    between atoms: N_10  and  C_11 
REMARK    5  A    between atoms: C_11  and  C_13 
REMARK    6  A    between atoms: C_13  and  O_14 
REMARK    7  A    between atoms: O_14  and  C_15 
REMARK    8  A    between atoms: C_18  and  C_19 
ROOT
ATOM      1  C   UNL d   1      27.314 -11.683  -4.774  0.00  0.00     0.147 C 
ATOM      2  C   UNL d   1      26.176 -10.689  -4.938  0.00  0.00    -0.016 C 
ATOM      3  N   UNL d   1      25.231  -9.865  -5.074  0.00  0.00    -0.101 N 
ENDROOT
BRANCH   1   4
ATOM      4  C   UNL d   1      27.060 -12.538  -3.529  0.00  0.00    -0.046 A 
ATOM      5  C   UNL d   1      28.117 -12.872  -2.678  0.00  0.00     0.011 A 
ATOM      6  C   UNL d   1      27.915 -13.779  -1.622  0.00  0.00     0.037 A 
ATOM      7  C   UNL d   1      26.650 -14.323  -1.349  0.00  0.00     0.069 A 
ATOM      8  C   UNL d   1      25.581 -13.936  -2.143  0.00  0.00     0.037 A 
ATOM      9  C   UNL d   1      25.786 -13.059  -3.215  0.00  0.00     0.011 A 
BRANCH   7  10
ATOM     10  O   UNL d   1      26.548 -15.119  -0.239  0.00  0.00    -0.342 OA
BRANCH  10  11
ATOM     11  C   UNL d   1      27.241 -16.379  -0.226  0.00  0.00     0.280 C 
BRANCH  11  12
ATOM     12  C   UNL d   1      26.240 -17.557  -0.023  0.00  0.00     0.260 C 
ATOM     13  N   UNL d   1      24.884 -17.244  -0.114  0.00  0.00    -0.264 N 
ATOM     14  H   UNL d   1      24.511 -16.316  -0.308  0.00  0.00     0.190 HD
ATOM     15  O   UNL d   1      26.603 -18.711   0.218  0.00  0.00    -0.269 OA
BRANCH  13  16
ATOM     16  N   UNL d   1      23.907 -18.286   0.048  0.00  0.00    -0.249 N 
ATOM     17  C   UNL d   1      22.603 -18.080  -0.370  0.00  0.00     0.334 C 
ATOM     18  N   UNL d   1      21.752 -19.155  -0.190  0.00  0.00    -0.342 N 
ATOM     19  O   UNL d   1      22.242 -17.011  -0.871  0.00  0.00    -0.246 OA
ATOM     20  H   UNL d   1      22.082 -19.991   0.270  0.00  0.00     0.164 HD
ATOM     21  H   UNL d   1      24.238 -19.149   0.470  0.00  0.00     0.192 HD
BRANCH  18  22
ATOM     22  C   UNL d   1      20.338 -19.060  -0.558  0.00  0.00     0.125 C 
BRANCH  22  23
ATOM     23  C   UNL d   1      19.504 -20.323  -0.268  0.00  0.00     0.023 C 
BRANCH  23  24
ATOM     24  C   UNL d   1      18.825 -20.300   1.127  0.00  0.00    -0.021 C 
ATOM     25  C   UNL d   1      18.026 -21.587   1.367  0.00  0.00     0.009 C 
ATOM     26  C   UNL d   1      19.844 -20.134   2.256  0.00  0.00     0.009 C 
ENDBRANCH  23  24
ENDBRANCH  22  23
ENDBRANCH  18  22
ENDBRANCH  13  16
ENDBRANCH  11  12
ENDBRANCH  10  11
ENDBRANCH   7  10
ENDBRANCH   1   4
TORSDOF 8
ENDMDL
MODEL 8
REMARK VINA RESULT:    -6.259      4.466      7.651
REMARK INTER + INTRA:         -10.627
REMARK INTER:                  -8.645
REMARK INTRA:                  -1.981
REMARK CONF_INDEPENDENT:        2.386
REMARK UNBOUND:                -1.981
REMARK  8 active torsions:
REMARK  status: ('A' for Active; 'I' for Inactive)
REMARK    1  A    between atoms: C_2  and  C_4 
REMARK    2  A    between atoms: C_4  and  C_5 
REMARK    3  A    between atoms: C_5  and  N_6 
REMARK       I    between atoms: N_6  and  C_7 
REMARK       I    between atoms: C_7  and  N_9 
REMARK    4  A    between atoms: N_9  and  N_10 
REMARK       I    between atoms: N_10  and  C_11 
REMARK    5  A    between atoms: C_11  and  C_13 
REMARK    6  A    between atoms: C_13  and  O_14 
REMARK    7  A    between atoms: O_14  and  C_15 
REMARK    8  A    between atoms: C_18  and  C_19 
ROOT
ATOM      1  C   UNL d   1      20.614 -19.202  -0.972  0.00  0.00     0.147 C 
ATOM      2  C   UNL d   1      20.063 -19.617   0.382  0.00  0.00    -0.016 C 
ATOM      3  N   UNL d   1      19.608 -19.962   1.506  0.00  0.00    -0.101 N 
ENDROOT
BRANCH   1   4
ATOM      4  C   UNL d   1      21.960 -18.499  -0.774  0.00  0.00    -0.046 A 
ATOM      5  C   UNL d   1      22.054 -17.110  -0.895  0.00  0.00     0.011 A 
ATOM      6  C   UNL d   1      23.311 -16.480  -0.865  0.00  0.00     0.037 A 
ATOM      7  C   UNL d   1      24.493 -17.205  -0.651  0.00  0.00     0.069 A 
ATOM      8  C   UNL d   1      24.400 -18.574  -0.453  0.00  0.00     0.037 A 
ATOM      9  C   UNL d   1      23.154 -19.208  -0.516  0.00  0.00     0.011 A 
BRANCH   7  10
ATOM     10  O   UNL d   1      25.651 -16.479  -0.542  0.00  0.00    -0.342 OA
BRANCH  10  11
ATOM     11  C   UNL d   1      26.861 -17.162  -0.174  0.00  0.00     0.280 C 
BRANCH  11  12
ATOM     12  C   UNL d   1      28.000 -16.856  -1.194  0.00  0.00     0.260 C 
ATOM     13  N   UNL d   1      27.622 -16.218  -2.376  0.00  0.00    -0.264 N 
ATOM     14  H   UNL d   1      26.670 -15.939  -2.609  0.00  0.00     0.190 HD
ATOM     15  O   UNL d   1      29.178 -17.161  -0.995  0.00  0.00    -0.269 OA
BRANCH  13  16
ATOM     16  N   UNL d   1      28.624 -15.893  -3.354  0.00  0.00    -0.249 N 
ATOM     17  C   UNL d   1      28.246 -15.574  -4.647  0.00  0.00     0.334 C 
ATOM     18  N   UNL d   1      29.286 -15.253  -5.500  0.00  0.00    -0.342 N 
ATOM     19  O   UNL d   1      27.063 -15.575  -4.999  0.00  0.00    -0.246 OA
ATOM     20  H   UNL d   1      30.242 -15.315  -5.180  0.00  0.00     0.164 HD
ATOM     21  H   UNL d   1      29.587 -15.909  -3.031  0.00  0.00     0.192 HD
BRANCH  18  22
ATOM     22  C   UNL d   1      29.030 -14.930  -6.905  0.00  0.00     0.125 C 
BRANCH  22  23
ATOM     23  C   UNL d   1      28.882 -13.427  -7.209  0.00  0.00     0.023 C 
BRANCH  23  24
ATOM     24  C   UNL d   1      30.064 -12.850  -8.032  0.00  0.00    -0.021 C 
ATOM     25  C   UNL d   1      29.646 -11.571  -8.767  0.00  0.00     0.009 C 
ATOM     26  C   UNL d   1      31.276 -12.541  -7.152  0.00  0.00     0.009 C 
ENDBRANCH  23  24
ENDBRANCH  22  23
ENDBRANCH  18  22
ENDBRANCH  13  16
ENDBRANCH  11  12
ENDBRANCH  10  11
ENDBRANCH   7  10
ENDBRANCH   1   4
TORSDOF 8
ENDMDL
MODEL 9
REMARK VINA RESULT:    -6.226      5.232      8.903
REMARK INTER + INTRA:         -10.561
REMARK INTER:                  -8.612
REMARK INTRA:                  -1.949
REMARK CONF_INDEPENDENT:        2.386
REMARK UNBOUND:                -1.949
REMARK  8 active torsions:
REMARK  status: ('A' for Active; 'I' for Inactive)
REMARK    1  A    between atoms: C_2  and  C_4 
REMARK    2  A    between atoms: C_4  and  C_5 
REMARK    3  A    between atoms: C_5  and  N_6 
REMARK       I    between atoms: N_6  and  C_7 
REMARK       I    between atoms: C_7  and  N_9 
REMARK    4  A    between atoms: N_9  and  N_10 
REMARK       I    between atoms: N_10  and  C_11 
REMARK    5  A    between atoms: C_11  and  C_13 
REMARK    6  A    between atoms: C_13  and  O_14 
REMARK    7  A    between atoms: O_14  and  C_15 
REMARK    8  A    between atoms: C_18  and  C_19 
ROOT
ATOM      1  C   UNL d   1      22.621 -18.575   0.346  0.00  0.00     0.147 C 
ATOM      2  C   UNL d   1      21.602 -18.949  -0.717  0.00  0.00    -0.016 C 
ATOM      3  N   UNL d   1      20.756 -19.258  -1.600  0.00  0.00    -0.101 N 
ENDROOT
BRANCH   1   4
ATOM      4  C   UNL d   1      23.740 -17.749  -0.296  0.00  0.00    -0.046 A 
ATOM      5  C   UNL d   1      23.435 -16.592  -1.016  0.00  0.00     0.011 A 
ATOM      6  C   UNL d   1      24.442 -15.918  -1.732  0.00  0.00     0.037 A 
ATOM      7  C   UNL d   1      25.780 -16.340  -1.695  0.00  0.00     0.069 A 
ATOM      8  C   UNL d   1      26.102 -17.443  -0.919  0.00  0.00     0.037 A 
ATOM      9  C   UNL d   1      25.096 -18.135  -0.233  0.00  0.00     0.011 A 
BRANCH   7  10
ATOM     10  O   UNL d   1      26.692 -15.555  -2.349  0.00  0.00    -0.342 OA
BRANCH  10  11
ATOM     11  C   UNL d   1      26.285 -14.880  -3.552  0.00  0.00     0.280 C 
BRANCH  11  12
ATOM     12  C   UNL d   1      27.246 -15.226  -4.730  0.00  0.00     0.260 C 
ATOM     13  N   UNL d   1      28.393 -15.950  -4.406  0.00  0.00    -0.264 N 
ATOM     14  H   UNL d   1      28.638 -16.266  -3.468  0.00  0.00     0.190 HD
ATOM     15  O   UNL d   1      27.030 -14.881  -5.895  0.00  0.00    -0.269 OA
BRANCH  13  16
ATOM     16  N   UNL d   1      29.315 -16.315  -5.447  0.00  0.00    -0.249 N 
ATOM     17  C   UNL d   1      30.091 -17.454  -5.311  0.00  0.00     0.334 C 
ATOM     18  N   UNL d   1      30.925 -17.727  -6.380  0.00  0.00    -0.342 N 
ATOM     19  O   UNL d   1      30.030 -18.168  -4.306  0.00  0.00    -0.246 OA
ATOM     20  H   UNL d   1      30.976 -17.086  -7.159  0.00  0.00     0.164 HD
ATOM     21  H   UNL d   1      29.344 -15.702  -6.256  0.00  0.00     0.192 HD
BRANCH  18  22
ATOM     22  C   UNL d   1      31.824 -18.882  -6.353  0.00  0.00     0.125 C 
BRANCH  22  23
ATOM     23  C   UNL d   1      31.398 -20.059  -7.250  0.00  0.00     0.023 C 
BRANCH  23  24
ATOM     24  C   UNL d   1      31.929 -19.945  -8.703  0.00  0.00    -0.021 C 
ATOM     25  C   UNL d   1      30.780 -19.703  -9.688  0.00  0.00     0.009 C 
ATOM     26  C   UNL d   1      32.952 -18.816  -8.849  0.00  0.00     0.009 C 
ENDBRANCH  23  24
ENDBRANCH  22  23
ENDBRANCH  18  22
ENDBRANCH  13  16
ENDBRANCH  11  12
ENDBRANCH  10  11
ENDBRANCH   7  10
ENDBRANCH   1   4
TORSDOF 8
ENDMDL
