MODEL 1
REMARK VINA RESULT:    -8.945      0.000      0.000
REMARK INTER + INTRA:         -13.740
REMARK INTER:                 -11.630
REMARK INTRA:                  -2.111
REMARK CONF_INDEPENDENT:        2.685
REMARK UNBOUND:                -2.111
REMARK  9 active torsions:
REMARK  status: ('A' for Active; 'I' for Inactive)
REMARK    1  A    between atoms: O_2  and  C_3 
REMARK    2  A    between atoms: C_6  and  C_7 
REMARK    3  A    between atoms: C_7  and  C_8 
REMARK    4  A    between atoms: C_8  and  N_9 
REMARK       I    between atoms: N_9  and  C_10 
REMARK    5  A    between atoms: C_10  and  C_12 
REMARK    6  A    between atoms: C_18  and  O_19 
REMARK    7  A    between atoms: N_24  and  N_25 
REMARK       I    between atoms: N_25  and  C_26 
REMARK    8  A    between atoms: C_26  and  C_28 
REMARK    9  A    between atoms: C_36  and  O_37 
ROOT
ATOM      1  C   UNL d   1      30.985 -17.649  -1.668  0.00  0.00     0.085 C 
ATOM      2  C   UNL d   1      31.766 -17.870  -2.747  0.00  0.00     0.035 C 
ATOM      3  C   UNL d   1      31.247 -17.697  -4.106  0.00  0.00     0.002 C 
ATOM      4  C   UNL d   1      31.779 -18.358  -5.220  0.00  0.00     0.014 C 
ATOM      5  C   UNL d   1      31.339 -18.037  -6.508  0.00  0.00     0.004 C 
ATOM      6  C   UNL d   1      30.382 -17.038  -6.685  0.00  0.00     0.040 C 
ATOM      7  C   UNL d   1      29.814 -16.390  -5.577  0.00  0.00     0.102 C 
ATOM      8  C   UNL d   1      30.184 -16.810  -4.288  0.00  0.00     0.121 C 
ATOM      9  O   UNL d   1      29.340 -16.564  -3.154  0.00  0.00    -0.288 OA
ATOM     10  C   UNL d   1      29.608 -17.223  -1.965  0.00  0.00     0.178 C 
ATOM     11  N   UNL d   1      28.629 -17.387  -1.145  0.00  0.00    -0.276 N 
ATOM     12  H   UNL d   1      28.870 -17.820  -0.263  0.00  0.00     0.189 HD
ENDROOT
BRANCH   1  13
ATOM     13  C   UNL d   1      31.589 -17.893  -0.295  0.00  0.00     0.256 C 
ATOM     14  N   UNL d   1      32.556 -18.888  -0.147  0.00  0.00    -0.356 N 
ATOM     15  H   UNL d   1      32.898 -19.594  -0.750  0.00  0.00     0.162 HD
ATOM     16  O   UNL d   1      31.231 -17.220   0.652  0.00  0.00    -0.268 OA
BRANCH  14  17
ATOM     17  C   UNL d   1      33.117 -19.179   1.156  0.00  0.00     0.127 C 
BRANCH  17  18
ATOM     18  C   UNL d   1      32.362 -20.337   1.860  0.00  0.00     0.058 C 
BRANCH  18  19
ATOM     19  C   UNL d   1      32.809 -20.565   3.279  0.00  0.00    -0.054 A 
ATOM     20  C   UNL d   1      34.152 -20.558   3.642  0.00  0.00     0.010 A 
ATOM     21  C   UNL d   1      34.523 -20.908   4.955  0.00  0.00     0.040 A 
ATOM     22  C   UNL d   1      33.569 -21.198   5.961  0.00  0.00     0.101 A 
ATOM     23  C   UNL d   1      32.217 -21.140   5.598  0.00  0.00     0.102 A 
ATOM     24  C   UNL d   1      31.875 -20.837   4.276  0.00  0.00     0.046 A 
BRANCH  22  25
ATOM     25  O   UNL d   1      34.114 -21.245   7.223  0.00  0.00    -0.353 OA
ATOM     26  C   UNL d   1      34.859 -22.376   7.671  0.00  0.00     0.210 C 
ENDBRANCH  22  25
BRANCH  23  27
ATOM     27  O   UNL d   1      31.045 -21.269   6.298  0.00  0.00    -0.353 OA
ATOM     28  C   UNL d   1      30.028 -21.950   5.634  0.00  0.00     0.210 C 
ENDBRANCH  23  27
ENDBRANCH  18  19
ENDBRANCH  17  18
ENDBRANCH  14  17
ENDBRANCH   1  13
BRANCH  11  29
ATOM     29  N   UNL d   1      27.256 -17.149  -1.238  0.00  0.00    -0.264 N 
ATOM     30  C   UNL d   1      26.483 -17.723  -0.216  0.00  0.00     0.270 C 
ATOM     31  O   UNL d   1      27.012 -18.286   0.735  0.00  0.00    -0.266 OA
ATOM     32  H   UNL d   1      26.875 -16.694  -2.057  0.00  0.00     0.190 HD
BRANCH  30  33
ATOM     33  C   UNL d   1      25.003 -17.626  -0.351  0.00  0.00     0.036 A 
ATOM     34  C   UNL d   1      24.363 -16.391  -0.551  0.00  0.00     0.017 A 
ATOM     35  C   UNL d   1      22.961 -16.327  -0.613  0.00  0.00     0.004 A 
ATOM     36  C   UNL d   1      22.205 -17.494  -0.523  0.00  0.00     0.042 A 
ATOM     37  C   UNL d   1      22.850 -18.705  -0.311  0.00  0.00     0.117 A 
ATOM     38  F   UNL d   1      22.132 -19.826  -0.180  0.00  0.00    -0.206 F 
ATOM     39  C   UNL d   1      24.236 -18.783  -0.212  0.00  0.00     0.059 A 
ENDBRANCH  30  33
ENDBRANCH  11  29
BRANCH   7  40
ATOM     40  O   UNL d   1      28.916 -15.417  -5.916  0.00  0.00    -0.353 OA
ATOM     41  C   UNL d   1      29.224 -14.644  -7.066  0.00  0.00     0.210 C 
ENDBRANCH   7  40
TORSDOF 9
ENDMDL
MODEL 2
REMARK VINA RESULT:    -8.720      5.364      9.484
REMARK INTER + INTRA:         -13.530
REMARK INTER:                 -11.405
REMARK INTRA:                  -2.125
REMARK CONF_INDEPENDENT:        2.685
REMARK UNBOUND:                -2.125
REMARK  9 active torsions:
REMARK  status: ('A' for Active; 'I' for Inactive)
REMARK    1  A    between atoms: O_2  and  C_3 
REMARK    2  A    between atoms: C_6  and  C_7 
REMARK    3  A    between atoms: C_7  and  C_8 
REMARK    4  A    between atoms: C_8  and  N_9 
REMARK       I    between atoms: N_9  and  C_10 
REMARK    5  A    between atoms: C_10  and  C_12 
REMARK    6  A    between atoms: C_18  and  O_19 
REMARK    7  A    between atoms: N_24  and  N_25 
REMARK       I    between atoms: N_25  and  C_26 
REMARK    8  A    between atoms: C_26  and  C_28 
REMARK    9  A    between atoms: C_36  and  O_37 
ROOT
ATOM      1  C   UNL d   1      26.908 -16.679  -0.577  0.00  0.00     0.085 C 
ATOM      2  C   UNL d   1      27.912 -17.546  -0.328  0.00  0.00     0.035 C 
ATOM      3  C   UNL d   1      29.302 -17.208  -0.647  0.00  0.00     0.002 C 
ATOM      4  C   UNL d   1      30.288 -18.172  -0.894  0.00  0.00     0.014 C 
ATOM      5  C   UNL d   1      31.625 -17.792  -1.045  0.00  0.00     0.004 C 
ATOM      6  C   UNL d   1      31.981 -16.449  -0.925  0.00  0.00     0.040 C 
ATOM      7  C   UNL d   1      31.001 -15.467  -0.711  0.00  0.00     0.102 C 
ATOM      8  C   UNL d   1      29.651 -15.857  -0.681  0.00  0.00     0.121 C 
ATOM      9  O   UNL d   1      28.599 -14.919  -0.948  0.00  0.00    -0.288 OA
ATOM     10  C   UNL d   1      27.318 -15.397  -1.173  0.00  0.00     0.178 C 
ATOM     11  N   UNL d   1      26.523 -14.657  -1.864  0.00  0.00    -0.276 N 
ATOM     12  H   UNL d   1      25.578 -15.008  -1.961  0.00  0.00     0.189 HD
ENDROOT
BRANCH   1  13
ATOM     13  C   UNL d   1      25.491 -17.125  -0.254  0.00  0.00     0.256 C 
ATOM     14  N   UNL d   1      24.423 -16.511  -0.909  0.00  0.00    -0.356 N 
ATOM     15  H   UNL d   1      24.356 -15.727  -1.508  0.00  0.00     0.162 HD
ATOM     16  O   UNL d   1      25.306 -18.008   0.560  0.00  0.00    -0.268 OA
BRANCH  14  17
ATOM     17  C   UNL d   1      23.058 -16.879  -0.591  0.00  0.00     0.127 C 
BRANCH  17  18
ATOM     18  C   UNL d   1      22.693 -18.274  -1.163  0.00  0.00     0.058 C 
BRANCH  18  19
ATOM     19  C   UNL d   1      21.467 -18.876  -0.530  0.00  0.00    -0.054 A 
ATOM     20  C   UNL d   1      20.390 -19.329  -1.285  0.00  0.00     0.010 A 
ATOM     21  C   UNL d   1      19.215 -19.759  -0.639  0.00  0.00     0.040 A 
ATOM     22  C   UNL d   1      19.106 -19.825   0.772  0.00  0.00     0.101 A 
ATOM     23  C   UNL d   1      20.220 -19.425   1.521  0.00  0.00     0.102 A 
ATOM     24  C   UNL d   1      21.358 -18.956   0.857  0.00  0.00     0.046 A 
BRANCH  22  25
ATOM     25  O   UNL d   1      17.997 -20.520   1.195  0.00  0.00    -0.353 OA
ATOM     26  C   UNL d   1      17.912 -21.938   1.066  0.00  0.00     0.210 C 
ENDBRANCH  22  25
BRANCH  23  27
ATOM     27  O   UNL d   1      20.509 -19.431   2.861  0.00  0.00    -0.353 OA
ATOM     28  C   UNL d   1      19.914 -20.454   3.593  0.00  0.00     0.210 C 
ENDBRANCH  23  27
ENDBRANCH  18  19
ENDBRANCH  17  18
ENDBRANCH  14  17
ENDBRANCH   1  13
BRANCH  11  29
ATOM     29  N   UNL d   1      26.703 -13.474  -2.583  0.00  0.00    -0.264 N 
ATOM     30  C   UNL d   1      25.804 -13.280  -3.644  0.00  0.00     0.270 C 
ATOM     31  O   UNL d   1      24.871 -14.051  -3.829  0.00  0.00    -0.266 OA
ATOM     32  H   UNL d   1      27.504 -12.885  -2.397  0.00  0.00     0.190 HD
BRANCH  30  33
ATOM     33  C   UNL d   1      26.049 -12.111  -4.533  0.00  0.00     0.036 A 
ATOM     34  C   UNL d   1      26.721 -12.249  -5.759  0.00  0.00     0.017 A 
ATOM     35  C   UNL d   1      26.991 -11.117  -6.546  0.00  0.00     0.004 A 
ATOM     36  C   UNL d   1      26.551  -9.860  -6.133  0.00  0.00     0.042 A 
ATOM     37  C   UNL d   1      25.902  -9.737  -4.913  0.00  0.00     0.117 A 
ATOM     38  F   UNL d   1      25.513  -8.530  -4.487  0.00  0.00    -0.206 F 
ATOM     39  C   UNL d   1      25.657 -10.842  -4.104  0.00  0.00     0.059 A 
ENDBRANCH  30  33
ENDBRANCH  11  29
BRANCH   7  40
ATOM     40  O   UNL d   1      31.512 -14.205  -0.587  0.00  0.00    -0.353 OA
ATOM     41  C   UNL d   1      31.124 -13.477   0.568  0.00  0.00     0.210 C 
ENDBRANCH   7  40
TORSDOF 9
ENDMDL
MODEL 3
REMARK VINA RESULT:    -8.681      6.497     10.490
REMARK INTER + INTRA:         -13.674
REMARK INTER:                 -11.366
REMARK INTRA:                  -2.308
REMARK CONF_INDEPENDENT:        2.685
REMARK UNBOUND:                -2.308
REMARK  9 active torsions:
REMARK  status: ('A' for Active; 'I' for Inactive)
REMARK    1  A    between atoms: O_2  and  C_3 
REMARK    2  A    between atoms: C_6  and  C_7 
REMARK    3  A    between atoms: C_7  and  C_8 
REMARK    4  A    between atoms: C_8  and  N_9 
REMARK       I    between atoms: N_9  and  C_10 
REMARK    5  A    between atoms: C_10  and  C_12 
REMARK    6  A    between atoms: C_18  and  O_19 
REMARK    7  A    between atoms: N_24  and  N_25 
REMARK       I    between atoms: N_25  and  C_26 
REMARK    8  A    between atoms: C_26  and  C_28 
REMARK    9  A    between atoms: C_36  and  O_37 
ROOT
ATOM      1  C   UNL d   1      28.860 -13.618   1.853  0.00  0.00     0.085 C 
ATOM      2  C   UNL d   1      27.985 -12.716   1.358  0.00  0.00     0.035 C 
ATOM      3  C   UNL d   1      27.501 -11.602   2.177  0.00  0.00     0.002 C 
ATOM      4  C   UNL d   1      26.279 -10.956   1.947  0.00  0.00     0.014 C 
ATOM      5  C   UNL d   1      25.943  -9.805   2.666  0.00  0.00     0.004 C 
ATOM      6  C   UNL d   1      26.839  -9.285   3.600  0.00  0.00     0.040 C 
ATOM      7  C   UNL d   1      28.051  -9.939   3.867  0.00  0.00     0.102 C 
ATOM      8  C   UNL d   1      28.316 -11.158   3.219  0.00  0.00     0.121 C 
ATOM      9  O   UNL d   1      29.250 -12.102   3.762  0.00  0.00    -0.288 OA
ATOM     10  C   UNL d   1      29.279 -13.387   3.246  0.00  0.00     0.178 C 
ATOM     11  N   UNL d   1      29.727 -14.322   4.008  0.00  0.00    -0.276 N 
ATOM     12  H   UNL d   1      29.788 -15.238   3.582  0.00  0.00     0.189 HD
ENDROOT
BRANCH   1  13
ATOM     13  C   UNL d   1      29.279 -14.767   0.952  0.00  0.00     0.256 C 
ATOM     14  N   UNL d   1      28.592 -14.974  -0.245  0.00  0.00    -0.356 N 
ATOM     15  H   UNL d   1      27.770 -14.581  -0.631  0.00  0.00     0.162 HD
ATOM     16  O   UNL d   1      30.204 -15.485   1.277  0.00  0.00    -0.268 OA
BRANCH  14  17
ATOM     17  C   UNL d   1      28.935 -16.088  -1.105  0.00  0.00     0.127 C 
BRANCH  17  18
ATOM     18  C   UNL d   1      28.267 -17.406  -0.628  0.00  0.00     0.058 C 
BRANCH  18  19
ATOM     19  C   UNL d   1      26.764 -17.345  -0.627  0.00  0.00    -0.054 A 
ATOM     20  C   UNL d   1      25.989 -18.193   0.159  0.00  0.00     0.010 A 
ATOM     21  C   UNL d   1      24.587 -18.186   0.023  0.00  0.00     0.040 A 
ATOM     22  C   UNL d   1      23.913 -17.284  -0.836  0.00  0.00     0.101 A 
ATOM     23  C   UNL d   1      24.701 -16.392  -1.575  0.00  0.00     0.102 A 
ATOM     24  C   UNL d   1      26.094 -16.451  -1.460  0.00  0.00     0.046 A 
BRANCH  22  25
ATOM     25  O   UNL d   1      22.555 -17.249  -0.622  0.00  0.00    -0.353 OA
ATOM     26  C   UNL d   1      21.784 -18.445  -0.523  0.00  0.00     0.210 C 
ENDBRANCH  22  25
BRANCH  23  27
ATOM     27  O   UNL d   1      24.411 -15.350  -2.418  0.00  0.00    -0.353 OA
ATOM     28  C   UNL d   1      25.486 -14.871  -3.162  0.00  0.00     0.210 C 
ENDBRANCH  23  27
ENDBRANCH  18  19
ENDBRANCH  17  18
ENDBRANCH  14  17
ENDBRANCH   1  13
BRANCH  11  29
ATOM     29  N   UNL d   1      30.095 -14.361   5.355  0.00  0.00    -0.264 N 
ATOM     30  C   UNL d   1      29.064 -14.069   6.262  0.00  0.00     0.270 C 
ATOM     31  O   UNL d   1      27.912 -13.909   5.877  0.00  0.00    -0.266 OA
ATOM     32  H   UNL d   1      31.066 -14.479   5.611  0.00  0.00     0.190 HD
BRANCH  30  33
ATOM     33  C   UNL d   1      29.439 -13.950   7.698  0.00  0.00     0.036 A 
ATOM     34  C   UNL d   1      30.660 -14.450   8.181  0.00  0.00     0.017 A 
ATOM     35  C   UNL d   1      30.957 -14.376   9.552  0.00  0.00     0.004 A 
ATOM     36  C   UNL d   1      30.062 -13.766  10.429  0.00  0.00     0.042 A 
ATOM     37  C   UNL d   1      28.853 -13.290   9.939  0.00  0.00     0.117 A 
ATOM     38  F   UNL d   1      27.967 -12.741  10.777  0.00  0.00    -0.206 F 
ATOM     39  C   UNL d   1      28.526 -13.386   8.590  0.00  0.00     0.059 A 
ENDBRANCH  30  33
ENDBRANCH  11  29
BRANCH   7  40
ATOM     40  O   UNL d   1      28.830  -9.290   4.784  0.00  0.00    -0.353 OA
ATOM     41  C   UNL d   1      28.866  -9.846   6.089  0.00  0.00     0.210 C 
ENDBRANCH   7  40
TORSDOF 9
ENDMDL
MODEL 4
REMARK VINA RESULT:    -8.351      7.130     11.206
REMARK INTER + INTRA:         -13.622
REMARK INTER:                 -11.036
REMARK INTRA:                  -2.586
REMARK CONF_INDEPENDENT:        2.685
REMARK UNBOUND:                -2.586
REMARK  9 active torsions:
REMARK  status: ('A' for Active; 'I' for Inactive)
REMARK    1  A    between atoms: O_2  and  C_3 
REMARK    2  A    between atoms: C_6  and  C_7 
REMARK    3  A    between atoms: C_7  and  C_8 
REMARK    4  A    between atoms: C_8  and  N_9 
REMARK       I    between atoms: N_9  and  C_10 
REMARK    5  A    between atoms: C_10  and  C_12 
REMARK    6  A    between atoms: C_18  and  O_19 
REMARK    7  A    between atoms: N_24  and  N_25 
REMARK       I    between atoms: N_25  and  C_26 
REMARK    8  A    between atoms: C_26  and  C_28 
REMARK    9  A    between atoms: C_36  and  O_37 
ROOT
ATOM      1  C   UNL d   1      27.771 -14.000   2.915  0.00  0.00     0.085 C 
ATOM      2  C   UNL d   1      28.525 -14.786   3.713  0.00  0.00     0.035 C 
ATOM      3  C   UNL d   1      28.996 -14.312   5.017  0.00  0.00     0.002 C 
ATOM      4  C   UNL d   1      30.138 -14.819   5.650  0.00  0.00     0.014 C 
ATOM      5  C   UNL d   1      30.451 -14.433   6.957  0.00  0.00     0.004 C 
ATOM      6  C   UNL d   1      29.607 -13.558   7.642  0.00  0.00     0.040 C 
ATOM      7  C   UNL d   1      28.478 -13.015   7.010  0.00  0.00     0.102 C 
ATOM      8  C   UNL d   1      28.248 -13.324   5.658  0.00  0.00     0.121 C 
ATOM      9  O   UNL d   1      27.443 -12.475   4.828  0.00  0.00    -0.288 OA
ATOM     10  C   UNL d   1      27.465 -12.666   3.455  0.00  0.00     0.178 C 
ATOM     11  N   UNL d   1      27.162 -11.659   2.713  0.00  0.00    -0.276 N 
ATOM     12  H   UNL d   1      27.132 -11.847   1.719  0.00  0.00     0.189 HD
ENDROOT
BRANCH   1  13
ATOM     13  C   UNL d   1      27.360 -14.553   1.561  0.00  0.00     0.256 C 
ATOM     14  N   UNL d   1      27.910 -15.760   1.127  0.00  0.00    -0.356 N 
ATOM     15  H   UNL d   1      28.634 -16.338   1.474  0.00  0.00     0.162 HD
ATOM     16  O   UNL d   1      26.559 -13.946   0.877  0.00  0.00    -0.268 OA
BRANCH  14  17
ATOM     17  C   UNL d   1      27.576 -16.291  -0.179  0.00  0.00     0.127 C 
BRANCH  17  18
ATOM     18  C   UNL d   1      26.867 -17.667  -0.073  0.00  0.00     0.058 C 
BRANCH  18  19
ATOM     19  C   UNL d   1      25.379 -17.589  -0.283  0.00  0.00    -0.054 A 
ATOM     20  C   UNL d   1      24.512 -18.567   0.194  0.00  0.00     0.010 A 
ATOM     21  C   UNL d   1      23.145 -18.514  -0.144  0.00  0.00     0.040 A 
ATOM     22  C   UNL d   1      22.591 -17.451  -0.897  0.00  0.00     0.101 A 
ATOM     23  C   UNL d   1      23.464 -16.439  -1.318  0.00  0.00     0.102 A 
ATOM     24  C   UNL d   1      24.825 -16.538  -1.012  0.00  0.00     0.046 A 
BRANCH  22  25
ATOM     25  O   UNL d   1      21.215 -17.441  -0.885  0.00  0.00    -0.353 OA
ATOM     26  C   UNL d   1      20.461 -18.652  -0.884  0.00  0.00     0.210 C 
ENDBRANCH  22  25
BRANCH  23  27
ATOM     27  O   UNL d   1      23.285 -15.247  -1.971  0.00  0.00    -0.353 OA
ATOM     28  C   UNL d   1      24.405 -14.760  -2.639  0.00  0.00     0.210 C 
ENDBRANCH  23  27
ENDBRANCH  18  19
ENDBRANCH  17  18
ENDBRANCH  14  17
ENDBRANCH   1  13
BRANCH  11  29
ATOM     29  N   UNL d   1      26.923 -10.310   2.984  0.00  0.00    -0.264 N 
ATOM     30  C   UNL d   1      26.813  -9.487   1.852  0.00  0.00     0.270 C 
ATOM     31  O   UNL d   1      26.817  -9.962   0.723  0.00  0.00    -0.266 OA
ATOM     32  H   UNL d   1      26.950  -9.973   3.937  0.00  0.00     0.190 HD
BRANCH  30  33
ATOM     33  C   UNL d   1      26.709  -8.020   2.089  0.00  0.00     0.036 A 
ATOM     34  C   UNL d   1      27.246  -7.424   3.244  0.00  0.00     0.017 A 
ATOM     35  C   UNL d   1      27.077  -6.048   3.468  0.00  0.00     0.004 A 
ATOM     36  C   UNL d   1      26.417  -5.263   2.524  0.00  0.00     0.042 A 
ATOM     37  C   UNL d   1      25.880  -5.868   1.396  0.00  0.00     0.117 A 
ATOM     38  F   UNL d   1      25.208  -5.132   0.504  0.00  0.00    -0.206 F 
ATOM     39  C   UNL d   1      26.007  -7.236   1.174  0.00  0.00     0.059 A 
ENDBRANCH  30  33
ENDBRANCH  11  29
BRANCH   7  40
ATOM     40  O   UNL d   1      27.739 -12.200   7.821  0.00  0.00    -0.353 OA
ATOM     41  C   UNL d   1      28.352 -11.791   9.034  0.00  0.00     0.210 C 
ENDBRANCH   7  40
TORSDOF 9
ENDMDL
MODEL 5
REMARK VINA RESULT:    -8.092      5.457     10.624
REMARK INTER + INTRA:         -13.409
REMARK INTER:                 -10.776
REMARK INTRA:                  -2.632
REMARK CONF_INDEPENDENT:        2.685
REMARK UNBOUND:                -2.632
REMARK  9 active torsions:
REMARK  status: ('A' for Active; 'I' for Inactive)
REMARK    1  A    between atoms: O_2  and  C_3 
REMARK    2  A    between atoms: C_6  and  C_7 
REMARK    3  A    between atoms: C_7  and  C_8 
REMARK    4  A    between atoms: C_8  and  N_9 
REMARK       I    between atoms: N_9  and  C_10 
REMARK    5  A    between atoms: C_10  and  C_12 
REMARK    6  A    between atoms: C_18  and  O_19 
REMARK    7  A    between atoms: N_24  and  N_25 
REMARK       I    between atoms: N_25  and  C_26 
REMARK    8  A    between atoms: C_26  and  C_28 
REMARK    9  A    between atoms: C_36  and  O_37 
ROOT
ATOM      1  C   UNL d   1      26.334 -14.046  -3.008  0.00  0.00     0.085 C 
ATOM      2  C   UNL d   1      25.199 -14.315  -2.329  0.00  0.00     0.035 C 
ATOM      3  C   UNL d   1      24.953 -15.642  -1.759  0.00  0.00     0.002 C 
ATOM      4  C   UNL d   1      23.669 -16.141  -1.505  0.00  0.00     0.014 C 
ATOM      5  C   UNL d   1      23.504 -17.351  -0.822  0.00  0.00     0.004 C 
ATOM      6  C   UNL d   1      24.623 -18.050  -0.372  0.00  0.00     0.040 C 
ATOM      7  C   UNL d   1      25.917 -17.581  -0.647  0.00  0.00     0.102 C 
ATOM      8  C   UNL d   1      26.061 -16.427  -1.436  0.00  0.00     0.121 C 
ATOM      9  O   UNL d   1      27.277 -16.159  -2.150  0.00  0.00    -0.288 OA
ATOM     10  C   UNL d   1      27.282 -15.168  -3.117  0.00  0.00     0.178 C 
ATOM     11  N   UNL d   1      28.164 -15.254  -4.050  0.00  0.00    -0.276 N 
ATOM     12  H   UNL d   1      28.177 -14.484  -4.707  0.00  0.00     0.189 HD
ENDROOT
BRANCH   1  13
ATOM     13  C   UNL d   1      26.491 -12.657  -3.603  0.00  0.00     0.256 C 
ATOM     14  N   UNL d   1      26.025 -11.556  -2.885  0.00  0.00    -0.356 N 
ATOM     15  H   UNL d   1      25.486 -11.463  -2.061  0.00  0.00     0.162 HD
ATOM     16  O   UNL d   1      27.022 -12.520  -4.688  0.00  0.00    -0.268 OA
BRANCH  14  17
ATOM     17  C   UNL d   1      26.116 -10.222  -3.445  0.00  0.00     0.127 C 
BRANCH  17  18
ATOM     18  C   UNL d   1      27.166  -9.358  -2.697  0.00  0.00     0.058 C 
BRANCH  18  19
ATOM     19  C   UNL d   1      26.874  -9.202  -1.230  0.00  0.00    -0.054 A 
ATOM     20  C   UNL d   1      27.436 -10.038  -0.270  0.00  0.00     0.010 A 
ATOM     21  C   UNL d   1      27.026  -9.934   1.074  0.00  0.00     0.040 A 
ATOM     22  C   UNL d   1      26.109  -8.949   1.513  0.00  0.00     0.101 A 
ATOM     23  C   UNL d   1      25.598  -8.072   0.547  0.00  0.00     0.102 A 
ATOM     24  C   UNL d   1      25.982  -8.226  -0.789  0.00  0.00     0.046 A 
BRANCH  22  25
ATOM     25  O   UNL d   1      26.051  -8.839   2.883  0.00  0.00    -0.353 OA
ATOM     26  C   UNL d   1      27.044  -9.427   3.721  0.00  0.00     0.210 C 
ENDBRANCH  22  25
BRANCH  23  27
ATOM     27  O   UNL d   1      24.781  -6.973   0.607  0.00  0.00    -0.353 OA
ATOM     28  C   UNL d   1      25.096  -5.949  -0.283  0.00  0.00     0.210 C 
ENDBRANCH  23  27
ENDBRANCH  18  19
ENDBRANCH  17  18
ENDBRANCH  14  17
ENDBRANCH   1  13
BRANCH  11  29
ATOM     29  N   UNL d   1      29.089 -16.240  -4.401  0.00  0.00    -0.264 N 
ATOM     30  C   UNL d   1      29.527 -16.196  -5.734  0.00  0.00     0.270 C 
ATOM     31  O   UNL d   1      29.194 -15.282  -6.478  0.00  0.00    -0.266 OA
ATOM     32  H   UNL d   1      29.312 -16.980  -3.749  0.00  0.00     0.190 HD
BRANCH  30  33
ATOM     33  C   UNL d   1      30.396 -17.313  -6.197  0.00  0.00     0.036 A 
ATOM     34  C   UNL d   1      31.155 -17.212  -7.376  0.00  0.00     0.017 A 
ATOM     35  C   UNL d   1      31.916 -18.307  -7.818  0.00  0.00     0.004 A 
ATOM     36  C   UNL d   1      31.957 -19.479  -7.065  0.00  0.00     0.042 A 
ATOM     37  C   UNL d   1      31.191 -19.569  -5.911  0.00  0.00     0.117 A 
ATOM     38  F   UNL d   1      31.189 -20.703  -5.202  0.00  0.00    -0.206 F 
ATOM     39  C   UNL d   1      30.403 -18.507  -5.476  0.00  0.00     0.059 A 
ENDBRANCH  30  33
ENDBRANCH  11  29
BRANCH   7  40
ATOM     40  O   UNL d   1      26.905 -18.361  -0.115  0.00  0.00    -0.353 OA
ATOM     41  C   UNL d   1      28.219 -17.825  -0.145  0.00  0.00     0.210 C 
ENDBRANCH   7  40
TORSDOF 9
ENDMDL
MODEL 6
REMARK VINA RESULT:    -7.634      1.531      2.634
REMARK INTER + INTRA:         -13.389
REMARK INTER:                 -10.318
REMARK INTRA:                  -3.070
REMARK CONF_INDEPENDENT:        2.685
REMARK UNBOUND:                -3.070
REMARK  9 active torsions:
REMARK  status: ('A' for Active; 'I' for Inactive)
REMARK    1  A    between atoms: O_2  and  C_3 
REMARK    2  A    between atoms: C_6  and  C_7 
REMARK    3  A    between atoms: C_7  and  C_8 
REMARK    4  A    between atoms: C_8  and  N_9 
REMARK       I    between atoms: N_9  and  C_10 
REMARK    5  A    between atoms: C_10  and  C_12 
REMARK    6  A    between atoms: C_18  and  O_19 
REMARK    7  A    between atoms: N_24  and  N_25 
REMARK       I    between atoms: N_25  and  C_26 
REMARK    8  A    between atoms: C_26  and  C_28 
REMARK    9  A    between atoms: C_36  and  O_37 
ROOT
ATOM      1  C   UNL d   1      30.918 -16.683  -1.475  0.00  0.00     0.085 C 
ATOM      2  C   UNL d   1      31.757 -16.953  -2.498  0.00  0.00     0.035 C 
ATOM      3  C   UNL d   1      31.259 -17.104  -3.867  0.00  0.00     0.002 C 
ATOM      4  C   UNL d   1      31.925 -17.848  -4.849  0.00  0.00     0.014 C 
ATOM      5  C   UNL d   1      31.479 -17.830  -6.174  0.00  0.00     0.004 C 
ATOM      6  C   UNL d   1      30.378 -17.048  -6.523  0.00  0.00     0.040 C 
ATOM      7  C   UNL d   1      29.679 -16.323  -5.546  0.00  0.00     0.102 C 
ATOM      8  C   UNL d   1      30.072 -16.449  -4.203  0.00  0.00     0.121 C 
ATOM      9  O   UNL d   1      29.165 -16.155  -3.131  0.00  0.00    -0.288 OA
ATOM     10  C   UNL d   1      29.500 -16.547  -1.844  0.00  0.00     0.178 C 
ATOM     11  N   UNL d   1      28.536 -16.728  -1.011  0.00  0.00    -0.276 N 
ATOM     12  H   UNL d   1      28.817 -16.958  -0.066  0.00  0.00     0.189 HD
ENDROOT
BRANCH   1  13
ATOM     13  C   UNL d   1      31.512 -16.585  -0.080  0.00  0.00     0.256 C 
ATOM     14  N   UNL d   1      32.896 -16.491   0.062  0.00  0.00    -0.356 N 
ATOM     15  H   UNL d   1      33.650 -16.577  -0.573  0.00  0.00     0.162 HD
ATOM     16  O   UNL d   1      30.779 -16.584   0.891  0.00  0.00    -0.268 OA
BRANCH  14  17
ATOM     17  C   UNL d   1      33.498 -16.444   1.380  0.00  0.00     0.127 C 
BRANCH  17  18
ATOM     18  C   UNL d   1      34.272 -17.749   1.703  0.00  0.00     0.058 C 
BRANCH  18  19
ATOM     19  C   UNL d   1      33.384 -18.959   1.805  0.00  0.00    -0.054 A 
ATOM     20  C   UNL d   1      33.071 -19.744   0.699  0.00  0.00     0.010 A 
ATOM     21  C   UNL d   1      32.131 -20.785   0.824  0.00  0.00     0.040 A 
ATOM     22  C   UNL d   1      31.535 -21.124   2.063  0.00  0.00     0.101 A 
ATOM     23  C   UNL d   1      31.905 -20.366   3.182  0.00  0.00     0.102 A 
ATOM     24  C   UNL d   1      32.804 -19.307   3.024  0.00  0.00     0.046 A 
BRANCH  22  25
ATOM     25  O   UNL d   1      30.865 -22.325   2.028  0.00  0.00    -0.353 OA
ATOM     26  C   UNL d   1      29.949 -22.638   0.980  0.00  0.00     0.210 C 
ENDBRANCH  22  25
BRANCH  23  27
ATOM     27  O   UNL d   1      31.614 -20.451   4.519  0.00  0.00    -0.353 OA
ATOM     28  C   UNL d   1      32.364 -21.382   5.233  0.00  0.00     0.210 C 
ENDBRANCH  23  27
ENDBRANCH  18  19
ENDBRANCH  17  18
ENDBRANCH  14  17
ENDBRANCH   1  13
BRANCH  11  29
ATOM     29  N   UNL d   1      27.146 -16.741  -1.146  0.00  0.00    -0.264 N 
ATOM     30  C   UNL d   1      26.456 -17.414  -0.126  0.00  0.00     0.270 C 
ATOM     31  O   UNL d   1      27.046 -17.849   0.855  0.00  0.00    -0.266 OA
ATOM     32  H   UNL d   1      26.716 -16.383  -1.989  0.00  0.00     0.190 HD
BRANCH  30  33
ATOM     33  C   UNL d   1      24.987 -17.585  -0.302  0.00  0.00     0.036 A 
ATOM     34  C   UNL d   1      24.370 -18.839  -0.145  0.00  0.00     0.017 A 
ATOM     35  C   UNL d   1      22.992 -18.979  -0.379  0.00  0.00     0.004 A 
ATOM     36  C   UNL d   1      22.226 -17.866  -0.723  0.00  0.00     0.042 A 
ATOM     37  C   UNL d   1      22.852 -16.638  -0.890  0.00  0.00     0.117 A 
ATOM     38  F   UNL d   1      22.134 -15.573  -1.261  0.00  0.00    -0.206 F 
ATOM     39  C   UNL d   1      24.221 -16.487  -0.696  0.00  0.00     0.059 A 
ENDBRANCH  30  33
ENDBRANCH  11  29
BRANCH   7  40
ATOM     40  O   UNL d   1      28.645 -15.585  -6.051  0.00  0.00    -0.353 OA
ATOM     41  C   UNL d   1      28.529 -14.252  -5.576  0.00  0.00     0.210 C 
ENDBRANCH   7  40
TORSDOF 9
ENDMDL
MODEL 7
REMARK VINA RESULT:    -7.330      5.185     11.087
REMARK INTER + INTRA:         -13.613
REMARK INTER:                 -10.015
REMARK INTRA:                  -3.598
REMARK CONF_INDEPENDENT:        2.685
REMARK UNBOUND:                -3.598
REMARK  9 active torsions:
REMARK  status: ('A' for Active; 'I' for Inactive)
REMARK    1  A    between atoms: O_2  and  C_3 
REMARK    2  A    between atoms: C_6  and  C_7 
REMARK    3  A    between atoms: C_7  and  C_8 
REMARK    4  A    between atoms: C_8  and  N_9 
REMARK       I    between atoms: N_9  and  C_10 
REMARK    5  A    between atoms: C_10  and  C_12 
REMARK    6  A    between atoms: C_18  and  O_19 
REMARK    7  A    between atoms: N_24  and  N_25 
REMARK       I    between atoms: N_25  and  C_26 
REMARK    8  A    between atoms: C_26  and  C_28 
REMARK    9  A    between atoms: C_36  and  O_37 
ROOT
ATOM      1  C   UNL d   1      26.496 -13.958  -3.045  0.00  0.00     0.085 C 
ATOM      2  C   UNL d   1      25.334 -14.216  -2.408  0.00  0.00     0.035 C 
ATOM      3  C   UNL d   1      25.054 -15.542  -1.850  0.00  0.00     0.002 C 
ATOM      4  C   UNL d   1      23.756 -16.028  -1.643  0.00  0.00     0.014 C 
ATOM      5  C   UNL d   1      23.554 -17.237  -0.970  0.00  0.00     0.004 C 
ATOM      6  C   UNL d   1      24.649 -17.949  -0.481  0.00  0.00     0.040 C 
ATOM      7  C   UNL d   1      25.957 -17.493  -0.709  0.00  0.00     0.102 C 
ATOM      8  C   UNL d   1      26.141 -16.339  -1.490  0.00  0.00     0.121 C 
ATOM      9  O   UNL d   1      27.385 -16.083  -2.158  0.00  0.00    -0.288 OA
ATOM     10  C   UNL d   1      27.435 -15.090  -3.122  0.00  0.00     0.178 C 
ATOM     11  N   UNL d   1      28.349 -15.184  -4.024  0.00  0.00    -0.276 N 
ATOM     12  H   UNL d   1      28.394 -14.413  -4.678  0.00  0.00     0.189 HD
ENDROOT
BRANCH   1  13
ATOM     13  C   UNL d   1      26.689 -12.569  -3.631  0.00  0.00     0.256 C 
ATOM     14  N   UNL d   1      25.647 -11.989  -4.353  0.00  0.00    -0.356 N 
ATOM     15  H   UNL d   1      24.779 -12.330  -4.684  0.00  0.00     0.162 HD
ATOM     16  O   UNL d   1      27.739 -11.982  -3.461  0.00  0.00    -0.268 OA
BRANCH  14  17
ATOM     17  C   UNL d   1      25.814 -10.686  -4.965  0.00  0.00     0.127 C 
BRANCH  17  18
ATOM     18  C   UNL d   1      25.763 -10.771  -6.514  0.00  0.00     0.058 C 
BRANCH  18  19
ATOM     19  C   UNL d   1      27.029 -11.309  -7.123  0.00  0.00    -0.054 A 
ATOM     20  C   UNL d   1      27.324 -11.156  -8.474  0.00  0.00     0.010 A 
ATOM     21  C   UNL d   1      28.456 -11.793  -9.019  0.00  0.00     0.040 A 
ATOM     22  C   UNL d   1      29.366 -12.532  -8.226  0.00  0.00     0.101 A 
ATOM     23  C   UNL d   1      29.092 -12.626  -6.854  0.00  0.00     0.102 A 
ATOM     24  C   UNL d   1      27.936 -12.026  -6.345  0.00  0.00     0.046 A 
BRANCH  22  25
ATOM     25  O   UNL d   1      30.533 -12.838  -8.886  0.00  0.00    -0.353 OA
ATOM     26  C   UNL d   1      31.557 -13.616  -8.270  0.00  0.00     0.210 C 
ENDBRANCH  22  25
BRANCH  23  27
ATOM     27  O   UNL d   1      29.767 -13.167  -5.791  0.00  0.00    -0.353 OA
ATOM     28  C   UNL d   1      30.469 -12.255  -5.007  0.00  0.00     0.210 C 
ENDBRANCH  23  27
ENDBRANCH  18  19
ENDBRANCH  17  18
ENDBRANCH  14  17
ENDBRANCH   1  13
BRANCH  11  29
ATOM     29  N   UNL d   1      29.275 -16.178  -4.343  0.00  0.00    -0.264 N 
ATOM     30  C   UNL d   1      29.535 -16.330  -5.715  0.00  0.00     0.270 C 
ATOM     31  O   UNL d   1      29.057 -15.558  -6.537  0.00  0.00    -0.266 OA
ATOM     32  H   UNL d   1      29.622 -16.798  -3.623  0.00  0.00     0.190 HD
BRANCH  30  33
ATOM     33  C   UNL d   1      30.399 -17.475  -6.117  0.00  0.00     0.036 A 
ATOM     34  C   UNL d   1      31.151 -17.444  -7.304  0.00  0.00     0.017 A 
ATOM     35  C   UNL d   1      31.908 -18.565  -7.686  0.00  0.00     0.004 A 
ATOM     36  C   UNL d   1      31.950 -19.691  -6.866  0.00  0.00     0.042 A 
ATOM     37  C   UNL d   1      31.189 -19.712  -5.704  0.00  0.00     0.117 A 
ATOM     38  F   UNL d   1      31.188 -20.803  -4.931  0.00  0.00    -0.206 F 
ATOM     39  C   UNL d   1      30.407 -18.625  -5.328  0.00  0.00     0.059 A 
ENDBRANCH  30  33
ENDBRANCH  11  29
BRANCH   7  40
ATOM     40  O   UNL d   1      26.917 -18.285  -0.143  0.00  0.00    -0.353 OA
ATOM     41  C   UNL d   1      28.240 -17.772  -0.144  0.00  0.00     0.210 C 
ENDBRANCH   7  40
TORSDOF 9
ENDMDL
MODEL 8
REMARK VINA RESULT:    -7.141      6.070      9.435
REMARK INTER + INTRA:         -13.365
REMARK INTER:                  -9.826
REMARK INTRA:                  -3.539
REMARK CONF_INDEPENDENT:        2.685
REMARK UNBOUND:                -3.539
REMARK  9 active torsions:
REMARK  status: ('A' for Active; 'I' for Inactive)
REMARK    1  A    between atoms: O_2  and  C_3 
REMARK    2  A    between atoms: C_6  and  C_7 
REMARK    3  A    between atoms: C_7  and  C_8 
REMARK    4  A    between atoms: C_8  and  N_9 
REMARK       I    between atoms: N_9  and  C_10 
REMARK    5  A    between atoms: C_10  and  C_12 
REMARK    6  A    between atoms: C_18  and  O_19 
REMARK    7  A    between atoms: N_24  and  N_25 
REMARK       I    between atoms: N_25  and  C_26 
REMARK    8  A    between atoms: C_26  and  C_28 
REMARK    9  A    between atoms: C_36  and  O_37 
ROOT
ATOM      1  C   UNL d   1      29.834 -16.676  -4.390  0.00  0.00     0.085 C 
ATOM      2  C   UNL d   1      30.198 -17.973  -4.473  0.00  0.00     0.035 C 
ATOM      3  C   UNL d   1      30.532 -18.586  -5.761  0.00  0.00     0.002 C 
ATOM      4  C   UNL d   1      30.423 -19.961  -6.007  0.00  0.00     0.014 C 
ATOM      5  C   UNL d   1      30.898 -20.504  -7.205  0.00  0.00     0.004 C 
ATOM      6  C   UNL d   1      31.504 -19.674  -8.149  0.00  0.00     0.040 C 
ATOM      7  C   UNL d   1      31.590 -18.290  -7.933  0.00  0.00     0.102 C 
ATOM      8  C   UNL d   1      31.001 -17.751  -6.777  0.00  0.00     0.121 C 
ATOM      9  O   UNL d   1      30.622 -16.369  -6.709  0.00  0.00    -0.288 OA
ATOM     10  C   UNL d   1      29.809 -15.947  -5.670  0.00  0.00     0.178 C 
ATOM     11  N   UNL d   1      29.098 -14.892  -5.863  0.00  0.00    -0.276 N 
ATOM     12  H   UNL d   1      28.560 -14.579  -5.066  0.00  0.00     0.189 HD
ENDROOT
BRANCH   1  13
ATOM     13  C   UNL d   1      29.463 -16.130  -3.021  0.00  0.00     0.256 C 
ATOM     14  N   UNL d   1      29.138 -17.024  -2.002  0.00  0.00    -0.356 N 
ATOM     15  H   UNL d   1      28.984 -18.001  -1.980  0.00  0.00     0.162 HD
ATOM     16  O   UNL d   1      29.459 -14.929  -2.830  0.00  0.00    -0.268 OA
BRANCH  14  17
ATOM     17  C   UNL d   1      28.734 -16.536  -0.698  0.00  0.00     0.127 C 
BRANCH  17  18
ATOM     18  C   UNL d   1      27.216 -16.215  -0.652  0.00  0.00     0.058 C 
BRANCH  18  19
ATOM     19  C   UNL d   1      26.827 -15.049  -1.520  0.00  0.00    -0.054 A 
ATOM     20  C   UNL d   1      27.108 -13.734  -1.164  0.00  0.00     0.010 A 
ATOM     21  C   UNL d   1      26.605 -12.675  -1.945  0.00  0.00     0.040 A 
ATOM     22  C   UNL d   1      25.878 -12.893  -3.140  0.00  0.00     0.101 A 
ATOM     23  C   UNL d   1      25.655 -14.223  -3.522  0.00  0.00     0.102 A 
ATOM     24  C   UNL d   1      26.123 -15.257  -2.705  0.00  0.00     0.046 A 
BRANCH  22  25
ATOM     25  O   UNL d   1      25.717 -11.751  -3.889  0.00  0.00    -0.353 OA
ATOM     26  C   UNL d   1      26.159 -10.481  -3.417  0.00  0.00     0.210 C 
ENDBRANCH  22  25
BRANCH  23  27
ATOM     27  O   UNL d   1      25.086 -14.807  -4.624  0.00  0.00    -0.353 OA
ATOM     28  C   UNL d   1      25.944 -15.587  -5.394  0.00  0.00     0.210 C 
ENDBRANCH  23  27
ENDBRANCH  18  19
ENDBRANCH  17  18
ENDBRANCH  14  17
ENDBRANCH   1  13
BRANCH  11  29
ATOM     29  N   UNL d   1      28.851 -14.101  -6.987  0.00  0.00    -0.264 N 
ATOM     30  C   UNL d   1      28.358 -12.815  -6.712  0.00  0.00     0.270 C 
ATOM     31  O   UNL d   1      28.270 -12.406  -5.561  0.00  0.00    -0.266 OA
ATOM     32  H   UNL d   1      28.922 -14.500  -7.914  0.00  0.00     0.190 HD
BRANCH  30  33
ATOM     33  C   UNL d   1      27.937 -11.989  -7.877  0.00  0.00     0.036 A 
ATOM     34  C   UNL d   1      28.230 -12.376  -9.196  0.00  0.00     0.017 A 
ATOM     35  C   UNL d   1      27.873 -11.543 -10.270  0.00  0.00     0.004 A 
ATOM     36  C   UNL d   1      27.187 -10.353 -10.032  0.00  0.00     0.042 A 
ATOM     37  C   UNL d   1      26.918  -9.977  -8.723  0.00  0.00     0.117 A 
ATOM     38  F   UNL d   1      26.297  -8.817  -8.480  0.00  0.00    -0.206 F 
ATOM     39  C   UNL d   1      27.295 -10.772  -7.645  0.00  0.00     0.059 A 
ENDBRANCH  30  33
ENDBRANCH  11  29
BRANCH   7  40
ATOM     40  O   UNL d   1      32.235 -17.621  -8.935  0.00  0.00    -0.353 OA
ATOM     41  C   UNL d   1      33.106 -16.574  -8.537  0.00  0.00     0.210 C 
ENDBRANCH   7  40
TORSDOF 9
ENDMDL
MODEL 9
REMARK VINA RESULT:    -6.885      6.247      8.930
REMARK INTER + INTRA:         -13.328
REMARK INTER:                  -9.570
REMARK INTRA:                  -3.758
REMARK CONF_INDEPENDENT:        2.685
REMARK UNBOUND:                -3.758
REMARK  9 active torsions:
REMARK  status: ('A' for Active; 'I' for Inactive)
REMARK    1  A    between atoms: O_2  and  C_3 
REMARK    2  A    between atoms: C_6  and  C_7 
REMARK    3  A    between atoms: C_7  and  C_8 
REMARK    4  A    between atoms: C_8  and  N_9 
REMARK       I    between atoms: N_9  and  C_10 
REMARK    5  A    between atoms: C_10  and  C_12 
REMARK    6  A    between atoms: C_18  and  O_19 
REMARK    7  A    between atoms: N_24  and  N_25 
REMARK       I    between atoms: N_25  and  C_26 
REMARK    8  A    between atoms: C_26  and  C_28 
REMARK    9  A    between atoms: C_36  and  O_37 
ROOT
ATOM      1  C   UNL d   1      27.511 -12.900  -5.944  0.00  0.00     0.085 C 
ATOM      2  C   UNL d   1      28.675 -12.696  -6.597  0.00  0.00     0.035 C 
ATOM      3  C   UNL d   1      29.736 -13.706  -6.586  0.00  0.00     0.002 C 
ATOM      4  C   UNL d   1      31.089 -13.399  -6.782  0.00  0.00     0.014 C 
ATOM      5  C   UNL d   1      32.034 -14.422  -6.911  0.00  0.00     0.004 C 
ATOM      6  C   UNL d   1      31.623 -15.754  -6.867  0.00  0.00     0.040 C 
ATOM      7  C   UNL d   1      30.277 -16.079  -6.638  0.00  0.00     0.102 C 
ATOM      8  C   UNL d   1      29.365 -15.038  -6.394  0.00  0.00     0.121 C 
ATOM      9  O   UNL d   1      28.132 -15.276  -5.698  0.00  0.00    -0.288 OA
ATOM     10  C   UNL d   1      27.399 -14.191  -5.245  0.00  0.00     0.178 C 
ATOM     11  N   UNL d   1      26.607 -14.385  -4.250  0.00  0.00    -0.276 N 
ATOM     12  H   UNL d   1      26.044 -13.588  -3.981  0.00  0.00     0.189 HD
ENDROOT
BRANCH   1  13
ATOM     13  C   UNL d   1      26.480 -11.783  -5.970  0.00  0.00     0.256 C 
ATOM     14  N   UNL d   1      26.900 -10.479  -6.230  0.00  0.00    -0.356 N 
ATOM     15  H   UNL d   1      27.792 -10.058  -6.312  0.00  0.00     0.162 HD
ATOM     16  O   UNL d   1      25.308 -12.038  -5.770  0.00  0.00    -0.268 OA
BRANCH  14  17
ATOM     17  C   UNL d   1      25.951  -9.385  -6.216  0.00  0.00     0.127 C 
BRANCH  17  18
ATOM     18  C   UNL d   1      25.491  -9.045  -4.773  0.00  0.00     0.058 C 
BRANCH  18  19
ATOM     19  C   UNL d   1      26.370  -9.645  -3.710  0.00  0.00    -0.054 A 
ATOM     20  C   UNL d   1      27.495  -8.989  -3.222  0.00  0.00     0.010 A 
ATOM     21  C   UNL d   1      28.357  -9.651  -2.325  0.00  0.00     0.040 A 
ATOM     22  C   UNL d   1      28.085 -10.949  -1.830  0.00  0.00     0.101 A 
ATOM     23  C   UNL d   1      26.916 -11.576  -2.282  0.00  0.00     0.102 A 
ATOM     24  C   UNL d   1      26.101 -10.918  -3.209  0.00  0.00     0.046 A 
BRANCH  22  25
ATOM     25  O   UNL d   1      28.890 -11.303  -0.773  0.00  0.00    -0.353 OA
ATOM     26  C   UNL d   1      28.597 -10.885   0.559  0.00  0.00     0.210 C 
ENDBRANCH  22  25
BRANCH  23  27
ATOM     27  O   UNL d   1      26.296 -12.758  -1.970  0.00  0.00    -0.353 OA
ATOM     28  C   UNL d   1      26.671 -13.323  -0.754  0.00  0.00     0.210 C 
ENDBRANCH  23  27
ENDBRANCH  18  19
ENDBRANCH  17  18
ENDBRANCH  14  17
ENDBRANCH   1  13
BRANCH  11  29
ATOM     29  N   UNL d   1      26.397 -15.469  -3.395  0.00  0.00    -0.264 N 
ATOM     30  C   UNL d   1      25.182 -15.444  -2.692  0.00  0.00     0.270 C 
ATOM     31  O   UNL d   1      24.339 -14.584  -2.917  0.00  0.00    -0.266 OA
ATOM     32  H   UNL d   1      27.137 -16.139  -3.234  0.00  0.00     0.190 HD
BRANCH  30  33
ATOM     33  C   UNL d   1      24.977 -16.496  -1.657  0.00  0.00     0.036 A 
ATOM     34  C   UNL d   1      26.063 -17.144  -1.045  0.00  0.00     0.017 A 
ATOM     35  C   UNL d   1      25.836 -18.175  -0.118  0.00  0.00     0.004 A 
ATOM     36  C   UNL d   1      24.532 -18.525   0.230  0.00  0.00     0.042 A 
ATOM     37  C   UNL d   1      23.469 -17.886  -0.394  0.00  0.00     0.117 A 
ATOM     38  F   UNL d   1      22.215 -18.243  -0.099  0.00  0.00    -0.206 F 
ATOM     39  C   UNL d   1      23.676 -16.887  -1.340  0.00  0.00     0.059 A 
ENDBRANCH  30  33
ENDBRANCH  11  29
BRANCH   7  40
ATOM     40  O   UNL d   1      30.030 -17.423  -6.653  0.00  0.00    -0.353 OA
ATOM     41  C   UNL d   1      31.062 -18.250  -7.169  0.00  0.00     0.210 C 
ENDBRANCH   7  40
TORSDOF 9
ENDMDL
