MODEL 1
REMARK VINA RESULT:    -9.075      0.000      0.000
REMARK INTER + INTRA:         -12.188
REMARK INTER:                 -10.269
REMARK INTRA:                  -1.919
REMARK CONF_INDEPENDENT:        1.193
REMARK UNBOUND:                -1.919
REMARK  4 active torsions:
REMARK  status: ('A' for Active; 'I' for Inactive)
REMARK       I    between atoms: C_2  and  N_3 
REMARK    1  A    between atoms: C_2  and  C_17 
REMARK    2  A    between atoms: N_3  and  N_4 
REMARK       I    between atoms: N_4  and  C_5 
REMARK    3  A    between atoms: C_5  and  C_7 
REMARK    4  A    between atoms: C_22  and  O_23 
ROOT
ATOM      1  N   UNL d   1      22.900 -17.870  -0.623  0.00  0.00    -0.262 N 
ATOM      2  C   UNL d   1      24.212 -17.817  -0.191  0.00  0.00     0.278 C 
ATOM      3  O   UNL d   1      24.614 -18.574   0.702  0.00  0.00    -0.265 OA
ATOM      4  H   UNL d   1      22.530 -17.307  -1.387  0.00  0.00     0.190 HD
ENDROOT
BRANCH   1   5
ATOM      5  N   UNL d   1      22.036 -18.821  -0.052  0.00  0.00    -0.263 N 
ATOM      6  C   UNL d   1      20.700 -18.824  -0.397  0.00  0.00     0.272 C 
ATOM      7  O   UNL d   1      20.234 -18.092  -1.270  0.00  0.00    -0.266 OA
ATOM      8  H   UNL d   1      22.406 -19.380   0.718  0.00  0.00     0.190 HD
BRANCH   6   9
ATOM      9  C   UNL d   1      19.816 -19.781   0.331  0.00  0.00     0.066 A 
ATOM     10  C   UNL d   1      18.806 -20.444  -0.386  0.00  0.00     0.020 A 
ATOM     11  C   UNL d   1      17.840 -21.201   0.285  0.00  0.00     0.001 A 
ATOM     12  C   UNL d   1      17.929 -21.378   1.664  0.00  0.00     0.003 A 
ATOM     13  C   UNL d   1      18.993 -20.810   2.372  0.00  0.00     0.037 A 
ATOM     14  C   UNL d   1      19.903 -19.976   1.714  0.00  0.00     0.081 A 
BRANCH  14  15
ATOM     15  O   UNL d   1      20.865 -19.323   2.434  0.00  0.00    -0.360 OA
ATOM     16  H   UNL d   1      21.405 -19.971   2.919  0.00  0.00     0.217 HD
ENDBRANCH  14  15
ENDBRANCH   6   9
ENDBRANCH   1   5
BRANCH   2  17
ATOM     17  C   UNL d   1      25.071 -16.876  -0.878  0.00  0.00     0.097 A 
ATOM     18  S   UNL d   1      24.330 -15.850  -2.023  0.00  0.00    -0.082 SA
ATOM     19  C   UNL d   1      25.808 -15.086  -2.425  0.00  0.00     0.017 A 
ATOM     20  C   UNL d   1      25.967 -14.054  -3.366  0.00  0.00     0.020 A 
ATOM     21  C   UNL d   1      26.882 -15.615  -1.705  0.00  0.00     0.004 A 
ATOM     22  C   UNL d   1      27.241 -13.541  -3.596  0.00  0.00     0.001 A 
ATOM     23  C   UNL d   1      28.334 -14.047  -2.909  0.00  0.00     0.001 A 
ATOM     24  C   UNL d   1      28.171 -15.075  -1.970  0.00  0.00     0.014 A 
ATOM     25  C   UNL d   1      26.432 -16.653  -0.804  0.00  0.00     0.068 A 
ATOM     26 CL   UNL d   1      27.520 -17.526   0.200  0.00  0.00    -0.082 Cl
ENDBRANCH   2  17
TORSDOF 4
ENDMDL
MODEL 2
REMARK VINA RESULT:    -9.067      1.082      1.534
REMARK INTER + INTRA:         -12.072
REMARK INTER:                 -10.260
REMARK INTRA:                  -1.811
REMARK CONF_INDEPENDENT:        1.193
REMARK UNBOUND:                -1.811
REMARK  4 active torsions:
REMARK  status: ('A' for Active; 'I' for Inactive)
REMARK       I    between atoms: C_2  and  N_3 
REMARK    1  A    between atoms: C_2  and  C_17 
REMARK    2  A    between atoms: N_3  and  N_4 
REMARK       I    between atoms: N_4  and  C_5 
REMARK    3  A    between atoms: C_5  and  C_7 
REMARK    4  A    between atoms: C_22  and  O_23 
ROOT
ATOM      1  N   UNL d   1      23.317 -17.986  -0.932  0.00  0.00    -0.262 N 
ATOM      2  C   UNL d   1      24.531 -17.683  -0.343  0.00  0.00     0.278 C 
ATOM      3  O   UNL d   1      24.796 -18.081   0.799  0.00  0.00    -0.265 OA
ATOM      4  H   UNL d   1      23.069 -17.729  -1.885  0.00  0.00     0.190 HD
ENDROOT
BRANCH   1   5
ATOM      5  N   UNL d   1      22.399 -18.781  -0.223  0.00  0.00    -0.263 N 
ATOM      6  C   UNL d   1      21.045 -18.600  -0.419  0.00  0.00     0.272 C 
ATOM      7  O   UNL d   1      20.589 -17.838  -1.270  0.00  0.00    -0.266 OA
ATOM      8  H   UNL d   1      22.773 -19.362   0.529  0.00  0.00     0.190 HD
BRANCH   6   9
ATOM      9  C   UNL d   1      20.126 -19.393   0.448  0.00  0.00     0.066 A 
ATOM     10  C   UNL d   1      20.402 -19.478   1.823  0.00  0.00     0.020 A 
ATOM     11  C   UNL d   1      19.683 -20.358   2.638  0.00  0.00     0.001 A 
ATOM     12  C   UNL d   1      18.623 -21.091   2.107  0.00  0.00     0.003 A 
ATOM     13  C   UNL d   1      18.272 -20.933   0.763  0.00  0.00     0.037 A 
ATOM     14  C   UNL d   1      19.052 -20.125  -0.072  0.00  0.00     0.081 A 
BRANCH  14  15
ATOM     15  O   UNL d   1      18.780 -20.075  -1.411  0.00  0.00    -0.360 OA
ATOM     16  H   UNL d   1      18.824 -19.152  -1.719  0.00  0.00     0.217 HD
ENDBRANCH  14  15
ENDBRANCH   6   9
ENDBRANCH   1   5
BRANCH   2  17
ATOM     17  C   UNL d   1      25.464 -16.935  -1.157  0.00  0.00     0.097 A 
ATOM     18  S   UNL d   1      24.799 -15.919  -2.356  0.00  0.00    -0.082 SA
ATOM     19  C   UNL d   1      26.339 -15.407  -2.902  0.00  0.00     0.017 A 
ATOM     20  C   UNL d   1      26.577 -14.493  -3.943  0.00  0.00     0.020 A 
ATOM     21  C   UNL d   1      27.374 -16.017  -2.189  0.00  0.00     0.004 A 
ATOM     22  C   UNL d   1      27.891 -14.185  -4.283  0.00  0.00     0.001 A 
ATOM     23  C   UNL d   1      28.947 -14.778  -3.606  0.00  0.00     0.001 A 
ATOM     24  C   UNL d   1      28.705 -15.687  -2.567  0.00  0.00     0.014 A 
ATOM     25  C   UNL d   1      26.845 -16.899  -1.172  0.00  0.00     0.068 A 
ATOM     26 CL   UNL d   1      27.865 -17.825  -0.145  0.00  0.00    -0.082 Cl
ENDBRANCH   2  17
TORSDOF 4
ENDMDL
MODEL 3
REMARK VINA RESULT:    -8.802      1.830      2.660
REMARK INTER + INTRA:         -11.240
REMARK INTER:                  -9.995
REMARK INTRA:                  -1.245
REMARK CONF_INDEPENDENT:        1.193
REMARK UNBOUND:                -1.245
REMARK  4 active torsions:
REMARK  status: ('A' for Active; 'I' for Inactive)
REMARK       I    between atoms: C_2  and  N_3 
REMARK    1  A    between atoms: C_2  and  C_17 
REMARK    2  A    between atoms: N_3  and  N_4 
REMARK       I    between atoms: N_4  and  C_5 
REMARK    3  A    between atoms: C_5  and  C_7 
REMARK    4  A    between atoms: C_22  and  O_23 
ROOT
ATOM      1  N   UNL d   1      23.432 -18.154  -1.629  0.00  0.00    -0.262 N 
ATOM      2  C   UNL d   1      23.838 -16.886  -1.255  0.00  0.00     0.278 C 
ATOM      3  O   UNL d   1      23.079 -16.140  -0.623  0.00  0.00    -0.265 OA
ATOM      4  H   UNL d   1      24.032 -18.826  -2.103  0.00  0.00     0.190 HD
ENDROOT
BRANCH   1   5
ATOM      5  N   UNL d   1      22.151 -18.595  -1.250  0.00  0.00    -0.263 N 
ATOM      6  C   UNL d   1      21.877 -18.831   0.082  0.00  0.00     0.272 C 
ATOM      7  O   UNL d   1      22.673 -18.575   0.984  0.00  0.00    -0.266 OA
ATOM      8  H   UNL d   1      21.516 -18.871  -2.000  0.00  0.00     0.190 HD
BRANCH   6   9
ATOM      9  C   UNL d   1      20.538 -19.408   0.402  0.00  0.00     0.066 A 
ATOM     10  C   UNL d   1      20.190 -19.593   1.751  0.00  0.00     0.020 A 
ATOM     11  C   UNL d   1      19.033 -20.300   2.094  0.00  0.00     0.001 A 
ATOM     12  C   UNL d   1      18.168 -20.746   1.096  0.00  0.00     0.003 A 
ATOM     13  C   UNL d   1      18.452 -20.472  -0.245  0.00  0.00     0.037 A 
ATOM     14  C   UNL d   1      19.656 -19.849  -0.591  0.00  0.00     0.081 A 
BRANCH  14  15
ATOM     15  O   UNL d   1      19.986 -19.699  -1.909  0.00  0.00    -0.360 OA
ATOM     16  H   UNL d   1      19.225 -19.336  -2.396  0.00  0.00     0.217 HD
ENDBRANCH  14  15
ENDBRANCH   6   9
ENDBRANCH   1   5
BRANCH   2  17
ATOM     17  C   UNL d   1      25.197 -16.526  -1.600  0.00  0.00     0.097 A 
ATOM     18  S   UNL d   1      26.443 -17.455  -0.896  0.00  0.00    -0.082 SA
ATOM     19  C   UNL d   1      27.675 -16.541  -1.658  0.00  0.00     0.017 A 
ATOM     20  C   UNL d   1      29.057 -16.762  -1.530  0.00  0.00     0.020 A 
ATOM     21  C   UNL d   1      27.150 -15.510  -2.441  0.00  0.00     0.004 A 
ATOM     22  C   UNL d   1      29.940 -15.922  -2.203  0.00  0.00     0.001 A 
ATOM     23  C   UNL d   1      29.458 -14.879  -2.982  0.00  0.00     0.001 A 
ATOM     24  C   UNL d   1      28.079 -14.664  -3.108  0.00  0.00     0.014 A 
ATOM     25  C   UNL d   1      25.704 -15.521  -2.400  0.00  0.00     0.068 A 
ATOM     26 CL   UNL d   1      24.757 -14.355  -3.236  0.00  0.00    -0.082 Cl
ENDBRANCH   2  17
TORSDOF 4
ENDMDL
MODEL 4
REMARK VINA RESULT:    -7.167      5.180      9.693
REMARK INTER + INTRA:         -10.242
REMARK INTER:                  -8.360
REMARK INTRA:                  -1.882
REMARK CONF_INDEPENDENT:        1.193
REMARK UNBOUND:                -1.882
REMARK  4 active torsions:
REMARK  status: ('A' for Active; 'I' for Inactive)
REMARK       I    between atoms: C_2  and  N_3 
REMARK    1  A    between atoms: C_2  and  C_17 
REMARK    2  A    between atoms: N_3  and  N_4 
REMARK       I    between atoms: N_4  and  C_5 
REMARK    3  A    between atoms: C_5  and  C_7 
REMARK    4  A    between atoms: C_22  and  O_23 
ROOT
ATOM      1  N   UNL d   1      25.536 -12.610  -3.026  0.00  0.00    -0.262 N 
ATOM      2  C   UNL d   1      25.232 -13.881  -3.478  0.00  0.00     0.278 C 
ATOM      3  O   UNL d   1      24.780 -14.055  -4.617  0.00  0.00    -0.265 OA
ATOM      4  H   UNL d   1      25.957 -12.415  -2.120  0.00  0.00     0.190 HD
ENDROOT
BRANCH   1   5
ATOM      5  N   UNL d   1      25.353 -11.520  -3.895  0.00  0.00    -0.263 N 
ATOM      6  C   UNL d   1      25.735 -10.255  -3.494  0.00  0.00     0.272 C 
ATOM      7  O   UNL d   1      26.332 -10.041  -2.440  0.00  0.00    -0.266 OA
ATOM      8  H   UNL d   1      24.798 -11.685  -4.736  0.00  0.00     0.190 HD
BRANCH   6   9
ATOM      9  C   UNL d   1      25.406  -9.127  -4.414  0.00  0.00     0.066 A 
ATOM     10  C   UNL d   1      25.267  -7.838  -3.875  0.00  0.00     0.020 A 
ATOM     11  C   UNL d   1      24.777  -6.790  -4.662  0.00  0.00     0.001 A 
ATOM     12  C   UNL d   1      24.511  -6.999  -6.013  0.00  0.00     0.003 A 
ATOM     13  C   UNL d   1      24.749  -8.253  -6.584  0.00  0.00     0.037 A 
ATOM     14  C   UNL d   1      25.148  -9.323  -5.775  0.00  0.00     0.081 A 
BRANCH  14  15
ATOM     15  O   UNL d   1      25.255 -10.575  -6.315  0.00  0.00    -0.360 OA
ATOM     16  H   UNL d   1      24.406 -11.041  -6.229  0.00  0.00     0.217 HD
ENDBRANCH  14  15
ENDBRANCH   6   9
ENDBRANCH   1   5
BRANCH   2  17
ATOM     17  C   UNL d   1      25.524 -14.967  -2.567  0.00  0.00     0.097 A 
ATOM     18  S   UNL d   1      24.194 -15.699  -1.789  0.00  0.00    -0.082 SA
ATOM     19  C   UNL d   1      25.189 -16.789  -0.921  0.00  0.00     0.017 A 
ATOM     20  C   UNL d   1      24.739 -17.769  -0.020  0.00  0.00     0.020 A 
ATOM     21  C   UNL d   1      26.544 -16.595  -1.202  0.00  0.00     0.004 A 
ATOM     22  C   UNL d   1      25.675 -18.575   0.623  0.00  0.00     0.001 A 
ATOM     23  C   UNL d   1      27.030 -18.406   0.380  0.00  0.00     0.001 A 
ATOM     24  C   UNL d   1      27.474 -17.428  -0.521  0.00  0.00     0.014 A 
ATOM     25  C   UNL d   1      26.719 -15.533  -2.168  0.00  0.00     0.068 A 
ATOM     26 CL   UNL d   1      28.274 -15.028  -2.698  0.00  0.00    -0.082 Cl
ENDBRANCH   2  17
TORSDOF 4
ENDMDL
MODEL 5
REMARK VINA RESULT:    -6.580      5.978      8.370
REMARK INTER + INTRA:          -9.520
REMARK INTER:                  -7.774
REMARK INTRA:                  -1.747
REMARK CONF_INDEPENDENT:        1.193
REMARK UNBOUND:                -1.747
REMARK  4 active torsions:
REMARK  status: ('A' for Active; 'I' for Inactive)
REMARK       I    between atoms: C_2  and  N_3 
REMARK    1  A    between atoms: C_2  and  C_17 
REMARK    2  A    between atoms: N_3  and  N_4 
REMARK       I    between atoms: N_4  and  C_5 
REMARK    3  A    between atoms: C_5  and  C_7 
REMARK    4  A    between atoms: C_22  and  O_23 
ROOT
ATOM      1  N   UNL d   1      27.990 -14.527   1.392  0.00  0.00    -0.262 N 
ATOM      2  C   UNL d   1      27.583 -15.674   0.735  0.00  0.00     0.278 C 
ATOM      3  O   UNL d   1      27.405 -16.729   1.357  0.00  0.00    -0.265 OA
ATOM      4  H   UNL d   1      28.101 -13.622   0.939  0.00  0.00     0.190 HD
ENDROOT
BRANCH   1   5
ATOM      5  N   UNL d   1      28.167 -14.571   2.786  0.00  0.00    -0.263 N 
ATOM      6  C   UNL d   1      28.123 -13.401   3.517  0.00  0.00     0.272 C 
ATOM      7  O   UNL d   1      27.830 -12.314   3.021  0.00  0.00    -0.266 OA
ATOM      8  H   UNL d   1      28.477 -15.458   3.187  0.00  0.00     0.190 HD
BRANCH   6   9
ATOM      9  C   UNL d   1      28.435 -13.503   4.973  0.00  0.00     0.066 A 
ATOM     10  C   UNL d   1      27.778 -12.639   5.864  0.00  0.00     0.020 A 
ATOM     11  C   UNL d   1      28.174 -12.568   7.204  0.00  0.00     0.001 A 
ATOM     12  C   UNL d   1      29.163 -13.424   7.685  0.00  0.00     0.003 A 
ATOM     13  C   UNL d   1      29.747 -14.362   6.829  0.00  0.00     0.037 A 
ATOM     14  C   UNL d   1      29.418 -14.367   5.469  0.00  0.00     0.081 A 
BRANCH  14  15
ATOM     15  O   UNL d   1      30.086 -15.200   4.615  0.00  0.00    -0.360 OA
ATOM     16  H   UNL d   1      29.452 -15.797   4.180  0.00  0.00     0.217 HD
ENDBRANCH  14  15
ENDBRANCH   6   9
ENDBRANCH   1   5
BRANCH   2  17
ATOM     17  C   UNL d   1      27.335 -15.540  -0.684  0.00  0.00     0.097 A 
ATOM     18  S   UNL d   1      28.620 -14.947  -1.638  0.00  0.00    -0.082 SA
ATOM     19  C   UNL d   1      27.699 -15.020  -3.080  0.00  0.00     0.017 A 
ATOM     20  C   UNL d   1      28.154 -14.662  -4.361  0.00  0.00     0.020 A 
ATOM     21  C   UNL d   1      26.400 -15.479  -2.847  0.00  0.00     0.004 A 
ATOM     22  C   UNL d   1      27.279 -14.762  -5.440  0.00  0.00     0.001 A 
ATOM     23  C   UNL d   1      25.978 -15.204  -5.248  0.00  0.00     0.001 A 
ATOM     24  C   UNL d   1      25.530 -15.562  -3.969  0.00  0.00     0.014 A 
ATOM     25  C   UNL d   1      26.209 -15.783  -1.447  0.00  0.00     0.068 A 
ATOM     26 CL   UNL d   1      24.704 -16.340  -0.829  0.00  0.00    -0.082 Cl
ENDBRANCH   2  17
TORSDOF 4
ENDMDL
MODEL 6
REMARK VINA RESULT:    -6.245      5.082     10.511
REMARK INTER + INTRA:          -9.377
REMARK INTER:                  -7.438
REMARK INTRA:                  -1.939
REMARK CONF_INDEPENDENT:        1.193
REMARK UNBOUND:                -1.939
REMARK  4 active torsions:
REMARK  status: ('A' for Active; 'I' for Inactive)
REMARK       I    between atoms: C_2  and  N_3 
REMARK    1  A    between atoms: C_2  and  C_17 
REMARK    2  A    between atoms: N_3  and  N_4 
REMARK       I    between atoms: N_4  and  C_5 
REMARK    3  A    between atoms: C_5  and  C_7 
REMARK    4  A    between atoms: C_22  and  O_23 
ROOT
ATOM      1  N   UNL d   1      28.039 -15.582  -3.917  0.00  0.00    -0.262 N 
ATOM      2  C   UNL d   1      28.010 -15.661  -2.537  0.00  0.00     0.278 C 
ATOM      3  O   UNL d   1      28.989 -15.317  -1.864  0.00  0.00    -0.265 OA
ATOM      4  H   UNL d   1      27.245 -15.803  -4.516  0.00  0.00     0.190 HD
ENDROOT
BRANCH   1   5
ATOM      5  N   UNL d   1      29.190 -15.070  -4.542  0.00  0.00    -0.263 N 
ATOM      6  C   UNL d   1      29.229 -14.964  -5.918  0.00  0.00     0.272 C 
ATOM      7  O   UNL d   1      28.257 -15.200  -6.634  0.00  0.00    -0.266 OA
ATOM      8  H   UNL d   1      30.017 -14.940  -3.957  0.00  0.00     0.190 HD
BRANCH   6   9
ATOM      9  C   UNL d   1      30.520 -14.525  -6.524  0.00  0.00     0.066 A 
ATOM     10  C   UNL d   1      31.720 -14.894  -5.895  0.00  0.00     0.020 A 
ATOM     11  C   UNL d   1      32.938 -14.351  -6.316  0.00  0.00     0.001 A 
ATOM     12  C   UNL d   1      32.979 -13.509  -7.425  0.00  0.00     0.003 A 
ATOM     13  C   UNL d   1      31.803 -13.221  -8.124  0.00  0.00     0.037 A 
ATOM     14  C   UNL d   1      30.574 -13.688  -7.645  0.00  0.00     0.081 A 
BRANCH  14  15
ATOM     15  O   UNL d   1      29.416 -13.298  -8.259  0.00  0.00    -0.360 OA
ATOM     16  H   UNL d   1      28.843 -14.072  -8.397  0.00  0.00     0.217 HD
ENDBRANCH  14  15
ENDBRANCH   6   9
ENDBRANCH   1   5
BRANCH   2  17
ATOM     17  C   UNL d   1      26.766 -16.115  -1.952  0.00  0.00     0.097 A 
ATOM     18  S   UNL d   1      26.854 -17.450  -0.894  0.00  0.00    -0.082 SA
ATOM     19  C   UNL d   1      25.163 -17.455  -0.618  0.00  0.00     0.017 A 
ATOM     20  C   UNL d   1      24.472 -18.347   0.219  0.00  0.00     0.020 A 
ATOM     21  C   UNL d   1      24.514 -16.451  -1.343  0.00  0.00     0.004 A 
ATOM     22  C   UNL d   1      23.089 -18.234   0.330  0.00  0.00     0.001 A 
ATOM     23  C   UNL d   1      22.407 -17.258  -0.381  0.00  0.00     0.001 A 
ATOM     24  C   UNL d   1      23.100 -16.369  -1.214  0.00  0.00     0.014 A 
ATOM     25  C   UNL d   1      25.465 -15.677  -2.109  0.00  0.00     0.068 A 
ATOM     26 CL   UNL d   1      24.978 -14.386  -3.134  0.00  0.00    -0.082 Cl
ENDBRANCH   2  17
TORSDOF 4
ENDMDL
MODEL 7
REMARK VINA RESULT:    -6.149      4.380      6.443
REMARK INTER + INTRA:          -9.193
REMARK INTER:                  -7.342
REMARK INTRA:                  -1.850
REMARK CONF_INDEPENDENT:        1.193
REMARK UNBOUND:                -1.850
REMARK  4 active torsions:
REMARK  status: ('A' for Active; 'I' for Inactive)
REMARK       I    between atoms: C_2  and  N_3 
REMARK    1  A    between atoms: C_2  and  C_17 
REMARK    2  A    between atoms: N_3  and  N_4 
REMARK       I    between atoms: N_4  and  C_5 
REMARK    3  A    between atoms: C_5  and  C_7 
REMARK    4  A    between atoms: C_22  and  O_23 
ROOT
ATOM      1  N   UNL d   1      26.986 -15.257  -3.790  0.00  0.00    -0.262 N 
ATOM      2  C   UNL d   1      26.913 -15.179  -5.168  0.00  0.00     0.278 C 
ATOM      3  O   UNL d   1      25.908 -15.577  -5.771  0.00  0.00    -0.265 OA
ATOM      4  H   UNL d   1      27.765 -14.899  -3.240  0.00  0.00     0.190 HD
ENDROOT
BRANCH   1   5
ATOM      5  N   UNL d   1      25.884 -15.768  -3.080  0.00  0.00    -0.263 N 
ATOM      6  C   UNL d   1      26.074 -16.316  -1.827  0.00  0.00     0.272 C 
ATOM      7  O   UNL d   1      27.156 -16.289  -1.243  0.00  0.00    -0.266 OA
ATOM      8  H   UNL d   1      25.003 -15.852  -3.589  0.00  0.00     0.190 HD
BRANCH   6   9
ATOM      9  C   UNL d   1      24.885 -16.944  -1.179  0.00  0.00     0.066 A 
ATOM     10  C   UNL d   1      23.633 -16.326  -1.326  0.00  0.00     0.020 A 
ATOM     11  C   UNL d   1      22.532 -16.769  -0.586  0.00  0.00     0.001 A 
ATOM     12  C   UNL d   1      22.650 -17.889   0.235  0.00  0.00     0.003 A 
ATOM     13  C   UNL d   1      23.866 -18.575   0.306  0.00  0.00     0.037 A 
ATOM     14  C   UNL d   1      24.990 -18.075  -0.360  0.00  0.00     0.081 A 
BRANCH  14  15
ATOM     15  O   UNL d   1      26.204 -18.678  -0.185  0.00  0.00    -0.360 OA
ATOM     16  H   UNL d   1      26.915 -18.049  -0.400  0.00  0.00     0.217 HD
ENDBRANCH  14  15
ENDBRANCH   6   9
ENDBRANCH   1   5
BRANCH   2  17
ATOM     17  C   UNL d   1      28.043 -14.565  -5.831  0.00  0.00     0.097 A 
ATOM     18  S   UNL d   1      29.369 -15.578  -6.191  0.00  0.00    -0.082 SA
ATOM     19  C   UNL d   1      30.270 -14.299  -6.886  0.00  0.00     0.017 A 
ATOM     20  C   UNL d   1      31.556 -14.411  -7.443  0.00  0.00     0.020 A 
ATOM     21  C   UNL d   1      29.579 -13.086  -6.835  0.00  0.00     0.004 A 
ATOM     22  C   UNL d   1      32.170 -13.273  -7.959  0.00  0.00     0.001 A 
ATOM     23  C   UNL d   1      31.520 -12.048  -7.917  0.00  0.00     0.001 A 
ATOM     24  C   UNL d   1      30.237 -11.941  -7.363  0.00  0.00     0.014 A 
ATOM     25  C   UNL d   1      28.281 -13.262  -6.223  0.00  0.00     0.068 A 
ATOM     26 CL   UNL d   1      27.198 -11.949  -5.982  0.00  0.00    -0.082 Cl
ENDBRANCH   2  17
TORSDOF 4
ENDMDL
MODEL 8
REMARK VINA RESULT:    -6.123      4.874      7.069
REMARK INTER + INTRA:          -9.245
REMARK INTER:                  -7.316
REMARK INTRA:                  -1.929
REMARK CONF_INDEPENDENT:        1.193
REMARK UNBOUND:                -1.929
REMARK  4 active torsions:
REMARK  status: ('A' for Active; 'I' for Inactive)
REMARK       I    between atoms: C_2  and  N_3 
REMARK    1  A    between atoms: C_2  and  C_17 
REMARK    2  A    between atoms: N_3  and  N_4 
REMARK       I    between atoms: N_4  and  C_5 
REMARK    3  A    between atoms: C_5  and  C_7 
REMARK    4  A    between atoms: C_22  and  O_23 
ROOT
ATOM      1  N   UNL d   1      27.902 -15.500  -4.057  0.00  0.00    -0.262 N 
ATOM      2  C   UNL d   1      27.724 -15.201  -5.395  0.00  0.00     0.278 C 
ATOM      3  O   UNL d   1      26.594 -15.204  -5.898  0.00  0.00    -0.265 OA
ATOM      4  H   UNL d   1      28.801 -15.462  -3.580  0.00  0.00     0.190 HD
ENDROOT
BRANCH   1   5
ATOM      5  N   UNL d   1      26.771 -15.778  -3.269  0.00  0.00    -0.263 N 
ATOM      6  C   UNL d   1      26.932 -16.321  -2.010  0.00  0.00     0.272 C 
ATOM      7  O   UNL d   1      28.035 -16.482  -1.488  0.00  0.00    -0.266 OA
ATOM      8  H   UNL d   1      25.859 -15.709  -3.724  0.00  0.00     0.190 HD
BRANCH   6   9
ATOM      9  C   UNL d   1      25.691 -16.700  -1.274  0.00  0.00     0.066 A 
ATOM     10  C   UNL d   1      25.753 -17.751  -0.344  0.00  0.00     0.020 A 
ATOM     11  C   UNL d   1      24.583 -18.264   0.226  0.00  0.00     0.001 A 
ATOM     12  C   UNL d   1      23.354 -17.671  -0.055  0.00  0.00     0.003 A 
ATOM     13  C   UNL d   1      23.295 -16.556  -0.896  0.00  0.00     0.037 A 
ATOM     14  C   UNL d   1      24.452 -16.105  -1.540  0.00  0.00     0.081 A 
BRANCH  14  15
ATOM     15  O   UNL d   1      24.365 -15.096  -2.458  0.00  0.00    -0.360 OA
ATOM     16  H   UNL d   1      25.117 -14.488  -2.346  0.00  0.00     0.217 HD
ENDBRANCH  14  15
ENDBRANCH   6   9
ENDBRANCH   1   5
BRANCH   2  17
ATOM     17  C   UNL d   1      28.918 -14.840  -6.129  0.00  0.00     0.097 A 
ATOM     18  S   UNL d   1      28.939 -13.297  -6.857  0.00  0.00    -0.082 SA
ATOM     19  C   UNL d   1      30.502 -13.531  -7.516  0.00  0.00     0.017 A 
ATOM     20  C   UNL d   1      31.213 -12.599  -8.290  0.00  0.00     0.020 A 
ATOM     21  C   UNL d   1      31.016 -14.792  -7.202  0.00  0.00     0.004 A 
ATOM     22  C   UNL d   1      32.475 -12.941  -8.769  0.00  0.00     0.001 A 
ATOM     23  C   UNL d   1      33.015 -14.188  -8.489  0.00  0.00     0.001 A 
ATOM     24  C   UNL d   1      32.303 -15.114  -7.715  0.00  0.00     0.014 A 
ATOM     25  C   UNL d   1      30.082 -15.538  -6.389  0.00  0.00     0.068 A 
ATOM     26 CL   UNL d   1      30.405 -17.142  -5.863  0.00  0.00    -0.082 Cl
ENDBRANCH   2  17
TORSDOF 4
ENDMDL
