MODEL 1
REMARK VINA RESULT:    -9.826      0.000      0.000
REMARK INTER + INTRA:         -14.016
REMARK INTER:                 -12.511
REMARK INTRA:                  -1.505
REMARK CONF_INDEPENDENT:        2.685
REMARK UNBOUND:                -1.505
REMARK  9 active torsions:
REMARK  status: ('A' for Active; 'I' for Inactive)
REMARK    1  A    between atoms: O_2  and  C_3 
REMARK    2  A    between atoms: C_3  and  C_5 
REMARK    3  A    between atoms: C_8  and  N_9 
REMARK    4  A    between atoms: N_9  and  C_10 
REMARK    5  A    between atoms: C_10  and  C_11 
REMARK       I    between atoms: C_11  and  N_13 
REMARK    6  A    between atoms: N_13  and  C_14 
REMARK    7  A    between atoms: C_17  and  C_18 
REMARK       I    between atoms: C_18  and  N_20 
REMARK    8  A    between atoms: C_21  and  N_20 
REMARK    9  A    between atoms: C_21  and  C_23 
ROOT
ATOM      1  C   UNL d   1      26.719 -15.305  -2.861  0.00  0.00     0.034 C 
ATOM      2  C   UNL d   1      25.552 -16.024  -3.133  0.00  0.00     0.030 C 
ATOM      3  C   UNL d   1      25.005 -16.904  -2.160  0.00  0.00     0.019 C 
ATOM      4  C   UNL d   1      25.612 -17.059  -0.903  0.00  0.00     0.032 C 
ATOM      5  C   UNL d   1      26.681 -16.209  -0.653  0.00  0.00     0.019 C 
ATOM      6  C   UNL d   1      27.273 -15.414  -1.610  0.00  0.00     0.030 C 
ENDROOT
BRANCH   1   7
ATOM      7  N   UNL d   1      27.313 -14.394  -3.755  0.00  0.00    -0.326 N 
ATOM      8  C   UNL d   1      27.274 -14.595  -5.142  0.00  0.00     0.239 C 
ATOM      9  O   UNL d   1      26.648 -15.500  -5.699  0.00  0.00    -0.271 OA
ATOM     10  H   UNL d   1      27.759 -13.579  -3.358  0.00  0.00     0.169 HD
BRANCH   8  11
ATOM     11  C   UNL d   1      28.051 -13.571  -5.973  0.00  0.00     0.223 C 
BRANCH  11  12
ATOM     12  N   UNL d   1      29.436 -14.019  -6.178  0.00  0.00    -0.381 N 
ATOM     13  H   UNL d   1      29.945 -13.501  -6.896  0.00  0.00     0.160 HD
BRANCH  12  14
ATOM     14  C   UNL d   1      29.886 -15.279  -5.820  0.00  0.00     0.028 A 
ATOM     15  C   UNL d   1      30.129 -15.592  -4.474  0.00  0.00     0.030 A 
ATOM     16  C   UNL d   1      30.593 -16.864  -4.090  0.00  0.00     0.020 A 
ATOM     17  C   UNL d   1      30.744 -17.879  -5.041  0.00  0.00     0.039 A 
ATOM     18  C   UNL d   1      30.461 -17.598  -6.376  0.00  0.00     0.020 A 
ATOM     19  C   UNL d   1      30.030 -16.315  -6.750  0.00  0.00     0.030 A 
BRANCH  17  20
ATOM     20  C   UNL d   1      31.040 -19.269  -4.592  0.00  0.00     0.292 C 
ATOM     21  O   UNL d   1      31.663 -19.511  -3.578  0.00  0.00    -0.259 OA
BRANCH  20  22
ATOM     22  O   UNL d   1      30.529 -20.191  -5.455  0.00  0.00    -0.323 OA
ATOM     23  C   UNL d   1      31.498 -21.135  -5.935  0.00  0.00     0.213 C 
ENDBRANCH  20  22
ENDBRANCH  17  20
ENDBRANCH  12  14
ENDBRANCH  11  12
ENDBRANCH   8  11
ENDBRANCH   1   7
BRANCH   4  24
ATOM     24  C   UNL d   1      25.089 -18.086   0.072  0.00  0.00     0.252 C 
ATOM     25  O   UNL d   1      25.867 -18.573   0.896  0.00  0.00    -0.268 OA
ATOM     26  N   UNL d   1      23.772 -18.508   0.123  0.00  0.00    -0.349 N 
ATOM     27  H   UNL d   1      23.617 -19.190   0.856  0.00  0.00     0.163 HD
BRANCH  26  28
ATOM     28  C   UNL d   1      22.570 -18.034  -0.542  0.00  0.00     0.114 C 
ATOM     29  C   UNL d   1      22.436 -16.518  -0.521  0.00  0.00     0.037 C 
BRANCH  28  30
ATOM     30  C   UNL d   1      21.322 -18.828  -0.258  0.00  0.00    -0.036 A 
ATOM     31  C   UNL d   1      20.351 -19.089  -1.232  0.00  0.00     0.009 A 
ATOM     32  C   UNL d   1      19.152 -19.701  -0.867  0.00  0.00     0.001 A 
ATOM     33  C   UNL d   1      18.936 -20.090   0.456  0.00  0.00     0.000 A 
ATOM     34  C   UNL d   1      19.863 -19.777   1.439  0.00  0.00     0.001 A 
ATOM     35  C   UNL d   1      21.026 -19.120   1.085  0.00  0.00     0.009 A 
ENDBRANCH  28  30
ENDBRANCH  26  28
ENDBRANCH   4  24
TORSDOF 9
ENDMDL
MODEL 2
REMARK VINA RESULT:    -9.710      3.605      6.556
REMARK INTER + INTRA:         -13.732
REMARK INTER:                 -12.394
REMARK INTRA:                  -1.337
REMARK CONF_INDEPENDENT:        2.685
REMARK UNBOUND:                -1.337
REMARK  9 active torsions:
REMARK  status: ('A' for Active; 'I' for Inactive)
REMARK    1  A    between atoms: O_2  and  C_3 
REMARK    2  A    between atoms: C_3  and  C_5 
REMARK    3  A    between atoms: C_8  and  N_9 
REMARK    4  A    between atoms: N_9  and  C_10 
REMARK    5  A    between atoms: C_10  and  C_11 
REMARK       I    between atoms: C_11  and  N_13 
REMARK    6  A    between atoms: N_13  and  C_14 
REMARK    7  A    between atoms: C_17  and  C_18 
REMARK       I    between atoms: C_18  and  N_20 
REMARK    8  A    between atoms: C_21  and  N_20 
REMARK    9  A    between atoms: C_21  and  C_23 
ROOT
ATOM      1  C   UNL d   1      26.422 -15.026  -2.623  0.00  0.00     0.034 C 
ATOM      2  C   UNL d   1      27.023 -15.194  -1.372  0.00  0.00     0.030 C 
ATOM      3  C   UNL d   1      26.585 -16.224  -0.497  0.00  0.00     0.019 C 
ATOM      4  C   UNL d   1      25.556 -17.103  -0.871  0.00  0.00     0.032 C 
ATOM      5  C   UNL d   1      25.107 -16.966  -2.177  0.00  0.00     0.019 C 
ATOM      6  C   UNL d   1      25.460 -15.925  -3.008  0.00  0.00     0.030 C 
ENDROOT
BRANCH   1   7
ATOM      7  N   UNL d   1      26.811 -14.051  -3.562  0.00  0.00    -0.326 N 
ATOM      8  C   UNL d   1      27.135 -14.391  -4.882  0.00  0.00     0.239 C 
ATOM      9  O   UNL d   1      27.013 -15.522  -5.362  0.00  0.00    -0.271 OA
ATOM     10  H   UNL d   1      26.836 -13.090  -3.249  0.00  0.00     0.169 HD
BRANCH   8  11
ATOM     11  C   UNL d   1      27.636 -13.235  -5.752  0.00  0.00     0.223 C 
BRANCH  11  12
ATOM     12  N   UNL d   1      27.666 -11.985  -4.978  0.00  0.00    -0.381 N 
ATOM     13  H   UNL d   1      28.049 -12.083  -4.036  0.00  0.00     0.160 HD
BRANCH  12  14
ATOM     14  C   UNL d   1      26.854 -10.900  -5.259  0.00  0.00     0.028 A 
ATOM     15  C   UNL d   1      26.676 -10.468  -6.582  0.00  0.00     0.030 A 
ATOM     16  C   UNL d   1      25.861  -9.362  -6.889  0.00  0.00     0.020 A 
ATOM     17  C   UNL d   1      25.137  -8.715  -5.881  0.00  0.00     0.039 A 
ATOM     18  C   UNL d   1      25.267  -9.162  -4.568  0.00  0.00     0.020 A 
ATOM     19  C   UNL d   1      26.109 -10.246  -4.272  0.00  0.00     0.030 A 
BRANCH  17  20
ATOM     20  C   UNL d   1      24.129  -7.681  -6.248  0.00  0.00     0.292 C 
ATOM     21  O   UNL d   1      24.402  -6.712  -6.927  0.00  0.00    -0.259 OA
BRANCH  20  22
ATOM     22  O   UNL d   1      22.904  -7.974  -5.728  0.00  0.00    -0.323 OA
ATOM     23  C   UNL d   1      22.298  -6.880  -5.023  0.00  0.00     0.213 C 
ENDBRANCH  20  22
ENDBRANCH  17  20
ENDBRANCH  12  14
ENDBRANCH  11  12
ENDBRANCH   8  11
ENDBRANCH   1   7
BRANCH   4  24
ATOM     24  C   UNL d   1      25.021 -18.111   0.117  0.00  0.00     0.252 C 
ATOM     25  O   UNL d   1      25.787 -18.574   0.966  0.00  0.00    -0.268 OA
ATOM     26  N   UNL d   1      23.706 -18.539   0.154  0.00  0.00    -0.349 N 
ATOM     27  H   UNL d   1      23.541 -19.206   0.900  0.00  0.00     0.163 HD
BRANCH  26  28
ATOM     28  C   UNL d   1      22.514 -18.088  -0.542  0.00  0.00     0.114 C 
ATOM     29  C   UNL d   1      22.354 -16.574  -0.531  0.00  0.00     0.037 C 
BRANCH  28  30
ATOM     30  C   UNL d   1      21.272 -18.901  -0.287  0.00  0.00    -0.036 A 
ATOM     31  C   UNL d   1      20.260 -19.061  -1.241  0.00  0.00     0.009 A 
ATOM     32  C   UNL d   1      19.072 -19.700  -0.889  0.00  0.00     0.001 A 
ATOM     33  C   UNL d   1      18.907 -20.219   0.397  0.00  0.00     0.000 A 
ATOM     34  C   UNL d   1      19.876 -20.009   1.367  0.00  0.00     0.001 A 
ATOM     35  C   UNL d   1      21.030 -19.325   1.032  0.00  0.00     0.009 A 
ENDBRANCH  28  30
ENDBRANCH  26  28
ENDBRANCH   4  24
TORSDOF 9
ENDMDL
MODEL 3
REMARK VINA RESULT:    -9.693      7.792     10.642
REMARK INTER + INTRA:         -14.294
REMARK INTER:                 -12.377
REMARK INTRA:                  -1.917
REMARK CONF_INDEPENDENT:        2.685
REMARK UNBOUND:                -1.917
REMARK  9 active torsions:
REMARK  status: ('A' for Active; 'I' for Inactive)
REMARK    1  A    between atoms: O_2  and  C_3 
REMARK    2  A    between atoms: C_3  and  C_5 
REMARK    3  A    between atoms: C_8  and  N_9 
REMARK    4  A    between atoms: N_9  and  C_10 
REMARK    5  A    between atoms: C_10  and  C_11 
REMARK       I    between atoms: C_11  and  N_13 
REMARK    6  A    between atoms: N_13  and  C_14 
REMARK    7  A    between atoms: C_17  and  C_18 
REMARK       I    between atoms: C_18  and  N_20 
REMARK    8  A    between atoms: C_21  and  N_20 
REMARK    9  A    between atoms: C_21  and  C_23 
ROOT
ATOM      1  C   UNL d   1      28.957 -13.939   4.408  0.00  0.00     0.034 C 
ATOM      2  C   UNL d   1      30.117 -13.341   4.910  0.00  0.00     0.030 C 
ATOM      3  C   UNL d   1      30.064 -12.541   6.082  0.00  0.00     0.019 C 
ATOM      4  C   UNL d   1      28.856 -12.345   6.771  0.00  0.00     0.032 C 
ATOM      5  C   UNL d   1      27.779 -13.082   6.298  0.00  0.00     0.019 C 
ATOM      6  C   UNL d   1      27.792 -13.794   5.119  0.00  0.00     0.030 C 
ENDROOT
BRANCH   1   7
ATOM      7  N   UNL d   1      28.923 -14.768   3.271  0.00  0.00    -0.326 N 
ATOM      8  C   UNL d   1      28.094 -14.483   2.178  0.00  0.00     0.239 C 
ATOM      9  O   UNL d   1      27.417 -13.457   2.064  0.00  0.00    -0.271 OA
ATOM     10  H   UNL d   1      29.532 -15.575   3.267  0.00  0.00     0.169 HD
BRANCH   8  11
ATOM     11  C   UNL d   1      28.096 -15.532   1.064  0.00  0.00     0.223 C 
BRANCH  11  12
ATOM     12  N   UNL d   1      27.110 -15.184   0.029  0.00  0.00    -0.381 N 
ATOM     13  H   UNL d   1      27.012 -14.182  -0.139  0.00  0.00     0.160 HD
BRANCH  12  14
ATOM     14  C   UNL d   1      26.080 -16.029  -0.351  0.00  0.00     0.028 A 
ATOM     15  C   UNL d   1      25.948 -17.297   0.234  0.00  0.00     0.030 A 
ATOM     16  C   UNL d   1      24.913 -18.173  -0.144  0.00  0.00     0.020 A 
ATOM     17  C   UNL d   1      23.935 -17.762  -1.057  0.00  0.00     0.039 A 
ATOM     18  C   UNL d   1      24.026 -16.486  -1.611  0.00  0.00     0.020 A 
ATOM     19  C   UNL d   1      25.083 -15.635  -1.250  0.00  0.00     0.030 A 
BRANCH  17  20
ATOM     20  C   UNL d   1      22.740 -18.621  -1.292  0.00  0.00     0.292 C 
ATOM     21  O   UNL d   1      22.623 -19.325  -2.275  0.00  0.00    -0.259 OA
BRANCH  20  22
ATOM     22  O   UNL d   1      21.836 -18.503  -0.280  0.00  0.00    -0.323 OA
ATOM     23  C   UNL d   1      20.649 -19.289  -0.470  0.00  0.00     0.213 C 
ENDBRANCH  20  22
ENDBRANCH  17  20
ENDBRANCH  12  14
ENDBRANCH  11  12
ENDBRANCH   8  11
ENDBRANCH   1   7
BRANCH   4  24
ATOM     24  C   UNL d   1      28.794 -11.394   7.942  0.00  0.00     0.252 C 
ATOM     25  O   UNL d   1      28.884 -10.183   7.729  0.00  0.00    -0.268 OA
ATOM     26  N   UNL d   1      28.616 -11.791   9.255  0.00  0.00    -0.349 N 
ATOM     27  H   UNL d   1      28.586 -11.004   9.893  0.00  0.00     0.163 HD
BRANCH  26  28
ATOM     28  C   UNL d   1      28.292 -13.076   9.850  0.00  0.00     0.114 C 
ATOM     29  C   UNL d   1      27.405 -12.957  11.082  0.00  0.00     0.037 C 
BRANCH  28  30
ATOM     30  C   UNL d   1      29.435 -14.055   9.931  0.00  0.00    -0.036 A 
ATOM     31  C   UNL d   1      29.661 -14.866  11.049  0.00  0.00     0.009 A 
ATOM     32  C   UNL d   1      30.819 -15.639  11.120  0.00  0.00     0.001 A 
ATOM     33  C   UNL d   1      31.730 -15.639  10.062  0.00  0.00     0.000 A 
ATOM     34  C   UNL d   1      31.547 -14.791   8.980  0.00  0.00     0.001 A 
ATOM     35  C   UNL d   1      30.427 -13.982   8.938  0.00  0.00     0.009 A 
ENDBRANCH  28  30
ENDBRANCH  26  28
ENDBRANCH   4  24
TORSDOF 9
ENDMDL
MODEL 4
REMARK VINA RESULT:    -9.217      6.729     10.212
REMARK INTER + INTRA:         -13.811
REMARK INTER:                 -11.902
REMARK INTRA:                  -1.909
REMARK CONF_INDEPENDENT:        2.685
REMARK UNBOUND:                -1.909
REMARK  9 active torsions:
REMARK  status: ('A' for Active; 'I' for Inactive)
REMARK    1  A    between atoms: O_2  and  C_3 
REMARK    2  A    between atoms: C_3  and  C_5 
REMARK    3  A    between atoms: C_8  and  N_9 
REMARK    4  A    between atoms: N_9  and  C_10 
REMARK    5  A    between atoms: C_10  and  C_11 
REMARK       I    between atoms: C_11  and  N_13 
REMARK    6  A    between atoms: N_13  and  C_14 
REMARK    7  A    between atoms: C_17  and  C_18 
REMARK       I    between atoms: C_18  and  N_20 
REMARK    8  A    between atoms: C_21  and  N_20 
REMARK    9  A    between atoms: C_21  and  C_23 
ROOT
ATOM      1  C   UNL d   1      27.963 -14.070   2.599  0.00  0.00     0.034 C 
ATOM      2  C   UNL d   1      28.613 -12.905   2.181  0.00  0.00     0.030 C 
ATOM      3  C   UNL d   1      28.766 -11.807   3.069  0.00  0.00     0.019 C 
ATOM      4  C   UNL d   1      28.284 -11.870   4.387  0.00  0.00     0.032 C 
ATOM      5  C   UNL d   1      27.779 -13.104   4.774  0.00  0.00     0.019 C 
ATOM      6  C   UNL d   1      27.548 -14.148   3.905  0.00  0.00     0.030 C 
ENDROOT
BRANCH   1   7
ATOM      7  N   UNL d   1      27.792 -15.212   1.795  0.00  0.00    -0.326 N 
ATOM      8  C   UNL d   1      26.993 -15.188   0.645  0.00  0.00     0.239 C 
ATOM      9  O   UNL d   1      26.465 -14.173   0.182  0.00  0.00    -0.271 OA
ATOM     10  H   UNL d   1      28.281 -16.052   2.074  0.00  0.00     0.169 HD
BRANCH   8  11
ATOM     11  C   UNL d   1      26.826 -16.535  -0.065  0.00  0.00     0.223 C 
BRANCH  11  12
ATOM     12  N   UNL d   1      25.734 -16.466  -1.047  0.00  0.00    -0.381 N 
ATOM     13  H   UNL d   1      25.769 -15.649  -1.659  0.00  0.00     0.160 HD
BRANCH  12  14
ATOM     14  C   UNL d   1      24.530 -17.131  -0.889  0.00  0.00     0.028 A 
ATOM     15  C   UNL d   1      23.314 -16.451  -1.058  0.00  0.00     0.030 A 
ATOM     16  C   UNL d   1      22.079 -17.107  -0.894  0.00  0.00     0.020 A 
ATOM     17  C   UNL d   1      22.036 -18.482  -0.640  0.00  0.00     0.039 A 
ATOM     18  C   UNL d   1      23.236 -19.181  -0.517  0.00  0.00     0.020 A 
ATOM     19  C   UNL d   1      24.461 -18.508  -0.649  0.00  0.00     0.030 A 
BRANCH  17  20
ATOM     20  C   UNL d   1      20.728 -19.196  -0.670  0.00  0.00     0.292 C 
ATOM     21  O   UNL d   1      20.281 -19.700  -1.680  0.00  0.00    -0.259 OA
BRANCH  20  22
ATOM     22  O   UNL d   1      20.134 -19.198   0.556  0.00  0.00    -0.323 OA
ATOM     23  C   UNL d   1      19.694 -20.497   0.983  0.00  0.00     0.213 C 
ENDBRANCH  20  22
ENDBRANCH  17  20
ENDBRANCH  12  14
ENDBRANCH  11  12
ENDBRANCH   8  11
ENDBRANCH   1   7
BRANCH   4  24
ATOM     24  C   UNL d   1      28.345 -10.653   5.277  0.00  0.00     0.252 C 
ATOM     25  O   UNL d   1      27.524  -9.748   5.105  0.00  0.00    -0.268 OA
ATOM     26  N   UNL d   1      29.255 -10.488   6.306  0.00  0.00    -0.349 N 
ATOM     27  H   UNL d   1      29.125  -9.612   6.797  0.00  0.00     0.163 HD
BRANCH  26  28
ATOM     28  C   UNL d   1      30.218 -11.394   6.909  0.00  0.00     0.114 C 
ATOM     29  C   UNL d   1      31.139 -12.050   5.890  0.00  0.00     0.037 C 
BRANCH  28  30
ATOM     30  C   UNL d   1      29.674 -12.280   7.999  0.00  0.00    -0.036 A 
ATOM     31  C   UNL d   1      29.863 -13.667   8.013  0.00  0.00     0.009 A 
ATOM     32  C   UNL d   1      29.208 -14.444   8.968  0.00  0.00     0.001 A 
ATOM     33  C   UNL d   1      28.402 -13.840   9.934  0.00  0.00     0.000 A 
ATOM     34  C   UNL d   1      28.157 -12.475   9.889  0.00  0.00     0.001 A 
ATOM     35  C   UNL d   1      28.762 -11.713   8.906  0.00  0.00     0.009 A 
ENDBRANCH  28  30
ENDBRANCH  26  28
ENDBRANCH   4  24
TORSDOF 9
ENDMDL
MODEL 5
REMARK VINA RESULT:    -9.079      2.368      9.626
REMARK INTER + INTRA:         -13.647
REMARK INTER:                 -11.764
REMARK INTRA:                  -1.883
REMARK CONF_INDEPENDENT:        2.685
REMARK UNBOUND:                -1.883
REMARK  9 active torsions:
REMARK  status: ('A' for Active; 'I' for Inactive)
REMARK    1  A    between atoms: O_2  and  C_3 
REMARK    2  A    between atoms: C_3  and  C_5 
REMARK    3  A    between atoms: C_8  and  N_9 
REMARK    4  A    between atoms: N_9  and  C_10 
REMARK    5  A    between atoms: C_10  and  C_11 
REMARK       I    between atoms: C_11  and  N_13 
REMARK    6  A    between atoms: N_13  and  C_14 
REMARK    7  A    between atoms: C_17  and  C_18 
REMARK       I    between atoms: C_18  and  N_20 
REMARK    8  A    between atoms: C_21  and  N_20 
REMARK    9  A    between atoms: C_21  and  C_23 
ROOT
ATOM      1  C   UNL d   1      27.695 -15.530  -3.508  0.00  0.00     0.034 C 
ATOM      2  C   UNL d   1      28.999 -15.027  -3.496  0.00  0.00     0.030 C 
ATOM      3  C   UNL d   1      29.582 -14.511  -4.684  0.00  0.00     0.019 C 
ATOM      4  C   UNL d   1      28.861 -14.478  -5.889  0.00  0.00     0.032 C 
ATOM      5  C   UNL d   1      27.530 -14.860  -5.793  0.00  0.00     0.019 C 
ATOM      6  C   UNL d   1      26.975 -15.440  -4.673  0.00  0.00     0.030 C 
ENDROOT
BRANCH   1   7
ATOM      7  N   UNL d   1      27.031 -16.034  -2.373  0.00  0.00    -0.326 N 
ATOM      8  C   UNL d   1      27.721 -16.714  -1.361  0.00  0.00     0.239 C 
ATOM      9  O   UNL d   1      28.948 -16.839  -1.315  0.00  0.00    -0.271 OA
ATOM     10  H   UNL d   1      26.035 -15.876  -2.310  0.00  0.00     0.169 HD
BRANCH   8  11
ATOM     11  C   UNL d   1      26.846 -17.289  -0.245  0.00  0.00     0.223 C 
BRANCH  11  12
ATOM     12  N   UNL d   1      25.561 -16.577  -0.181  0.00  0.00    -0.381 N 
ATOM     13  H   UNL d   1      25.594 -15.695   0.333  0.00  0.00     0.160 HD
BRANCH  12  14
ATOM     14  C   UNL d   1      24.338 -17.202  -0.356  0.00  0.00     0.028 A 
ATOM     15  C   UNL d   1      23.205 -16.460  -0.719  0.00  0.00     0.030 A 
ATOM     16  C   UNL d   1      21.951 -17.076  -0.894  0.00  0.00     0.020 A 
ATOM     17  C   UNL d   1      21.825 -18.466  -0.793  0.00  0.00     0.039 A 
ATOM     18  C   UNL d   1      22.952 -19.222  -0.480  0.00  0.00     0.020 A 
ATOM     19  C   UNL d   1      24.190 -18.591  -0.274  0.00  0.00     0.030 A 
BRANCH  17  20
ATOM     20  C   UNL d   1      20.541 -19.118  -1.178  0.00  0.00     0.292 C 
ATOM     21  O   UNL d   1      20.394 -19.701  -2.234  0.00  0.00    -0.259 OA
BRANCH  20  22
ATOM     22  O   UNL d   1      19.596 -18.969  -0.209  0.00  0.00    -0.323 OA
ATOM     23  C   UNL d   1      19.841 -19.761   0.964  0.00  0.00     0.213 C 
ENDBRANCH  20  22
ENDBRANCH  17  20
ENDBRANCH  12  14
ENDBRANCH  11  12
ENDBRANCH   8  11
ENDBRANCH   1   7
BRANCH   4  24
ATOM     24  C   UNL d   1      29.536 -14.040  -7.166  0.00  0.00     0.252 C 
ATOM     25  O   UNL d   1      29.028 -13.129  -7.824  0.00  0.00    -0.268 OA
ATOM     26  N   UNL d   1      30.717 -14.580  -7.645  0.00  0.00    -0.349 N 
ATOM     27  H   UNL d   1      31.016 -14.141  -8.508  0.00  0.00     0.163 HD
BRANCH  26  28
ATOM     28  C   UNL d   1      31.672 -15.506  -7.062  0.00  0.00     0.114 C 
ATOM     29  C   UNL d   1      33.051 -15.422  -7.702  0.00  0.00     0.037 C 
BRANCH  28  30
ATOM     30  C   UNL d   1      31.140 -16.888  -6.781  0.00  0.00    -0.036 A 
ATOM     31  C   UNL d   1      30.814 -17.327  -5.492  0.00  0.00     0.009 A 
ATOM     32  C   UNL d   1      30.469 -18.661  -5.283  0.00  0.00     0.001 A 
ATOM     33  C   UNL d   1      30.406 -19.548  -6.359  0.00  0.00     0.000 A 
ATOM     34  C   UNL d   1      30.789 -19.139  -7.628  0.00  0.00     0.001 A 
ATOM     35  C   UNL d   1      31.186 -17.829  -7.824  0.00  0.00     0.009 A 
ENDBRANCH  28  30
ENDBRANCH  26  28
ENDBRANCH   4  24
TORSDOF 9
ENDMDL
MODEL 6
REMARK VINA RESULT:    -8.778      7.331     10.545
REMARK INTER + INTRA:         -13.265
REMARK INTER:                 -11.463
REMARK INTRA:                  -1.802
REMARK CONF_INDEPENDENT:        2.685
REMARK UNBOUND:                -1.802
REMARK  9 active torsions:
REMARK  status: ('A' for Active; 'I' for Inactive)
REMARK    1  A    between atoms: O_2  and  C_3 
REMARK    2  A    between atoms: C_3  and  C_5 
REMARK    3  A    between atoms: C_8  and  N_9 
REMARK    4  A    between atoms: N_9  and  C_10 
REMARK    5  A    between atoms: C_10  and  C_11 
REMARK       I    between atoms: C_11  and  N_13 
REMARK    6  A    between atoms: N_13  and  C_14 
REMARK    7  A    between atoms: C_17  and  C_18 
REMARK       I    between atoms: C_18  and  N_20 
REMARK    8  A    between atoms: C_21  and  N_20 
REMARK    9  A    between atoms: C_21  and  C_23 
ROOT
ATOM      1  C   UNL d   1      28.638 -14.068   4.432  0.00  0.00     0.034 C 
ATOM      2  C   UNL d   1      29.660 -14.259   5.367  0.00  0.00     0.030 C 
ATOM      3  C   UNL d   1      29.563 -13.691   6.666  0.00  0.00     0.019 C 
ATOM      4  C   UNL d   1      28.438 -12.942   7.045  0.00  0.00     0.032 C 
ATOM      5  C   UNL d   1      27.405 -12.914   6.118  0.00  0.00     0.019 C 
ATOM      6  C   UNL d   1      27.515 -13.387   4.829  0.00  0.00     0.030 C 
ENDROOT
BRANCH   1   7
ATOM      7  N   UNL d   1      28.640 -14.617   3.136  0.00  0.00    -0.326 N 
ATOM      8  C   UNL d   1      28.222 -13.874   2.024  0.00  0.00     0.239 C 
ATOM      9  O   UNL d   1      27.924 -12.676   2.055  0.00  0.00    -0.271 OA
ATOM     10  H   UNL d   1      28.967 -15.567   3.035  0.00  0.00     0.169 HD
BRANCH   8  11
ATOM     11  C   UNL d   1      28.186 -14.642   0.700  0.00  0.00     0.223 C 
BRANCH  11  12
ATOM     12  N   UNL d   1      27.841 -16.052   0.933  0.00  0.00    -0.381 N 
ATOM     13  H   UNL d   1      28.644 -16.657   1.112  0.00  0.00     0.160 HD
BRANCH  12  14
ATOM     14  C   UNL d   1      26.657 -16.624   0.501  0.00  0.00     0.028 A 
ATOM     15  C   UNL d   1      25.689 -15.848  -0.153  0.00  0.00     0.030 A 
ATOM     16  C   UNL d   1      24.474 -16.409  -0.593  0.00  0.00     0.020 A 
ATOM     17  C   UNL d   1      24.240 -17.782  -0.461  0.00  0.00     0.039 A 
ATOM     18  C   UNL d   1      25.213 -18.575   0.145  0.00  0.00     0.020 A 
ATOM     19  C   UNL d   1      26.406 -17.997   0.609  0.00  0.00     0.030 A 
BRANCH  17  20
ATOM     20  C   UNL d   1      23.044 -18.390  -1.109  0.00  0.00     0.292 C 
ATOM     21  O   UNL d   1      23.126 -19.289  -1.922  0.00  0.00    -0.259 OA
BRANCH  20  22
ATOM     22  O   UNL d   1      21.892 -17.811  -0.672  0.00  0.00    -0.323 OA
ATOM     23  C   UNL d   1      20.721 -18.612  -0.894  0.00  0.00     0.213 C 
ENDBRANCH  20  22
ENDBRANCH  17  20
ENDBRANCH  12  14
ENDBRANCH  11  12
ENDBRANCH   8  11
ENDBRANCH   1   7
BRANCH   4  24
ATOM     24  C   UNL d   1      28.406 -12.244   8.383  0.00  0.00     0.252 C 
ATOM     25  O   UNL d   1      27.810 -12.782   9.320  0.00  0.00    -0.268 OA
ATOM     26  N   UNL d   1      29.028 -11.036   8.645  0.00  0.00    -0.349 N 
ATOM     27  H   UNL d   1      28.904 -10.741   9.606  0.00  0.00     0.163 HD
BRANCH  26  28
ATOM     28  C   UNL d   1      29.951 -10.227   7.867  0.00  0.00     0.114 C 
ATOM     29  C   UNL d   1      30.930  -9.444   8.730  0.00  0.00     0.037 C 
BRANCH  28  30
ATOM     30  C   UNL d   1      29.339  -9.493   6.702  0.00  0.00    -0.036 A 
ATOM     31  C   UNL d   1      28.906  -8.165   6.785  0.00  0.00     0.009 A 
ATOM     32  C   UNL d   1      28.216  -7.594   5.717  0.00  0.00     0.001 A 
ATOM     33  C   UNL d   1      27.993  -8.329   4.551  0.00  0.00     0.000 A 
ATOM     34  C   UNL d   1      28.361  -9.665   4.483  0.00  0.00     0.001 A 
ATOM     35  C   UNL d   1      28.995 -10.246   5.565  0.00  0.00     0.009 A 
ENDBRANCH  28  30
ENDBRANCH  26  28
ENDBRANCH   4  24
TORSDOF 9
ENDMDL
MODEL 7
REMARK VINA RESULT:    -8.738      5.702      8.951
REMARK INTER + INTRA:         -13.521
REMARK INTER:                 -11.423
REMARK INTRA:                  -2.098
REMARK CONF_INDEPENDENT:        2.685
REMARK UNBOUND:                -2.098
REMARK  9 active torsions:
REMARK  status: ('A' for Active; 'I' for Inactive)
REMARK    1  A    between atoms: O_2  and  C_3 
REMARK    2  A    between atoms: C_3  and  C_5 
REMARK    3  A    between atoms: C_8  and  N_9 
REMARK    4  A    between atoms: N_9  and  C_10 
REMARK    5  A    between atoms: C_10  and  C_11 
REMARK       I    between atoms: C_11  and  N_13 
REMARK    6  A    between atoms: N_13  and  C_14 
REMARK    7  A    between atoms: C_17  and  C_18 
REMARK       I    between atoms: C_18  and  N_20 
REMARK    8  A    between atoms: C_21  and  N_20 
REMARK    9  A    between atoms: C_21  and  C_23 
ROOT
ATOM      1  C   UNL d   1      28.371 -13.894   1.856  0.00  0.00     0.034 C 
ATOM      2  C   UNL d   1      27.114 -13.306   2.027  0.00  0.00     0.030 C 
ATOM      3  C   UNL d   1      26.985 -12.076   2.727  0.00  0.00     0.019 C 
ATOM      4  C   UNL d   1      28.111 -11.417   3.246  0.00  0.00     0.032 C 
ATOM      5  C   UNL d   1      29.334 -11.984   2.914  0.00  0.00     0.019 C 
ATOM      6  C   UNL d   1      29.473 -13.215   2.311  0.00  0.00     0.030 C 
ENDROOT
BRANCH   1   7
ATOM      7  N   UNL d   1      28.593 -15.094   1.154  0.00  0.00    -0.326 N 
ATOM      8  C   UNL d   1      28.933 -15.097  -0.205  0.00  0.00     0.239 C 
ATOM      9  O   UNL d   1      29.168 -14.084  -0.870  0.00  0.00    -0.271 OA
ATOM     10  H   UNL d   1      28.509 -15.957   1.673  0.00  0.00     0.169 HD
BRANCH   8  11
ATOM     11  C   UNL d   1      29.042 -16.482  -0.849  0.00  0.00     0.223 C 
BRANCH  11  12
ATOM     12  N   UNL d   1      28.176 -17.443  -0.150  0.00  0.00    -0.381 N 
ATOM     13  H   UNL d   1      28.650 -18.298   0.146  0.00  0.00     0.160 HD
BRANCH  12  14
ATOM     14  C   UNL d   1      26.797 -17.454  -0.278  0.00  0.00     0.028 A 
ATOM     15  C   UNL d   1      26.176 -16.774  -1.336  0.00  0.00     0.030 A 
ATOM     16  C   UNL d   1      24.775 -16.767  -1.479  0.00  0.00     0.020 A 
ATOM     17  C   UNL d   1      23.971 -17.513  -0.611  0.00  0.00     0.039 A 
ATOM     18  C   UNL d   1      24.578 -18.232   0.417  0.00  0.00     0.020 A 
ATOM     19  C   UNL d   1      25.973 -18.204   0.568  0.00  0.00     0.030 A 
BRANCH  17  20
ATOM     20  C   UNL d   1      22.515 -17.657  -0.897  0.00  0.00     0.292 C 
ATOM     21  O   UNL d   1      21.751 -16.713  -0.895  0.00  0.00    -0.259 OA
BRANCH  20  22
ATOM     22  O   UNL d   1      22.183 -18.953  -1.152  0.00  0.00    -0.323 OA
ATOM     23  C   UNL d   1      20.997 -19.391  -0.472  0.00  0.00     0.213 C 
ENDBRANCH  20  22
ENDBRANCH  17  20
ENDBRANCH  12  14
ENDBRANCH  11  12
ENDBRANCH   8  11
ENDBRANCH   1   7
BRANCH   4  24
ATOM     24  C   UNL d   1      27.943 -10.177   4.090  0.00  0.00     0.252 C 
ATOM     25  O   UNL d   1      27.684  -9.108   3.532  0.00  0.00    -0.268 OA
ATOM     26  N   UNL d   1      28.035 -10.159   5.471  0.00  0.00    -0.349 N 
ATOM     27  H   UNL d   1      27.877  -9.234   5.854  0.00  0.00     0.163 HD
BRANCH  26  28
ATOM     28  C   UNL d   1      28.136 -11.223   6.455  0.00  0.00     0.114 C 
ATOM     29  C   UNL d   1      28.923 -10.818   7.693  0.00  0.00     0.037 C 
BRANCH  28  30
ATOM     30  C   UNL d   1      28.415 -12.594   5.895  0.00  0.00    -0.036 A 
ATOM     31  C   UNL d   1      27.400 -13.465   5.479  0.00  0.00     0.009 A 
ATOM     32  C   UNL d   1      27.718 -14.771   5.111  0.00  0.00     0.001 A 
ATOM     33  C   UNL d   1      29.047 -15.200   5.115  0.00  0.00     0.000 A 
ATOM     34  C   UNL d   1      30.051 -14.366   5.586  0.00  0.00     0.001 A 
ATOM     35  C   UNL d   1      29.726 -13.089   6.005  0.00  0.00     0.009 A 
ENDBRANCH  28  30
ENDBRANCH  26  28
ENDBRANCH   4  24
TORSDOF 9
ENDMDL
MODEL 8
REMARK VINA RESULT:    -8.599      7.711     10.602
REMARK INTER + INTRA:         -13.420
REMARK INTER:                 -11.284
REMARK INTRA:                  -2.137
REMARK CONF_INDEPENDENT:        2.685
REMARK UNBOUND:                -2.137
REMARK  9 active torsions:
REMARK  status: ('A' for Active; 'I' for Inactive)
REMARK    1  A    between atoms: O_2  and  C_3 
REMARK    2  A    between atoms: C_3  and  C_5 
REMARK    3  A    between atoms: C_8  and  N_9 
REMARK    4  A    between atoms: N_9  and  C_10 
REMARK    5  A    between atoms: C_10  and  C_11 
REMARK       I    between atoms: C_11  and  N_13 
REMARK    6  A    between atoms: N_13  and  C_14 
REMARK    7  A    between atoms: C_17  and  C_18 
REMARK       I    between atoms: C_18  and  N_20 
REMARK    8  A    between atoms: C_21  and  N_20 
REMARK    9  A    between atoms: C_21  and  C_23 
ROOT
ATOM      1  C   UNL d   1      28.752 -13.557   4.243  0.00  0.00     0.034 C 
ATOM      2  C   UNL d   1      28.015 -13.526   5.431  0.00  0.00     0.030 C 
ATOM      3  C   UNL d   1      28.142 -12.430   6.327  0.00  0.00     0.019 C 
ATOM      4  C   UNL d   1      28.993 -11.353   6.037  0.00  0.00     0.032 C 
ATOM      5  C   UNL d   1      29.582 -11.385   4.780  0.00  0.00     0.019 C 
ATOM      6  C   UNL d   1      29.536 -12.473   3.936  0.00  0.00     0.030 C 
ENDROOT
BRANCH   1   7
ATOM      7  N   UNL d   1      28.668 -14.587   3.288  0.00  0.00    -0.326 N 
ATOM      8  C   UNL d   1      27.862 -14.467   2.147  0.00  0.00     0.239 C 
ATOM      9  O   UNL d   1      27.255 -13.441   1.827  0.00  0.00    -0.271 OA
ATOM     10  H   UNL d   1      29.222 -15.417   3.450  0.00  0.00     0.169 HD
BRANCH   8  11
ATOM     11  C   UNL d   1      27.797 -15.710   1.257  0.00  0.00     0.223 C 
BRANCH  11  12
ATOM     12  N   UNL d   1      26.966 -15.452   0.073  0.00  0.00    -0.381 N 
ATOM     13  H   UNL d   1      27.025 -14.496  -0.283  0.00  0.00     0.160 HD
BRANCH  12  14
ATOM     14  C   UNL d   1      25.865 -16.222  -0.264  0.00  0.00     0.028 A 
ATOM     15  C   UNL d   1      25.758 -17.545   0.189  0.00  0.00     0.030 A 
ATOM     16  C   UNL d   1      24.651 -18.347  -0.148  0.00  0.00     0.020 A 
ATOM     17  C   UNL d   1      23.584 -17.811  -0.878  0.00  0.00     0.039 A 
ATOM     18  C   UNL d   1      23.655 -16.483  -1.294  0.00  0.00     0.020 A 
ATOM     19  C   UNL d   1      24.780 -15.704  -0.979  0.00  0.00     0.030 A 
BRANCH  17  20
ATOM     20  C   UNL d   1      22.337 -18.608  -1.052  0.00  0.00     0.292 C 
ATOM     21  O   UNL d   1      22.147 -19.324  -2.014  0.00  0.00    -0.259 OA
BRANCH  20  22
ATOM     22  O   UNL d   1      21.478 -18.421  -0.011  0.00  0.00    -0.323 OA
ATOM     23  C   UNL d   1      20.214 -19.082  -0.179  0.00  0.00     0.213 C 
ENDBRANCH  20  22
ENDBRANCH  17  20
ENDBRANCH  12  14
ENDBRANCH  11  12
ENDBRANCH   8  11
ENDBRANCH   1   7
BRANCH   4  24
ATOM     24  C   UNL d   1      29.209 -10.259   7.055  0.00  0.00     0.252 C 
ATOM     25  O   UNL d   1      28.676  -9.162   6.869  0.00  0.00    -0.268 OA
ATOM     26  N   UNL d   1      29.952 -10.410   8.211  0.00  0.00    -0.349 N 
ATOM     27  H   UNL d   1      29.965  -9.566   8.773  0.00  0.00     0.163 HD
BRANCH  26  28
ATOM     28  C   UNL d   1      30.551 -11.575   8.840  0.00  0.00     0.114 C 
ATOM     29  C   UNL d   1      31.707 -12.157   8.039  0.00  0.00     0.037 C 
BRANCH  28  30
ATOM     30  C   UNL d   1      29.576 -12.559   9.433  0.00  0.00    -0.036 A 
ATOM     31  C   UNL d   1      28.604 -12.192  10.371  0.00  0.00     0.009 A 
ATOM     32  C   UNL d   1      27.833 -13.175  10.989  0.00  0.00     0.001 A 
ATOM     33  C   UNL d   1      28.000 -14.518  10.646  0.00  0.00     0.000 A 
ATOM     34  C   UNL d   1      29.004 -14.898   9.767  0.00  0.00     0.001 A 
ATOM     35  C   UNL d   1      29.805 -13.926   9.197  0.00  0.00     0.009 A 
ENDBRANCH  28  30
ENDBRANCH  26  28
ENDBRANCH   4  24
TORSDOF 9
ENDMDL
MODEL 9
REMARK VINA RESULT:    -8.435      6.183      9.844
REMARK INTER + INTRA:         -13.428
REMARK INTER:                 -11.119
REMARK INTRA:                  -2.309
REMARK CONF_INDEPENDENT:        2.685
REMARK UNBOUND:                -2.309
REMARK  9 active torsions:
REMARK  status: ('A' for Active; 'I' for Inactive)
REMARK    1  A    between atoms: O_2  and  C_3 
REMARK    2  A    between atoms: C_3  and  C_5 
REMARK    3  A    between atoms: C_8  and  N_9 
REMARK    4  A    between atoms: N_9  and  C_10 
REMARK    5  A    between atoms: C_10  and  C_11 
REMARK       I    between atoms: C_11  and  N_13 
REMARK    6  A    between atoms: N_13  and  C_14 
REMARK    7  A    between atoms: C_17  and  C_18 
REMARK       I    between atoms: C_18  and  N_20 
REMARK    8  A    between atoms: C_21  and  N_20 
REMARK    9  A    between atoms: C_21  and  C_23 
ROOT
ATOM      1  C   UNL d   1      28.399 -14.439   3.271  0.00  0.00     0.034 C 
ATOM      2  C   UNL d   1      29.602 -14.444   3.983  0.00  0.00     0.030 C 
ATOM      3  C   UNL d   1      29.682 -13.830   5.263  0.00  0.00     0.019 C 
ATOM      4  C   UNL d   1      28.559 -13.223   5.846  0.00  0.00     0.032 C 
ATOM      5  C   UNL d   1      27.370 -13.381   5.147  0.00  0.00     0.019 C 
ATOM      6  C   UNL d   1      27.290 -13.897   3.872  0.00  0.00     0.030 C 
ENDROOT
BRANCH   1   7
ATOM      7  N   UNL d   1      28.224 -15.045   2.012  0.00  0.00    -0.326 N 
ATOM      8  C   UNL d   1      27.511 -14.412   0.985  0.00  0.00     0.239 C 
ATOM      9  O   UNL d   1      27.075 -13.258   1.046  0.00  0.00    -0.271 OA
ATOM     10  H   UNL d   1      28.644 -15.953   1.873  0.00  0.00     0.169 HD
BRANCH   8  11
ATOM     11  C   UNL d   1      27.321 -15.241  -0.287  0.00  0.00     0.223 C 
BRANCH  11  12
ATOM     12  N   UNL d   1      26.842 -16.591   0.046  0.00  0.00    -0.381 N 
ATOM     13  H   UNL d   1      27.583 -17.283   0.164  0.00  0.00     0.160 HD
BRANCH  12  14
ATOM     14  C   UNL d   1      25.557 -17.028  -0.228  0.00  0.00     0.028 A 
ATOM     15  C   UNL d   1      25.200 -18.367  -0.012  0.00  0.00     0.030 A 
ATOM     16  C   UNL d   1      23.901 -18.833  -0.292  0.00  0.00     0.020 A 
ATOM     17  C   UNL d   1      22.906 -17.945  -0.715  0.00  0.00     0.039 A 
ATOM     18  C   UNL d   1      23.234 -16.602  -0.890  0.00  0.00     0.020 A 
ATOM     19  C   UNL d   1      24.542 -16.157  -0.639  0.00  0.00     0.030 A 
BRANCH  17  20
ATOM     20  C   UNL d   1      21.495 -18.413  -0.812  0.00  0.00     0.292 C 
ATOM     21  O   UNL d   1      20.605 -17.721  -1.266  0.00  0.00    -0.259 OA
BRANCH  20  22
ATOM     22  O   UNL d   1      21.357 -19.682  -0.335  0.00  0.00    -0.323 OA
ATOM     23  C   UNL d   1      19.991 -20.093  -0.171  0.00  0.00     0.213 C 
ENDBRANCH  20  22
ENDBRANCH  17  20
ENDBRANCH  12  14
ENDBRANCH  11  12
ENDBRANCH   8  11
ENDBRANCH   1   7
BRANCH   4  24
ATOM     24  C   UNL d   1      28.692 -12.471   7.148  0.00  0.00     0.252 C 
ATOM     25  O   UNL d   1      28.448 -13.062   8.203  0.00  0.00    -0.268 OA
ATOM     26  N   UNL d   1      29.099 -11.153   7.246  0.00  0.00    -0.349 N 
ATOM     27  H   UNL d   1      29.140 -10.834   8.207  0.00  0.00     0.163 HD
BRANCH  26  28
ATOM     28  C   UNL d   1      29.635 -10.223   6.266  0.00  0.00     0.114 C 
ATOM     29  C   UNL d   1      29.930  -8.848   6.849  0.00  0.00     0.037 C 
BRANCH  28  30
ATOM     30  C   UNL d   1      28.972 -10.258   4.914  0.00  0.00    -0.036 A 
ATOM     31  C   UNL d   1      27.608  -9.996   4.732  0.00  0.00     0.009 A 
ATOM     32  C   UNL d   1      27.029 -10.190   3.479  0.00  0.00     0.001 A 
ATOM     33  C   UNL d   1      27.811 -10.602   2.398  0.00  0.00     0.000 A 
ATOM     34  C   UNL d   1      29.147 -10.926   2.584  0.00  0.00     0.001 A 
ATOM     35  C   UNL d   1      29.707 -10.787   3.840  0.00  0.00     0.009 A 
ENDBRANCH  28  30
ENDBRANCH  26  28
ENDBRANCH   4  24
TORSDOF 9
ENDMDL
