MODEL 1
REMARK VINA RESULT:   -31.477      0.000      0.000
REMARK INTER + INTRA:         -35.151
REMARK INTER:                 -33.267
REMARK INTRA:                  -1.884
REMARK CONF_INDEPENDENT:        1.790
REMARK UNBOUND:                -1.884
REMARK  6 active torsions:
REMARK  status: ('A' for Active; 'I' for Inactive)
REMARK       I    between atoms: C_2  and  N_3 
REMARK       I    between atoms: C_2  and  N_10 
REMARK    1  A    between atoms: N_3  and  C_4 
REMARK    2  A    between atoms: N_10  and  C_11 
REMARK    3  A    between atoms: C_11  and  C_12 
REMARK    4  A    between atoms: C_11  and  C_19 
REMARK    5  A    between atoms: C_12  and  C_13 
REMARK       I    between atoms: C_19  and  N_21 
REMARK    6  A    between atoms: N_24  and  C_25 
ROOT
ATOM      1  C   UNL d   1      25.342 -15.612  -0.934  0.00  0.00     0.182 C 
ENDROOT
BRANCH   1   2
ATOM      2  N   UNL d   1      25.374 -17.090  -0.721  0.00  0.00    -0.329 N 
ATOM      3  C   UNL d   1      24.409 -18.068  -0.600  0.00  0.00     0.323 C 
ATOM      4  O   UNL d   1      24.802 -19.150  -0.142  0.00  0.00    -0.247 OA
ATOM      5  N   UNL d   1      23.147 -17.820  -1.034  0.00  0.00    -0.286 N 
ATOM      6  H   UNL d   1      22.925 -16.940  -1.460  0.00  0.00     0.172 HD
ATOM      7  H   UNL d   1      26.281 -17.471  -0.462  0.00  0.00     0.165 HD
BRANCH   5   8
ATOM      8  C   UNL d   1      21.999 -18.572  -0.748  0.00  0.00     0.199 C 
ATOM      9  N   UNL d   1      21.080 -18.885  -1.645  0.00  0.00    -0.122 NA
ATOM     10  N   UNL d   1      19.892 -19.324  -1.051  0.00  0.00    -0.128 NA
ATOM     11  C   UNL d   1      19.969 -19.353   0.269  0.00  0.00     0.190 C 
ATOM     12  S   UNL d   1      18.673 -19.720   1.318  0.00  0.00    -0.048 SA
ATOM     13  S   UNL d   1      21.545 -18.950   0.853  0.00  0.00    -0.017 SA
ENDBRANCH   5   8
ENDBRANCH   1   2
BRANCH   1  14
ATOM     14  C   UNL d   1      26.746 -15.015  -0.883  0.00  0.00     0.073 C 
BRANCH  14  15
ATOM     15  C   UNL d   1      27.158 -14.358   0.387  0.00  0.00    -0.056 A 
ATOM     16  C   UNL d   1      27.767 -15.097   1.402  0.00  0.00     0.007 A 
ATOM     17  C   UNL d   1      27.952 -14.496   2.638  0.00  0.00     0.001 A 
ATOM     18  C   UNL d   1      27.558 -13.169   2.843  0.00  0.00     0.000 A 
ATOM     19  C   UNL d   1      26.944 -12.438   1.829  0.00  0.00     0.001 A 
ATOM     20  C   UNL d   1      26.783 -13.015   0.584  0.00  0.00     0.007 A 
ENDBRANCH  14  15
ENDBRANCH   1  14
BRANCH   1  21
ATOM     21  C   UNL d   1      24.618 -15.153  -2.300  0.00  0.00     0.243 C 
ATOM     22  O   UNL d   1      23.391 -15.009  -2.334  0.00  0.00    -0.271 OA
ATOM     23  N   UNL d   1      25.397 -14.736  -3.402  0.00  0.00    -0.347 N 
ATOM     24  C   UNL d   1      24.967 -13.616  -4.264  0.00  0.00     0.145 C 
ATOM     25  C   UNL d   1      26.541 -15.424  -4.017  0.00  0.00     0.145 C 
ATOM     26  C   UNL d   1      26.145 -12.594  -4.428  0.00  0.00     0.144 C 
ATOM     27  N   UNL d   1      27.420 -13.249  -4.832  0.00  0.00    -0.364 N 
ATOM     28  C   UNL d   1      27.749 -14.475  -4.067  0.00  0.00     0.144 C 
BRANCH  27  29
ATOM     29  C   UNL d   1      28.070 -12.950  -6.001  0.00  0.00     0.102 A 
ATOM     30  C   UNL d   1      27.677 -11.954  -6.908  0.00  0.00     0.048 A 
ATOM     31  C   UNL d   1      28.379 -11.765  -8.104  0.00  0.00     0.005 A 
ATOM     32  C   UNL d   1      29.445 -12.597  -8.415  0.00  0.00     0.017 A 
ATOM     33  C   UNL d   1      29.791 -13.590  -7.510  0.00  0.00     0.089 A 
ATOM     34  N   UNL d   1      29.116 -13.719  -6.356  0.00  0.00    -0.352 N 
ATOM     35  H   UNL d   1      29.355 -14.473  -5.718  0.00  0.00     0.166 HD
ENDBRANCH  27  29
ENDBRANCH   1  21
TORSDOF 6
ENDMDL
MODEL 2
REMARK VINA RESULT:   -31.287      2.090      2.696
REMARK INTER + INTRA:         -34.852
REMARK INTER:                 -33.077
REMARK INTRA:                  -1.775
REMARK CONF_INDEPENDENT:        1.790
REMARK UNBOUND:                -1.775
REMARK  6 active torsions:
REMARK  status: ('A' for Active; 'I' for Inactive)
REMARK       I    between atoms: C_2  and  N_3 
REMARK       I    between atoms: C_2  and  N_10 
REMARK    1  A    between atoms: N_3  and  C_4 
REMARK    2  A    between atoms: N_10  and  C_11 
REMARK    3  A    between atoms: C_11  and  C_12 
REMARK    4  A    between atoms: C_11  and  C_19 
REMARK    5  A    between atoms: C_12  and  C_13 
REMARK       I    between atoms: C_19  and  N_21 
REMARK    6  A    between atoms: N_24  and  C_25 
ROOT
ATOM      1  C   UNL d   1      25.271 -15.682  -0.649  0.00  0.00     0.182 C 
ENDROOT
BRANCH   1   2
ATOM      2  N   UNL d   1      24.980 -16.926   0.126  0.00  0.00    -0.329 N 
ATOM      3  C   UNL d   1      23.925 -17.813   0.163  0.00  0.00     0.323 C 
ATOM      4  O   UNL d   1      23.904 -18.575   1.140  0.00  0.00    -0.247 OA
ATOM      5  N   UNL d   1      23.041 -17.846  -0.867  0.00  0.00    -0.286 N 
ATOM      6  H   UNL d   1      23.168 -17.244  -1.658  0.00  0.00     0.172 HD
ATOM      7  H   UNL d   1      25.608 -17.108   0.904  0.00  0.00     0.165 HD
BRANCH   5   8
ATOM      8  C   UNL d   1      21.785 -18.470  -0.875  0.00  0.00     0.199 C 
ATOM      9  N   UNL d   1      20.679 -17.894  -1.310  0.00  0.00    -0.122 NA
ATOM     10  N   UNL d   1      19.530 -18.577  -0.895  0.00  0.00    -0.128 NA
ATOM     11  C   UNL d   1      19.815 -19.657  -0.187  0.00  0.00     0.190 C 
ATOM     12  S   UNL d   1      18.664 -20.657   0.579  0.00  0.00    -0.048 SA
ATOM     13  S   UNL d   1      21.514 -19.959  -0.086  0.00  0.00    -0.017 SA
ENDBRANCH   5   8
ENDBRANCH   1   2
BRANCH   1  14
ATOM     14  C   UNL d   1      26.491 -14.954  -0.090  0.00  0.00     0.073 C 
BRANCH  14  15
ATOM     15  C   UNL d   1      27.785 -15.690  -0.101  0.00  0.00    -0.056 A 
ATOM     16  C   UNL d   1      28.993 -15.002   0.011  0.00  0.00     0.007 A 
ATOM     17  C   UNL d   1      30.173 -15.697  -0.204  0.00  0.00     0.001 A 
ATOM     18  C   UNL d   1      30.142 -17.065  -0.499  0.00  0.00     0.000 A 
ATOM     19  C   UNL d   1      28.933 -17.746  -0.616  0.00  0.00     0.001 A 
ATOM     20  C   UNL d   1      27.752 -17.071  -0.373  0.00  0.00     0.007 A 
ENDBRANCH  14  15
ENDBRANCH   1  14
BRANCH   1  21
ATOM     21  C   UNL d   1      25.472 -15.917  -2.232  0.00  0.00     0.243 C 
ATOM     22  O   UNL d   1      25.082 -16.965  -2.759  0.00  0.00    -0.271 OA
ATOM     23  N   UNL d   1      25.921 -14.855  -3.048  0.00  0.00    -0.347 N 
ATOM     24  C   UNL d   1      25.386 -14.656  -4.410  0.00  0.00     0.145 C 
ATOM     25  C   UNL d   1      27.081 -13.977  -2.839  0.00  0.00     0.145 C 
ATOM     26  C   UNL d   1      24.933 -13.166  -4.588  0.00  0.00     0.144 C 
ATOM     27  N   UNL d   1      25.984 -12.194  -4.174  0.00  0.00    -0.364 N 
ATOM     28  C   UNL d   1      26.633 -12.508  -2.879  0.00  0.00     0.144 C 
BRANCH  27  29
ATOM     29  C   UNL d   1      26.533 -11.282  -5.038  0.00  0.00     0.102 A 
ATOM     30  C   UNL d   1      27.837 -10.774  -4.949  0.00  0.00     0.048 A 
ATOM     31  C   UNL d   1      28.284  -9.802  -5.850  0.00  0.00     0.005 A 
ATOM     32  C   UNL d   1      27.416  -9.306  -6.814  0.00  0.00     0.017 A 
ATOM     33  C   UNL d   1      26.125  -9.810  -6.858  0.00  0.00     0.089 A 
ATOM     34  N   UNL d   1      25.743 -10.768  -5.997  0.00  0.00    -0.352 N 
ATOM     35  H   UNL d   1      24.783 -11.103  -6.016  0.00  0.00     0.166 HD
ENDBRANCH  27  29
ENDBRANCH   1  21
TORSDOF 6
ENDMDL
MODEL 3
REMARK VINA RESULT:   -31.115      2.063      2.974
REMARK INTER + INTRA:         -34.854
REMARK INTER:                 -32.905
REMARK INTRA:                  -1.949
REMARK CONF_INDEPENDENT:        1.790
REMARK UNBOUND:                -1.949
REMARK  6 active torsions:
REMARK  status: ('A' for Active; 'I' for Inactive)
REMARK       I    between atoms: C_2  and  N_3 
REMARK       I    between atoms: C_2  and  N_10 
REMARK    1  A    between atoms: N_3  and  C_4 
REMARK    2  A    between atoms: N_10  and  C_11 
REMARK    3  A    between atoms: C_11  and  C_12 
REMARK    4  A    between atoms: C_11  and  C_19 
REMARK    5  A    between atoms: C_12  and  C_13 
REMARK       I    between atoms: C_19  and  N_21 
REMARK    6  A    between atoms: N_24  and  C_25 
ROOT
ATOM      1  C   UNL d   1      25.948 -15.997  -0.024  0.00  0.00     0.182 C 
ENDROOT
BRANCH   1   2
ATOM      2  N   UNL d   1      25.414 -16.567  -1.298  0.00  0.00    -0.329 N 
ATOM      3  C   UNL d   1      24.270 -17.256  -1.640  0.00  0.00     0.323 C 
ATOM      4  O   UNL d   1      24.299 -17.822  -2.742  0.00  0.00    -0.247 OA
ATOM      5  N   UNL d   1      23.194 -17.222  -0.813  0.00  0.00    -0.286 N 
ATOM      6  H   UNL d   1      23.225 -16.680   0.030  0.00  0.00     0.172 HD
ATOM      7  H   UNL d   1      26.075 -16.597  -2.070  0.00  0.00     0.165 HD
BRANCH   5   8
ATOM      8  C   UNL d   1      22.073 -18.062  -0.858  0.00  0.00     0.199 C 
ATOM      9  N   UNL d   1      20.878 -17.676  -1.271  0.00  0.00    -0.122 NA
ATOM     10  N   UNL d   1      19.875 -18.576  -0.896  0.00  0.00    -0.128 NA
ATOM     11  C   UNL d   1      20.354 -19.620  -0.240  0.00  0.00     0.190 C 
ATOM     12  S   UNL d   1      19.406 -20.849   0.470  0.00  0.00    -0.048 SA
ATOM     13  S   UNL d   1      22.080 -19.612  -0.145  0.00  0.00    -0.017 SA
ENDBRANCH   5   8
ENDBRANCH   1   2
BRANCH   1  14
ATOM     14  C   UNL d   1      27.186 -16.757   0.446  0.00  0.00     0.073 C 
BRANCH  14  15
ATOM     15  C   UNL d   1      28.442 -16.551  -0.326  0.00  0.00    -0.056 A 
ATOM     16  C   UNL d   1      29.530 -15.897   0.252  0.00  0.00     0.007 A 
ATOM     17  C   UNL d   1      30.600 -15.549  -0.558  0.00  0.00     0.001 A 
ATOM     18  C   UNL d   1      30.590 -15.876  -1.919  0.00  0.00     0.000 A 
ATOM     19  C   UNL d   1      29.498 -16.523  -2.493  0.00  0.00     0.001 A 
ATOM     20  C   UNL d   1      28.440 -16.903  -1.689  0.00  0.00     0.007 A 
ENDBRANCH  14  15
ENDBRANCH   1  14
BRANCH   1  21
ATOM     21  C   UNL d   1      26.283 -14.422  -0.090  0.00  0.00     0.243 C 
ATOM     22  O   UNL d   1      26.677 -13.828   0.920  0.00  0.00    -0.271 OA
ATOM     23  N   UNL d   1      26.309 -13.761  -1.338  0.00  0.00    -0.347 N 
ATOM     24  C   UNL d   1      27.311 -12.716  -1.632  0.00  0.00     0.145 C 
ATOM     25  C   UNL d   1      25.290 -13.781  -2.397  0.00  0.00     0.145 C 
ATOM     26  C   UNL d   1      28.009 -13.023  -3.002  0.00  0.00     0.144 C 
ATOM     27  N   UNL d   1      27.032 -13.287  -4.096  0.00  0.00    -0.364 N 
ATOM     28  C   UNL d   1      25.932 -14.208  -3.726  0.00  0.00     0.144 C 
BRANCH  27  29
ATOM     29  C   UNL d   1      26.960 -12.517  -5.228  0.00  0.00     0.102 A 
ATOM     30  C   UNL d   1      27.987 -12.378  -6.173  0.00  0.00     0.048 A 
ATOM     31  C   UNL d   1      27.833 -11.520  -7.268  0.00  0.00     0.005 A 
ATOM     32  C   UNL d   1      26.672 -10.770  -7.396  0.00  0.00     0.017 A 
ATOM     33  C   UNL d   1      25.688 -10.910  -6.429  0.00  0.00     0.089 A 
ATOM     34  N   UNL d   1      25.857 -11.768  -5.411  0.00  0.00    -0.352 N 
ATOM     35  H   UNL d   1      25.145 -11.836  -4.689  0.00  0.00     0.166 HD
ENDBRANCH  27  29
ENDBRANCH   1  21
TORSDOF 6
ENDMDL
MODEL 4
REMARK VINA RESULT:   -30.982      2.829      5.804
REMARK INTER + INTRA:         -34.884
REMARK INTER:                 -32.771
REMARK INTRA:                  -2.113
REMARK CONF_INDEPENDENT:        1.790
REMARK UNBOUND:                -2.113
REMARK  6 active torsions:
REMARK  status: ('A' for Active; 'I' for Inactive)
REMARK       I    between atoms: C_2  and  N_3 
REMARK       I    between atoms: C_2  and  N_10 
REMARK    1  A    between atoms: N_3  and  C_4 
REMARK    2  A    between atoms: N_10  and  C_11 
REMARK    3  A    between atoms: C_11  and  C_12 
REMARK    4  A    between atoms: C_11  and  C_19 
REMARK    5  A    between atoms: C_12  and  C_13 
REMARK       I    between atoms: C_19  and  N_21 
REMARK    6  A    between atoms: N_24  and  C_25 
ROOT
ATOM      1  C   UNL d   1      25.468 -16.151  -2.119  0.00  0.00     0.182 C 
ENDROOT
BRANCH   1   2
ATOM      2  N   UNL d   1      24.127 -15.665  -1.675  0.00  0.00    -0.329 N 
ATOM      3  C   UNL d   1      22.964 -16.285  -1.268  0.00  0.00     0.323 C 
ATOM      4  O   UNL d   1      21.956 -15.564  -1.248  0.00  0.00    -0.247 OA
ATOM      5  N   UNL d   1      23.001 -17.580  -0.863  0.00  0.00    -0.286 N 
ATOM      6  H   UNL d   1      23.873 -18.075  -0.841  0.00  0.00     0.172 HD
ATOM      7  H   UNL d   1      23.951 -14.676  -1.829  0.00  0.00     0.165 HD
BRANCH   5   8
ATOM      8  C   UNL d   1      21.905 -18.435  -0.684  0.00  0.00     0.199 C 
ATOM      9  N   UNL d   1      21.057 -18.758  -1.645  0.00  0.00    -0.122 NA
ATOM     10  N   UNL d   1      19.881 -19.325  -1.141  0.00  0.00    -0.128 NA
ATOM     11  C   UNL d   1      19.898 -19.434   0.176  0.00  0.00     0.190 C 
ATOM     12  S   UNL d   1      18.588 -19.967   1.132  0.00  0.00    -0.048 SA
ATOM     13  S   UNL d   1      21.408 -18.950   0.865  0.00  0.00    -0.017 SA
ENDBRANCH   5   8
ENDBRANCH   1   2
BRANCH   1  14
ATOM     14  C   UNL d   1      26.376 -14.987  -2.509  0.00  0.00     0.073 C 
BRANCH  14  15
ATOM     15  C   UNL d   1      27.252 -15.180  -3.698  0.00  0.00    -0.056 A 
ATOM     16  C   UNL d   1      28.598 -15.509  -3.540  0.00  0.00     0.007 A 
ATOM     17  C   UNL d   1      29.421 -15.483  -4.656  0.00  0.00     0.001 A 
ATOM     18  C   UNL d   1      28.896 -15.159  -5.912  0.00  0.00     0.000 A 
ATOM     19  C   UNL d   1      27.552 -14.824  -6.063  0.00  0.00     0.001 A 
ATOM     20  C   UNL d   1      26.716 -14.878  -4.964  0.00  0.00     0.007 A 
ENDBRANCH  14  15
ENDBRANCH   1  14
BRANCH   1  21
ATOM     21  C   UNL d   1      26.228 -17.081  -1.043  0.00  0.00     0.243 C 
ATOM     22  O   UNL d   1      25.862 -18.248  -0.863  0.00  0.00    -0.271 OA
ATOM     23  N   UNL d   1      27.424 -16.628  -0.444  0.00  0.00    -0.347 N 
ATOM     24  C   UNL d   1      28.544 -17.553  -0.173  0.00  0.00     0.145 C 
ATOM     25  C   UNL d   1      27.679 -15.337   0.210  0.00  0.00     0.145 C 
ATOM     26  C   UNL d   1      29.875 -16.951  -0.742  0.00  0.00     0.144 C 
ATOM     27  N   UNL d   1      30.099 -15.543  -0.308  0.00  0.00    -0.364 N 
ATOM     28  C   UNL d   1      28.909 -14.669  -0.426  0.00  0.00     0.144 C 
BRANCH  27  29
ATOM     29  C   UNL d   1      31.189 -15.159   0.429  0.00  0.00     0.102 A 
ATOM     30  C   UNL d   1      32.404 -14.709  -0.107  0.00  0.00     0.048 A 
ATOM     31  C   UNL d   1      33.478 -14.393   0.733  0.00  0.00     0.005 A 
ATOM     32  C   UNL d   1      33.352 -14.568   2.105  0.00  0.00     0.017 A 
ATOM     33  C   UNL d   1      32.147 -15.041   2.601  0.00  0.00     0.089 A 
ATOM     34  N   UNL d   1      31.127 -15.301   1.766  0.00  0.00    -0.352 N 
ATOM     35  H   UNL d   1      30.261 -15.681   2.137  0.00  0.00     0.166 HD
ENDBRANCH  27  29
ENDBRANCH   1  21
TORSDOF 6
ENDMDL
MODEL 5
REMARK VINA RESULT:   -30.816      2.418      5.702
REMARK INTER + INTRA:         -34.427
REMARK INTER:                 -32.605
REMARK INTRA:                  -1.822
REMARK CONF_INDEPENDENT:        1.790
REMARK UNBOUND:                -1.822
REMARK  6 active torsions:
REMARK  status: ('A' for Active; 'I' for Inactive)
REMARK       I    between atoms: C_2  and  N_3 
REMARK       I    between atoms: C_2  and  N_10 
REMARK    1  A    between atoms: N_3  and  C_4 
REMARK    2  A    between atoms: N_10  and  C_11 
REMARK    3  A    between atoms: C_11  and  C_12 
REMARK    4  A    between atoms: C_11  and  C_19 
REMARK    5  A    between atoms: C_12  and  C_13 
REMARK       I    between atoms: C_19  and  N_21 
REMARK    6  A    between atoms: N_24  and  C_25 
ROOT
ATOM      1  C   UNL d   1      25.700 -16.812  -1.699  0.00  0.00     0.182 C 
ENDROOT
BRANCH   1   2
ATOM      2  N   UNL d   1      25.196 -17.502  -0.474  0.00  0.00    -0.329 N 
ATOM      3  C   UNL d   1      24.008 -18.114  -0.133  0.00  0.00     0.323 C 
ATOM      4  O   UNL d   1      23.847 -18.327   1.077  0.00  0.00    -0.247 OA
ATOM      5  N   UNL d   1      23.147 -18.496  -1.111  0.00  0.00    -0.286 N 
ATOM      6  H   UNL d   1      23.384 -18.353  -2.074  0.00  0.00     0.172 HD
ATOM      7  H   UNL d   1      25.773 -17.389   0.356  0.00  0.00     0.165 HD
BRANCH   5   8
ATOM      8  C   UNL d   1      21.806 -18.871  -0.948  0.00  0.00     0.199 C 
ATOM      9  N   UNL d   1      20.788 -18.219  -1.481  0.00  0.00    -0.122 NA
ATOM     10  N   UNL d   1      19.568 -18.575  -0.895  0.00  0.00    -0.128 NA
ATOM     11  C   UNL d   1      19.709 -19.502   0.037  0.00  0.00     0.190 C 
ATOM     12  S   UNL d   1      18.455 -20.082   1.039  0.00  0.00    -0.048 SA
ATOM     13  S   UNL d   1      21.336 -20.072   0.170  0.00  0.00    -0.017 SA
ENDBRANCH   5   8
ENDBRANCH   1   2
BRANCH   1  14
ATOM     14  C   UNL d   1      24.772 -15.673  -2.115  0.00  0.00     0.073 C 
BRANCH  14  15
ATOM     15  C   UNL d   1      25.272 -14.738  -3.160  0.00  0.00    -0.056 A 
ATOM     16  C   UNL d   1      25.860 -15.227  -4.326  0.00  0.00     0.007 A 
ATOM     17  C   UNL d   1      26.489 -14.330  -5.176  0.00  0.00     0.001 A 
ATOM     18  C   UNL d   1      26.504 -12.964  -4.875  0.00  0.00     0.000 A 
ATOM     19  C   UNL d   1      25.922 -12.481  -3.705  0.00  0.00     0.001 A 
ATOM     20  C   UNL d   1      25.264 -13.361  -2.866  0.00  0.00     0.007 A 
ENDBRANCH  14  15
ENDBRANCH   1  14
BRANCH   1  21
ATOM     21  C   UNL d   1      27.207 -16.251  -1.573  0.00  0.00     0.243 C 
ATOM     22  O   UNL d   1      28.074 -16.615  -2.374  0.00  0.00    -0.271 OA
ATOM     23  N   UNL d   1      27.493 -15.204  -0.669  0.00  0.00    -0.347 N 
ATOM     24  C   UNL d   1      28.453 -14.135  -1.013  0.00  0.00     0.145 C 
ATOM     25  C   UNL d   1      27.138 -15.112   0.754  0.00  0.00     0.145 C 
ATOM     26  C   UNL d   1      27.802 -12.734  -0.742  0.00  0.00     0.144 C 
ATOM     27  N   UNL d   1      27.204 -12.633   0.618  0.00  0.00    -0.364 N 
ATOM     28  C   UNL d   1      26.381 -13.799   1.015  0.00  0.00     0.144 C 
BRANCH  27  29
ATOM     29  C   UNL d   1      27.624 -11.715   1.547  0.00  0.00     0.102 A 
ATOM     30  C   UNL d   1      28.842 -11.771   2.239  0.00  0.00     0.048 A 
ATOM     31  C   UNL d   1      29.152 -10.813   3.211  0.00  0.00     0.005 A 
ATOM     32  C   UNL d   1      28.228  -9.824   3.520  0.00  0.00     0.017 A 
ATOM     33  C   UNL d   1      27.022  -9.813   2.837  0.00  0.00     0.089 A 
ATOM     34  N   UNL d   1      26.774 -10.729   1.887  0.00  0.00    -0.352 N 
ATOM     35  H   UNL d   1      25.872 -10.733   1.418  0.00  0.00     0.166 HD
ENDBRANCH  27  29
ENDBRANCH   1  21
TORSDOF 6
ENDMDL
MODEL 6
REMARK VINA RESULT:   -30.700      2.587      5.211
REMARK INTER + INTRA:         -34.098
REMARK INTER:                 -32.490
REMARK INTRA:                  -1.608
REMARK CONF_INDEPENDENT:        1.790
REMARK UNBOUND:                -1.608
REMARK  6 active torsions:
REMARK  status: ('A' for Active; 'I' for Inactive)
REMARK       I    between atoms: C_2  and  N_3 
REMARK       I    between atoms: C_2  and  N_10 
REMARK    1  A    between atoms: N_3  and  C_4 
REMARK    2  A    between atoms: N_10  and  C_11 
REMARK    3  A    between atoms: C_11  and  C_12 
REMARK    4  A    between atoms: C_11  and  C_19 
REMARK    5  A    between atoms: C_12  and  C_13 
REMARK       I    between atoms: C_19  and  N_21 
REMARK    6  A    between atoms: N_24  and  C_25 
ROOT
ATOM      1  C   UNL d   1      25.103 -15.887  -2.767  0.00  0.00     0.182 C 
ENDROOT
BRANCH   1   2
ATOM      2  N   UNL d   1      25.036 -16.532  -1.422  0.00  0.00    -0.329 N 
ATOM      3  C   UNL d   1      24.130 -17.361  -0.794  0.00  0.00     0.323 C 
ATOM      4  O   UNL d   1      24.266 -17.467   0.433  0.00  0.00    -0.247 OA
ATOM      5  N   UNL d   1      23.219 -18.041  -1.536  0.00  0.00    -0.286 N 
ATOM      6  H   UNL d   1      23.221 -17.957  -2.535  0.00  0.00     0.172 HD
ATOM      7  H   UNL d   1      25.716 -16.195  -0.745  0.00  0.00     0.165 HD
BRANCH   5   8
ATOM      8  C   UNL d   1      22.074 -18.697  -1.064  0.00  0.00     0.199 C 
ATOM      9  N   UNL d   1      21.033 -19.000  -1.820  0.00  0.00    -0.122 NA
ATOM     10  N   UNL d   1      19.905 -19.323  -1.059  0.00  0.00    -0.128 NA
ATOM     11  C   UNL d   1      20.145 -19.281   0.240  0.00  0.00     0.190 C 
ATOM     12  S   UNL d   1      18.971 -19.498   1.460  0.00  0.00    -0.048 SA
ATOM     13  S   UNL d   1      21.802 -18.950   0.601  0.00  0.00    -0.017 SA
ENDBRANCH   5   8
ENDBRANCH   1   2
BRANCH   1  14
ATOM     14  C   UNL d   1      24.499 -14.485  -2.740  0.00  0.00     0.073 C 
BRANCH  14  15
ATOM     15  C   UNL d   1      25.363 -13.365  -3.206  0.00  0.00    -0.056 A 
ATOM     16  C   UNL d   1      26.101 -12.613  -2.292  0.00  0.00     0.007 A 
ATOM     17  C   UNL d   1      26.731 -11.462  -2.740  0.00  0.00     0.001 A 
ATOM     18  C   UNL d   1      26.645 -11.088  -4.086  0.00  0.00     0.000 A 
ATOM     19  C   UNL d   1      25.900 -11.840  -4.993  0.00  0.00     0.001 A 
ATOM     20  C   UNL d   1      25.295 -13.005  -4.565  0.00  0.00     0.007 A 
ENDBRANCH  14  15
ENDBRANCH   1  14
BRANCH   1  21
ATOM     21  C   UNL d   1      26.586 -15.816  -3.397  0.00  0.00     0.243 C 
ATOM     22  O   UNL d   1      26.737 -15.671  -4.615  0.00  0.00    -0.271 OA
ATOM     23  N   UNL d   1      27.708 -15.730  -2.543  0.00  0.00    -0.347 N 
ATOM     24  C   UNL d   1      28.871 -14.887  -2.888  0.00  0.00     0.145 C 
ATOM     25  C   UNL d   1      28.035 -16.575  -1.386  0.00  0.00     0.145 C 
ATOM     26  C   UNL d   1      29.235 -13.966  -1.673  0.00  0.00     0.144 C 
ATOM     27  N   UNL d   1      29.360 -14.723  -0.396  0.00  0.00    -0.364 N 
ATOM     28  C   UNL d   1      28.268 -15.693  -0.149  0.00  0.00     0.144 C 
BRANCH  27  29
ATOM     29  C   UNL d   1      30.523 -14.767   0.329  0.00  0.00     0.102 A 
ATOM     30  C   UNL d   1      31.811 -14.629  -0.207  0.00  0.00     0.048 A 
ATOM     31  C   UNL d   1      32.939 -14.747   0.613  0.00  0.00     0.005 A 
ATOM     32  C   UNL d   1      32.781 -15.043   1.960  0.00  0.00     0.017 A 
ATOM     33  C   UNL d   1      31.495 -15.201   2.453  0.00  0.00     0.089 A 
ATOM     34  N   UNL d   1      30.436 -15.047   1.642  0.00  0.00    -0.352 N 
ATOM     35  H   UNL d   1      29.500 -15.201   2.007  0.00  0.00     0.166 HD
ENDBRANCH  27  29
ENDBRANCH   1  21
TORSDOF 6
ENDMDL
MODEL 7
REMARK VINA RESULT:   -30.533      2.621      5.478
REMARK INTER + INTRA:         -34.109
REMARK INTER:                 -32.323
REMARK INTRA:                  -1.785
REMARK CONF_INDEPENDENT:        1.790
REMARK UNBOUND:                -1.785
REMARK  6 active torsions:
REMARK  status: ('A' for Active; 'I' for Inactive)
REMARK       I    between atoms: C_2  and  N_3 
REMARK       I    between atoms: C_2  and  N_10 
REMARK    1  A    between atoms: N_3  and  C_4 
REMARK    2  A    between atoms: N_10  and  C_11 
REMARK    3  A    between atoms: C_11  and  C_12 
REMARK    4  A    between atoms: C_11  and  C_19 
REMARK    5  A    between atoms: C_12  and  C_13 
REMARK       I    between atoms: C_19  and  N_21 
REMARK    6  A    between atoms: N_24  and  C_25 
ROOT
ATOM      1  C   UNL d   1      25.941 -16.873  -0.815  0.00  0.00     0.182 C 
ENDROOT
BRANCH   1   2
ATOM      2  N   UNL d   1      24.639 -16.142  -0.840  0.00  0.00    -0.329 N 
ATOM      3  C   UNL d   1      23.315 -16.529  -0.818  0.00  0.00     0.323 C 
ATOM      4  O   UNL d   1      22.499 -15.655  -1.142  0.00  0.00    -0.247 OA
ATOM      5  N   UNL d   1      22.990 -17.777  -0.394  0.00  0.00    -0.286 N 
ATOM      6  H   UNL d   1      23.706 -18.404  -0.079  0.00  0.00     0.172 HD
ATOM      7  H   UNL d   1      24.702 -15.152  -1.066  0.00  0.00     0.165 HD
BRANCH   5   8
ATOM      8  C   UNL d   1      21.758 -18.425  -0.560  0.00  0.00     0.199 C 
ATOM      9  N   UNL d   1      20.716 -17.883  -1.165  0.00  0.00    -0.122 NA
ATOM     10  N   UNL d   1      19.530 -18.575  -0.895  0.00  0.00    -0.128 NA
ATOM     11  C   UNL d   1      19.727 -19.629  -0.121  0.00  0.00     0.190 C 
ATOM     12  S   UNL d   1      18.494 -20.628   0.506  0.00  0.00    -0.048 SA
ATOM     13  S   UNL d   1      21.399 -19.895   0.229  0.00  0.00    -0.017 SA
ENDBRANCH   5   8
ENDBRANCH   1   2
BRANCH   1  14
ATOM     14  C   UNL d   1      26.758 -16.592  -2.074  0.00  0.00     0.073 C 
BRANCH  14  15
ATOM     15  C   UNL d   1      26.532 -15.286  -2.752  0.00  0.00    -0.056 A 
ATOM     16  C   UNL d   1      25.403 -15.086  -3.546  0.00  0.00     0.007 A 
ATOM     17  C   UNL d   1      25.330 -13.934  -4.314  0.00  0.00     0.001 A 
ATOM     18  C   UNL d   1      26.360 -12.987  -4.266  0.00  0.00     0.000 A 
ATOM     19  C   UNL d   1      27.489 -13.196  -3.477  0.00  0.00     0.001 A 
ATOM     20  C   UNL d   1      27.558 -14.324  -2.682  0.00  0.00     0.007 A 
ENDBRANCH  14  15
ENDBRANCH   1  14
BRANCH   1  21
ATOM     21  C   UNL d   1      26.847 -16.574   0.485  0.00  0.00     0.243 C 
ATOM     22  O   UNL d   1      27.378 -17.505   1.099  0.00  0.00    -0.271 OA
ATOM     23  N   UNL d   1      27.187 -15.243   0.812  0.00  0.00    -0.347 N 
ATOM     24  C   UNL d   1      28.523 -14.902   1.343  0.00  0.00     0.145 C 
ATOM     25  C   UNL d   1      26.296 -14.081   0.932  0.00  0.00     0.145 C 
ATOM     26  C   UNL d   1      29.129 -13.710   0.524  0.00  0.00     0.144 C 
ATOM     27  N   UNL d   1      28.187 -12.563   0.398  0.00  0.00    -0.364 N 
ATOM     28  C   UNL d   1      26.803 -12.943   0.031  0.00  0.00     0.144 C 
BRANCH  27  29
ATOM     29  C   UNL d   1      28.472 -11.313   0.885  0.00  0.00     0.102 A 
ATOM     30  C   UNL d   1      28.559 -10.979   2.244  0.00  0.00     0.048 A 
ATOM     31  C   UNL d   1      28.800  -9.658   2.637  0.00  0.00     0.005 A 
ATOM     32  C   UNL d   1      28.911  -8.663   1.675  0.00  0.00     0.017 A 
ATOM     33  C   UNL d   1      28.792  -9.022   0.341  0.00  0.00     0.089 A 
ATOM     34  N   UNL d   1      28.595 -10.306   0.001  0.00  0.00    -0.352 N 
ATOM     35  H   UNL d   1      28.473 -10.551  -0.978  0.00  0.00     0.166 HD
ENDBRANCH  27  29
ENDBRANCH   1  21
TORSDOF 6
ENDMDL
MODEL 8
REMARK VINA RESULT:   -30.502      3.445      5.049
REMARK INTER + INTRA:         -33.410
REMARK INTER:                 -32.292
REMARK INTRA:                  -1.118
REMARK CONF_INDEPENDENT:        1.790
REMARK UNBOUND:                -1.118
REMARK  6 active torsions:
REMARK  status: ('A' for Active; 'I' for Inactive)
REMARK       I    between atoms: C_2  and  N_3 
REMARK       I    between atoms: C_2  and  N_10 
REMARK    1  A    between atoms: N_3  and  C_4 
REMARK    2  A    between atoms: N_10  and  C_11 
REMARK    3  A    between atoms: C_11  and  C_12 
REMARK    4  A    between atoms: C_11  and  C_19 
REMARK    5  A    between atoms: C_12  and  C_13 
REMARK       I    between atoms: C_19  and  N_21 
REMARK    6  A    between atoms: N_24  and  C_25 
ROOT
ATOM      1  C   UNL d   1      25.762 -16.556  -1.370  0.00  0.00     0.182 C 
ENDROOT
BRANCH   1   2
ATOM      2  N   UNL d   1      24.498 -15.962  -0.839  0.00  0.00    -0.329 N 
ATOM      3  C   UNL d   1      23.221 -16.439  -0.634  0.00  0.00     0.323 C 
ATOM      4  O   UNL d   1      22.354 -15.575  -0.443  0.00  0.00    -0.247 OA
ATOM      5  N   UNL d   1      23.006 -17.779  -0.587  0.00  0.00    -0.286 N 
ATOM      6  H   UNL d   1      23.776 -18.415  -0.678  0.00  0.00     0.172 HD
ATOM      7  H   UNL d   1      24.507 -14.951  -0.729  0.00  0.00     0.165 HD
BRANCH   5   8
ATOM      8  C   UNL d   1      21.769 -18.434  -0.662  0.00  0.00     0.199 C 
ATOM      9  N   UNL d   1      20.703 -17.929  -1.256  0.00  0.00    -0.122 NA
ATOM     10  N   UNL d   1      19.530 -18.602  -0.895  0.00  0.00    -0.128 NA
ATOM     11  C   UNL d   1      19.760 -19.606  -0.066  0.00  0.00     0.190 C 
ATOM     12  S   UNL d   1      18.555 -20.563   0.671  0.00  0.00    -0.048 SA
ATOM     13  S   UNL d   1      21.445 -19.853   0.230  0.00  0.00    -0.017 SA
ENDBRANCH   5   8
ENDBRANCH   1   2
BRANCH   1  14
ATOM     14  C   UNL d   1      26.031 -16.097  -2.801  0.00  0.00     0.073 C 
BRANCH  14  15
ATOM     15  C   UNL d   1      25.857 -14.648  -3.093  0.00  0.00    -0.056 A 
ATOM     16  C   UNL d   1      25.421 -14.225  -4.349  0.00  0.00     0.007 A 
ATOM     17  C   UNL d   1      25.464 -12.871  -4.642  0.00  0.00     0.001 A 
ATOM     18  C   UNL d   1      25.910 -11.954  -3.684  0.00  0.00     0.000 A 
ATOM     19  C   UNL d   1      26.351 -12.383  -2.433  0.00  0.00     0.001 A 
ATOM     20  C   UNL d   1      26.283 -13.726  -2.118  0.00  0.00     0.007 A 
ENDBRANCH  14  15
ENDBRANCH   1  14
BRANCH   1  21
ATOM     21  C   UNL d   1      27.065 -16.264  -0.465  0.00  0.00     0.243 C 
ATOM     22  O   UNL d   1      26.944 -16.046   0.745  0.00  0.00    -0.271 OA
ATOM     23  N   UNL d   1      28.354 -16.444  -1.013  0.00  0.00    -0.347 N 
ATOM     24  C   UNL d   1      29.458 -17.006  -0.208  0.00  0.00     0.145 C 
ATOM     25  C   UNL d   1      28.883 -15.919  -2.280  0.00  0.00     0.145 C 
ATOM     26  C   UNL d   1      30.143 -18.175  -0.995  0.00  0.00     0.144 C 
ATOM     27  N   UNL d   1      30.509 -17.793  -2.387  0.00  0.00    -0.364 N 
ATOM     28  C   UNL d   1      29.444 -17.073  -3.125  0.00  0.00     0.144 C 
BRANCH  27  29
ATOM     29  C   UNL d   1      31.801 -17.807  -2.846  0.00  0.00     0.102 A 
ATOM     30  C   UNL d   1      32.769 -18.759  -2.494  0.00  0.00     0.048 A 
ATOM     31  C   UNL d   1      34.079 -18.652  -2.974  0.00  0.00     0.005 A 
ATOM     32  C   UNL d   1      34.432 -17.572  -3.771  0.00  0.00     0.017 A 
ATOM     33  C   UNL d   1      33.459 -16.633  -4.078  0.00  0.00     0.089 A 
ATOM     34  N   UNL d   1      32.204 -16.788  -3.627  0.00  0.00    -0.352 N 
ATOM     35  H   UNL d   1      31.508 -16.075  -3.828  0.00  0.00     0.166 HD
ENDBRANCH  27  29
ENDBRANCH   1  21
TORSDOF 6
ENDMDL
MODEL 9
REMARK VINA RESULT:   -30.056      1.282      2.005
REMARK INTER + INTRA:         -33.597
REMARK INTER:                 -31.846
REMARK INTRA:                  -1.751
REMARK CONF_INDEPENDENT:        1.790
REMARK UNBOUND:                -1.751
REMARK  6 active torsions:
REMARK  status: ('A' for Active; 'I' for Inactive)
REMARK       I    between atoms: C_2  and  N_3 
REMARK       I    between atoms: C_2  and  N_10 
REMARK    1  A    between atoms: N_3  and  C_4 
REMARK    2  A    between atoms: N_10  and  C_11 
REMARK    3  A    between atoms: C_11  and  C_12 
REMARK    4  A    between atoms: C_11  and  C_19 
REMARK    5  A    between atoms: C_12  and  C_13 
REMARK       I    between atoms: C_19  and  N_21 
REMARK    6  A    between atoms: N_24  and  C_25 
ROOT
ATOM      1  C   UNL d   1      25.206 -15.273  -1.226  0.00  0.00     0.182 C 
ENDROOT
BRANCH   1   2
ATOM      2  N   UNL d   1      25.318 -16.744  -0.992  0.00  0.00    -0.329 N 
ATOM      3  C   UNL d   1      24.407 -17.763  -0.809  0.00  0.00     0.323 C 
ATOM      4  O   UNL d   1      24.872 -18.819  -0.355  0.00  0.00    -0.247 OA
ATOM      5  N   UNL d   1      23.115 -17.582  -1.186  0.00  0.00    -0.286 N 
ATOM      6  H   UNL d   1      22.832 -16.721  -1.614  0.00  0.00     0.172 HD
ATOM      7  H   UNL d   1      26.253 -17.079  -0.772  0.00  0.00     0.165 HD
BRANCH   5   8
ATOM      8  C   UNL d   1      22.018 -18.381  -0.833  0.00  0.00     0.199 C 
ATOM      9  N   UNL d   1      21.013 -18.653  -1.646  0.00  0.00    -0.122 NA
ATOM     10  N   UNL d   1      19.904 -19.163  -0.961  0.00  0.00    -0.128 NA
ATOM     11  C   UNL d   1      20.126 -19.284   0.337  0.00  0.00     0.190 C 
ATOM     12  S   UNL d   1      18.960 -19.756   1.490  0.00  0.00    -0.048 SA
ATOM     13  S   UNL d   1      21.749 -18.883   0.776  0.00  0.00    -0.017 SA
ENDBRANCH   5   8
ENDBRANCH   1   2
BRANCH   1  14
ATOM     14  C   UNL d   1      26.573 -14.597  -1.161  0.00  0.00     0.073 C 
BRANCH  14  15
ATOM     15  C   UNL d   1      27.768 -15.484  -1.130  0.00  0.00    -0.056 A 
ATOM     16  C   UNL d   1      28.158 -16.188  -2.269  0.00  0.00     0.007 A 
ATOM     17  C   UNL d   1      29.148 -17.151  -2.146  0.00  0.00     0.001 A 
ATOM     18  C   UNL d   1      29.756 -17.382  -0.907  0.00  0.00     0.000 A 
ATOM     19  C   UNL d   1      29.358 -16.681   0.229  0.00  0.00     0.001 A 
ATOM     20  C   UNL d   1      28.395 -15.698   0.112  0.00  0.00     0.007 A 
ENDBRANCH  14  15
ENDBRANCH   1  14
BRANCH   1  21
ATOM     21  C   UNL d   1      24.480 -14.874  -2.609  0.00  0.00     0.243 C 
ATOM     22  O   UNL d   1      23.248 -14.803  -2.666  0.00  0.00    -0.271 OA
ATOM     23  N   UNL d   1      25.252 -14.423  -3.702  0.00  0.00    -0.347 N 
ATOM     24  C   UNL d   1      24.772 -13.340  -4.585  0.00  0.00     0.145 C 
ATOM     25  C   UNL d   1      26.446 -15.047  -4.290  0.00  0.00     0.145 C 
ATOM     26  C   UNL d   1      25.889 -12.251  -4.741  0.00  0.00     0.144 C 
ATOM     27  N   UNL d   1      27.208 -12.833  -5.116  0.00  0.00    -0.364 N 
ATOM     28  C   UNL d   1      27.596 -14.028  -4.331  0.00  0.00     0.144 C 
BRANCH  27  29
ATOM     29  C   UNL d   1      27.860 -12.507  -6.278  0.00  0.00     0.102 A 
ATOM     30  C   UNL d   1      27.552 -11.408  -7.091  0.00  0.00     0.048 A 
ATOM     31  C   UNL d   1      28.242 -11.195  -8.290  0.00  0.00     0.005 A 
ATOM     32  C   UNL d   1      29.210 -12.103  -8.696  0.00  0.00     0.017 A 
ATOM     33  C   UNL d   1      29.472 -13.195  -7.882  0.00  0.00     0.089 A 
ATOM     34  N   UNL d   1      28.812 -13.347  -6.722  0.00  0.00    -0.352 N 
ATOM     35  H   UNL d   1      28.986 -14.170  -6.152  0.00  0.00     0.166 HD
ENDBRANCH  27  29
ENDBRANCH   1  21
TORSDOF 6
ENDMDL
