MODEL 1
REMARK VINA RESULT:   -31.435      0.000      0.000
REMARK INTER + INTRA:         -35.304
REMARK INTER:                 -34.119
REMARK INTRA:                  -1.185
REMARK CONF_INDEPENDENT:        2.685
REMARK UNBOUND:                -1.185
REMARK  9 active torsions:
REMARK  status: ('A' for Active; 'I' for Inactive)
REMARK    1  A    between atoms: C_2  and  C_3 
REMARK       I    between atoms: C_2  and  N_18 
REMARK    2  A    between atoms: C_3  and  S_4 
REMARK    3  A    between atoms: S_4  and  C_5 
REMARK    4  A    between atoms: C_8  and  N_9 
REMARK    5  A    between atoms: N_9  and  C_10 
REMARK    6  A    between atoms: CA_19  and  N_18 
REMARK    7  A    between atoms: CA_19  and  C_30 
REMARK    8  A    between atoms: CA_19  and  CB_20 
REMARK    9  A    between atoms: CB_20  and  CG_21 
ROOT
ATOM      1  O   UNK d   0      28.284 -15.599  -1.067  0.00  0.00    -0.273 OA
ATOM      2  C   UNK d   0      27.384 -16.094  -1.729  0.00  0.00     0.227 C 
ATOM      3  N   TRP d   1      27.225 -15.882  -3.090  0.00  0.00    -0.346 N 
ATOM      4  H   TRP d   1      26.705 -16.533  -3.659  0.00  0.00     0.163 HD
ENDROOT
BRANCH   2   5
ATOM      5  C   UNK d   0      26.241 -16.871  -1.087  0.00  0.00     0.179 C 
BRANCH   5   6
ATOM      6  S   UNK d   0      24.635 -16.058  -1.506  0.00  0.00    -0.128 SA
BRANCH   6   7
ATOM      7  C   UNK d   0      23.449 -17.136  -0.724  0.00  0.00     0.197 C 
ATOM      8  N   UNK d   0      23.647 -18.517  -1.172  0.00  0.00    -0.235 NA
ATOM      9  N   UNK d   0      22.371 -19.178  -1.288  0.00  0.00    -0.232 NA
ATOM     10  H   UNK d   0      24.330 -18.994  -0.578  0.00  0.00     0.142 HD
ATOM     11  C   UNK d   0      21.306 -18.389  -0.642  0.00  0.00     0.212 C 
ATOM     12  H   UNK d   0      22.397 -20.128  -0.925  0.00  0.00     0.143 HD
ATOM     13  S   UNK d   0      21.720 -16.696  -0.894  0.00  0.00    -0.101 SA
BRANCH  11  14
ATOM     14  N   UNK d   0      19.905 -18.630  -0.895  0.00  0.00    -0.266 NA
ATOM     15  H   UNK d   0      19.691 -18.748  -1.883  0.00  0.00     0.130 HD
BRANCH  14  16
ATOM     16  C   UNK d   0      19.321 -19.540  -0.002  0.00  0.00     0.013 C 
ATOM     17  C   UNK d   0      18.353 -20.466  -0.448  0.00  0.00     0.024 C 
ATOM     18  C   UNK d   0      17.641 -21.284   0.403  0.00  0.00     0.005 C 
ATOM     19  C   UNK d   0      18.050 -21.361   1.715  0.00  0.00     0.042 C 
ATOM     20  C   UNK d   0      19.133 -20.591   2.143  0.00  0.00     0.118 C 
ATOM     21  F   UNK d   0      19.586 -20.765   3.391  0.00  0.00    -0.206 F 
ATOM     22  C   UNK d   0      19.758 -19.662   1.309  0.00  0.00     0.065 C 
ENDBRANCH  14  16
ENDBRANCH  11  14
ENDBRANCH   6   7
ENDBRANCH   5   6
ENDBRANCH   2   5
BRANCH   3  23
ATOM     23  CA  TRP d   1      28.046 -14.872  -3.833  0.00  0.00     0.190 C 
BRANCH  23  24
ATOM     24  C   TRP d   1      27.727 -14.834  -5.362  0.00  0.00     0.197 C 
ATOM     25  O   TRP d   1      28.532 -14.188  -6.093  0.00  0.00    -0.646 OA
ATOM     26  OXT TRP d   1      26.657 -15.421  -5.702  0.00  0.00    -0.646 OA
ENDBRANCH  23  24
BRANCH  23  27
ATOM     27  CB  TRP d   1      27.910 -13.459  -3.197  0.00  0.00     0.077 C 
BRANCH  27  28
ATOM     28  CG  TRP d   1      26.967 -12.517  -3.926  0.00  0.00    -0.028 C 
ATOM     29  CD1 TRP d   1      25.941 -12.875  -4.768  0.00  0.00     0.096 C 
ATOM     30  NE1 TRP d   1      25.432 -11.796  -5.400  0.00  0.00    -0.365 N 
ATOM     31  CE2 TRP d   1      25.970 -10.672  -4.851  0.00  0.00     0.042 A 
ATOM     32  HE1 TRP d   1      24.732 -11.845  -6.126  0.00  0.00     0.165 HD
ATOM     33  CZ2 TRP d   1      25.683  -9.344  -5.145  0.00  0.00     0.030 A 
ATOM     34  CD2 TRP d   1      26.911 -11.084  -3.896  0.00  0.00    -0.002 A 
ATOM     35  CH2 TRP d   1      26.377  -8.381  -4.423  0.00  0.00     0.002 A 
ATOM     36  CZ3 TRP d   1      27.298  -8.744  -3.437  0.00  0.00     0.001 A 
ATOM     37  CE3 TRP d   1      27.575 -10.090  -3.159  0.00  0.00     0.014 A 
ENDBRANCH  27  28
ENDBRANCH  23  27
ENDBRANCH   3  23
TORSDOF 9
ENDMDL
MODEL 2
REMARK VINA RESULT:   -30.881      3.960      5.434
REMARK INTER + INTRA:         -35.410
REMARK INTER:                 -33.566
REMARK INTRA:                  -1.844
REMARK CONF_INDEPENDENT:        2.685
REMARK UNBOUND:                -1.844
REMARK  9 active torsions:
REMARK  status: ('A' for Active; 'I' for Inactive)
REMARK    1  A    between atoms: C_2  and  C_3 
REMARK       I    between atoms: C_2  and  N_18 
REMARK    2  A    between atoms: C_3  and  S_4 
REMARK    3  A    between atoms: S_4  and  C_5 
REMARK    4  A    between atoms: C_8  and  N_9 
REMARK    5  A    between atoms: N_9  and  C_10 
REMARK    6  A    between atoms: CA_19  and  N_18 
REMARK    7  A    between atoms: CA_19  and  C_30 
REMARK    8  A    between atoms: CA_19  and  CB_20 
REMARK    9  A    between atoms: CB_20  and  CG_21 
ROOT
ATOM      1  O   UNK d   0      27.406 -16.445   0.822  0.00  0.00    -0.273 OA
ATOM      2  C   UNK d   0      27.185 -16.166  -0.347  0.00  0.00     0.227 C 
ATOM      3  N   TRP d   1      27.578 -14.977  -0.942  0.00  0.00    -0.346 N 
ATOM      4  H   TRP d   1      27.683 -14.908  -1.943  0.00  0.00     0.163 HD
ENDROOT
BRANCH   2   5
ATOM      5  C   UNK d   0      26.307 -17.040  -1.235  0.00  0.00     0.179 C 
BRANCH   5   6
ATOM      6  S   UNK d   0      24.712 -16.167  -1.569  0.00  0.00    -0.128 SA
BRANCH   6   7
ATOM      7  C   UNK d   0      23.519 -17.250  -0.806  0.00  0.00     0.197 C 
ATOM      8  N   UNK d   0      23.629 -18.600  -1.366  0.00  0.00    -0.235 NA
ATOM      9  N   UNK d   0      22.320 -19.195  -1.462  0.00  0.00    -0.232 NA
ATOM     10  H   UNK d   0      24.319 -19.150  -0.848  0.00  0.00     0.142 HD
ATOM     11  C   UNK d   0      21.327 -18.414  -0.701  0.00  0.00     0.212 C 
ATOM     12  H   UNK d   0      22.320 -20.171  -1.173  0.00  0.00     0.143 HD
ATOM     13  S   UNK d   0      21.806 -16.726  -0.848  0.00  0.00    -0.101 SA
BRANCH  11  14
ATOM     14  N   UNK d   0      19.905 -18.575  -0.895  0.00  0.00    -0.266 NA
ATOM     15  H   UNK d   0      19.642 -18.659  -1.874  0.00  0.00     0.130 HD
BRANCH  14  16
ATOM     16  C   UNK d   0      19.313 -19.474   0.004  0.00  0.00     0.013 C 
ATOM     17  C   UNK d   0      18.393 -20.444  -0.448  0.00  0.00     0.024 C 
ATOM     18  C   UNK d   0      17.673 -21.257   0.402  0.00  0.00     0.005 C 
ATOM     19  C   UNK d   0      18.031 -21.278   1.731  0.00  0.00     0.042 C 
ATOM     20  C   UNK d   0      19.071 -20.461   2.175  0.00  0.00     0.118 C 
ATOM     21  F   UNK d   0      19.479 -20.579   3.444  0.00  0.00    -0.206 F 
ATOM     22  C   UNK d   0      19.701 -19.539   1.335  0.00  0.00     0.065 C 
ENDBRANCH  14  16
ENDBRANCH  11  14
ENDBRANCH   6   7
ENDBRANCH   5   6
ENDBRANCH   2   5
BRANCH   3  23
ATOM     23  CA  TRP d   1      28.150 -13.846  -0.142  0.00  0.00     0.190 C 
BRANCH  23  24
ATOM     24  C   TRP d   1      28.577 -12.630  -1.026  0.00  0.00     0.197 C 
ATOM     25  O   TRP d   1      29.056 -11.629  -0.419  0.00  0.00    -0.646 OA
ATOM     26  OXT TRP d   1      28.349 -12.761  -2.265  0.00  0.00    -0.646 OA
ENDBRANCH  23  24
BRANCH  23  27
ATOM     27  CB  TRP d   1      27.174 -13.404   0.985  0.00  0.00     0.077 C 
BRANCH  27  28
ATOM     28  CG  TRP d   1      27.838 -12.767   2.194  0.00  0.00    -0.028 C 
ATOM     29  CD1 TRP d   1      28.317 -11.481   2.283  0.00  0.00     0.096 C 
ATOM     30  NE1 TRP d   1      29.022 -11.303   3.421  0.00  0.00    -0.365 N 
ATOM     31  CE2 TRP d   1      28.865 -12.401   4.210  0.00  0.00     0.042 A 
ATOM     32  HE1 TRP d   1      29.532 -10.461   3.642  0.00  0.00     0.165 HD
ATOM     33  CZ2 TRP d   1      29.355 -12.621   5.493  0.00  0.00     0.030 A 
ATOM     34  CD2 TRP d   1      28.098 -13.327   3.489  0.00  0.00    -0.002 A 
ATOM     35  CH2 TRP d   1      29.038 -13.839   6.081  0.00  0.00     0.002 A 
ATOM     36  CZ3 TRP d   1      28.247 -14.778   5.415  0.00  0.00     0.001 A 
ATOM     37  CE3 TRP d   1      27.766 -14.538   4.120  0.00  0.00     0.014 A 
ENDBRANCH  27  28
ENDBRANCH  23  27
ENDBRANCH   3  23
TORSDOF 9
ENDMDL
MODEL 3
REMARK VINA RESULT:   -30.609      2.155      2.937
REMARK INTER + INTRA:         -34.771
REMARK INTER:                 -33.294
REMARK INTRA:                  -1.478
REMARK CONF_INDEPENDENT:        2.685
REMARK UNBOUND:                -1.478
REMARK  9 active torsions:
REMARK  status: ('A' for Active; 'I' for Inactive)
REMARK    1  A    between atoms: C_2  and  C_3 
REMARK       I    between atoms: C_2  and  N_18 
REMARK    2  A    between atoms: C_3  and  S_4 
REMARK    3  A    between atoms: S_4  and  C_5 
REMARK    4  A    between atoms: C_8  and  N_9 
REMARK    5  A    between atoms: N_9  and  C_10 
REMARK    6  A    between atoms: CA_19  and  N_18 
REMARK    7  A    between atoms: CA_19  and  C_30 
REMARK    8  A    between atoms: CA_19  and  CB_20 
REMARK    9  A    between atoms: CB_20  and  CG_21 
ROOT
ATOM      1  O   UNK d   0      24.617 -14.194  -4.356  0.00  0.00    -0.273 OA
ATOM      2  C   UNK d   0      24.595 -14.109  -3.137  0.00  0.00     0.227 C 
ATOM      3  N   TRP d   1      25.470 -13.322  -2.405  0.00  0.00    -0.346 N 
ATOM      4  H   TRP d   1      25.235 -13.013  -1.474  0.00  0.00     0.163 HD
ENDROOT
BRANCH   2   5
ATOM      5  C   UNK d   0      23.695 -14.992  -2.281  0.00  0.00     0.179 C 
BRANCH   5   6
ATOM      6  S   UNK d   0      24.736 -16.156  -1.294  0.00  0.00    -0.128 SA
BRANCH   6   7
ATOM      7  C   UNK d   0      23.525 -17.291  -0.643  0.00  0.00     0.197 C 
ATOM      8  N   UNK d   0      23.635 -18.589  -1.313  0.00  0.00    -0.235 NA
ATOM      9  N   UNK d   0      22.324 -19.165  -1.477  0.00  0.00    -0.232 NA
ATOM     10  H   UNK d   0      24.313 -19.186  -0.833  0.00  0.00     0.142 HD
ATOM     11  C   UNK d   0      21.324 -18.444  -0.668  0.00  0.00     0.212 C 
ATOM     12  H   UNK d   0      22.313 -20.162  -1.271  0.00  0.00     0.143 HD
ATOM     13  S   UNK d   0      21.816 -16.753  -0.666  0.00  0.00    -0.101 SA
BRANCH  11  14
ATOM     14  N   UNK d   0      19.905 -18.577  -0.895  0.00  0.00    -0.266 NA
ATOM     15  H   UNK d   0      19.664 -18.664  -1.880  0.00  0.00     0.130 HD
BRANCH  14  16
ATOM     16  C   UNK d   0      19.273 -19.455  -0.003  0.00  0.00     0.013 C 
ATOM     17  C   UNK d   0      18.385 -20.445  -0.475  0.00  0.00     0.024 C 
ATOM     18  C   UNK d   0      17.626 -21.240   0.359  0.00  0.00     0.005 C 
ATOM     19  C   UNK d   0      17.914 -21.221   1.704  0.00  0.00     0.042 C 
ATOM     20  C   UNK d   0      18.924 -20.383   2.179  0.00  0.00     0.118 C 
ATOM     21  F   UNK d   0      19.265 -20.462   3.471  0.00  0.00    -0.206 F 
ATOM     22  C   UNK d   0      19.591 -19.480   1.348  0.00  0.00     0.065 C 
ENDBRANCH  14  16
ENDBRANCH  11  14
ENDBRANCH   6   7
ENDBRANCH   5   6
ENDBRANCH   2   5
BRANCH   3  23
ATOM     23  CA  TRP d   1      26.648 -12.648  -3.042  0.00  0.00     0.190 C 
BRANCH  23  24
ATOM     24  C   TRP d   1      27.393 -11.677  -2.071  0.00  0.00     0.197 C 
ATOM     25  O   TRP d   1      28.260 -12.193  -1.309  0.00  0.00    -0.646 OA
ATOM     26  OXT TRP d   1      27.008 -10.471  -2.118  0.00  0.00    -0.646 OA
ENDBRANCH  23  24
BRANCH  23  27
ATOM     27  CB  TRP d   1      27.628 -13.689  -3.655  0.00  0.00     0.077 C 
BRANCH  27  28
ATOM     28  CG  TRP d   1      27.873 -13.536  -5.147  0.00  0.00    -0.028 C 
ATOM     29  CD1 TRP d   1      28.489 -14.446  -5.973  0.00  0.00     0.096 C 
ATOM     30  NE1 TRP d   1      28.722 -13.916  -7.192  0.00  0.00    -0.365 N 
ATOM     31  CE2 TRP d   1      28.093 -12.711  -7.274  0.00  0.00     0.042 A 
ATOM     32  HE1 TRP d   1      29.241 -14.383  -7.921  0.00  0.00     0.165 HD
ATOM     33  CZ2 TRP d   1      28.008 -11.852  -8.364  0.00  0.00     0.030 A 
ATOM     34  CD2 TRP d   1      27.518 -12.455  -6.020  0.00  0.00    -0.002 A 
ATOM     35  CH2 TRP d   1      27.291 -10.677  -8.177  0.00  0.00     0.002 A 
ATOM     36  CZ3 TRP d   1      26.672 -10.395  -6.957  0.00  0.00     0.001 A 
ATOM     37  CE3 TRP d   1      26.772 -11.274  -5.870  0.00  0.00     0.014 A 
ENDBRANCH  27  28
ENDBRANCH  23  27
ENDBRANCH   3  23
TORSDOF 9
ENDMDL
MODEL 4
REMARK VINA RESULT:   -30.462      1.774      2.470
REMARK INTER + INTRA:         -34.926
REMARK INTER:                 -33.147
REMARK INTRA:                  -1.780
REMARK CONF_INDEPENDENT:        2.685
REMARK UNBOUND:                -1.780
REMARK  9 active torsions:
REMARK  status: ('A' for Active; 'I' for Inactive)
REMARK    1  A    between atoms: C_2  and  C_3 
REMARK       I    between atoms: C_2  and  N_18 
REMARK    2  A    between atoms: C_3  and  S_4 
REMARK    3  A    between atoms: S_4  and  C_5 
REMARK    4  A    between atoms: C_8  and  N_9 
REMARK    5  A    between atoms: N_9  and  C_10 
REMARK    6  A    between atoms: CA_19  and  N_18 
REMARK    7  A    between atoms: CA_19  and  C_30 
REMARK    8  A    between atoms: CA_19  and  CB_20 
REMARK    9  A    between atoms: CB_20  and  CG_21 
ROOT
ATOM      1  O   UNK d   0      27.452 -14.644  -1.293  0.00  0.00    -0.273 OA
ATOM      2  C   UNK d   0      27.406 -15.854  -1.463  0.00  0.00     0.227 C 
ATOM      3  N   TRP d   1      28.283 -16.549  -2.281  0.00  0.00    -0.346 N 
ATOM      4  H   TRP d   1      28.438 -17.538  -2.153  0.00  0.00     0.163 HD
ENDROOT
BRANCH   2   5
ATOM      5  C   UNK d   0      26.269 -16.705  -0.911  0.00  0.00     0.179 C 
BRANCH   5   6
ATOM      6  S   UNK d   0      24.664 -16.110  -1.609  0.00  0.00    -0.128 SA
BRANCH   6   7
ATOM      7  C   UNK d   0      23.484 -17.194  -0.826  0.00  0.00     0.197 C 
ATOM      8  N   UNK d   0      23.617 -18.554  -1.355  0.00  0.00    -0.235 NA
ATOM      9  N   UNK d   0      22.317 -19.171  -1.441  0.00  0.00    -0.232 NA
ATOM     10  H   UNK d   0      24.313 -19.082  -0.822  0.00  0.00     0.142 HD
ATOM     11  C   UNK d   0      21.310 -18.388  -0.701  0.00  0.00     0.212 C 
ATOM     12  H   UNK d   0      22.331 -20.140  -1.130  0.00  0.00     0.143 HD
ATOM     13  S   UNK d   0      21.764 -16.697  -0.885  0.00  0.00    -0.101 SA
BRANCH  11  14
ATOM     14  N   UNK d   0      19.891 -18.575  -0.896  0.00  0.00    -0.266 NA
ATOM     15  H   UNK d   0      19.630 -18.661  -1.875  0.00  0.00     0.130 HD
BRANCH  14  16
ATOM     16  C   UNK d   0      19.316 -19.487   0.001  0.00  0.00     0.013 C 
ATOM     17  C   UNK d   0      18.460 -20.509  -0.462  0.00  0.00     0.024 C 
ATOM     18  C   UNK d   0      17.754 -21.342   0.380  0.00  0.00     0.005 C 
ATOM     19  C   UNK d   0      18.069 -21.323   1.719  0.00  0.00     0.042 C 
ATOM     20  C   UNK d   0      19.054 -20.447   2.181  0.00  0.00     0.118 C 
ATOM     21  F   UNK d   0      19.426 -20.524   3.464  0.00  0.00    -0.206 F 
ATOM     22  C   UNK d   0      19.664 -19.510   1.344  0.00  0.00     0.065 C 
ENDBRANCH  14  16
ENDBRANCH  11  14
ENDBRANCH   6   7
ENDBRANCH   5   6
ENDBRANCH   2   5
BRANCH   3  23
ATOM     23  CA  TRP d   1      29.254 -15.843  -3.178  0.00  0.00     0.190 C 
BRANCH  23  24
ATOM     24  C   TRP d   1      30.726 -16.331  -2.986  0.00  0.00     0.197 C 
ATOM     25  O   TRP d   1      30.893 -17.358  -2.267  0.00  0.00    -0.646 OA
ATOM     26  OXT TRP d   1      31.608 -15.608  -3.539  0.00  0.00    -0.646 OA
ENDBRANCH  23  24
BRANCH  23  27
ATOM     27  CB  TRP d   1      28.820 -15.944  -4.668  0.00  0.00     0.077 C 
BRANCH  27  28
ATOM     28  CG  TRP d   1      28.558 -14.613  -5.351  0.00  0.00    -0.028 C 
ATOM     29  CD1 TRP d   1      29.271 -14.073  -6.395  0.00  0.00     0.096 C 
ATOM     30  NE1 TRP d   1      28.900 -12.796  -6.628  0.00  0.00    -0.365 N 
ATOM     31  CE2 TRP d   1      27.799 -12.516  -5.878  0.00  0.00     0.042 A 
ATOM     32  HE1 TRP d   1      29.357 -12.188  -7.292  0.00  0.00     0.165 HD
ATOM     33  CZ2 TRP d   1      27.044 -11.348  -5.854  0.00  0.00     0.030 A 
ATOM     34  CD2 TRP d   1      27.532 -13.645  -5.091  0.00  0.00    -0.002 A 
ATOM     35  CH2 TRP d   1      25.953 -11.329  -4.994  0.00  0.00     0.002 A 
ATOM     36  CZ3 TRP d   1      25.627 -12.442  -4.215  0.00  0.00     0.001 A 
ATOM     37  CE3 TRP d   1      26.404 -13.609  -4.254  0.00  0.00     0.014 A 
ENDBRANCH  27  28
ENDBRANCH  23  27
ENDBRANCH   3  23
TORSDOF 9
ENDMDL
MODEL 5
REMARK VINA RESULT:   -30.182      1.873      2.234
REMARK INTER + INTRA:         -34.391
REMARK INTER:                 -32.867
REMARK INTRA:                  -1.525
REMARK CONF_INDEPENDENT:        2.685
REMARK UNBOUND:                -1.525
REMARK  9 active torsions:
REMARK  status: ('A' for Active; 'I' for Inactive)
REMARK    1  A    between atoms: C_2  and  C_3 
REMARK       I    between atoms: C_2  and  N_18 
REMARK    2  A    between atoms: C_3  and  S_4 
REMARK    3  A    between atoms: S_4  and  C_5 
REMARK    4  A    between atoms: C_8  and  N_9 
REMARK    5  A    between atoms: N_9  and  C_10 
REMARK    6  A    between atoms: CA_19  and  N_18 
REMARK    7  A    between atoms: CA_19  and  C_30 
REMARK    8  A    between atoms: CA_19  and  CB_20 
REMARK    9  A    between atoms: CB_20  and  CG_21 
ROOT
ATOM      1  O   UNK d   0      28.186 -15.117  -0.927  0.00  0.00    -0.273 OA
ATOM      2  C   UNK d   0      27.306 -15.739  -1.505  0.00  0.00     0.227 C 
ATOM      3  N   TRP d   1      27.173 -15.782  -2.884  0.00  0.00    -0.346 N 
ATOM      4  H   TRP d   1      26.673 -16.535  -3.333  0.00  0.00     0.163 HD
ENDROOT
BRANCH   2   5
ATOM      5  C   UNK d   0      26.161 -16.406  -0.752  0.00  0.00     0.179 C 
BRANCH   5   6
ATOM      6  S   UNK d   0      24.553 -15.909  -1.516  0.00  0.00    -0.128 SA
BRANCH   6   7
ATOM      7  C   UNK d   0      23.412 -17.071  -0.789  0.00  0.00     0.197 C 
ATOM      8  N   UNK d   0      23.636 -18.411  -1.339  0.00  0.00    -0.235 NA
ATOM      9  N   UNK d   0      22.375 -19.097  -1.477  0.00  0.00    -0.232 NA
ATOM     10  H   UNK d   0      24.343 -18.910  -0.795  0.00  0.00     0.142 HD
ATOM     11  C   UNK d   0      21.304 -18.385  -0.755  0.00  0.00     0.212 C 
ATOM     12  H   UNK d   0      22.433 -20.069  -1.183  0.00  0.00     0.143 HD
ATOM     13  S   UNK d   0      21.669 -16.668  -0.894  0.00  0.00    -0.101 SA
BRANCH  11  14
ATOM     14  N   UNK d   0      19.905 -18.645  -0.998  0.00  0.00    -0.266 NA
ATOM     15  H   UNK d   0      19.694 -18.818  -1.978  0.00  0.00     0.130 HD
BRANCH  14  16
ATOM     16  C   UNK d   0      19.322 -19.507  -0.058  0.00  0.00     0.013 C 
ATOM     17  C   UNK d   0      18.349 -20.450  -0.451  0.00  0.00     0.024 C 
ATOM     18  C   UNK d   0      17.639 -21.222   0.443  0.00  0.00     0.005 C 
ATOM     19  C   UNK d   0      18.055 -21.236   1.755  0.00  0.00     0.042 C 
ATOM     20  C   UNK d   0      19.143 -20.451   2.138  0.00  0.00     0.118 C 
ATOM     21  F   UNK d   0      19.604 -20.564   3.390  0.00  0.00    -0.206 F 
ATOM     22  C   UNK d   0      19.768 -19.566   1.256  0.00  0.00     0.065 C 
ENDBRANCH  14  16
ENDBRANCH  11  14
ENDBRANCH   6   7
ENDBRANCH   5   6
ENDBRANCH   2   5
BRANCH   3  23
ATOM     23  CA  TRP d   1      27.995 -14.910  -3.784  0.00  0.00     0.190 C 
BRANCH  23  24
ATOM     24  C   TRP d   1      27.806 -15.248  -5.298  0.00  0.00     0.197 C 
ATOM     25  O   TRP d   1      28.860 -15.400  -5.980  0.00  0.00    -0.646 OA
ATOM     26  OXT TRP d   1      26.603 -15.285  -5.693  0.00  0.00    -0.646 OA
ENDBRANCH  23  24
BRANCH  23  27
ATOM     27  CB  TRP d   1      27.725 -13.403  -3.508  0.00  0.00     0.077 C 
BRANCH  27  28
ATOM     28  CG  TRP d   1      28.654 -12.443  -4.232  0.00  0.00    -0.028 C 
ATOM     29  CD1 TRP d   1      29.764 -11.825  -3.707  0.00  0.00     0.096 C 
ATOM     30  NE1 TRP d   1      30.243 -10.888  -4.552  0.00  0.00    -0.365 N 
ATOM     31  CE2 TRP d   1      29.588 -10.993  -5.741  0.00  0.00     0.042 A 
ATOM     32  HE1 TRP d   1      30.999 -10.258  -4.326  0.00  0.00     0.165 HD
ATOM     33  CZ2 TRP d   1      29.804 -10.278  -6.914  0.00  0.00     0.030 A 
ATOM     34  CD2 TRP d   1      28.608 -11.985  -5.590  0.00  0.00    -0.002 A 
ATOM     35  CH2 TRP d   1      28.991 -10.593  -7.995  0.00  0.00     0.002 A 
ATOM     36  CZ3 TRP d   1      28.024 -11.597  -7.903  0.00  0.00     0.001 A 
ATOM     37  CE3 TRP d   1      27.821 -12.305  -6.709  0.00  0.00     0.014 A 
ENDBRANCH  27  28
ENDBRANCH  23  27
ENDBRANCH   3  23
TORSDOF 9
ENDMDL
MODEL 6
REMARK VINA RESULT:   -30.147      2.409      3.822
REMARK INTER + INTRA:         -34.565
REMARK INTER:                 -32.832
REMARK INTRA:                  -1.733
REMARK CONF_INDEPENDENT:        2.685
REMARK UNBOUND:                -1.733
REMARK  9 active torsions:
REMARK  status: ('A' for Active; 'I' for Inactive)
REMARK    1  A    between atoms: C_2  and  C_3 
REMARK       I    between atoms: C_2  and  N_18 
REMARK    2  A    between atoms: C_3  and  S_4 
REMARK    3  A    between atoms: S_4  and  C_5 
REMARK    4  A    between atoms: C_8  and  N_9 
REMARK    5  A    between atoms: N_9  and  C_10 
REMARK    6  A    between atoms: CA_19  and  N_18 
REMARK    7  A    between atoms: CA_19  and  C_30 
REMARK    8  A    between atoms: CA_19  and  CB_20 
REMARK    9  A    between atoms: CB_20  and  CG_21 
ROOT
ATOM      1  O   UNK d   0      24.738 -14.289  -4.293  0.00  0.00    -0.273 OA
ATOM      2  C   UNK d   0      25.071 -14.917  -3.299  0.00  0.00     0.227 C 
ATOM      3  N   TRP d   1      26.367 -15.350  -3.062  0.00  0.00    -0.346 N 
ATOM      4  H   TRP d   1      26.680 -15.560  -2.126  0.00  0.00     0.163 HD
ENDROOT
BRANCH   2   5
ATOM      5  C   UNK d   0      24.053 -15.429  -2.287  0.00  0.00     0.179 C 
BRANCH   5   6
ATOM      6  S   UNK d   0      24.905 -16.509  -1.053  0.00  0.00    -0.128 SA
BRANCH   6   7
ATOM      7  C   UNK d   0      23.557 -17.476  -0.400  0.00  0.00     0.197 C 
ATOM      8  N   UNK d   0      23.649 -18.859  -0.875  0.00  0.00    -0.235 NA
ATOM      9  N   UNK d   0      22.326 -19.382  -1.111  0.00  0.00    -0.232 NA
ATOM     10  H   UNK d   0      24.230 -19.418  -0.246  0.00  0.00     0.142 HD
ATOM     11  C   UNK d   0      21.298 -18.503  -0.525  0.00  0.00     0.212 C 
ATOM     12  H   UNK d   0      22.227 -20.338  -0.778  0.00  0.00     0.143 HD
ATOM     13  S   UNK d   0      21.900 -16.857  -0.691  0.00  0.00    -0.101 SA
BRANCH  11  14
ATOM     14  N   UNK d   0      19.905 -18.592  -0.895  0.00  0.00    -0.266 NA
ATOM     15  H   UNK d   0      19.760 -18.645  -1.900  0.00  0.00     0.130 HD
BRANCH  14  16
ATOM     16  C   UNK d   0      19.167 -19.476  -0.095  0.00  0.00     0.013 C 
ATOM     17  C   UNK d   0      18.326 -20.446  -0.682  0.00  0.00     0.024 C 
ATOM     18  C   UNK d   0      17.470 -21.245   0.047  0.00  0.00     0.005 C 
ATOM     19  C   UNK d   0      17.605 -21.253   1.416  0.00  0.00     0.042 C 
ATOM     20  C   UNK d   0      18.565 -20.437   2.016  0.00  0.00     0.118 C 
ATOM     21  F   UNK d   0      18.758 -20.543   3.337  0.00  0.00    -0.206 F 
ATOM     22  C   UNK d   0      19.331 -19.529   1.282  0.00  0.00     0.065 C 
ENDBRANCH  14  16
ENDBRANCH  11  14
ENDBRANCH   6   7
ENDBRANCH   5   6
ENDBRANCH   2   5
BRANCH   3  23
ATOM     23  CA  TRP d   1      27.438 -15.243  -4.104  0.00  0.00     0.190 C 
BRANCH  23  24
ATOM     24  C   TRP d   1      27.527 -13.820  -4.743  0.00  0.00     0.197 C 
ATOM     25  O   TRP d   1      27.944 -13.759  -5.935  0.00  0.00    -0.646 OA
ATOM     26  OXT TRP d   1      27.214 -12.865  -3.972  0.00  0.00    -0.646 OA
ENDBRANCH  23  24
BRANCH  23  27
ATOM     27  CB  TRP d   1      28.817 -15.692  -3.543  0.00  0.00     0.077 C 
BRANCH  27  28
ATOM     28  CG  TRP d   1      28.873 -15.852  -2.033  0.00  0.00    -0.028 C 
ATOM     29  CD1 TRP d   1      29.292 -16.965  -1.343  0.00  0.00     0.096 C 
ATOM     30  NE1 TRP d   1      29.027 -16.847  -0.024  0.00  0.00    -0.365 N 
ATOM     31  CE2 TRP d   1      28.605 -15.577   0.226  0.00  0.00     0.042 A 
ATOM     32  HE1 TRP d   1      29.173 -17.585   0.649  0.00  0.00     0.165 HD
ATOM     33  CZ2 TRP d   1      28.290 -14.996   1.449  0.00  0.00     0.030 A 
ATOM     34  CD2 TRP d   1      28.531 -14.911  -1.006  0.00  0.00    -0.002 A 
ATOM     35  CH2 TRP d   1      27.890 -13.665   1.423  0.00  0.00     0.002 A 
ATOM     36  CZ3 TRP d   1      27.835 -12.951   0.224  0.00  0.00     0.001 A 
ATOM     37  CE3 TRP d   1      28.155 -13.558  -0.999  0.00  0.00     0.014 A 
ENDBRANCH  27  28
ENDBRANCH  23  27
ENDBRANCH   3  23
TORSDOF 9
ENDMDL
MODEL 7
REMARK VINA RESULT:   -29.996      1.798      4.031
REMARK INTER + INTRA:         -34.965
REMARK INTER:                 -32.681
REMARK INTRA:                  -2.284
REMARK CONF_INDEPENDENT:        2.685
REMARK UNBOUND:                -2.284
REMARK  9 active torsions:
REMARK  status: ('A' for Active; 'I' for Inactive)
REMARK    1  A    between atoms: C_2  and  C_3 
REMARK       I    between atoms: C_2  and  N_18 
REMARK    2  A    between atoms: C_3  and  S_4 
REMARK    3  A    between atoms: S_4  and  C_5 
REMARK    4  A    between atoms: C_8  and  N_9 
REMARK    5  A    between atoms: N_9  and  C_10 
REMARK    6  A    between atoms: CA_19  and  N_18 
REMARK    7  A    between atoms: CA_19  and  C_30 
REMARK    8  A    between atoms: CA_19  and  CB_20 
REMARK    9  A    between atoms: CB_20  and  CG_21 
ROOT
ATOM      1  O   UNK d   0      25.759 -15.746  -5.130  0.00  0.00    -0.273 OA
ATOM      2  C   UNK d   0      25.622 -15.472  -3.947  0.00  0.00     0.227 C 
ATOM      3  N   TRP d   1      25.965 -14.247  -3.396  0.00  0.00    -0.346 N 
ATOM      4  H   TRP d   1      25.553 -13.934  -2.530  0.00  0.00     0.163 HD
ENDROOT
BRANCH   2   5
ATOM      5  C   UNK d   0      25.207 -16.517  -2.918  0.00  0.00     0.179 C 
BRANCH   5   6
ATOM      6  S   UNK d   0      24.373 -15.680  -1.497  0.00  0.00    -0.128 SA
BRANCH   6   7
ATOM      7  C   UNK d   0      23.319 -16.971  -0.861  0.00  0.00     0.197 C 
ATOM      8  N   UNK d   0      23.607 -18.238  -1.538  0.00  0.00    -0.235 NA
ATOM      9  N   UNK d   0      22.385 -18.983  -1.716  0.00  0.00    -0.232 NA
ATOM     10  H   UNK d   0      24.355 -18.742  -1.056  0.00  0.00     0.142 HD
ATOM     11  C   UNK d   0      21.293 -18.406  -0.911  0.00  0.00     0.212 C 
ATOM     12  H   UNK d   0      22.506 -19.973  -1.516  0.00  0.00     0.143 HD
ATOM     13  S   UNK d   0      21.554 -16.665  -0.895  0.00  0.00    -0.101 SA
BRANCH  11  14
ATOM     14  N   UNK d   0      19.905 -18.726  -1.151  0.00  0.00    -0.266 NA
ATOM     15  H   UNK d   0      19.709 -18.956  -2.122  0.00  0.00     0.130 HD
BRANCH  14  16
ATOM     16  C   UNK d   0      19.343 -19.559  -0.172  0.00  0.00     0.013 C 
ATOM     17  C   UNK d   0      18.347 -20.499  -0.512  0.00  0.00     0.024 C 
ATOM     18  C   UNK d   0      17.657 -21.242   0.423  0.00  0.00     0.005 C 
ATOM     19  C   UNK d   0      18.115 -21.229   1.720  0.00  0.00     0.042 C 
ATOM     20  C   UNK d   0      19.224 -20.448   2.050  0.00  0.00     0.118 C 
ATOM     21  F   UNK d   0      19.722 -20.537   3.289  0.00  0.00    -0.206 F 
ATOM     22  C   UNK d   0      19.829 -19.592   1.127  0.00  0.00     0.065 C 
ENDBRANCH  14  16
ENDBRANCH  11  14
ENDBRANCH   6   7
ENDBRANCH   5   6
ENDBRANCH   2   5
BRANCH   3  23
ATOM     23  CA  TRP d   1      26.711 -13.210  -4.181  0.00  0.00     0.190 C 
BRANCH  23  24
ATOM     24  C   TRP d   1      26.609 -11.782  -3.553  0.00  0.00     0.197 C 
ATOM     25  O   TRP d   1      25.533 -11.503  -2.951  0.00  0.00    -0.646 OA
ATOM     26  OXT TRP d   1      27.609 -11.032  -3.761  0.00  0.00    -0.646 OA
ENDBRANCH  23  24
BRANCH  23  27
ATOM     27  CB  TRP d   1      28.194 -13.624  -4.394  0.00  0.00     0.077 C 
BRANCH  27  28
ATOM     28  CG  TRP d   1      28.619 -14.885  -3.661  0.00  0.00    -0.028 C 
ATOM     29  CD1 TRP d   1      29.219 -15.991  -4.214  0.00  0.00     0.096 C 
ATOM     30  NE1 TRP d   1      29.280 -17.006  -3.326  0.00  0.00    -0.365 N 
ATOM     31  CE2 TRP d   1      28.903 -16.541  -2.103  0.00  0.00     0.042 A 
ATOM     32  HE1 TRP d   1      29.602 -17.935  -3.553  0.00  0.00     0.165 HD
ATOM     33  CZ2 TRP d   1      28.882 -17.220  -0.889  0.00  0.00     0.030 A 
ATOM     34  CD2 TRP d   1      28.517 -15.203  -2.266  0.00  0.00    -0.002 A 
ATOM     35  CH2 TRP d   1      28.457 -16.499   0.220  0.00  0.00     0.002 A 
ATOM     36  CZ3 TRP d   1      28.095 -15.154   0.113  0.00  0.00     0.001 A 
ATOM     37  CE3 TRP d   1      28.122 -14.490  -1.122  0.00  0.00     0.014 A 
ENDBRANCH  27  28
ENDBRANCH  23  27
ENDBRANCH   3  23
TORSDOF 9
ENDMDL
MODEL 8
REMARK VINA RESULT:   -29.682      2.410      3.684
REMARK INTER + INTRA:         -34.206
REMARK INTER:                 -32.367
REMARK INTRA:                  -1.839
REMARK CONF_INDEPENDENT:        2.685
REMARK UNBOUND:                -1.839
REMARK  9 active torsions:
REMARK  status: ('A' for Active; 'I' for Inactive)
REMARK    1  A    between atoms: C_2  and  C_3 
REMARK       I    between atoms: C_2  and  N_18 
REMARK    2  A    between atoms: C_3  and  S_4 
REMARK    3  A    between atoms: S_4  and  C_5 
REMARK    4  A    between atoms: C_8  and  N_9 
REMARK    5  A    between atoms: N_9  and  C_10 
REMARK    6  A    between atoms: CA_19  and  N_18 
REMARK    7  A    between atoms: CA_19  and  C_30 
REMARK    8  A    between atoms: CA_19  and  CB_20 
REMARK    9  A    between atoms: CB_20  and  CG_21 
ROOT
ATOM      1  O   UNK d   0      24.437 -14.120  -4.312  0.00  0.00    -0.273 OA
ATOM      2  C   UNK d   0      24.674 -14.352  -3.136  0.00  0.00     0.227 C 
ATOM      3  N   TRP d   1      25.861 -14.008  -2.508  0.00  0.00    -0.346 N 
ATOM      4  H   TRP d   1      25.906 -13.906  -1.505  0.00  0.00     0.163 HD
ENDROOT
BRANCH   2   5
ATOM      5  C   UNK d   0      23.740 -15.194  -2.274  0.00  0.00     0.179 C 
BRANCH   5   6
ATOM      6  S   UNK d   0      24.738 -16.376  -1.263  0.00  0.00    -0.128 SA
BRANCH   6   7
ATOM      7  C   UNK d   0      23.480 -17.415  -0.543  0.00  0.00     0.197 C 
ATOM      8  N   UNK d   0      23.658 -18.802  -0.981  0.00  0.00    -0.235 NA
ATOM      9  N   UNK d   0      22.369 -19.424  -1.162  0.00  0.00    -0.232 NA
ATOM     10  H   UNK d   0      24.294 -19.299  -0.353  0.00  0.00     0.142 HD
ATOM     11  C   UNK d   0      21.298 -18.601  -0.570  0.00  0.00     0.212 C 
ATOM     12  H   UNK d   0      22.347 -20.374  -0.798  0.00  0.00     0.143 HD
ATOM     13  S   UNK d   0      21.777 -16.922  -0.801  0.00  0.00    -0.101 SA
BRANCH  11  14
ATOM     14  N   UNK d   0      19.905 -18.799  -0.895  0.00  0.00    -0.266 NA
ATOM     15  H   UNK d   0      19.743 -18.951  -1.888  0.00  0.00     0.130 HD
BRANCH  14  16
ATOM     16  C   UNK d   0      19.234 -19.646  -0.002  0.00  0.00     0.013 C 
ATOM     17  C   UNK d   0      18.255 -20.551  -0.464  0.00  0.00     0.024 C 
ATOM     18  C   UNK d   0      17.463 -21.304   0.377  0.00  0.00     0.005 C 
ATOM     19  C   UNK d   0      17.795 -21.342   1.712  0.00  0.00     0.042 C 
ATOM     20  C   UNK d   0      18.884 -20.598   2.170  0.00  0.00     0.118 C 
ATOM     21  F   UNK d   0      19.260 -20.737   3.447  0.00  0.00    -0.206 F 
ATOM     22  C   UNK d   0      19.593 -19.730   1.337  0.00  0.00     0.065 C 
ENDBRANCH  14  16
ENDBRANCH  11  14
ENDBRANCH   6   7
ENDBRANCH   5   6
ENDBRANCH   2   5
BRANCH   3  23
ATOM     23  CA  TRP d   1      27.037 -13.484  -3.275  0.00  0.00     0.190 C 
BRANCH  23  24
ATOM     24  C   TRP d   1      27.825 -12.378  -2.501  0.00  0.00     0.197 C 
ATOM     25  O   TRP d   1      27.384 -12.063  -1.358  0.00  0.00    -0.646 OA
ATOM     26  OXT TRP d   1      28.804 -11.877  -3.130  0.00  0.00    -0.646 OA
ENDBRANCH  23  24
BRANCH  23  27
ATOM     27  CB  TRP d   1      27.980 -14.638  -3.718  0.00  0.00     0.077 C 
BRANCH  27  28
ATOM     28  CG  TRP d   1      28.852 -14.325  -4.923  0.00  0.00    -0.028 C 
ATOM     29  CD1 TRP d   1      28.454 -14.301  -6.238  0.00  0.00     0.096 C 
ATOM     30  NE1 TRP d   1      29.514 -14.186  -7.065  0.00  0.00    -0.365 N 
ATOM     31  CE2 TRP d   1      30.625 -13.933  -6.320  0.00  0.00     0.042 A 
ATOM     32  HE1 TRP d   1      29.453 -14.236  -8.071  0.00  0.00     0.165 HD
ATOM     33  CZ2 TRP d   1      31.920 -13.678  -6.758  0.00  0.00     0.030 A 
ATOM     34  CD2 TRP d   1      30.242 -13.976  -4.972  0.00  0.00    -0.002 A 
ATOM     35  CH2 TRP d   1      32.875 -13.441  -5.777  0.00  0.00     0.002 A 
ATOM     36  CZ3 TRP d   1      32.533 -13.439  -4.422  0.00  0.00     0.001 A 
ATOM     37  CE3 TRP d   1      31.222 -13.702  -4.002  0.00  0.00     0.014 A 
ENDBRANCH  27  28
ENDBRANCH  23  27
ENDBRANCH   3  23
TORSDOF 9
ENDMDL
MODEL 9
REMARK VINA RESULT:   -29.677      2.360      3.200
REMARK INTER + INTRA:         -34.654
REMARK INTER:                 -32.362
REMARK INTRA:                  -2.292
REMARK CONF_INDEPENDENT:        2.685
REMARK UNBOUND:                -2.292
REMARK  9 active torsions:
REMARK  status: ('A' for Active; 'I' for Inactive)
REMARK    1  A    between atoms: C_2  and  C_3 
REMARK       I    between atoms: C_2  and  N_18 
REMARK    2  A    between atoms: C_3  and  S_4 
REMARK    3  A    between atoms: S_4  and  C_5 
REMARK    4  A    between atoms: C_8  and  N_9 
REMARK    5  A    between atoms: N_9  and  C_10 
REMARK    6  A    between atoms: CA_19  and  N_18 
REMARK    7  A    between atoms: CA_19  and  C_30 
REMARK    8  A    between atoms: CA_19  and  CB_20 
REMARK    9  A    between atoms: CB_20  and  CG_21 
ROOT
ATOM      1  O   UNK d   0      26.863 -15.475   0.153  0.00  0.00    -0.273 OA
ATOM      2  C   UNK d   0      27.148 -16.147  -0.827  0.00  0.00     0.227 C 
ATOM      3  N   TRP d   1      28.430 -16.247  -1.345  0.00  0.00    -0.346 N 
ATOM      4  H   TRP d   1      28.698 -17.032  -1.919  0.00  0.00     0.163 HD
ENDROOT
BRANCH   2   5
ATOM      5  C   UNK d   0      26.083 -16.823  -1.682  0.00  0.00     0.179 C 
BRANCH   5   6
ATOM      6  S   UNK d   0      24.501 -15.875  -1.554  0.00  0.00    -0.128 SA
BRANCH   6   7
ATOM      7  C   UNK d   0      23.394 -17.078  -0.842  0.00  0.00     0.197 C 
ATOM      8  N   UNK d   0      23.624 -18.395  -1.443  0.00  0.00    -0.235 NA
ATOM      9  N   UNK d   0      22.370 -19.094  -1.575  0.00  0.00    -0.232 NA
ATOM     10  H   UNK d   0      24.351 -18.902  -0.932  0.00  0.00     0.142 HD
ATOM     11  C   UNK d   0      21.306 -18.424  -0.805  0.00  0.00     0.212 C 
ATOM     12  H   UNK d   0      22.448 -20.075  -1.317  0.00  0.00     0.143 HD
ATOM     13  S   UNK d   0      21.644 -16.697  -0.893  0.00  0.00    -0.101 SA
BRANCH  11  14
ATOM     14  N   UNK d   0      19.905 -18.696  -1.024  0.00  0.00    -0.266 NA
ATOM     15  H   UNK d   0      19.684 -18.898  -1.997  0.00  0.00     0.130 HD
BRANCH  14  16
ATOM     16  C   UNK d   0      19.337 -19.533  -0.053  0.00  0.00     0.013 C 
ATOM     17  C   UNK d   0      18.361 -20.489  -0.408  0.00  0.00     0.024 C 
ATOM     18  C   UNK d   0      17.664 -21.237   0.517  0.00  0.00     0.005 C 
ATOM     19  C   UNK d   0      18.097 -21.213   1.823  0.00  0.00     0.042 C 
ATOM     20  C   UNK d   0      19.187 -20.414   2.171  0.00  0.00     0.118 C 
ATOM     21  F   UNK d   0      19.663 -20.491   3.420  0.00  0.00    -0.206 F 
ATOM     22  C   UNK d   0      19.798 -19.553   1.256  0.00  0.00     0.065 C 
ENDBRANCH  14  16
ENDBRANCH  11  14
ENDBRANCH   6   7
ENDBRANCH   5   6
ENDBRANCH   2   5
BRANCH   3  23
ATOM     23  CA  TRP d   1      29.550 -15.382  -0.850  0.00  0.00     0.190 C 
BRANCH  23  24
ATOM     24  C   TRP d   1      30.905 -16.152  -0.727  0.00  0.00     0.197 C 
ATOM     25  O   TRP d   1      30.932 -17.328  -1.191  0.00  0.00    -0.646 OA
ATOM     26  OXT TRP d   1      31.826 -15.524  -0.126  0.00  0.00    -0.646 OA
ENDBRANCH  23  24
BRANCH  23  27
ATOM     27  CB  TRP d   1      29.708 -14.108  -1.727  0.00  0.00     0.077 C 
BRANCH  27  28
ATOM     28  CG  TRP d   1      28.403 -13.446  -2.136  0.00  0.00    -0.028 C 
ATOM     29  CD1 TRP d   1      27.899 -12.262  -1.653  0.00  0.00     0.096 C 
ATOM     30  NE1 TRP d   1      26.632 -12.065  -2.077  0.00  0.00    -0.365 N 
ATOM     31  CE2 TRP d   1      26.330 -13.009  -3.010  0.00  0.00     0.042 A 
ATOM     32  HE1 TRP d   1      26.047 -11.302  -1.770  0.00  0.00     0.165 HD
ATOM     33  CZ2 TRP d   1      25.166 -13.144  -3.758  0.00  0.00     0.030 A 
ATOM     34  CD2 TRP d   1      27.431 -13.873  -3.101  0.00  0.00    -0.002 A 
ATOM     35  CH2 TRP d   1      25.120 -14.204  -4.655  0.00  0.00     0.002 A 
ATOM     36  CZ3 TRP d   1      26.206 -15.070  -4.805  0.00  0.00     0.001 A 
ATOM     37  CE3 TRP d   1      27.370 -14.917  -4.039  0.00  0.00     0.014 A 
ENDBRANCH  27  28
ENDBRANCH  23  27
ENDBRANCH   3  23
TORSDOF 9
ENDMDL
