MODEL 1
REMARK VINA RESULT:   -10.831      0.000      0.000
REMARK INTER + INTRA:         -13.977
REMARK INTER:                 -12.621
REMARK INTRA:                  -1.356
REMARK CONF_INDEPENDENT:        1.790
REMARK UNBOUND:                -1.356
REMARK  6 active torsions:
REMARK  status: ('A' for Active; 'I' for Inactive)
REMARK    1  A    between atoms: C_5  and  C_6 
REMARK       I    between atoms: C_6  and  N_8 
REMARK    2  A    between atoms: N_8  and  C_9 
REMARK    3  A    between atoms: C_16  and  C_17 
REMARK       I    between atoms: C_17  and  N_19 
REMARK    4  A    between atoms: N_19  and  C_20 
REMARK    5  A    between atoms: C_22  and  C_23 
REMARK    6  A    between atoms: C_23  and  C_24 
REMARK       I    between atoms: C_24  and  N_25 
ROOT
ATOM      1  C   UNL d   1      24.457 -17.954  -0.235  0.00  0.00     0.174 A 
ATOM      2  N   UNL d   1      25.431 -17.617   0.604  0.00  0.00    -0.227 NA
ATOM      3  C   UNL d   1      26.319 -16.826  -0.098  0.00  0.00     0.063 A 
ATOM      4  C   UNL d   1      25.940 -16.511  -1.371  0.00  0.00     0.012 A 
ATOM      5  S   UNL d   1      24.487 -17.189  -1.790  0.00  0.00    -0.054 SA
ATOM      6  C   UNL d   1      26.848 -15.617  -2.095  0.00  0.00     0.049 C 
ATOM      7  C   UNL d   1      28.118 -15.709  -1.196  0.00  0.00     0.025 C 
ATOM      8  C   UNL d   1      27.608 -16.149   0.249  0.00  0.00     0.131 C 
ENDROOT
BRANCH   8   9
ATOM      9  C   UNL d   1      27.378 -14.927   1.141  0.00  0.00     0.233 C 
ATOM     10  O   UNL d   1      26.738 -13.948   0.780  0.00  0.00    -0.272 OA
ATOM     11  N   UNL d   1      28.035 -15.021   2.348  0.00  0.00    -0.305 N 
ATOM     12  H   UNL d   1      28.882 -15.568   2.409  0.00  0.00     0.171 HD
BRANCH  11  13
ATOM     13  C   UNL d   1      28.016 -13.955   3.200  0.00  0.00     0.173 A 
ATOM     14  N   UNL d   1      27.945 -12.660   2.997  0.00  0.00    -0.228 NA
ATOM     15  C   UNL d   1      27.899 -11.986   4.235  0.00  0.00     0.052 A 
ATOM     16  C   UNL d   1      28.055 -12.875   5.282  0.00  0.00     0.081 A 
ATOM     17  S   UNL d   1      28.085 -14.501   4.796  0.00  0.00    -0.062 SA
BRANCH  15  18
ATOM     18  C   UNL d   1      27.693 -10.475   4.231  0.00  0.00     0.162 C 
BRANCH  18  19
ATOM     19  C   UNL d   1      26.836  -9.818   3.141  0.00  0.00     0.221 C 
ATOM     20  N   UNL d   1      26.448 -10.476   2.024  0.00  0.00    -0.370 N 
ATOM     21  H   UNL d   1      26.722 -11.391   1.757  0.00  0.00     0.159 HD
ATOM     22  H   UNL d   1      25.887 -10.002   1.333  0.00  0.00     0.159 HD
ATOM     23  O   UNL d   1      26.455  -8.641   3.243  0.00  0.00    -0.273 OA
ENDBRANCH  18  19
ENDBRANCH  15  18
ENDBRANCH  11  13
ENDBRANCH   8   9
BRANCH   1  24
ATOM     24  N   UNL d   1      23.344 -18.721   0.060  0.00  0.00    -0.301 N 
ATOM     25  C   UNL d   1      22.063 -18.257  -0.230  0.00  0.00     0.257 C 
ATOM     26  O   UNL d   1      21.817 -17.186  -0.787  0.00  0.00    -0.267 OA
ATOM     27  H   UNL d   1      23.535 -19.693   0.248  0.00  0.00     0.171 HD
BRANCH  25  28
ATOM     28  C   UNL d   1      20.888 -19.133   0.084  0.00  0.00     0.032 A 
ATOM     29  C   UNL d   1      20.654 -19.480   1.432  0.00  0.00     0.017 A 
ATOM     30  C   UNL d   1      19.559 -20.274   1.798  0.00  0.00     0.007 A 
ATOM     31  C   UNL d   1      18.676 -20.740   0.823  0.00  0.00    -0.062 A 
ATOM     32  C   UNL d   1      17.482 -21.575   1.187  0.00  0.00     0.048 C 
ATOM     33  C   UNL d   1      18.914 -20.410  -0.517  0.00  0.00     0.007 A 
ATOM     34  C   UNL d   1      20.010 -19.619  -0.886  0.00  0.00     0.017 A 
ENDBRANCH  25  28
ENDBRANCH   1  24
TORSDOF 6
ENDMDL
MODEL 2
REMARK VINA RESULT:   -10.286      1.723      2.239
REMARK INTER + INTRA:         -13.248
REMARK INTER:                 -12.076
REMARK INTRA:                  -1.173
REMARK CONF_INDEPENDENT:        1.790
REMARK UNBOUND:                -1.173
REMARK  6 active torsions:
REMARK  status: ('A' for Active; 'I' for Inactive)
REMARK    1  A    between atoms: C_5  and  C_6 
REMARK       I    between atoms: C_6  and  N_8 
REMARK    2  A    between atoms: N_8  and  C_9 
REMARK    3  A    between atoms: C_16  and  C_17 
REMARK       I    between atoms: C_17  and  N_19 
REMARK    4  A    between atoms: N_19  and  C_20 
REMARK    5  A    between atoms: C_22  and  C_23 
REMARK    6  A    between atoms: C_23  and  C_24 
REMARK       I    between atoms: C_24  and  N_25 
ROOT
ATOM      1  C   UNL d   1      24.431 -18.101  -0.364  0.00  0.00     0.174 A 
ATOM      2  N   UNL d   1      25.420 -17.774   0.461  0.00  0.00    -0.227 NA
ATOM      3  C   UNL d   1      26.312 -17.001  -0.255  0.00  0.00     0.063 A 
ATOM      4  C   UNL d   1      25.924 -16.689  -1.526  0.00  0.00     0.012 A 
ATOM      5  S   UNL d   1      24.456 -17.347  -1.925  0.00  0.00    -0.054 SA
ATOM      6  C   UNL d   1      26.837 -15.814  -2.266  0.00  0.00     0.049 C 
ATOM      7  C   UNL d   1      28.116 -15.920  -1.381  0.00  0.00     0.025 C 
ATOM      8  C   UNL d   1      27.615 -16.343   0.072  0.00  0.00     0.131 C 
ENDROOT
BRANCH   8   9
ATOM      9  C   UNL d   1      27.414 -15.112   0.958  0.00  0.00     0.233 C 
ATOM     10  O   UNL d   1      26.666 -14.190   0.661  0.00  0.00    -0.272 OA
ATOM     11  N   UNL d   1      28.224 -15.123   2.073  0.00  0.00    -0.305 N 
ATOM     12  H   UNL d   1      29.109 -15.610   2.036  0.00  0.00     0.171 HD
BRANCH  11  13
ATOM     13  C   UNL d   1      28.239 -14.035   2.896  0.00  0.00     0.173 A 
ATOM     14  N   UNL d   1      28.037 -13.896   4.186  0.00  0.00    -0.228 NA
ATOM     15  C   UNL d   1      28.229 -12.549   4.556  0.00  0.00     0.052 A 
ATOM     16  C   UNL d   1      28.460 -11.765   3.442  0.00  0.00     0.081 A 
ATOM     17  S   UNL d   1      28.612 -12.652   2.003  0.00  0.00    -0.062 SA
BRANCH  15  18
ATOM     18  C   UNL d   1      28.162 -12.187   6.036  0.00  0.00     0.162 C 
BRANCH  18  19
ATOM     19  C   UNL d   1      28.513 -13.234   7.101  0.00  0.00     0.221 C 
ATOM     20  N   UNL d   1      28.606 -14.554   6.822  0.00  0.00    -0.370 N 
ATOM     21  H   UNL d   1      28.394 -14.988   5.955  0.00  0.00     0.159 HD
ATOM     22  H   UNL d   1      28.837 -15.207   7.557  0.00  0.00     0.159 HD
ATOM     23  O   UNL d   1      28.732 -12.906   8.278  0.00  0.00    -0.273 OA
ENDBRANCH  18  19
ENDBRANCH  15  18
ENDBRANCH  11  13
ENDBRANCH   8   9
BRANCH   1  24
ATOM     24  N   UNL d   1      23.310 -18.849  -0.052  0.00  0.00    -0.301 N 
ATOM     25  C   UNL d   1      22.032 -18.320  -0.219  0.00  0.00     0.257 C 
ATOM     26  O   UNL d   1      21.794 -17.201  -0.678  0.00  0.00    -0.267 OA
ATOM     27  H   UNL d   1      23.473 -19.838   0.050  0.00  0.00     0.171 HD
BRANCH  25  28
ATOM     28  C   UNL d   1      20.846 -19.175   0.108  0.00  0.00     0.032 A 
ATOM     29  C   UNL d   1      20.651 -19.561   1.451  0.00  0.00     0.017 A 
ATOM     30  C   UNL d   1      19.548 -20.339   1.831  0.00  0.00     0.007 A 
ATOM     31  C   UNL d   1      18.619 -20.748   0.874  0.00  0.00    -0.062 A 
ATOM     32  C   UNL d   1      17.416 -21.564   1.254  0.00  0.00     0.048 C 
ATOM     33  C   UNL d   1      18.817 -20.380  -0.462  0.00  0.00     0.007 A 
ATOM     34  C   UNL d   1      19.921 -19.605  -0.845  0.00  0.00     0.017 A 
ENDBRANCH  25  28
ENDBRANCH   1  24
TORSDOF 6
ENDMDL
MODEL 3
REMARK VINA RESULT:   -10.188      1.652      2.151
REMARK INTER + INTRA:         -12.686
REMARK INTER:                 -11.978
REMARK INTRA:                  -0.708
REMARK CONF_INDEPENDENT:        1.790
REMARK UNBOUND:                -0.708
REMARK  6 active torsions:
REMARK  status: ('A' for Active; 'I' for Inactive)
REMARK    1  A    between atoms: C_5  and  C_6 
REMARK       I    between atoms: C_6  and  N_8 
REMARK    2  A    between atoms: N_8  and  C_9 
REMARK    3  A    between atoms: C_16  and  C_17 
REMARK       I    between atoms: C_17  and  N_19 
REMARK    4  A    between atoms: N_19  and  C_20 
REMARK    5  A    between atoms: C_22  and  C_23 
REMARK    6  A    between atoms: C_23  and  C_24 
REMARK       I    between atoms: C_24  and  N_25 
ROOT
ATOM      1  C   UNL d   1      24.430 -18.013  -0.260  0.00  0.00     0.174 A 
ATOM      2  N   UNL d   1      25.473 -17.727   0.513  0.00  0.00    -0.227 NA
ATOM      3  C   UNL d   1      26.344 -16.965  -0.240  0.00  0.00     0.063 A 
ATOM      4  C   UNL d   1      25.893 -16.619  -1.481  0.00  0.00     0.012 A 
ATOM      5  S   UNL d   1      24.387 -17.230  -1.806  0.00  0.00    -0.054 SA
ATOM      6  C   UNL d   1      26.787 -15.754  -2.257  0.00  0.00     0.049 C 
ATOM      7  C   UNL d   1      28.109 -15.911  -1.449  0.00  0.00     0.025 C 
ATOM      8  C   UNL d   1      27.682 -16.348   0.023  0.00  0.00     0.131 C 
ENDROOT
BRANCH   8   9
ATOM      9  C   UNL d   1      27.565 -15.129   0.941  0.00  0.00     0.233 C 
ATOM     10  O   UNL d   1      26.772 -14.217   0.743  0.00  0.00    -0.272 OA
ATOM     11  N   UNL d   1      28.499 -15.136   1.954  0.00  0.00    -0.305 N 
ATOM     12  H   UNL d   1      29.381 -15.607   1.808  0.00  0.00     0.171 HD
BRANCH  11  13
ATOM     13  C   UNL d   1      28.592 -14.056   2.781  0.00  0.00     0.173 A 
ATOM     14  N   UNL d   1      29.507 -13.125   2.926  0.00  0.00    -0.228 NA
ATOM     15  C   UNL d   1      29.087 -12.189   3.893  0.00  0.00     0.052 A 
ATOM     16  C   UNL d   1      27.898 -12.588   4.474  0.00  0.00     0.081 A 
ATOM     17  S   UNL d   1      27.217 -13.967   3.756  0.00  0.00    -0.062 SA
BRANCH  15  18
ATOM     18  C   UNL d   1      29.950 -10.955   4.131  0.00  0.00     0.162 C 
BRANCH  18  19
ATOM     19  C   UNL d   1      31.255 -11.070   4.930  0.00  0.00     0.221 C 
ATOM     20  N   UNL d   1      32.000 -12.199   4.949  0.00  0.00    -0.370 N 
ATOM     21  H   UNL d   1      31.762 -13.067   4.530  0.00  0.00     0.159 HD
ATOM     22  H   UNL d   1      32.850 -12.230   5.492  0.00  0.00     0.159 HD
ATOM     23  O   UNL d   1      31.687 -10.117   5.598  0.00  0.00    -0.273 OA
ENDBRANCH  18  19
ENDBRANCH  15  18
ENDBRANCH  11  13
ENDBRANCH   8   9
BRANCH   1  24
ATOM     24  N   UNL d   1      23.309 -18.736   0.103  0.00  0.00    -0.301 N 
ATOM     25  C   UNL d   1      22.032 -18.281  -0.220  0.00  0.00     0.257 C 
ATOM     26  O   UNL d   1      21.798 -17.257  -0.865  0.00  0.00    -0.267 OA
ATOM     27  H   UNL d   1      23.487 -19.691   0.372  0.00  0.00     0.171 HD
BRANCH  25  28
ATOM     28  C   UNL d   1      20.847 -19.110   0.172  0.00  0.00     0.032 A 
ATOM     29  C   UNL d   1      19.878 -19.398  -0.812  0.00  0.00     0.017 A 
ATOM     30  C   UNL d   1      18.758 -20.188  -0.520  0.00  0.00     0.007 A 
ATOM     31  C   UNL d   1      18.584 -20.706   0.764  0.00  0.00    -0.062 A 
ATOM     32  C   UNL d   1      17.406 -21.575   1.102  0.00  0.00     0.048 C 
ATOM     33  C   UNL d   1      19.537 -20.411   1.747  0.00  0.00     0.007 A 
ATOM     34  C   UNL d   1      20.655 -19.617   1.458  0.00  0.00     0.017 A 
ENDBRANCH  25  28
ENDBRANCH   1  24
TORSDOF 6
ENDMDL
MODEL 4
REMARK VINA RESULT:    -9.710      2.366      9.126
REMARK INTER + INTRA:         -12.817
REMARK INTER:                 -11.500
REMARK INTRA:                  -1.317
REMARK CONF_INDEPENDENT:        1.790
REMARK UNBOUND:                -1.317
REMARK  6 active torsions:
REMARK  status: ('A' for Active; 'I' for Inactive)
REMARK    1  A    between atoms: C_5  and  C_6 
REMARK       I    between atoms: C_6  and  N_8 
REMARK    2  A    between atoms: N_8  and  C_9 
REMARK    3  A    between atoms: C_16  and  C_17 
REMARK       I    between atoms: C_17  and  N_19 
REMARK    4  A    between atoms: N_19  and  C_20 
REMARK    5  A    between atoms: C_22  and  C_23 
REMARK    6  A    between atoms: C_23  and  C_24 
REMARK       I    between atoms: C_24  and  N_25 
ROOT
ATOM      1  C   UNL d   1      28.496 -14.488   1.244  0.00  0.00     0.174 A 
ATOM      2  N   UNL d   1      27.374 -14.149   0.618  0.00  0.00    -0.227 NA
ATOM      3  C   UNL d   1      27.554 -14.421  -0.723  0.00  0.00     0.063 A 
ATOM      4  C   UNL d   1      28.729 -15.039  -1.040  0.00  0.00     0.012 A 
ATOM      5  S   UNL d   1      29.691 -15.298   0.285  0.00  0.00    -0.054 SA
ATOM      6  C   UNL d   1      28.895 -15.389  -2.454  0.00  0.00     0.049 C 
ATOM      7  C   UNL d   1      27.768 -14.526  -3.096  0.00  0.00     0.025 C 
ATOM      8  C   UNL d   1      26.702 -14.256  -1.942  0.00  0.00     0.131 C 
ENDROOT
BRANCH   8   9
ATOM      9  C   UNL d   1      25.579 -15.295  -1.985  0.00  0.00     0.233 C 
ATOM     10  O   UNL d   1      24.779 -15.376  -2.908  0.00  0.00    -0.272 OA
ATOM     11  N   UNL d   1      25.523 -16.063  -0.842  0.00  0.00    -0.305 N 
ATOM     12  H   UNL d   1      25.852 -15.674   0.030  0.00  0.00     0.171 HD
BRANCH  11  13
ATOM     13  C   UNL d   1      24.501 -16.953  -0.689  0.00  0.00     0.173 A 
ATOM     14  N   UNL d   1      23.205 -16.855  -0.872  0.00  0.00    -0.228 NA
ATOM     15  C   UNL d   1      22.593 -18.101  -0.625  0.00  0.00     0.052 A 
ATOM     16  C   UNL d   1      23.518 -19.016  -0.159  0.00  0.00     0.081 A 
ATOM     17  S   UNL d   1      25.115 -18.441  -0.179  0.00  0.00    -0.062 SA
BRANCH  15  18
ATOM     18  C   UNL d   1      21.099 -18.242  -0.897  0.00  0.00     0.162 C 
BRANCH  18  19
ATOM     19  C   UNL d   1      20.368 -19.539  -0.527  0.00  0.00     0.221 C 
ATOM     20  N   UNL d   1      20.646 -20.236   0.598  0.00  0.00    -0.370 N 
ATOM     21  H   UNL d   1      21.371 -20.040   1.247  0.00  0.00     0.159 HD
ATOM     22  H   UNL d   1      20.141 -21.086   0.798  0.00  0.00     0.159 HD
ATOM     23  O   UNL d   1      19.477 -20.006  -1.255  0.00  0.00    -0.273 OA
ENDBRANCH  18  19
ENDBRANCH  15  18
ENDBRANCH  11  13
ENDBRANCH   8   9
BRANCH   1  24
ATOM     24  N   UNL d   1      28.740 -14.405   2.603  0.00  0.00    -0.301 N 
ATOM     25  C   UNL d   1      28.068 -13.474   3.391  0.00  0.00     0.257 C 
ATOM     26  O   UNL d   1      27.202 -12.701   2.975  0.00  0.00    -0.267 OA
ATOM     27  H   UNL d   1      29.220 -15.199   2.998  0.00  0.00     0.171 HD
BRANCH  25  28
ATOM     28  C   UNL d   1      28.346 -13.436   4.863  0.00  0.00     0.032 A 
ATOM     29  C   UNL d   1      27.949 -12.295   5.590  0.00  0.00     0.017 A 
ATOM     30  C   UNL d   1      28.156 -12.204   6.973  0.00  0.00     0.007 A 
ATOM     31  C   UNL d   1      28.768 -13.255   7.658  0.00  0.00    -0.062 A 
ATOM     32  C   UNL d   1      28.984 -13.197   9.143  0.00  0.00     0.048 C 
ATOM     33  C   UNL d   1      29.177 -14.384   6.937  0.00  0.00     0.007 A 
ATOM     34  C   UNL d   1      28.974 -14.474   5.554  0.00  0.00     0.017 A 
ENDBRANCH  25  28
ENDBRANCH   1  24
TORSDOF 6
ENDMDL
MODEL 5
REMARK VINA RESULT:    -9.659      3.838      5.287
REMARK INTER + INTRA:         -12.639
REMARK INTER:                 -11.449
REMARK INTRA:                  -1.190
REMARK CONF_INDEPENDENT:        1.790
REMARK UNBOUND:                -1.190
REMARK  6 active torsions:
REMARK  status: ('A' for Active; 'I' for Inactive)
REMARK    1  A    between atoms: C_5  and  C_6 
REMARK       I    between atoms: C_6  and  N_8 
REMARK    2  A    between atoms: N_8  and  C_9 
REMARK    3  A    between atoms: C_16  and  C_17 
REMARK       I    between atoms: C_17  and  N_19 
REMARK    4  A    between atoms: N_19  and  C_20 
REMARK    5  A    between atoms: C_22  and  C_23 
REMARK    6  A    between atoms: C_23  and  C_24 
REMARK       I    between atoms: C_24  and  N_25 
ROOT
ATOM      1  C   UNL d   1      24.316 -17.646   0.059  0.00  0.00     0.174 A 
ATOM      2  N   UNL d   1      24.321 -16.336  -0.165  0.00  0.00    -0.227 NA
ATOM      3  C   UNL d   1      25.632 -15.962  -0.378  0.00  0.00     0.063 A 
ATOM      4  C   UNL d   1      26.533 -16.987  -0.415  0.00  0.00     0.012 A 
ATOM      5  S   UNL d   1      25.827 -18.466  -0.165  0.00  0.00    -0.054 SA
ATOM      6  C   UNL d   1      27.916 -16.600  -0.707  0.00  0.00     0.049 C 
ATOM      7  C   UNL d   1      27.839 -15.062  -0.466  0.00  0.00     0.025 C 
ATOM      8  C   UNL d   1      26.310 -14.658  -0.659  0.00  0.00     0.131 C 
ENDROOT
BRANCH   8   9
ATOM      9  C   UNL d   1      26.048 -14.188  -2.093  0.00  0.00     0.233 C 
ATOM     10  O   UNL d   1      25.491 -14.884  -2.932  0.00  0.00    -0.272 OA
ATOM     11  N   UNL d   1      26.578 -12.942  -2.347  0.00  0.00    -0.305 N 
ATOM     12  H   UNL d   1      27.389 -12.635  -1.829  0.00  0.00     0.171 HD
BRANCH  11  13
ATOM     13  C   UNL d   1      26.524 -12.443  -3.616  0.00  0.00     0.173 A 
ATOM     14  N   UNL d   1      26.000 -11.347  -4.116  0.00  0.00    -0.228 NA
ATOM     15  C   UNL d   1      26.275 -11.275  -5.497  0.00  0.00     0.052 A 
ATOM     16  C   UNL d   1      26.912 -12.423  -5.929  0.00  0.00     0.081 A 
ATOM     17  S   UNL d   1      27.321 -13.490  -4.673  0.00  0.00    -0.062 SA
BRANCH  15  18
ATOM     18  C   UNL d   1      25.860 -10.018  -6.254  0.00  0.00     0.162 C 
BRANCH  18  19
ATOM     19  C   UNL d   1      24.913  -9.003  -5.601  0.00  0.00     0.221 C 
ATOM     20  N   UNL d   1      24.670  -8.986  -4.270  0.00  0.00    -0.370 N 
ATOM     21  H   UNL d   1      25.000  -9.643  -3.604  0.00  0.00     0.159 HD
ATOM     22  H   UNL d   1      24.037  -8.301  -3.885  0.00  0.00     0.159 HD
ATOM     23  O   UNL d   1      24.327  -8.143  -6.276  0.00  0.00    -0.273 OA
ENDBRANCH  18  19
ENDBRANCH  15  18
ENDBRANCH  11  13
ENDBRANCH   8   9
BRANCH   1  24
ATOM     24  N   UNL d   1      23.207 -18.439   0.295  0.00  0.00    -0.301 N 
ATOM     25  C   UNL d   1      21.957 -18.080  -0.205  0.00  0.00     0.257 C 
ATOM     26  O   UNL d   1      21.743 -17.088  -0.905  0.00  0.00    -0.267 OA
ATOM     27  H   UNL d   1      23.412 -19.373   0.613  0.00  0.00     0.171 HD
BRANCH  25  28
ATOM     28  C   UNL d   1      20.788 -18.982   0.055  0.00  0.00     0.032 A 
ATOM     29  C   UNL d   1      20.654 -19.550   1.339  0.00  0.00     0.017 A 
ATOM     30  C   UNL d   1      19.572 -20.381   1.657  0.00  0.00     0.007 A 
ATOM     31  C   UNL d   1      18.601 -20.663   0.695  0.00  0.00    -0.062 A 
ATOM     32  C   UNL d   1      17.418 -21.533   1.011  0.00  0.00     0.048 C 
ATOM     33  C   UNL d   1      18.739 -20.113  -0.586  0.00  0.00     0.007 A 
ATOM     34  C   UNL d   1      19.823 -19.284  -0.907  0.00  0.00     0.017 A 
ENDBRANCH  25  28
ENDBRANCH   1  24
TORSDOF 6
ENDMDL
MODEL 6
REMARK VINA RESULT:    -9.593      5.556     10.273
REMARK INTER + INTRA:         -11.961
REMARK INTER:                 -11.382
REMARK INTRA:                  -0.578
REMARK CONF_INDEPENDENT:        1.790
REMARK UNBOUND:                -0.578
REMARK  6 active torsions:
REMARK  status: ('A' for Active; 'I' for Inactive)
REMARK    1  A    between atoms: C_5  and  C_6 
REMARK       I    between atoms: C_6  and  N_8 
REMARK    2  A    between atoms: N_8  and  C_9 
REMARK    3  A    between atoms: C_16  and  C_17 
REMARK       I    between atoms: C_17  and  N_19 
REMARK    4  A    between atoms: N_19  and  C_20 
REMARK    5  A    between atoms: C_22  and  C_23 
REMARK    6  A    between atoms: C_23  and  C_24 
REMARK       I    between atoms: C_24  and  N_25 
ROOT
ATOM      1  C   UNL d   1      28.759 -14.846  -5.835  0.00  0.00     0.174 A 
ATOM      2  N   UNL d   1      28.440 -15.151  -4.582  0.00  0.00    -0.227 NA
ATOM      3  C   UNL d   1      27.589 -14.164  -4.125  0.00  0.00     0.063 A 
ATOM      4  C   UNL d   1      27.218 -13.237  -5.055  0.00  0.00     0.012 A 
ATOM      5  S   UNL d   1      27.913 -13.505  -6.536  0.00  0.00    -0.054 SA
ATOM      6  C   UNL d   1      26.263 -12.227  -4.590  0.00  0.00     0.049 C 
ATOM      7  C   UNL d   1      26.368 -12.422  -3.048  0.00  0.00     0.025 C 
ATOM      8  C   UNL d   1      26.898 -13.908  -2.823  0.00  0.00     0.131 C 
ENDROOT
BRANCH   8   9
ATOM      9  C   UNL d   1      25.731 -14.875  -2.608  0.00  0.00     0.233 C 
ATOM     10  O   UNL d   1      24.711 -14.852  -3.285  0.00  0.00    -0.272 OA
ATOM     11  N   UNL d   1      25.924 -15.707  -1.527  0.00  0.00    -0.305 N 
ATOM     12  H   UNL d   1      26.499 -15.393  -0.758  0.00  0.00     0.171 HD
BRANCH  11  13
ATOM     13  C   UNL d   1      24.917 -16.544  -1.144  0.00  0.00     0.173 A 
ATOM     14  N   UNL d   1      23.611 -16.473  -1.264  0.00  0.00    -0.228 NA
ATOM     15  C   UNL d   1      23.021 -17.644  -0.745  0.00  0.00     0.052 A 
ATOM     16  C   UNL d   1      23.977 -18.460  -0.170  0.00  0.00     0.081 A 
ATOM     17  S   UNL d   1      25.567 -17.911  -0.396  0.00  0.00    -0.062 SA
BRANCH  15  18
ATOM     18  C   UNL d   1      21.514 -17.824  -0.895  0.00  0.00     0.162 C 
BRANCH  18  19
ATOM     19  C   UNL d   1      20.894 -19.225  -0.811  0.00  0.00     0.221 C 
ATOM     20  N   UNL d   1      20.974 -19.992   0.300  0.00  0.00    -0.370 N 
ATOM     21  H   UNL d   1      21.483 -19.779   1.125  0.00  0.00     0.159 HD
ATOM     22  H   UNL d   1      20.553 -20.909   0.308  0.00  0.00     0.159 HD
ATOM     23  O   UNL d   1      20.282 -19.717  -1.773  0.00  0.00    -0.273 OA
ENDBRANCH  18  19
ENDBRANCH  15  18
ENDBRANCH  11  13
ENDBRANCH   8   9
BRANCH   1  24
ATOM     24  N   UNL d   1      29.571 -15.580  -6.682  0.00  0.00    -0.301 N 
ATOM     25  C   UNL d   1      30.122 -16.790  -6.266  0.00  0.00     0.257 C 
ATOM     26  O   UNL d   1      29.914 -17.313  -5.170  0.00  0.00    -0.267 OA
ATOM     27  H   UNL d   1      29.521 -15.316  -7.653  0.00  0.00     0.171 HD
BRANCH  25  28
ATOM     28  C   UNL d   1      30.976 -17.563  -7.225  0.00  0.00     0.032 A 
ATOM     29  C   UNL d   1      30.779 -18.957  -7.322  0.00  0.00     0.017 A 
ATOM     30  C   UNL d   1      31.525 -19.736  -8.217  0.00  0.00     0.007 A 
ATOM     31  C   UNL d   1      32.486 -19.137  -9.032  0.00  0.00    -0.062 A 
ATOM     32  C   UNL d   1      33.287 -19.942 -10.016  0.00  0.00     0.048 C 
ATOM     33  C   UNL d   1      32.695 -17.756  -8.927  0.00  0.00     0.007 A 
ATOM     34  C   UNL d   1      31.953 -16.976  -8.031  0.00  0.00     0.017 A 
ENDBRANCH  25  28
ENDBRANCH   1  24
TORSDOF 6
ENDMDL
MODEL 7
REMARK VINA RESULT:    -9.584      3.891      5.725
REMARK INTER + INTRA:         -12.464
REMARK INTER:                 -11.374
REMARK INTRA:                  -1.091
REMARK CONF_INDEPENDENT:        1.790
REMARK UNBOUND:                -1.091
REMARK  6 active torsions:
REMARK  status: ('A' for Active; 'I' for Inactive)
REMARK    1  A    between atoms: C_5  and  C_6 
REMARK       I    between atoms: C_6  and  N_8 
REMARK    2  A    between atoms: N_8  and  C_9 
REMARK    3  A    between atoms: C_16  and  C_17 
REMARK       I    between atoms: C_17  and  N_19 
REMARK    4  A    between atoms: N_19  and  C_20 
REMARK    5  A    between atoms: C_22  and  C_23 
REMARK    6  A    between atoms: C_23  and  C_24 
REMARK       I    between atoms: C_24  and  N_25 
ROOT
ATOM      1  C   UNL d   1      24.477 -17.757   0.148  0.00  0.00     0.174 A 
ATOM      2  N   UNL d   1      24.504 -16.489  -0.248  0.00  0.00    -0.227 NA
ATOM      3  C   UNL d   1      25.830 -16.126  -0.370  0.00  0.00     0.063 A 
ATOM      4  C   UNL d   1      26.731 -17.133  -0.174  0.00  0.00     0.012 A 
ATOM      5  S   UNL d   1      26.004 -18.576   0.197  0.00  0.00    -0.054 SA
ATOM      6  C   UNL d   1      28.136 -16.766  -0.369  0.00  0.00     0.049 C 
ATOM      7  C   UNL d   1      28.033 -15.211  -0.346  0.00  0.00     0.025 C 
ATOM      8  C   UNL d   1      26.532 -14.860  -0.751  0.00  0.00     0.131 C 
ENDROOT
BRANCH   8   9
ATOM      9  C   UNL d   1      26.423 -14.591  -2.254  0.00  0.00     0.233 C 
ATOM     10  O   UNL d   1      25.638 -15.182  -2.984  0.00  0.00    -0.272 OA
ATOM     11  N   UNL d   1      27.355 -13.677  -2.697  0.00  0.00    -0.305 N 
ATOM     12  H   UNL d   1      28.233 -13.590  -2.206  0.00  0.00     0.171 HD
BRANCH  11  13
ATOM     13  C   UNL d   1      27.455 -13.424  -4.034  0.00  0.00     0.173 A 
ATOM     14  N   UNL d   1      27.174 -12.366  -4.759  0.00  0.00    -0.228 NA
ATOM     15  C   UNL d   1      27.519 -12.605  -6.105  0.00  0.00     0.052 A 
ATOM     16  C   UNL d   1      27.942 -13.910  -6.276  0.00  0.00     0.081 A 
ATOM     17  S   UNL d   1      28.082 -14.778  -4.824  0.00  0.00    -0.062 SA
BRANCH  15  18
ATOM     18  C   UNL d   1      27.388 -11.459  -7.103  0.00  0.00     0.162 C 
BRANCH  18  19
ATOM     19  C   UNL d   1      26.155 -10.547  -7.068  0.00  0.00     0.221 C 
ATOM     20  N   UNL d   1      25.202 -10.645  -6.113  0.00  0.00    -0.370 N 
ATOM     21  H   UNL d   1      25.153 -11.334  -5.400  0.00  0.00     0.159 HD
ATOM     22  H   UNL d   1      24.407 -10.025  -6.133  0.00  0.00     0.159 HD
ATOM     23  O   UNL d   1      25.981  -9.667  -7.927  0.00  0.00    -0.273 OA
ENDBRANCH  18  19
ENDBRANCH  15  18
ENDBRANCH  11  13
ENDBRANCH   8   9
BRANCH   1  24
ATOM     24  N   UNL d   1      23.350 -18.528   0.370  0.00  0.00    -0.301 N 
ATOM     25  C   UNL d   1      22.099 -18.104  -0.073  0.00  0.00     0.257 C 
ATOM     26  O   UNL d   1      21.897 -17.068  -0.709  0.00  0.00    -0.267 OA
ATOM     27  H   UNL d   1      23.534 -19.485   0.629  0.00  0.00     0.171 HD
BRANCH  25  28
ATOM     28  C   UNL d   1      20.910 -18.984   0.169  0.00  0.00     0.032 A 
ATOM     29  C   UNL d   1      20.004 -19.190  -0.893  0.00  0.00     0.017 A 
ATOM     30  C   UNL d   1      18.886 -20.021  -0.744  0.00  0.00     0.007 A 
ATOM     31  C   UNL d   1      18.648 -20.662   0.473  0.00  0.00    -0.062 A 
ATOM     32  C   UNL d   1      17.470 -21.575   0.657  0.00  0.00     0.048 C 
ATOM     33  C   UNL d   1      19.537 -20.448   1.534  0.00  0.00     0.007 A 
ATOM     34  C   UNL d   1      20.654 -19.614   1.387  0.00  0.00     0.017 A 
ENDBRANCH  25  28
ENDBRANCH   1  24
TORSDOF 6
ENDMDL
MODEL 8
REMARK VINA RESULT:    -9.434      4.463      7.357
REMARK INTER + INTRA:         -12.473
REMARK INTER:                 -11.224
REMARK INTRA:                  -1.249
REMARK CONF_INDEPENDENT:        1.790
REMARK UNBOUND:                -1.249
REMARK  6 active torsions:
REMARK  status: ('A' for Active; 'I' for Inactive)
REMARK    1  A    between atoms: C_5  and  C_6 
REMARK       I    between atoms: C_6  and  N_8 
REMARK    2  A    between atoms: N_8  and  C_9 
REMARK    3  A    between atoms: C_16  and  C_17 
REMARK       I    between atoms: C_17  and  N_19 
REMARK    4  A    between atoms: N_19  and  C_20 
REMARK    5  A    between atoms: C_22  and  C_23 
REMARK    6  A    between atoms: C_23  and  C_24 
REMARK       I    between atoms: C_24  and  N_25 
ROOT
ATOM      1  C   UNL d   1      24.945 -17.133  -1.102  0.00  0.00     0.174 A 
ATOM      2  N   UNL d   1      25.079 -16.315  -2.141  0.00  0.00    -0.227 NA
ATOM      3  C   UNL d   1      26.297 -15.681  -2.009  0.00  0.00     0.063 A 
ATOM      4  C   UNL d   1      27.068 -16.108  -0.966  0.00  0.00     0.012 A 
ATOM      5  S   UNL d   1      26.330 -17.293  -0.072  0.00  0.00    -0.054 SA
ATOM      6  C   UNL d   1      28.389 -15.483  -0.862  0.00  0.00     0.049 C 
ATOM      7  C   UNL d   1      28.203 -14.260  -1.810  0.00  0.00     0.025 C 
ATOM      8  C   UNL d   1      27.027 -14.650  -2.812  0.00  0.00     0.131 C 
ENDROOT
BRANCH   8   9
ATOM      9  C   UNL d   1      27.589 -15.243  -4.106  0.00  0.00     0.233 C 
ATOM     10  O   UNL d   1      26.883 -15.575  -5.051  0.00  0.00    -0.272 OA
ATOM     11  N   UNL d   1      28.952 -15.434  -4.053  0.00  0.00    -0.305 N 
ATOM     12  H   UNL d   1      29.393 -15.600  -3.160  0.00  0.00     0.171 HD
BRANCH  11  13
ATOM     13  C   UNL d   1      29.576 -16.063  -5.091  0.00  0.00     0.173 A 
ATOM     14  N   UNL d   1      30.132 -17.247  -5.205  0.00  0.00    -0.228 NA
ATOM     15  C   UNL d   1      30.589 -17.434  -6.526  0.00  0.00     0.052 A 
ATOM     16  C   UNL d   1      30.417 -16.282  -7.270  0.00  0.00     0.081 A 
ATOM     17  S   UNL d   1      29.572 -15.060  -6.449  0.00  0.00    -0.062 SA
BRANCH  15  18
ATOM     18  C   UNL d   1      31.162 -18.794  -6.909  0.00  0.00     0.162 C 
BRANCH  18  19
ATOM     19  C   UNL d   1      30.725 -20.055  -6.152  0.00  0.00     0.221 C 
ATOM     20  N   UNL d   1      30.030 -20.004  -4.992  0.00  0.00    -0.370 N 
ATOM     21  H   UNL d   1      29.798 -19.185  -4.482  0.00  0.00     0.159 HD
ATOM     22  H   UNL d   1      29.767 -20.860  -4.527  0.00  0.00     0.159 HD
ATOM     23  O   UNL d   1      30.993 -21.189  -6.580  0.00  0.00    -0.273 OA
ENDBRANCH  18  19
ENDBRANCH  15  18
ENDBRANCH  11  13
ENDBRANCH   8   9
BRANCH   1  24
ATOM     24  N   UNL d   1      23.882 -17.981  -0.851  0.00  0.00    -0.301 N 
ATOM     25  C   UNL d   1      22.629 -17.472  -0.515  0.00  0.00     0.257 C 
ATOM     26  O   UNL d   1      22.356 -16.272  -0.452  0.00  0.00    -0.267 OA
ATOM     27  H   UNL d   1      24.010 -18.929  -1.168  0.00  0.00     0.171 HD
BRANCH  25  28
ATOM     28  C   UNL d   1      21.500 -18.428  -0.276  0.00  0.00     0.032 A 
ATOM     29  C   UNL d   1      21.330 -18.950   1.024  0.00  0.00     0.017 A 
ATOM     30  C   UNL d   1      20.280 -19.829   1.323  0.00  0.00     0.007 A 
ATOM     31  C   UNL d   1      19.378 -20.205   0.327  0.00  0.00    -0.062 A 
ATOM     32  C   UNL d   1      18.230 -21.127   0.621  0.00  0.00     0.048 C 
ATOM     33  C   UNL d   1      19.552 -19.700  -0.968  0.00  0.00     0.007 A 
ATOM     34  C   UNL d   1      20.604 -18.824  -1.270  0.00  0.00     0.017 A 
ENDBRANCH  25  28
ENDBRANCH   1  24
TORSDOF 6
ENDMDL
MODEL 9
REMARK VINA RESULT:    -9.333      2.056      2.707
REMARK INTER + INTRA:         -13.063
REMARK INTER:                 -11.123
REMARK INTRA:                  -1.940
REMARK CONF_INDEPENDENT:        1.790
REMARK UNBOUND:                -1.940
REMARK  6 active torsions:
REMARK  status: ('A' for Active; 'I' for Inactive)
REMARK    1  A    between atoms: C_5  and  C_6 
REMARK       I    between atoms: C_6  and  N_8 
REMARK    2  A    between atoms: N_8  and  C_9 
REMARK    3  A    between atoms: C_16  and  C_17 
REMARK       I    between atoms: C_17  and  N_19 
REMARK    4  A    between atoms: N_19  and  C_20 
REMARK    5  A    between atoms: C_22  and  C_23 
REMARK    6  A    between atoms: C_23  and  C_24 
REMARK       I    between atoms: C_24  and  N_25 
ROOT
ATOM      1  C   UNL d   1      24.271 -17.084  -0.644  0.00  0.00     0.174 A 
ATOM      2  N   UNL d   1      25.505 -17.149  -0.154  0.00  0.00    -0.227 NA
ATOM      3  C   UNL d   1      26.317 -16.410  -0.990  0.00  0.00     0.063 A 
ATOM      4  C   UNL d   1      25.671 -15.741  -1.990  0.00  0.00     0.012 A 
ATOM      5  S   UNL d   1      24.034 -16.003  -1.977  0.00  0.00    -0.054 SA
ATOM      6  C   UNL d   1      26.521 -14.902  -2.838  0.00  0.00     0.049 C 
ATOM      7  C   UNL d   1      27.931 -15.449  -2.460  0.00  0.00     0.025 C 
ATOM      8  C   UNL d   1      27.781 -16.101  -1.013  0.00  0.00     0.131 C 
ENDROOT
BRANCH   8   9
ATOM      9  C   UNL d   1      28.159 -15.096   0.078  0.00  0.00     0.233 C 
ATOM     10  O   UNL d   1      29.306 -14.713   0.265  0.00  0.00    -0.272 OA
ATOM     11  N   UNL d   1      27.086 -14.743   0.868  0.00  0.00    -0.305 N 
ATOM     12  H   UNL d   1      26.326 -15.398   0.991  0.00  0.00     0.171 HD
BRANCH  11  13
ATOM     13  C   UNL d   1      27.294 -13.944   1.954  0.00  0.00     0.173 A 
ATOM     14  N   UNL d   1      27.603 -14.208   3.203  0.00  0.00    -0.228 NA
ATOM     15  C   UNL d   1      27.763 -13.004   3.919  0.00  0.00     0.052 A 
ATOM     16  C   UNL d   1      27.440 -11.918   3.127  0.00  0.00     0.081 A 
ATOM     17  S   UNL d   1      27.116 -12.325   1.511  0.00  0.00    -0.062 SA
BRANCH  15  18
ATOM     18  C   UNL d   1      28.244 -13.079   5.364  0.00  0.00     0.162 C 
BRANCH  18  19
ATOM     19  C   UNL d   1      29.007 -14.314   5.859  0.00  0.00     0.221 C 
ATOM     20  N   UNL d   1      29.411 -15.302   5.028  0.00  0.00    -0.370 N 
ATOM     21  H   UNL d   1      29.206 -15.376   4.060  0.00  0.00     0.159 HD
ATOM     22  H   UNL d   1      29.909 -16.097   5.399  0.00  0.00     0.159 HD
ATOM     23  O   UNL d   1      29.292 -14.457   7.059  0.00  0.00    -0.273 OA
ENDBRANCH  18  19
ENDBRANCH  15  18
ENDBRANCH  11  13
ENDBRANCH   8   9
BRANCH   1  24
ATOM     24  N   UNL d   1      23.137 -17.663  -0.103  0.00  0.00    -0.301 N 
ATOM     25  C   UNL d   1      22.380 -18.570  -0.841  0.00  0.00     0.257 C 
ATOM     26  O   UNL d   1      22.661 -18.953  -1.978  0.00  0.00    -0.267 OA
ATOM     27  H   UNL d   1      23.055 -17.582   0.899  0.00  0.00     0.171 HD
BRANCH  25  28
ATOM     28  C   UNL d   1      21.173 -19.191  -0.205  0.00  0.00     0.032 A 
ATOM     29  C   UNL d   1      20.146 -19.668  -1.046  0.00  0.00     0.017 A 
ATOM     30  C   UNL d   1      19.001 -20.282  -0.519  0.00  0.00     0.007 A 
ATOM     31  C   UNL d   1      18.860 -20.430   0.861  0.00  0.00    -0.062 A 
ATOM     32  C   UNL d   1      17.656 -21.103   1.455  0.00  0.00     0.048 C 
ATOM     33  C   UNL d   1      19.871 -19.945   1.700  0.00  0.00     0.007 A 
ATOM     34  C   UNL d   1      21.015 -19.327   1.175  0.00  0.00     0.017 A 
ENDBRANCH  25  28
ENDBRANCH   1  24
TORSDOF 6
ENDMDL
