MODEL 1
REMARK VINA RESULT:   -28.058      0.000      0.000
REMARK INTER + INTRA:         -33.700
REMARK INTER:                 -31.041
REMARK INTRA:                  -2.659
REMARK CONF_INDEPENDENT:        2.983
REMARK UNBOUND:                -2.659
REMARK  10 active torsions:
REMARK  status: ('A' for Active; 'I' for Inactive)
REMARK    1  A    between atoms: N_1  and  C_2 
REMARK    2  A    between atoms: C_6  and  N_7 
REMARK    3  A    between atoms: C_10  and  C_11 
REMARK    4  A    between atoms: C_11  and  N_12 
REMARK    5  A    between atoms: C_18  and  C_19 
REMARK       I    between atoms: C_19  and  N_21 
REMARK    6  A    between atoms: N_21  and  N_22 
REMARK    7  A    between atoms: C_23  and  C_24 
REMARK    8  A    between atoms: C_27  and  O_28 
REMARK    9  A    between atoms: O_28  and  C_29 
REMARK   10  A    between atoms: C_29  and  C_30 
ROOT
ATOM      1  N   UNL d   1      23.156 -18.318  -0.059  0.00  0.00    -0.208 N 
ATOM      2  N   UNL d   1      23.623 -18.933   1.058  0.00  0.00     0.012 NA
ATOM      3  N   UNL d   1      24.907 -18.578   1.263  0.00  0.00    -0.160 NA
ATOM      4  C   UNL d   1      25.247 -17.615   0.343  0.00  0.00     0.112 C 
ATOM      5  C   UNL d   1      24.083 -17.438  -0.456  0.00  0.00     0.153 C 
ENDROOT
BRANCH   5   6
ATOM      6  C   UNL d   1      23.854 -16.509  -1.493  0.00  0.00     0.292 C 
ATOM      7  O   UNL d   1      22.885 -15.953  -1.217  0.00  0.00    -0.264 OA
ATOM      8  N   UNL d   1      24.405 -16.120  -2.709  0.00  0.00    -0.242 N 
ATOM      9  H   UNL d   1      24.599 -16.835  -3.390  0.00  0.00     0.192 HD
BRANCH   8  10
ATOM     10  N   UNL d   1      24.179 -14.806  -3.196  0.00  0.00    -0.183 NA
ATOM     11  C   UNL d   1      25.141 -13.936  -3.052  0.00  0.00     0.150 C 
BRANCH  11  12
ATOM     12  C   UNL d   1      25.248 -12.625  -3.798  0.00  0.00    -0.017 C 
ATOM     13  C   UNL d   1      25.530 -12.642  -5.171  0.00  0.00     0.015 C 
ATOM     14  C   UNL d   1      25.963 -11.467  -5.820  0.00  0.00     0.037 C 
ATOM     15  C   UNL d   1      25.945 -10.233  -5.162  0.00  0.00     0.069 C 
ATOM     16  C   UNL d   1      25.528 -10.197  -3.837  0.00  0.00     0.037 C 
ATOM     17  C   UNL d   1      25.171 -11.380  -3.166  0.00  0.00     0.015 C 
BRANCH  15  18
ATOM     18  O   UNL d   1      26.324  -9.142  -5.892  0.00  0.00    -0.347 OA
BRANCH  18  19
ATOM     19  C   UNL d   1      25.302  -8.443  -6.630  0.00  0.00     0.217 C 
BRANCH  19  20
ATOM     20  C   UNL d   1      24.579  -7.537  -5.673  0.00  0.00     0.004 C 
ATOM     21  C   UNL d   1      23.256  -7.130  -5.893  0.00  0.00     0.012 C 
ATOM     22  C   UNL d   1      22.724  -6.070  -5.155  0.00  0.00     0.001 C 
ATOM     23  C   UNL d   1      23.451  -5.512  -4.102  0.00  0.00     0.003 C 
ATOM     24  C   UNL d   1      24.730  -5.984  -3.815  0.00  0.00     0.043 C 
ATOM     25  C   UNL d   1      25.278  -6.993  -4.595  0.00  0.00     0.124 C 
ATOM     26  F   UNL d   1      26.511  -7.437  -4.313  0.00  0.00    -0.205 F 
ENDBRANCH  19  20
ENDBRANCH  18  19
ENDBRANCH  15  18
ENDBRANCH  11  12
ENDBRANCH   8  10
ENDBRANCH   5   6
BRANCH   4  27
ATOM     27  C   UNL d   1      26.690 -16.948   0.320  0.00  0.00     0.297 C 
BRANCH  27  28
ATOM     28  N   UNL d   1      26.821 -15.616  -0.483  0.00  0.00    -0.066 N 
ATOM     29  C   UNL d   1      26.779 -14.331   0.592  0.00  0.00     0.235 C 
ATOM     30  C   UNL d   1      27.565 -13.100  -0.009  0.00  0.00     0.028 C 
ATOM     31  C   UNL d   1      28.827 -13.324  -0.986  0.00  0.00     0.003 C 
ATOM     32  C   UNL d   1      28.696 -14.436  -2.013  0.00  0.00     0.028 C 
ATOM     33  C   UNL d   1      28.162 -15.808  -1.511  0.00  0.00     0.235 C 
ATOM     34  H   UNL d   1      26.034 -15.448  -1.115  0.00  0.00     0.280 HD
ENDBRANCH  27  28
ENDBRANCH   4  27
BRANCH   1  35
ATOM     35  C   UNL d   1      21.913 -18.378  -0.756  0.00  0.00     0.220 C 
ATOM     36  N   UNL d   1      21.974 -18.826  -2.020  0.00  0.00    -0.082 NA
ATOM     37  O   UNL d   1      20.680 -19.261  -2.305  0.00  0.00    -0.103 OA
ATOM     38  N   UNL d   1      19.905 -19.325  -1.157  0.00  0.00    -0.089 NA
ATOM     39  C   UNL d   1      20.640 -18.780  -0.180  0.00  0.00     0.180 C 
BRANCH  39  40
ATOM     40  N   UNL d   1      20.309 -18.948   1.144  0.00  0.00    -0.282 NA
ATOM     41  H   UNL d   1      21.093 -19.198   1.762  0.00  0.00     0.126 HD
ATOM     42  H   UNL d   1      19.778 -18.248   1.658  0.00  0.00     0.126 HD
ENDBRANCH  39  40
ENDBRANCH   1  35
TORSDOF 10
ENDMDL
MODEL 2
REMARK VINA RESULT:   -27.042      1.899      3.042
REMARK INTER + INTRA:         -33.492
REMARK INTER:                 -30.025
REMARK INTRA:                  -3.467
REMARK CONF_INDEPENDENT:        2.983
REMARK UNBOUND:                -3.467
REMARK  10 active torsions:
REMARK  status: ('A' for Active; 'I' for Inactive)
REMARK    1  A    between atoms: N_1  and  C_2 
REMARK    2  A    between atoms: C_6  and  N_7 
REMARK    3  A    between atoms: C_10  and  C_11 
REMARK    4  A    between atoms: C_11  and  N_12 
REMARK    5  A    between atoms: C_18  and  C_19 
REMARK       I    between atoms: C_19  and  N_21 
REMARK    6  A    between atoms: N_21  and  N_22 
REMARK    7  A    between atoms: C_23  and  C_24 
REMARK    8  A    between atoms: C_27  and  O_28 
REMARK    9  A    between atoms: O_28  and  C_29 
REMARK   10  A    between atoms: C_29  and  C_30 
ROOT
ATOM      1  N   UNL d   1      23.158 -18.326  -0.068  0.00  0.00    -0.208 N 
ATOM      2  N   UNL d   1      23.619 -18.943   1.051  0.00  0.00     0.012 NA
ATOM      3  N   UNL d   1      24.899 -18.578   1.269  0.00  0.00    -0.160 NA
ATOM      4  C   UNL d   1      25.239 -17.608   0.357  0.00  0.00     0.112 C 
ATOM      5  C   UNL d   1      24.081 -17.437  -0.452  0.00  0.00     0.153 C 
ENDROOT
BRANCH   5   6
ATOM      6  C   UNL d   1      23.854 -16.505  -1.486  0.00  0.00     0.292 C 
ATOM      7  O   UNL d   1      22.896 -15.935  -1.200  0.00  0.00    -0.264 OA
ATOM      8  N   UNL d   1      24.398 -16.122  -2.708  0.00  0.00    -0.242 N 
ATOM      9  H   UNL d   1      24.575 -16.840  -3.392  0.00  0.00     0.192 HD
BRANCH   8  10
ATOM     10  N   UNL d   1      24.184 -14.805  -3.192  0.00  0.00    -0.183 NA
ATOM     11  C   UNL d   1      25.139 -13.934  -3.011  0.00  0.00     0.150 C 
BRANCH  11  12
ATOM     12  C   UNL d   1      25.267 -12.618  -3.744  0.00  0.00    -0.017 C 
ATOM     13  C   UNL d   1      25.214 -12.608  -5.145  0.00  0.00     0.015 C 
ATOM     14  C   UNL d   1      25.658 -11.478  -5.863  0.00  0.00     0.037 C 
ATOM     15  C   UNL d   1      25.981 -10.287  -5.203  0.00  0.00     0.069 C 
ATOM     16  C   UNL d   1      25.896 -10.257  -3.817  0.00  0.00     0.037 C 
ATOM     17  C   UNL d   1      25.530 -11.407  -3.096  0.00  0.00     0.015 C 
BRANCH  15  18
ATOM     18  O   UNL d   1      26.341  -9.228  -5.989  0.00  0.00    -0.347 OA
BRANCH  18  19
ATOM     19  C   UNL d   1      27.750  -8.974  -6.163  0.00  0.00     0.217 C 
BRANCH  19  20
ATOM     20  C   UNL d   1      28.484 -10.265  -5.933  0.00  0.00     0.004 C 
ATOM     21  C   UNL d   1      28.597 -11.243  -6.931  0.00  0.00     0.012 C 
ATOM     22  C   UNL d   1      29.019 -12.531  -6.597  0.00  0.00     0.001 C 
ATOM     23  C   UNL d   1      29.468 -12.811  -5.305  0.00  0.00     0.003 C 
ATOM     24  C   UNL d   1      29.453 -11.812  -4.334  0.00  0.00     0.043 C 
ATOM     25  C   UNL d   1      28.970 -10.551  -4.657  0.00  0.00     0.124 C 
ATOM     26  F   UNL d   1      28.956  -9.598  -3.714  0.00  0.00    -0.205 F 
ENDBRANCH  19  20
ENDBRANCH  18  19
ENDBRANCH  15  18
ENDBRANCH  11  12
ENDBRANCH   8  10
ENDBRANCH   5   6
BRANCH   4  27
ATOM     27  C   UNL d   1      26.677 -16.928   0.351  0.00  0.00     0.297 C 
BRANCH  27  28
ATOM     28  N   UNL d   1      26.863 -15.719  -0.618  0.00  0.00    -0.066 N 
ATOM     29  C   UNL d   1      27.615 -14.473   0.213  0.00  0.00     0.235 C 
ATOM     30  C   UNL d   1      28.425 -13.565  -0.794  0.00  0.00     0.028 C 
ATOM     31  C   UNL d   1      29.085 -14.193  -2.124  0.00  0.00     0.003 C 
ATOM     32  C   UNL d   1      28.249 -15.219  -2.871  0.00  0.00     0.028 C 
ATOM     33  C   UNL d   1      27.582 -16.342  -2.028  0.00  0.00     0.235 C 
ATOM     34  H   UNL d   1      25.978 -15.317  -0.936  0.00  0.00     0.280 HD
ENDBRANCH  27  28
ENDBRANCH   4  27
BRANCH   1  35
ATOM     35  C   UNL d   1      21.922 -18.392  -0.777  0.00  0.00     0.220 C 
ATOM     36  N   UNL d   1      21.991 -18.887  -2.023  0.00  0.00    -0.082 NA
ATOM     37  O   UNL d   1      20.693 -19.313  -2.308  0.00  0.00    -0.103 OA
ATOM     38  N   UNL d   1      19.904 -19.324  -1.167  0.00  0.00    -0.089 NA
ATOM     39  C   UNL d   1      20.637 -18.755  -0.202  0.00  0.00     0.180 C 
BRANCH  39  40
ATOM     40  N   UNL d   1      20.288 -18.871   1.124  0.00  0.00    -0.282 NA
ATOM     41  H   UNL d   1      21.021 -18.597   1.793  0.00  0.00     0.126 HD
ATOM     42  H   UNL d   1      19.428 -18.466   1.490  0.00  0.00     0.126 HD
ENDBRANCH  39  40
ENDBRANCH   1  35
TORSDOF 10
ENDMDL
