MODEL 1
REMARK VINA RESULT:   -30.363      0.000      0.000
REMARK INTER + INTRA:         -31.971
REMARK INTER:                 -31.556
REMARK INTRA:                  -0.415
REMARK CONF_INDEPENDENT:        1.193
REMARK UNBOUND:                -0.415
REMARK  4 active torsions:
REMARK  status: ('A' for Active; 'I' for Inactive)
REMARK    1  A    between atoms: C_12  and  N_13 
REMARK       I    between atoms: N_13  and  C_14 
REMARK    2  A    between atoms: C_14  and  C_16 
REMARK    3  A    between atoms: C_16  and  S_17 
REMARK    4  A    between atoms: S_17  and  C_18 
ROOT
ATOM      1  N   UNL d   1      25.331 -15.904  -1.748  0.00  0.00    -0.330 N 
ATOM      2  C   UNL d   1      24.428 -16.942  -1.467  0.00  0.00     0.229 C 
ATOM      3  O   UNL d   1      24.224 -17.859  -2.257  0.00  0.00    -0.273 OA
ATOM      4  H   UNL d   1      25.260 -15.040  -1.228  0.00  0.00     0.165 HD
ENDROOT
BRANCH   1   5
ATOM      5  C   UNL d   1      26.018 -15.859  -3.037  0.00  0.00     0.264 A 
ATOM      6  O   UNL d   1      27.409 -16.191  -2.777  0.00  0.00    -0.353 OA
ATOM      7  C   UNL d   1      28.275 -15.169  -3.321  0.00  0.00     0.156 A 
ATOM      8  C   UNL d   1      27.369 -14.136  -3.822  0.00  0.00     0.012 A 
ATOM      9  C   UNL d   1      29.117 -15.749  -4.449  0.00  0.00     0.045 C 
ATOM     10  C   UNL d   1      26.100 -14.512  -3.671  0.00  0.00     0.070 A 
ATOM     11  C   UNL d   1      27.733 -12.881  -4.494  0.00  0.00     0.060 A 
ATOM     12  C   UNL d   1      25.072 -13.684  -4.290  0.00  0.00     0.272 A 
ATOM     13  N   UNL d   1      25.521 -12.529  -4.908  0.00  0.00    -0.243 N 
ATOM     14  O   UNL d   1      23.880 -13.995  -4.247  0.00  0.00    -0.266 OA
ATOM     15  N   UNL d   1      26.829 -12.110  -5.016  0.00  0.00    -0.176 NA
ATOM     16  H   UNL d   1      24.836 -11.908  -5.328  0.00  0.00     0.192 HD
ATOM     17  C   UNL d   1      29.190 -12.454  -4.560  0.00  0.00     0.073 C 
ENDBRANCH   1   5
BRANCH   2  18
ATOM     18  C   UNL d   1      23.660 -16.802  -0.141  0.00  0.00     0.185 C 
BRANCH  18  19
ATOM     19  S   UNL d   1      23.072 -18.387   0.548  0.00  0.00    -0.081 SA
BRANCH  19  20
ATOM     20  C   UNL d   1      21.468 -18.769  -0.034  0.00  0.00     0.192 A 
ATOM     21  N   UNL d   1      20.929 -18.180  -1.084  0.00  0.00    -0.123 NA
ATOM     22  N   UNL d   1      19.656 -18.676  -1.270  0.00  0.00    -0.134 NA
ATOM     23  C   UNL d   1      19.424 -19.561  -0.325  0.00  0.00     0.130 A 
ATOM     24  N   UNL d   1      20.539 -19.625   0.495  0.00  0.00    -0.311 N 
ATOM     25  C   UNL d   1      18.158 -20.350  -0.142  0.00  0.00     0.081 C 
ATOM     26  C   UNL d   1      20.638 -20.438   1.675  0.00  0.00     0.133 C 
ATOM     27  C   UNL d   1      19.402 -20.415   2.548  0.00  0.00     0.020 C 
ATOM     28  C   UNL d   1      18.405 -21.472   2.105  0.00  0.00     0.002 C 
ATOM     29  C   UNL d   1      18.378 -21.678   0.585  0.00  0.00     0.008 C 
ENDBRANCH  19  20
ENDBRANCH  18  19
ENDBRANCH   2  18
TORSDOF 4
ENDMDL
MODEL 2
REMARK VINA RESULT:   -30.025      1.671      2.501
REMARK INTER + INTRA:         -31.603
REMARK INTER:                 -31.218
REMARK INTRA:                  -0.384
REMARK CONF_INDEPENDENT:        1.193
REMARK UNBOUND:                -0.384
REMARK  4 active torsions:
REMARK  status: ('A' for Active; 'I' for Inactive)
REMARK    1  A    between atoms: C_12  and  N_13 
REMARK       I    between atoms: N_13  and  C_14 
REMARK    2  A    between atoms: C_14  and  C_16 
REMARK    3  A    between atoms: C_16  and  S_17 
REMARK    4  A    between atoms: S_17  and  C_18 
ROOT
ATOM      1  N   UNL d   1      25.188 -16.482  -2.340  0.00  0.00    -0.330 N 
ATOM      2  C   UNL d   1      25.034 -16.937  -1.020  0.00  0.00     0.229 C 
ATOM      3  O   UNL d   1      25.509 -16.332  -0.063  0.00  0.00    -0.273 OA
ATOM      4  H   UNL d   1      25.046 -17.132  -3.101  0.00  0.00     0.165 HD
ENDROOT
BRANCH   1   5
ATOM      5  C   UNL d   1      25.981 -15.286  -2.615  0.00  0.00     0.264 A 
ATOM      6  O   UNL d   1      25.188 -14.459  -3.510  0.00  0.00    -0.353 OA
ATOM      7  C   UNL d   1      25.957 -14.118  -4.686  0.00  0.00     0.156 A 
ATOM      8  C   UNL d   1      27.211 -14.858  -4.543  0.00  0.00     0.012 A 
ATOM      9  C   UNL d   1      26.211 -12.617  -4.721  0.00  0.00     0.045 C 
ATOM     10  C   UNL d   1      27.237 -15.514  -3.384  0.00  0.00     0.070 A 
ATOM     11  C   UNL d   1      28.359 -14.849  -5.458  0.00  0.00     0.060 A 
ATOM     12  C   UNL d   1      28.492 -16.149  -2.996  0.00  0.00     0.272 A 
ATOM     13  N   UNL d   1      29.516 -16.074  -3.925  0.00  0.00    -0.243 N 
ATOM     14  O   UNL d   1      28.616 -16.725  -1.913  0.00  0.00    -0.266 OA
ATOM     15  N   UNL d   1      29.471 -15.443  -5.148  0.00  0.00    -0.176 NA
ATOM     16  H   UNL d   1      30.399 -16.527  -3.708  0.00  0.00     0.192 HD
ATOM     17  C   UNL d   1      28.246 -14.160  -6.808  0.00  0.00     0.073 C 
ENDBRANCH   1   5
BRANCH   2  18
ATOM     18  C   UNL d   1      24.303 -18.283  -0.872  0.00  0.00     0.185 C 
BRANCH  18  19
ATOM     19  S   UNL d   1      23.120 -18.337   0.517  0.00  0.00    -0.081 SA
BRANCH  19  20
ATOM     20  C   UNL d   1      21.503 -18.692  -0.047  0.00  0.00     0.192 A 
ATOM     21  N   UNL d   1      20.967 -18.104  -1.100  0.00  0.00    -0.123 NA
ATOM     22  N   UNL d   1      19.683 -18.576  -1.269  0.00  0.00    -0.134 NA
ATOM     23  C   UNL d   1      19.441 -19.446  -0.313  0.00  0.00     0.130 A 
ATOM     24  N   UNL d   1      20.562 -19.524   0.498  0.00  0.00    -0.311 N 
ATOM     25  C   UNL d   1      18.161 -20.207  -0.111  0.00  0.00     0.081 C 
ATOM     26  C   UNL d   1      20.655 -20.326   1.686  0.00  0.00     0.133 C 
ATOM     27  C   UNL d   1      19.428 -20.269   2.569  0.00  0.00     0.020 C 
ATOM     28  C   UNL d   1      18.406 -21.311   2.146  0.00  0.00     0.002 C 
ATOM     29  C   UNL d   1      18.361 -21.531   0.629  0.00  0.00     0.008 C 
ENDBRANCH  19  20
ENDBRANCH  18  19
ENDBRANCH   2  18
TORSDOF 4
ENDMDL
MODEL 3
REMARK VINA RESULT:   -29.728      1.661      1.814
REMARK INTER + INTRA:         -31.100
REMARK INTER:                 -30.921
REMARK INTRA:                  -0.179
REMARK CONF_INDEPENDENT:        1.193
REMARK UNBOUND:                -0.179
REMARK  4 active torsions:
REMARK  status: ('A' for Active; 'I' for Inactive)
REMARK    1  A    between atoms: C_12  and  N_13 
REMARK       I    between atoms: N_13  and  C_14 
REMARK    2  A    between atoms: C_14  and  C_16 
REMARK    3  A    between atoms: C_16  and  S_17 
REMARK    4  A    between atoms: S_17  and  C_18 
ROOT
ATOM      1  N   UNL d   1      25.670 -17.073  -2.236  0.00  0.00    -0.330 N 
ATOM      2  C   UNL d   1      25.310 -17.374  -0.913  0.00  0.00     0.229 C 
ATOM      3  O   UNL d   1      25.820 -16.803   0.047  0.00  0.00    -0.273 OA
ATOM      4  H   UNL d   1      25.458 -17.740  -2.965  0.00  0.00     0.165 HD
ENDROOT
BRANCH   1   5
ATOM      5  C   UNL d   1      26.722 -16.095  -2.505  0.00  0.00     0.264 A 
ATOM      6  O   UNL d   1      27.587 -16.084  -1.336  0.00  0.00    -0.353 OA
ATOM      7  C   UNL d   1      27.735 -14.735  -0.838  0.00  0.00     0.156 A 
ATOM      8  C   UNL d   1      26.839 -13.928  -1.665  0.00  0.00     0.012 A 
ATOM      9  C   UNL d   1      29.180 -14.280  -0.994  0.00  0.00     0.045 C 
ATOM     10  C   UNL d   1      26.267 -14.679  -2.606  0.00  0.00     0.070 A 
ATOM     11  C   UNL d   1      26.623 -12.477  -1.591  0.00  0.00     0.060 A 
ATOM     12  C   UNL d   1      25.492 -13.996  -3.635  0.00  0.00     0.272 A 
ATOM     13  N   UNL d   1      25.359 -12.627  -3.479  0.00  0.00    -0.243 N 
ATOM     14  O   UNL d   1      24.981 -14.612  -4.573  0.00  0.00    -0.266 OA
ATOM     15  N   UNL d   1      25.903 -11.857  -2.475  0.00  0.00    -0.176 NA
ATOM     16  H   UNL d   1      24.803 -12.115  -4.158  0.00  0.00     0.192 HD
ATOM     17  C   UNL d   1      27.226 -11.680  -0.445  0.00  0.00     0.073 C 
ENDBRANCH   1   5
BRANCH   2  18
ATOM     18  C   UNL d   1      24.296 -18.521  -0.754  0.00  0.00     0.185 C 
BRANCH  18  19
ATOM     19  S   UNL d   1      23.040 -18.229   0.537  0.00  0.00    -0.081 SA
BRANCH  19  20
ATOM     20  C   UNL d   1      21.440 -18.636  -0.038  0.00  0.00     0.192 A 
ATOM     21  N   UNL d   1      20.890 -18.061  -1.091  0.00  0.00    -0.123 NA
ATOM     22  N   UNL d   1      19.623 -18.575  -1.270  0.00  0.00    -0.134 NA
ATOM     23  C   UNL d   1      19.406 -19.458  -0.320  0.00  0.00     0.130 A 
ATOM     24  N   UNL d   1      20.524 -19.501   0.498  0.00  0.00    -0.311 N 
ATOM     25  C   UNL d   1      18.151 -20.262  -0.128  0.00  0.00     0.081 C 
ATOM     26  C   UNL d   1      20.637 -20.306   1.682  0.00  0.00     0.133 C 
ATOM     27  C   UNL d   1      19.404 -20.295   2.559  0.00  0.00     0.020 C 
ATOM     28  C   UNL d   1      18.419 -21.368   2.124  0.00  0.00     0.002 C 
ATOM     29  C   UNL d   1      18.391 -21.583   0.606  0.00  0.00     0.008 C 
ENDBRANCH  19  20
ENDBRANCH  18  19
ENDBRANCH   2  18
TORSDOF 4
ENDMDL
MODEL 4
REMARK VINA RESULT:   -28.606      3.423      3.639
REMARK INTER + INTRA:         -30.118
REMARK INTER:                 -29.800
REMARK INTRA:                  -0.318
REMARK CONF_INDEPENDENT:        1.193
REMARK UNBOUND:                -0.318
REMARK  4 active torsions:
REMARK  status: ('A' for Active; 'I' for Inactive)
REMARK    1  A    between atoms: C_12  and  N_13 
REMARK       I    between atoms: N_13  and  C_14 
REMARK    2  A    between atoms: C_14  and  C_16 
REMARK    3  A    between atoms: C_16  and  S_17 
REMARK    4  A    between atoms: S_17  and  C_18 
ROOT
ATOM      1  N   UNL d   1      25.764 -15.505  -0.191  0.00  0.00    -0.330 N 
ATOM      2  C   UNL d   1      25.450 -16.874  -0.144  0.00  0.00     0.229 C 
ATOM      3  O   UNL d   1      26.279 -17.721   0.174  0.00  0.00    -0.273 OA
ATOM      4  H   UNL d   1      25.169 -14.885  -0.722  0.00  0.00     0.165 HD
ENDROOT
BRANCH   1   5
ATOM      5  C   UNL d   1      27.126 -15.056   0.088  0.00  0.00     0.264 A 
ATOM      6  O   UNL d   1      27.406 -15.412   1.470  0.00  0.00    -0.353 OA
ATOM      7  C   UNL d   1      27.857 -14.250   2.202  0.00  0.00     0.156 A 
ATOM      8  C   UNL d   1      27.735 -13.139   1.258  0.00  0.00     0.012 A 
ATOM      9  C   UNL d   1      29.304 -14.440   2.636  0.00  0.00     0.045 C 
ATOM     10  C   UNL d   1      27.329 -13.580   0.068  0.00  0.00     0.070 A 
ATOM     11  C   UNL d   1      28.084 -11.731   1.488  0.00  0.00     0.060 A 
ATOM     12  C   UNL d   1      27.338 -12.632  -1.041  0.00  0.00     0.272 A 
ATOM     13  N   UNL d   1      27.693 -11.333  -0.720  0.00  0.00    -0.243 N 
ATOM     14  O   UNL d   1      27.033 -12.976  -2.186  0.00  0.00    -0.266 OA
ATOM     15  N   UNL d   1      28.059 -10.865   0.523  0.00  0.00    -0.176 NA
ATOM     16  H   UNL d   1      27.686 -10.634  -1.457  0.00  0.00     0.192 HD
ATOM     17  C   UNL d   1      28.454 -11.263   2.886  0.00  0.00     0.073 C 
ENDBRANCH   1   5
BRANCH   2  18
ATOM     18  C   UNL d   1      24.025 -17.235  -0.598  0.00  0.00     0.185 C 
BRANCH  18  19
ATOM     19  S   UNL d   1      23.083 -18.215   0.621  0.00  0.00    -0.081 SA
BRANCH  19  20
ATOM     20  C   UNL d   1      21.499 -18.627   0.008  0.00  0.00     0.192 A 
ATOM     21  N   UNL d   1      20.976 -18.059  -1.062  0.00  0.00    -0.123 NA
ATOM     22  N   UNL d   1      19.714 -18.575  -1.270  0.00  0.00    -0.134 NA
ATOM     23  C   UNL d   1      19.472 -19.451  -0.319  0.00  0.00     0.130 A 
ATOM     24  N   UNL d   1      20.569 -19.489   0.527  0.00  0.00    -0.311 N 
ATOM     25  C   UNL d   1      18.213 -20.254  -0.154  0.00  0.00     0.081 C 
ATOM     26  C   UNL d   1      20.653 -20.285   1.720  0.00  0.00     0.133 C 
ATOM     27  C   UNL d   1      19.397 -20.268   2.564  0.00  0.00     0.020 C 
ATOM     28  C   UNL d   1      18.425 -21.344   2.113  0.00  0.00     0.002 C 
ATOM     29  C   UNL d   1      18.435 -21.570   0.596  0.00  0.00     0.008 C 
ENDBRANCH  19  20
ENDBRANCH  18  19
ENDBRANCH   2  18
TORSDOF 4
ENDMDL
MODEL 5
REMARK VINA RESULT:   -28.510      2.574      3.497
REMARK INTER + INTRA:         -30.121
REMARK INTER:                 -29.703
REMARK INTRA:                  -0.418
REMARK CONF_INDEPENDENT:        1.193
REMARK UNBOUND:                -0.418
REMARK  4 active torsions:
REMARK  status: ('A' for Active; 'I' for Inactive)
REMARK    1  A    between atoms: C_12  and  N_13 
REMARK       I    between atoms: N_13  and  C_14 
REMARK    2  A    between atoms: C_14  and  C_16 
REMARK    3  A    between atoms: C_16  and  S_17 
REMARK    4  A    between atoms: S_17  and  C_18 
ROOT
ATOM      1  N   UNL d   1      26.466 -17.427  -1.364  0.00  0.00    -0.330 N 
ATOM      2  C   UNL d   1      25.118 -17.226  -1.025  0.00  0.00     0.229 C 
ATOM      3  O   UNL d   1      24.615 -16.107  -0.992  0.00  0.00    -0.273 OA
ATOM      4  H   UNL d   1      26.912 -18.296  -1.105  0.00  0.00     0.165 HD
ENDROOT
BRANCH   1   5
ATOM      5  C   UNL d   1      27.332 -16.281  -1.635  0.00  0.00     0.264 A 
ATOM      6  O   UNL d   1      28.154 -16.643  -2.779  0.00  0.00    -0.353 OA
ATOM      7  C   UNL d   1      29.553 -16.455  -2.466  0.00  0.00     0.156 A 
ATOM      8  C   UNL d   1      29.575 -16.078  -1.053  0.00  0.00     0.012 A 
ATOM      9  C   UNL d   1      30.135 -15.349  -3.335  0.00  0.00     0.045 C 
ATOM     10  C   UNL d   1      28.335 -15.974  -0.577  0.00  0.00     0.070 A 
ATOM     11  C   UNL d   1      30.752 -15.751  -0.237  0.00  0.00     0.060 A 
ATOM     12  C   UNL d   1      28.171 -15.421   0.763  0.00  0.00     0.272 A 
ATOM     13  N   UNL d   1      29.342 -15.135   1.444  0.00  0.00    -0.243 N 
ATOM     14  O   UNL d   1      27.054 -15.237   1.253  0.00  0.00    -0.266 OA
ATOM     15  N   UNL d   1      30.627 -15.295   0.972  0.00  0.00    -0.176 NA
ATOM     16  H   UNL d   1      29.275 -14.774   2.391  0.00  0.00     0.192 HD
ATOM     17  C   UNL d   1      32.147 -15.972  -0.798  0.00  0.00     0.073 C 
ENDBRANCH   1   5
BRANCH   2  18
ATOM     18  C   UNL d   1      24.348 -18.496  -0.621  0.00  0.00     0.185 C 
BRANCH  18  19
ATOM     19  S   UNL d   1      23.054 -18.211   0.635  0.00  0.00    -0.081 SA
BRANCH  19  20
ATOM     20  C   UNL d   1      21.474 -18.631   0.016  0.00  0.00     0.192 A 
ATOM     21  N   UNL d   1      20.953 -18.067  -1.057  0.00  0.00    -0.123 NA
ATOM     22  N   UNL d   1      19.694 -18.589  -1.269  0.00  0.00    -0.134 NA
ATOM     23  C   UNL d   1      19.453 -19.465  -0.318  0.00  0.00     0.130 A 
ATOM     24  N   UNL d   1      20.546 -19.496   0.532  0.00  0.00    -0.311 N 
ATOM     25  C   UNL d   1      18.197 -20.273  -0.157  0.00  0.00     0.081 C 
ATOM     26  C   UNL d   1      20.629 -20.291   1.726  0.00  0.00     0.133 C 
ATOM     27  C   UNL d   1      19.370 -20.279   2.566  0.00  0.00     0.020 C 
ATOM     28  C   UNL d   1      18.404 -21.360   2.112  0.00  0.00     0.002 C 
ATOM     29  C   UNL d   1      18.421 -21.587   0.595  0.00  0.00     0.008 C 
ENDBRANCH  19  20
ENDBRANCH  18  19
ENDBRANCH   2  18
TORSDOF 4
ENDMDL
MODEL 6
REMARK VINA RESULT:   -28.508      2.408      3.136
REMARK INTER + INTRA:         -29.985
REMARK INTER:                 -29.701
REMARK INTRA:                  -0.284
REMARK CONF_INDEPENDENT:        1.193
REMARK UNBOUND:                -0.284
REMARK  4 active torsions:
REMARK  status: ('A' for Active; 'I' for Inactive)
REMARK    1  A    between atoms: C_12  and  N_13 
REMARK       I    between atoms: N_13  and  C_14 
REMARK    2  A    between atoms: C_14  and  C_16 
REMARK    3  A    between atoms: C_16  and  S_17 
REMARK    4  A    between atoms: S_17  and  C_18 
ROOT
ATOM      1  N   UNL d   1      26.478 -17.547  -0.249  0.00  0.00    -0.330 N 
ATOM      2  C   UNL d   1      25.206 -17.032  -0.549  0.00  0.00     0.229 C 
ATOM      3  O   UNL d   1      24.973 -15.827  -0.542  0.00  0.00    -0.273 OA
ATOM      4  H   UNL d   1      26.563 -18.518   0.017  0.00  0.00     0.165 HD
ENDROOT
BRANCH   1   5
ATOM      5  C   UNL d   1      27.560 -16.645   0.142  0.00  0.00     0.264 A 
ATOM      6  O   UNL d   1      26.943 -15.550   0.874  0.00  0.00    -0.353 OA
ATOM      7  C   UNL d   1      27.335 -14.283   0.299  0.00  0.00     0.156 A 
ATOM      8  C   UNL d   1      28.119 -14.633  -0.885  0.00  0.00     0.012 A 
ATOM      9  C   UNL d   1      28.175 -13.498   1.298  0.00  0.00     0.045 C 
ATOM     10  C   UNL d   1      28.255 -15.955  -0.982  0.00  0.00     0.070 A 
ATOM     11  C   UNL d   1      28.775 -13.714  -1.823  0.00  0.00     0.060 A 
ATOM     12  C   UNL d   1      29.168 -16.467  -1.997  0.00  0.00     0.272 A 
ATOM     13  N   UNL d   1      29.744 -15.517  -2.823  0.00  0.00    -0.243 N 
ATOM     14  O   UNL d   1      29.394 -17.674  -2.112  0.00  0.00    -0.266 OA
ATOM     15  N   UNL d   1      29.560 -14.153  -2.759  0.00  0.00    -0.176 NA
ATOM     16  H   UNL d   1      30.365 -15.831  -3.562  0.00  0.00     0.192 HD
ATOM     17  C   UNL d   1      28.516 -12.219  -1.723  0.00  0.00     0.073 C 
ENDBRANCH   1   5
BRANCH   2  18
ATOM     18  C   UNL d   1      24.116 -18.088  -0.805  0.00  0.00     0.185 C 
BRANCH  18  19
ATOM     19  S   UNL d   1      22.931 -18.280   0.571  0.00  0.00    -0.081 SA
BRANCH  19  20
ATOM     20  C   UNL d   1      21.349 -18.730  -0.021  0.00  0.00     0.192 A 
ATOM     21  N   UNL d   1      20.793 -18.168  -1.078  0.00  0.00    -0.123 NA
ATOM     22  N   UNL d   1      19.543 -18.717  -1.270  0.00  0.00    -0.134 NA
ATOM     23  C   UNL d   1      19.341 -19.607  -0.323  0.00  0.00     0.130 A 
ATOM     24  N   UNL d   1      20.452 -19.621   0.505  0.00  0.00    -0.311 N 
ATOM     25  C   UNL d   1      18.107 -20.446  -0.145  0.00  0.00     0.081 C 
ATOM     26  C   UNL d   1      20.577 -20.425   1.690  0.00  0.00     0.133 C 
ATOM     27  C   UNL d   1      19.335 -20.449   2.554  0.00  0.00     0.020 C 
ATOM     28  C   UNL d   1      18.385 -21.548   2.109  0.00  0.00     0.002 C 
ATOM     29  C   UNL d   1      18.377 -21.761   0.590  0.00  0.00     0.008 C 
ENDBRANCH  19  20
ENDBRANCH  18  19
ENDBRANCH   2  18
TORSDOF 4
ENDMDL
