MODEL 1
REMARK VINA RESULT:   -10.159      0.000      0.000
REMARK INTER + INTRA:         -13.938
REMARK INTER:                 -12.844
REMARK INTRA:                  -1.094
REMARK CONF_INDEPENDENT:        2.685
REMARK UNBOUND:                -1.094
REMARK  9 active torsions:
REMARK  status: ('A' for Active; 'I' for Inactive)
REMARK    1  A    between atoms: C_5  and  C_6 
REMARK    2  A    between atoms: C_6  and  S_7 
REMARK    3  A    between atoms: S_7  and  C_8 
REMARK    4  A    between atoms: C_11  and  S_12 
REMARK    5  A    between atoms: S_12  and  C_13 
REMARK    6  A    between atoms: C_13  and  C_14 
REMARK       I    between atoms: C_14  and  N_16 
REMARK    7  A    between atoms: N_16  and  N_17 
REMARK    8  A    between atoms: C_18  and  C_19 
REMARK    9  A    between atoms: C_22  and  O_23 
ROOT
ATOM      1  S   UNL d   1      25.196 -15.457  -2.022  0.00  0.00    -0.092 SA
ENDROOT
BRANCH   1   2
ATOM      2  C   UNL d   1      26.080 -15.282  -3.525  0.00  0.00     0.159 A 
ATOM      3  N   UNL d   1      25.528 -15.665  -4.664  0.00  0.00    -0.134 NA
ATOM      4  N   UNL d   1      26.347 -15.453  -5.770  0.00  0.00    -0.134 NA
ATOM      5  C   UNL d   1      27.488 -14.917  -5.414  0.00  0.00     0.159 A 
ATOM      6  S   UNL d   1      27.649 -14.644  -3.716  0.00  0.00    -0.033 SA
BRANCH   5   7
ATOM      7  S   UNL d   1      28.780 -14.486  -6.479  0.00  0.00    -0.097 SA
BRANCH   7   8
ATOM      8  C   UNL d   1      30.363 -14.964  -5.704  0.00  0.00     0.120 C 
BRANCH   8   9
ATOM      9  C   UNL d   1      30.476 -16.479  -5.490  0.00  0.00    -0.049 A 
ATOM     10  C   UNL d   1      30.513 -17.020  -4.192  0.00  0.00     0.008 A 
ATOM     11  C   UNL d   1      30.595 -18.411  -3.991  0.00  0.00     0.007 A 
ATOM     12  C   UNL d   1      30.642 -19.290  -5.078  0.00  0.00    -0.062 A 
ATOM     13  C   UNL d   1      30.707 -20.777  -4.906  0.00  0.00     0.048 C 
ATOM     14  C   UNL d   1      30.616 -18.766  -6.365  0.00  0.00     0.007 A 
ATOM     15  C   UNL d   1      30.537 -17.390  -6.562  0.00  0.00     0.008 A 
ENDBRANCH   8   9
ENDBRANCH   7   8
ENDBRANCH   5   7
ENDBRANCH   1   2
BRANCH   1  16
ATOM     16  C   UNL d   1      25.876 -16.895  -1.096  0.00  0.00     0.186 C 
BRANCH  16  17
ATOM     17  C   UNL d   1      24.714 -17.784  -0.573  0.00  0.00     0.247 C 
ATOM     18  O   UNL d   1      24.641 -18.138   0.610  0.00  0.00    -0.271 OA
ATOM     19  N   UNL d   1      23.745 -18.169  -1.517  0.00  0.00    -0.247 N 
ATOM     20  H   UNL d   1      23.781 -17.890  -2.490  0.00  0.00     0.192 HD
BRANCH  19  21
ATOM     21  N   UNL d   1      22.695 -18.959  -1.076  0.00  0.00    -0.184 NA
ATOM     22  C   UNL d   1      21.675 -18.423  -0.476  0.00  0.00     0.150 C 
BRANCH  22  23
ATOM     23  C   UNL d   1      20.530 -19.265   0.017  0.00  0.00    -0.017 A 
ATOM     24  C   UNL d   1      20.456 -19.691   1.355  0.00  0.00     0.015 A 
ATOM     25  C   UNL d   1      19.383 -20.494   1.794  0.00  0.00     0.037 A 
ATOM     26  C   UNL d   1      18.389 -20.868   0.895  0.00  0.00     0.065 A 
ATOM     27  C   UNL d   1      18.447 -20.445  -0.427  0.00  0.00     0.037 A 
ATOM     28  C   UNL d   1      19.512 -19.647  -0.865  0.00  0.00     0.015 A 
BRANCH  26  29
ATOM     29  O   UNL d   1      17.334 -21.653   1.257  0.00  0.00    -0.361 OA
ATOM     30  H   UNL d   1      17.017 -22.160   0.492  0.00  0.00     0.217 HD
ENDBRANCH  26  29
ENDBRANCH  22  23
ENDBRANCH  19  21
ENDBRANCH  16  17
ENDBRANCH   1  16
TORSDOF 9
ENDMDL
MODEL 2
REMARK VINA RESULT:    -9.463      3.566      9.279
REMARK INTER + INTRA:         -13.178
REMARK INTER:                 -12.147
REMARK INTRA:                  -1.031
REMARK CONF_INDEPENDENT:        2.685
REMARK UNBOUND:                -1.031
REMARK  9 active torsions:
REMARK  status: ('A' for Active; 'I' for Inactive)
REMARK    1  A    between atoms: C_5  and  C_6 
REMARK    2  A    between atoms: C_6  and  S_7 
REMARK    3  A    between atoms: S_7  and  C_8 
REMARK    4  A    between atoms: C_11  and  S_12 
REMARK    5  A    between atoms: S_12  and  C_13 
REMARK    6  A    between atoms: C_13  and  C_14 
REMARK       I    between atoms: C_14  and  N_16 
REMARK    7  A    between atoms: N_16  and  N_17 
REMARK    8  A    between atoms: C_18  and  C_19 
REMARK    9  A    between atoms: C_22  and  O_23 
ROOT
ATOM      1  S   UNL d   1      26.279 -12.231  -5.495  0.00  0.00    -0.092 SA
ENDROOT
BRANCH   1   2
ATOM      2  C   UNL d   1      25.945 -13.269  -4.124  0.00  0.00     0.159 A 
ATOM      3  N   UNL d   1      24.908 -14.089  -4.152  0.00  0.00    -0.134 NA
ATOM      4  N   UNL d   1      24.781 -14.856  -2.997  0.00  0.00    -0.134 NA
ATOM      5  C   UNL d   1      25.734 -14.578  -2.142  0.00  0.00     0.159 A 
ATOM      6  S   UNL d   1      26.840 -13.364  -2.676  0.00  0.00    -0.033 SA
BRANCH   5   7
ATOM      7  S   UNL d   1      25.947 -15.311  -0.590  0.00  0.00    -0.097 SA
BRANCH   7   8
ATOM      8  C   UNL d   1      25.792 -17.121  -0.771  0.00  0.00     0.120 C 
BRANCH   8   9
ATOM      9  C   UNL d   1      24.331 -17.590  -0.729  0.00  0.00    -0.049 A 
ATOM     10  C   UNL d   1      23.278 -16.675  -0.911  0.00  0.00     0.008 A 
ATOM     11  C   UNL d   1      21.937 -17.104  -0.895  0.00  0.00     0.007 A 
ATOM     12  C   UNL d   1      21.619 -18.452  -0.696  0.00  0.00    -0.062 A 
ATOM     13  C   UNL d   1      20.206 -18.952  -0.694  0.00  0.00     0.048 C 
ATOM     14  C   UNL d   1      22.652 -19.362  -0.504  0.00  0.00     0.007 A 
ATOM     15  C   UNL d   1      23.976 -18.936  -0.518  0.00  0.00     0.008 A 
ENDBRANCH   8   9
ENDBRANCH   7   8
ENDBRANCH   5   7
ENDBRANCH   1   2
BRANCH   1  16
ATOM     16  C   UNL d   1      27.741 -12.891  -6.399  0.00  0.00     0.186 C 
BRANCH  16  17
ATOM     17  C   UNL d   1      27.973 -14.379  -6.013  0.00  0.00     0.247 C 
ATOM     18  O   UNL d   1      27.041 -15.187  -5.933  0.00  0.00    -0.271 OA
ATOM     19  N   UNL d   1      29.303 -14.761  -5.758  0.00  0.00    -0.247 N 
ATOM     20  H   UNL d   1      30.083 -14.118  -5.820  0.00  0.00     0.192 HD
BRANCH  19  21
ATOM     21  N   UNL d   1      29.537 -16.084  -5.418  0.00  0.00    -0.184 NA
ATOM     22  C   UNL d   1      30.318 -16.823  -6.146  0.00  0.00     0.150 C 
BRANCH  22  23
ATOM     23  C   UNL d   1      30.578 -18.263  -5.796  0.00  0.00    -0.017 A 
ATOM     24  C   UNL d   1      30.700 -18.682  -4.460  0.00  0.00     0.015 A 
ATOM     25  C   UNL d   1      30.961 -20.033  -4.152  0.00  0.00     0.037 A 
ATOM     26  C   UNL d   1      31.099 -20.961  -5.181  0.00  0.00     0.065 A 
ATOM     27  C   UNL d   1      30.970 -20.559  -6.505  0.00  0.00     0.037 A 
ATOM     28  C   UNL d   1      30.711 -19.217  -6.812  0.00  0.00     0.015 A 
BRANCH  26  29
ATOM     29  O   UNL d   1      31.363 -22.278  -4.947  0.00  0.00    -0.361 OA
ATOM     30  H   UNL d   1      30.662 -22.831  -5.327  0.00  0.00     0.217 HD
ENDBRANCH  26  29
ENDBRANCH  22  23
ENDBRANCH  19  21
ENDBRANCH  16  17
ENDBRANCH   1  16
TORSDOF 9
ENDMDL
MODEL 3
REMARK VINA RESULT:    -9.096      1.730      2.533
REMARK INTER + INTRA:         -13.298
REMARK INTER:                 -11.781
REMARK INTRA:                  -1.517
REMARK CONF_INDEPENDENT:        2.685
REMARK UNBOUND:                -1.517
REMARK  9 active torsions:
REMARK  status: ('A' for Active; 'I' for Inactive)
REMARK    1  A    between atoms: C_5  and  C_6 
REMARK    2  A    between atoms: C_6  and  S_7 
REMARK    3  A    between atoms: S_7  and  C_8 
REMARK    4  A    between atoms: C_11  and  S_12 
REMARK    5  A    between atoms: S_12  and  C_13 
REMARK    6  A    between atoms: C_13  and  C_14 
REMARK       I    between atoms: C_14  and  N_16 
REMARK    7  A    between atoms: N_16  and  N_17 
REMARK    8  A    between atoms: C_18  and  C_19 
REMARK    9  A    between atoms: C_22  and  O_23 
ROOT
ATOM      1  S   UNL d   1      25.880 -15.207  -0.480  0.00  0.00    -0.092 SA
ENDROOT
BRANCH   1   2
ATOM      2  C   UNL d   1      25.671 -14.500  -2.069  0.00  0.00     0.159 A 
ATOM      3  N   UNL d   1      24.984 -15.147  -2.996  0.00  0.00    -0.134 NA
ATOM      4  N   UNL d   1      24.896 -14.453  -4.200  0.00  0.00    -0.134 NA
ATOM      5  C   UNL d   1      25.526 -13.306  -4.128  0.00  0.00     0.159 A 
ATOM      6  S   UNL d   1      26.274 -12.997  -2.603  0.00  0.00    -0.033 SA
BRANCH   5   7
ATOM      7  S   UNL d   1      25.650 -12.140  -5.398  0.00  0.00    -0.097 SA
BRANCH   7   8
ATOM      8  C   UNL d   1      27.416 -11.857  -5.764  0.00  0.00     0.120 C 
BRANCH   8   9
ATOM      9  C   UNL d   1      28.202 -13.168  -5.904  0.00  0.00    -0.049 A 
ATOM     10  C   UNL d   1      28.250 -14.092  -4.844  0.00  0.00     0.008 A 
ATOM     11  C   UNL d   1      28.951 -15.306  -4.975  0.00  0.00     0.007 A 
ATOM     12  C   UNL d   1      29.619 -15.623  -6.163  0.00  0.00    -0.062 A 
ATOM     13  C   UNL d   1      30.358 -16.913  -6.349  0.00  0.00     0.048 C 
ATOM     14  C   UNL d   1      29.586 -14.712  -7.212  0.00  0.00     0.007 A 
ATOM     15  C   UNL d   1      28.894 -13.512  -7.081  0.00  0.00     0.008 A 
ENDBRANCH   8   9
ENDBRANCH   7   8
ENDBRANCH   5   7
ENDBRANCH   1   2
BRANCH   1  16
ATOM     16  C   UNL d   1      26.283 -16.994  -0.673  0.00  0.00     0.186 C 
BRANCH  16  17
ATOM     17  C   UNL d   1      25.007 -17.851  -0.443  0.00  0.00     0.247 C 
ATOM     18  O   UNL d   1      24.929 -18.674   0.476  0.00  0.00    -0.271 OA
ATOM     19  N   UNL d   1      23.942 -17.642  -1.338  0.00  0.00    -0.247 N 
ATOM     20  H   UNL d   1      23.981 -16.972  -2.097  0.00  0.00     0.192 HD
BRANCH  19  21
ATOM     21  N   UNL d   1      22.790 -18.391  -1.152  0.00  0.00    -0.184 NA
ATOM     22  C   UNL d   1      22.116 -18.298  -0.046  0.00  0.00     0.150 C 
BRANCH  22  23
ATOM     23  C   UNL d   1      20.868 -19.108   0.177  0.00  0.00    -0.017 A 
ATOM     24  C   UNL d   1      20.580 -19.682   1.428  0.00  0.00     0.015 A 
ATOM     25  C   UNL d   1      19.414 -20.453   1.613  0.00  0.00     0.037 A 
ATOM     26  C   UNL d   1      18.540 -20.647   0.547  0.00  0.00     0.065 A 
ATOM     27  C   UNL d   1      18.810 -20.077  -0.690  0.00  0.00     0.037 A 
ATOM     28  C   UNL d   1      19.968 -19.310  -0.876  0.00  0.00     0.015 A 
BRANCH  26  29
ATOM     29  O   UNL d   1      17.403 -21.392   0.661  0.00  0.00    -0.361 OA
ATOM     30  H   UNL d   1      17.590 -22.320   0.451  0.00  0.00     0.217 HD
ENDBRANCH  26  29
ENDBRANCH  22  23
ENDBRANCH  19  21
ENDBRANCH  16  17
ENDBRANCH   1  16
TORSDOF 9
ENDMDL
MODEL 4
REMARK VINA RESULT:    -8.835      2.228      4.180
REMARK INTER + INTRA:         -12.810
REMARK INTER:                 -11.520
REMARK INTRA:                  -1.291
REMARK CONF_INDEPENDENT:        2.685
REMARK UNBOUND:                -1.291
REMARK  9 active torsions:
REMARK  status: ('A' for Active; 'I' for Inactive)
REMARK    1  A    between atoms: C_5  and  C_6 
REMARK    2  A    between atoms: C_6  and  S_7 
REMARK    3  A    between atoms: S_7  and  C_8 
REMARK    4  A    between atoms: C_11  and  S_12 
REMARK    5  A    between atoms: S_12  and  C_13 
REMARK    6  A    between atoms: C_13  and  C_14 
REMARK       I    between atoms: C_14  and  N_16 
REMARK    7  A    between atoms: N_16  and  N_17 
REMARK    8  A    between atoms: C_18  and  C_19 
REMARK    9  A    between atoms: C_22  and  O_23 
ROOT
ATOM      1  S   UNL d   1      25.373 -15.377  -2.764  0.00  0.00    -0.092 SA
ENDROOT
BRANCH   1   2
ATOM      2  C   UNL d   1      26.606 -15.297  -4.006  0.00  0.00     0.159 A 
ATOM      3  N   UNL d   1      26.260 -15.284  -5.282  0.00  0.00    -0.134 NA
ATOM      4  N   UNL d   1      27.348 -15.206  -6.147  0.00  0.00    -0.134 NA
ATOM      5  C   UNL d   1      28.475 -15.165  -5.481  0.00  0.00     0.159 A 
ATOM      6  S   UNL d   1      28.293 -15.227  -3.765  0.00  0.00    -0.033 SA
BRANCH   5   7
ATOM      7  S   UNL d   1      30.056 -15.057  -6.173  0.00  0.00    -0.097 SA
BRANCH   7   8
ATOM      8  C   UNL d   1      30.252 -13.409  -6.934  0.00  0.00     0.120 C 
BRANCH   8   9
ATOM      9  C   UNL d   1      29.027 -12.513  -6.711  0.00  0.00    -0.049 A 
ATOM     10  C   UNL d   1      28.171 -12.188  -7.779  0.00  0.00     0.008 A 
ATOM     11  C   UNL d   1      27.035 -11.383  -7.575  0.00  0.00     0.007 A 
ATOM     12  C   UNL d   1      26.728 -10.885  -6.305  0.00  0.00    -0.062 A 
ATOM     13  C   UNL d   1      25.516 -10.044  -6.042  0.00  0.00     0.048 C 
ATOM     14  C   UNL d   1      27.573 -11.191  -5.244  0.00  0.00     0.007 A 
ATOM     15  C   UNL d   1      28.697 -11.985  -5.448  0.00  0.00     0.008 A 
ENDBRANCH   8   9
ENDBRANCH   7   8
ENDBRANCH   5   7
ENDBRANCH   1   2
BRANCH   1  16
ATOM     16  C   UNL d   1      26.030 -16.335  -1.335  0.00  0.00     0.186 C 
BRANCH  16  17
ATOM     17  C   UNL d   1      24.883 -17.149  -0.673  0.00  0.00     0.247 C 
ATOM     18  O   UNL d   1      25.098 -18.198  -0.054  0.00  0.00    -0.271 OA
ATOM     19  N   UNL d   1      23.583 -16.632  -0.816  0.00  0.00    -0.247 N 
ATOM     20  H   UNL d   1      23.382 -15.774  -1.316  0.00  0.00     0.192 HD
BRANCH  19  21
ATOM     21  N   UNL d   1      22.543 -17.336  -0.230  0.00  0.00    -0.184 NA
ATOM     22  C   UNL d   1      21.939 -18.282  -0.883  0.00  0.00     0.150 C 
BRANCH  22  23
ATOM     23  C   UNL d   1      20.803 -19.052  -0.267  0.00  0.00    -0.017 A 
ATOM     24  C   UNL d   1      20.765 -19.325   1.112  0.00  0.00     0.015 A 
ATOM     25  C   UNL d   1      19.700 -20.064   1.669  0.00  0.00     0.037 A 
ATOM     26  C   UNL d   1      18.677 -20.526   0.845  0.00  0.00     0.065 A 
ATOM     27  C   UNL d   1      18.700 -20.254  -0.516  0.00  0.00     0.037 A 
ATOM     28  C   UNL d   1      19.758 -19.521  -1.072  0.00  0.00     0.015 A 
BRANCH  26  29
ATOM     29  O   UNL d   1      17.628 -21.255   1.323  0.00  0.00    -0.361 OA
ATOM     30  H   UNL d   1      17.495 -22.046   0.776  0.00  0.00     0.217 HD
ENDBRANCH  26  29
ENDBRANCH  22  23
ENDBRANCH  19  21
ENDBRANCH  16  17
ENDBRANCH   1  16
TORSDOF 9
ENDMDL
MODEL 5
REMARK VINA RESULT:    -8.701      4.281      9.589
REMARK INTER + INTRA:         -13.038
REMARK INTER:                 -11.386
REMARK INTRA:                  -1.652
REMARK CONF_INDEPENDENT:        2.685
REMARK UNBOUND:                -1.652
REMARK  9 active torsions:
REMARK  status: ('A' for Active; 'I' for Inactive)
REMARK    1  A    between atoms: C_5  and  C_6 
REMARK    2  A    between atoms: C_6  and  S_7 
REMARK    3  A    between atoms: S_7  and  C_8 
REMARK    4  A    between atoms: C_11  and  S_12 
REMARK    5  A    between atoms: S_12  and  C_13 
REMARK    6  A    between atoms: C_13  and  C_14 
REMARK       I    between atoms: C_14  and  N_16 
REMARK    7  A    between atoms: N_16  and  N_17 
REMARK    8  A    between atoms: C_18  and  C_19 
REMARK    9  A    between atoms: C_22  and  O_23 
ROOT
ATOM      1  S   UNL d   1      28.839 -13.043  -7.228  0.00  0.00    -0.092 SA
ENDROOT
BRANCH   1   2
ATOM      2  C   UNL d   1      27.746 -13.808  -6.093  0.00  0.00     0.159 A 
ATOM      3  N   UNL d   1      27.565 -15.118  -6.129  0.00  0.00    -0.134 NA
ATOM      4  N   UNL d   1      26.678 -15.578  -5.159  0.00  0.00    -0.134 NA
ATOM      5  C   UNL d   1      26.225 -14.588  -4.430  0.00  0.00     0.159 A 
ATOM      6  S   UNL d   1      26.834 -13.036  -4.877  0.00  0.00    -0.033 SA
BRANCH   5   7
ATOM      7  S   UNL d   1      25.111 -14.728  -3.115  0.00  0.00    -0.097 SA
BRANCH   7   8
ATOM      8  C   UNL d   1      25.728 -15.996  -1.956  0.00  0.00     0.120 C 
BRANCH   8   9
ATOM      9  C   UNL d   1      24.597 -16.846  -1.362  0.00  0.00    -0.049 A 
ATOM     10  C   UNL d   1      23.290 -16.334  -1.264  0.00  0.00     0.008 A 
ATOM     11  C   UNL d   1      22.245 -17.117  -0.740  0.00  0.00     0.007 A 
ATOM     12  C   UNL d   1      22.479 -18.425  -0.302  0.00  0.00    -0.062 A 
ATOM     13  C   UNL d   1      21.390 -19.299   0.241  0.00  0.00     0.048 C 
ATOM     14  C   UNL d   1      23.769 -18.937  -0.385  0.00  0.00     0.007 A 
ATOM     15  C   UNL d   1      24.802 -18.161  -0.902  0.00  0.00     0.008 A 
ENDBRANCH   8   9
ENDBRANCH   7   8
ENDBRANCH   5   7
ENDBRANCH   1   2
BRANCH   1  16
ATOM     16  C   UNL d   1      30.561 -13.209  -6.599  0.00  0.00     0.186 C 
BRANCH  16  17
ATOM     17  C   UNL d   1      30.971 -14.707  -6.569  0.00  0.00     0.247 C 
ATOM     18  O   UNL d   1      32.033 -15.086  -6.059  0.00  0.00    -0.271 OA
ATOM     19  N   UNL d   1      30.071 -15.616  -7.155  0.00  0.00    -0.247 N 
ATOM     20  H   UNL d   1      29.195 -15.331  -7.576  0.00  0.00     0.192 HD
BRANCH  19  21
ATOM     21  N   UNL d   1      30.411 -16.959  -7.137  0.00  0.00    -0.184 NA
ATOM     22  C   UNL d   1      30.423 -17.621  -6.020  0.00  0.00     0.150 C 
BRANCH  22  23
ATOM     23  C   UNL d   1      30.796 -19.078  -5.981  0.00  0.00    -0.017 A 
ATOM     24  C   UNL d   1      30.918 -19.771  -4.764  0.00  0.00     0.015 A 
ATOM     25  C   UNL d   1      31.286 -21.132  -4.746  0.00  0.00     0.037 A 
ATOM     26  C   UNL d   1      31.532 -21.796  -5.945  0.00  0.00     0.065 A 
ATOM     27  C   UNL d   1      31.406 -21.123  -7.154  0.00  0.00     0.037 A 
ATOM     28  C   UNL d   1      31.040 -19.770  -7.173  0.00  0.00     0.015 A 
BRANCH  26  29
ATOM     29  O   UNL d   1      31.903 -23.107  -5.992  0.00  0.00    -0.361 OA
ATOM     30  H   UNL d   1      31.194 -23.640  -6.386  0.00  0.00     0.217 HD
ENDBRANCH  26  29
ENDBRANCH  22  23
ENDBRANCH  19  21
ENDBRANCH  16  17
ENDBRANCH   1  16
TORSDOF 9
ENDMDL
MODEL 6
REMARK VINA RESULT:    -8.198      4.170      9.349
REMARK INTER + INTRA:         -13.012
REMARK INTER:                 -10.883
REMARK INTRA:                  -2.129
REMARK CONF_INDEPENDENT:        2.685
REMARK UNBOUND:                -2.129
REMARK  9 active torsions:
REMARK  status: ('A' for Active; 'I' for Inactive)
REMARK    1  A    between atoms: C_5  and  C_6 
REMARK    2  A    between atoms: C_6  and  S_7 
REMARK    3  A    between atoms: S_7  and  C_8 
REMARK    4  A    between atoms: C_11  and  S_12 
REMARK    5  A    between atoms: S_12  and  C_13 
REMARK    6  A    between atoms: C_13  and  C_14 
REMARK       I    between atoms: C_14  and  N_16 
REMARK    7  A    between atoms: N_16  and  N_17 
REMARK    8  A    between atoms: C_18  and  C_19 
REMARK    9  A    between atoms: C_22  and  O_23 
ROOT
ATOM      1  S   UNL d   1      25.902 -11.536  -4.213  0.00  0.00    -0.092 SA
ENDROOT
BRANCH   1   2
ATOM      2  C   UNL d   1      25.913 -13.170  -3.582  0.00  0.00     0.159 A 
ATOM      3  N   UNL d   1      24.954 -14.016  -3.919  0.00  0.00    -0.134 NA
ATOM      4  N   UNL d   1      25.105 -15.276  -3.348  0.00  0.00    -0.134 NA
ATOM      5  C   UNL d   1      26.179 -15.326  -2.598  0.00  0.00     0.159 A 
ATOM      6  S   UNL d   1      27.069 -13.849  -2.528  0.00  0.00    -0.033 SA
BRANCH   5   7
ATOM      7  S   UNL d   1      26.735 -16.707  -1.718  0.00  0.00    -0.097 SA
BRANCH   7   8
ATOM      8  C   UNL d   1      25.782 -16.836  -0.166  0.00  0.00     0.120 C 
BRANCH   8   9
ATOM      9  C   UNL d   1      24.376 -17.407  -0.389  0.00  0.00    -0.049 A 
ATOM     10  C   UNL d   1      24.134 -18.788  -0.266  0.00  0.00     0.008 A 
ATOM     11  C   UNL d   1      22.842 -19.314  -0.448  0.00  0.00     0.007 A 
ATOM     12  C   UNL d   1      21.764 -18.478  -0.758  0.00  0.00    -0.062 A 
ATOM     13  C   UNL d   1      20.370 -18.996  -0.938  0.00  0.00     0.048 C 
ATOM     14  C   UNL d   1      21.994 -17.113  -0.893  0.00  0.00     0.007 A 
ATOM     15  C   UNL d   1      23.273 -16.595  -0.714  0.00  0.00     0.008 A 
ENDBRANCH   8   9
ENDBRANCH   7   8
ENDBRANCH   5   7
ENDBRANCH   1   2
BRANCH   1  16
ATOM     16  C   UNL d   1      26.607 -11.552  -5.914  0.00  0.00     0.186 C 
BRANCH  16  17
ATOM     17  C   UNL d   1      27.559 -12.769  -6.080  0.00  0.00     0.247 C 
ATOM     18  O   UNL d   1      28.740 -12.635  -6.423  0.00  0.00    -0.271 OA
ATOM     19  N   UNL d   1      27.008 -14.036  -5.820  0.00  0.00    -0.247 N 
ATOM     20  H   UNL d   1      26.045 -14.172  -5.536  0.00  0.00     0.192 HD
BRANCH  19  21
ATOM     21  N   UNL d   1      27.838 -15.138  -5.956  0.00  0.00    -0.184 NA
ATOM     22  C   UNL d   1      28.846 -15.307  -5.156  0.00  0.00     0.150 C 
BRANCH  22  23
ATOM     23  C   UNL d   1      29.762 -16.492  -5.293  0.00  0.00    -0.017 A 
ATOM     24  C   UNL d   1      30.009 -17.357  -4.213  0.00  0.00     0.015 A 
ATOM     25  C   UNL d   1      30.884 -18.453  -4.356  0.00  0.00     0.037 A 
ATOM     26  C   UNL d   1      31.509 -18.682  -5.579  0.00  0.00     0.065 A 
ATOM     27  C   UNL d   1      31.264 -17.839  -6.656  0.00  0.00     0.037 A 
ATOM     28  C   UNL d   1      30.395 -16.749  -6.515  0.00  0.00     0.015 A 
BRANCH  26  29
ATOM     29  O   UNL d   1      32.374 -19.718  -5.776  0.00  0.00    -0.361 OA
ATOM     30  H   UNL d   1      33.240 -19.506  -5.392  0.00  0.00     0.217 HD
ENDBRANCH  26  29
ENDBRANCH  22  23
ENDBRANCH  19  21
ENDBRANCH  16  17
ENDBRANCH   1  16
TORSDOF 9
ENDMDL
MODEL 7
REMARK VINA RESULT:    -8.144      5.652     10.183
REMARK INTER + INTRA:         -12.405
REMARK INTER:                 -10.829
REMARK INTRA:                  -1.576
REMARK CONF_INDEPENDENT:        2.685
REMARK UNBOUND:                -1.576
REMARK  9 active torsions:
REMARK  status: ('A' for Active; 'I' for Inactive)
REMARK    1  A    between atoms: C_5  and  C_6 
REMARK    2  A    between atoms: C_6  and  S_7 
REMARK    3  A    between atoms: S_7  and  C_8 
REMARK    4  A    between atoms: C_11  and  S_12 
REMARK    5  A    between atoms: S_12  and  C_13 
REMARK    6  A    between atoms: C_13  and  C_14 
REMARK       I    between atoms: C_14  and  N_16 
REMARK    7  A    between atoms: N_16  and  N_17 
REMARK    8  A    between atoms: C_18  and  C_19 
REMARK    9  A    between atoms: C_22  and  O_23 
ROOT
ATOM      1  S   UNL d   1      28.412 -14.745  -1.756  0.00  0.00    -0.092 SA
ENDROOT
BRANCH   1   2
ATOM      2  C   UNL d   1      27.415 -15.896  -0.890  0.00  0.00     0.159 A 
ATOM      3  N   UNL d   1      27.947 -16.649   0.059  0.00  0.00    -0.134 NA
ATOM      4  N   UNL d   1      27.028 -17.504   0.662  0.00  0.00    -0.134 NA
ATOM      5  C   UNL d   1      25.836 -17.358   0.138  0.00  0.00     0.159 A 
ATOM      6  S   UNL d   1      25.751 -16.184  -1.126  0.00  0.00    -0.033 SA
BRANCH   5   7
ATOM      7  S   UNL d   1      24.412 -18.220   0.605  0.00  0.00    -0.097 SA
BRANCH   7   8
ATOM      8  C   UNL d   1      23.066 -17.802  -0.554  0.00  0.00     0.120 C 
BRANCH   8   9
ATOM      9  C   UNL d   1      21.774 -18.575  -0.254  0.00  0.00    -0.049 A 
ATOM     10  C   UNL d   1      20.904 -18.951  -1.294  0.00  0.00     0.008 A 
ATOM     11  C   UNL d   1      19.730 -19.678  -1.026  0.00  0.00     0.007 A 
ATOM     12  C   UNL d   1      19.397 -20.046   0.282  0.00  0.00    -0.062 A 
ATOM     13  C   UNL d   1      18.168 -20.839   0.606  0.00  0.00     0.048 C 
ATOM     14  C   UNL d   1      20.245 -19.671   1.318  0.00  0.00     0.007 A 
ATOM     15  C   UNL d   1      21.405 -18.950   1.052  0.00  0.00     0.008 A 
ENDBRANCH   8   9
ENDBRANCH   7   8
ENDBRANCH   5   7
ENDBRANCH   1   2
BRANCH   1  16
ATOM     16  C   UNL d   1      30.101 -14.751  -1.022  0.00  0.00     0.186 C 
BRANCH  16  17
ATOM     17  C   UNL d   1      30.074 -14.063   0.371  0.00  0.00     0.247 C 
ATOM     18  O   UNL d   1      30.404 -12.880   0.524  0.00  0.00    -0.271 OA
ATOM     19  N   UNL d   1      29.655 -14.855   1.455  0.00  0.00    -0.247 N 
ATOM     20  H   UNL d   1      29.378 -15.825   1.355  0.00  0.00     0.192 HD
BRANCH  19  21
ATOM     21  N   UNL d   1      29.617 -14.264   2.708  0.00  0.00    -0.184 NA
ATOM     22  C   UNL d   1      28.600 -14.450   3.494  0.00  0.00     0.150 C 
BRANCH  22  23
ATOM     23  C   UNL d   1      28.538 -13.809   4.853  0.00  0.00    -0.017 A 
ATOM     24  C   UNL d   1      29.141 -14.408   5.974  0.00  0.00     0.015 A 
ATOM     25  C   UNL d   1      29.057 -13.801   7.244  0.00  0.00     0.037 A 
ATOM     26  C   UNL d   1      28.371 -12.598   7.389  0.00  0.00     0.065 A 
ATOM     27  C   UNL d   1      27.780 -11.993   6.287  0.00  0.00     0.037 A 
ATOM     28  C   UNL d   1      27.862 -12.595   5.024  0.00  0.00     0.015 A 
BRANCH  26  29
ATOM     29  O   UNL d   1      28.246 -11.969   8.593  0.00  0.00    -0.361 OA
ATOM     30  H   UNL d   1      27.893 -11.074   8.467  0.00  0.00     0.217 HD
ENDBRANCH  26  29
ENDBRANCH  22  23
ENDBRANCH  19  21
ENDBRANCH  16  17
ENDBRANCH   1  16
TORSDOF 9
ENDMDL
MODEL 8
REMARK VINA RESULT:    -7.959      4.709      9.629
REMARK INTER + INTRA:         -12.526
REMARK INTER:                 -10.644
REMARK INTRA:                  -1.882
REMARK CONF_INDEPENDENT:        2.685
REMARK UNBOUND:                -1.882
REMARK  9 active torsions:
REMARK  status: ('A' for Active; 'I' for Inactive)
REMARK    1  A    between atoms: C_5  and  C_6 
REMARK    2  A    between atoms: C_6  and  S_7 
REMARK    3  A    between atoms: S_7  and  C_8 
REMARK    4  A    between atoms: C_11  and  S_12 
REMARK    5  A    between atoms: S_12  and  C_13 
REMARK    6  A    between atoms: C_13  and  C_14 
REMARK       I    between atoms: C_14  and  N_16 
REMARK    7  A    between atoms: N_16  and  N_17 
REMARK    8  A    between atoms: C_18  and  C_19 
REMARK    9  A    between atoms: C_22  and  O_23 
ROOT
ATOM      1  S   UNL d   1      30.369 -16.167  -5.938  0.00  0.00    -0.092 SA
ENDROOT
BRANCH   1   2
ATOM      2  C   UNL d   1      28.806 -15.751  -5.266  0.00  0.00     0.159 A 
ATOM      3  N   UNL d   1      27.768 -15.573  -6.067  0.00  0.00    -0.134 NA
ATOM      4  N   UNL d   1      26.595 -15.259  -5.385  0.00  0.00    -0.134 NA
ATOM      5  C   UNL d   1      26.801 -15.212  -4.093  0.00  0.00     0.159 A 
ATOM      6  S   UNL d   1      28.429 -15.536  -3.617  0.00  0.00    -0.033 SA
BRANCH   5   7
ATOM      7  S   UNL d   1      25.608 -14.865  -2.890  0.00  0.00    -0.097 SA
BRANCH   7   8
ATOM      8  C   UNL d   1      25.944 -15.890  -1.418  0.00  0.00     0.120 C 
BRANCH   8   9
ATOM      9  C   UNL d   1      24.750 -16.776  -1.037  0.00  0.00    -0.049 A 
ATOM     10  C   UNL d   1      23.431 -16.315  -1.205  0.00  0.00     0.008 A 
ATOM     11  C   UNL d   1      22.333 -17.131  -0.877  0.00  0.00     0.007 A 
ATOM     12  C   UNL d   1      22.525 -18.422  -0.375  0.00  0.00    -0.062 A 
ATOM     13  C   UNL d   1      21.382 -19.330  -0.035  0.00  0.00     0.048 C 
ATOM     14  C   UNL d   1      23.823 -18.884  -0.194  0.00  0.00     0.007 A 
ATOM     15  C   UNL d   1      24.908 -18.075  -0.517  0.00  0.00     0.008 A 
ENDBRANCH   8   9
ENDBRANCH   7   8
ENDBRANCH   5   7
ENDBRANCH   1   2
BRANCH   1  16
ATOM     16  C   UNL d   1      30.972 -14.759  -6.959  0.00  0.00     0.186 C 
BRANCH  16  17
ATOM     17  C   UNL d   1      30.297 -13.440  -6.490  0.00  0.00     0.247 C 
ATOM     18  O   UNL d   1      30.951 -12.503  -6.015  0.00  0.00    -0.271 OA
ATOM     19  N   UNL d   1      28.900 -13.364  -6.631  0.00  0.00    -0.247 N 
ATOM     20  H   UNL d   1      28.343 -14.116  -7.019  0.00  0.00     0.192 HD
BRANCH  19  21
ATOM     21  N   UNL d   1      28.275 -12.196  -6.224  0.00  0.00    -0.184 NA
ATOM     22  C   UNL d   1      26.991 -12.169  -6.031  0.00  0.00     0.150 C 
BRANCH  22  23
ATOM     23  C   UNL d   1      26.294 -10.908  -5.597  0.00  0.00    -0.017 A 
ATOM     24  C   UNL d   1      25.952  -9.904  -6.521  0.00  0.00     0.015 A 
ATOM     25  C   UNL d   1      25.315  -8.722  -6.092  0.00  0.00     0.037 A 
ATOM     26  C   UNL d   1      25.021  -8.547  -4.743  0.00  0.00     0.065 A 
ATOM     27  C   UNL d   1      25.346  -9.536  -3.823  0.00  0.00     0.037 A 
ATOM     28  C   UNL d   1      25.980 -10.712  -4.247  0.00  0.00     0.015 A 
BRANCH  26  29
ATOM     29  O   UNL d   1      24.417  -7.420  -4.266  0.00  0.00    -0.361 OA
ATOM     30  H   UNL d   1      24.395  -7.439  -3.296  0.00  0.00     0.217 HD
ENDBRANCH  26  29
ENDBRANCH  22  23
ENDBRANCH  19  21
ENDBRANCH  16  17
ENDBRANCH   1  16
TORSDOF 9
ENDMDL
