MODEL 1
REMARK VINA RESULT:   -27.352      0.000      0.000
REMARK INTER + INTRA:         -31.592
REMARK INTER:                 -29.440
REMARK INTRA:                  -2.151
REMARK CONF_INDEPENDENT:        2.088
REMARK UNBOUND:                -2.151
REMARK  7 active torsions:
REMARK  status: ('A' for Active; 'I' for Inactive)
REMARK    1  A    between atoms: C_2  and  C_3 
REMARK       I    between atoms: C_2  and  N_15 
REMARK    2  A    between atoms: C_3  and  N_4 
REMARK    3  A    between atoms: C_6  and  C_7 
REMARK    4  A    between atoms: N_15  and  C_16 
REMARK    5  A    between atoms: C_16  and  C_17 
REMARK    6  A    between atoms: C_17  and  C_18 
REMARK    7  A    between atoms: C_17  and  C_27 
ROOT
ATOM      1  C   UNL d   1      23.979 -15.766  -1.865  0.00  0.00     0.136 C 
ENDROOT
BRANCH   1   2
ATOM      2  N   UNL d   1      23.875 -16.484  -0.616  0.00  0.00    -0.359 N 
ATOM      3  C   UNL d   1      22.729 -17.069  -0.123  0.00  0.00     0.237 C 
ATOM      4  O   UNL d   1      22.838 -17.736   0.904  0.00  0.00    -0.272 OA
ATOM      5  H   UNL d   1      24.693 -16.690  -0.057  0.00  0.00     0.162 HD
BRANCH   3   6
ATOM      6  C   UNL d   1      21.411 -16.912  -0.895  0.00  0.00     0.251 C 
BRANCH   6   7
ATOM      7  N   UNL d   1      20.865 -18.214  -1.278  0.00  0.00    -0.247 N 
ATOM      8  N   UNL d   1      19.531 -18.575  -0.965  0.00  0.00    -0.199 NA
ATOM      9  C   UNL d   1      19.695 -19.985  -0.566  0.00  0.00     0.265 C 
ATOM     10  H   UNL d   1      19.066 -18.613  -1.879  0.00  0.00     0.150 HD
ATOM     11  O   UNL d   1      20.908 -20.448  -1.165  0.00  0.00    -0.275 OA
ATOM     12  C   UNL d   1      21.638 -19.335  -1.476  0.00  0.00     0.379 C 
ATOM     13  O   UNL d   1      22.813 -19.361  -1.833  0.00  0.00    -0.237 OA
BRANCH   9  14
ATOM     14  C   UNL d   1      19.846 -20.054   0.941  0.00  0.00     0.027 A 
ATOM     15  C   UNL d   1      20.719 -19.321   1.727  0.00  0.00     0.019 A 
ATOM     16  C   UNL d   1      20.557 -19.544   3.114  0.00  0.00     0.008 A 
ATOM     17  C   UNL d   1      19.573 -20.470   3.368  0.00  0.00     0.050 A 
ATOM     18  S   UNL d   1      18.838 -21.037   1.923  0.00  0.00    -0.102 SA
ENDBRANCH   9  14
ENDBRANCH   6   7
ENDBRANCH   3   6
ENDBRANCH   1   2
BRANCH   1  19
ATOM     19  C   UNL d   1      25.367 -15.766  -2.551  0.00  0.00     0.069 C 
BRANCH  19  20
ATOM     20  C   UNL d   1      25.580 -14.554  -3.442  0.00  0.00    -0.040 A 
ATOM     21  C   UNL d   1      26.583 -14.379  -4.309  0.00  0.00    -0.005 A 
ATOM     22  C   UNL d   1      27.733 -15.137  -4.624  0.00  0.00     0.014 A 
ATOM     23  C   UNL d   1      26.291 -13.144  -5.045  0.00  0.00     0.038 A 
ATOM     24  C   UNL d   1      28.499 -14.833  -5.669  0.00  0.00     0.001 A 
ATOM     25  C   UNL d   1      28.233 -13.637  -6.430  0.00  0.00     0.002 A 
ATOM     26  C   UNL d   1      27.216 -12.793  -6.153  0.00  0.00     0.030 A 
ATOM     27  N   UNL d   1      25.236 -12.573  -4.600  0.00  0.00    -0.385 N 
ATOM     28  C   UNL d   1      24.634 -13.383  -3.502  0.00  0.00     0.155 A 
ATOM     29  H   UNL d   1      24.876 -11.695  -4.968  0.00  0.00     0.160 HD
ENDBRANCH  19  20
BRANCH  19  30
ATOM     30  C   UNL d   1      26.534 -15.894  -1.548  0.00  0.00    -0.026 C 
ATOM     31  C   UNL d   1      26.972 -17.198  -1.224  0.00  0.00     0.009 C 
ATOM     32  C   UNL d   1      27.945 -17.397  -0.237  0.00  0.00     0.001 C 
ATOM     33  C   UNL d   1      28.660 -16.321   0.270  0.00  0.00     0.002 C 
ATOM     34  C   UNL d   1      28.385 -15.049  -0.180  0.00  0.00     0.024 C 
ATOM     35  C   UNL d   1      27.238 -14.825  -0.932  0.00  0.00     0.041 C 
ATOM     36 CL   UNL d   1      26.717 -13.182  -0.731  0.00  0.00    -0.084 Cl
ENDBRANCH  19  30
ENDBRANCH   1  19
TORSDOF 7
ENDMDL
