MODEL 1
REMARK VINA RESULT:    -9.836      0.000      0.000
REMARK INTER + INTRA:         -15.188
REMARK INTER:                 -12.819
REMARK INTRA:                  -2.369
REMARK CONF_INDEPENDENT:        2.983
REMARK UNBOUND:                -2.369
REMARK  10 active torsions:
REMARK  status: ('A' for Active; 'I' for Inactive)
REMARK    1  A    between atoms: C_2  and  O_3 
REMARK    2  A    between atoms: O_3  and  C_4 
REMARK    3  A    between atoms: C_7  and  N_8 
REMARK       I    between atoms: N_8  and  C_9 
REMARK    4  A    between atoms: C_20  and  N_8 
REMARK    5  A    between atoms: C_9  and  C_11 
REMARK    6  A    between atoms: C_14  and  C_15 
REMARK       I    between atoms: C_15  and  N_16 
REMARK    7  A    between atoms: C_18  and  N_19 
REMARK    8  A    between atoms: C_20  and  C_23 
REMARK    9  A    between atoms: C_20  and  C_21 
REMARK       I    between atoms: C_23  and  N_25 
REMARK   10  A    between atoms: N_25  and  C_26 
ROOT
ATOM      1  N   UNL d   1      25.585 -16.094  -0.707  0.00  0.00    -0.299 N 
ATOM      2  C   UNL d   1      25.430 -15.978  -2.165  0.00  0.00     0.269 C 
ATOM      3  O   UNL d   1      24.658 -16.727  -2.769  0.00  0.00    -0.266 OA
ENDROOT
BRANCH   1   4
ATOM      4  C   UNL d   1      26.412 -15.220   0.128  0.00  0.00     0.038 C 
ATOM      5  C   UNL d   1      27.398 -15.706   0.968  0.00  0.00     0.032 C 
ATOM      6  C   UNL d   1      27.781 -15.067   2.146  0.00  0.00     0.039 C 
ATOM      7  C   UNL d   1      27.499 -13.738   2.311  0.00  0.00     0.068 C 
ATOM      8  C   UNL d   1      26.820 -13.106   1.298  0.00  0.00     0.039 C 
ATOM      9  C   UNL d   1      26.279 -13.840   0.233  0.00  0.00     0.032 C 
BRANCH   7  10
ATOM     10  O   UNL d   1      28.097 -13.127   3.360  0.00  0.00    -0.352 OA
BRANCH  10  11
ATOM     11  C   UNL d   1      28.851 -13.968   4.222  0.00  0.00     0.171 C 
ATOM     12  C   UNL d   1      28.347 -13.697   5.623  0.00  0.00     0.034 C 
ENDBRANCH  10  11
ENDBRANCH   7  10
ENDBRANCH   1   4
BRANCH   1  13
ATOM     13  C   UNL d   1      24.793 -17.213  -0.043  0.00  0.00     0.185 C 
BRANCH  13  14
ATOM     14  C   UNL d   1      23.259 -17.381  -0.371  0.00  0.00     0.241 C 
ATOM     15  O   UNL d   1      22.597 -16.479  -0.888  0.00  0.00    -0.271 OA
ATOM     16  N   UNL d   1      22.651 -18.567   0.023  0.00  0.00    -0.355 N 
ATOM     17  H   UNL d   1      23.220 -19.277   0.466  0.00  0.00     0.162 HD
BRANCH  16  18
ATOM     18  C   UNL d   1      21.189 -18.706   0.058  0.00  0.00     0.084 C 
ATOM     19  C   UNL d   1      20.630 -19.252  -1.243  0.00  0.00     0.025 C 
ATOM     20  C   UNL d   1      19.216 -19.701  -0.885  0.00  0.00     0.002 C 
ATOM     21  C   UNL d   1      19.270 -20.135   0.572  0.00  0.00     0.002 C 
ATOM     22  C   UNL d   1      20.654 -19.731   1.066  0.00  0.00     0.025 C 
ENDBRANCH  16  18
ENDBRANCH  13  14
BRANCH  13  23
ATOM     23  C   UNL d   1      25.517 -18.574  -0.271  0.00  0.00     0.031 C 
ATOM     24  C   UNL d   1      26.949 -18.558   0.239  0.00  0.00     0.007 C 
ENDBRANCH  13  23
ENDBRANCH   1  13
BRANCH   2  25
ATOM     25  C   UNL d   1      26.238 -15.054  -2.955  0.00  0.00     0.115 C 
ATOM     26  S   UNL d   1      27.943 -15.191  -3.085  0.00  0.00     0.019 SA
ATOM     27  N   UNL d   1      28.129 -14.072  -4.328  0.00  0.00    -0.203 NA
ATOM     28  C   UNL d   1      26.929 -13.523  -4.588  0.00  0.00     0.155 C 
ATOM     29  C   UNL d   1      25.852 -13.985  -3.735  0.00  0.00     0.065 C 
BRANCH  28  30
ATOM     30  C   UNL d   1      26.691 -12.619  -5.730  0.00  0.00     0.270 C 
ATOM     31  N   UNL d   1      25.557 -11.868  -5.758  0.00  0.00    -0.365 N 
ATOM     32  H   UNL d   1      24.871 -11.897  -5.017  0.00  0.00     0.159 HD
ATOM     33  H   UNL d   1      25.398 -11.308  -6.585  0.00  0.00     0.159 HD
ATOM     34  O   UNL d   1      27.503 -12.499  -6.659  0.00  0.00    -0.266 OA
ENDBRANCH  28  30
BRANCH  29  35
ATOM     35  N   UNL d   1      24.553 -13.603  -3.880  0.00  0.00    -0.299 NA
ATOM     36  H   UNL d   1      24.395 -12.588  -3.810  0.00  0.00     0.124 HD
ATOM     37  H   UNL d   1      24.045 -13.951  -4.690  0.00  0.00     0.124 HD
ENDBRANCH  29  35
ENDBRANCH   2  25
TORSDOF 10
ENDMDL
MODEL 2
REMARK VINA RESULT:    -9.092      2.767      8.038
REMARK INTER + INTRA:         -15.374
REMARK INTER:                 -12.075
REMARK INTRA:                  -3.300
REMARK CONF_INDEPENDENT:        2.983
REMARK UNBOUND:                -3.300
REMARK  10 active torsions:
REMARK  status: ('A' for Active; 'I' for Inactive)
REMARK    1  A    between atoms: C_2  and  O_3 
REMARK    2  A    between atoms: O_3  and  C_4 
REMARK    3  A    between atoms: C_7  and  N_8 
REMARK       I    between atoms: N_8  and  C_9 
REMARK    4  A    between atoms: C_20  and  N_8 
REMARK    5  A    between atoms: C_9  and  C_11 
REMARK    6  A    between atoms: C_14  and  C_15 
REMARK       I    between atoms: C_15  and  N_16 
REMARK    7  A    between atoms: C_18  and  N_19 
REMARK    8  A    between atoms: C_20  and  C_23 
REMARK    9  A    between atoms: C_20  and  C_21 
REMARK       I    between atoms: C_23  and  N_25 
REMARK   10  A    between atoms: N_25  and  C_26 
ROOT
ATOM      1  N   UNL d   1      27.471 -15.638  -1.226  0.00  0.00    -0.299 N 
ATOM      2  C   UNL d   1      28.213 -14.566  -0.545  0.00  0.00     0.269 C 
ATOM      3  O   UNL d   1      29.234 -14.097  -1.055  0.00  0.00    -0.266 OA
ENDROOT
BRANCH   1   4
ATOM      4  C   UNL d   1      26.213 -16.224  -0.760  0.00  0.00     0.038 C 
ATOM      5  C   UNL d   1      26.166 -17.249   0.168  0.00  0.00     0.032 C 
ATOM      6  C   UNL d   1      25.147 -18.198   0.208  0.00  0.00     0.039 C 
ATOM      7  C   UNL d   1      23.948 -17.921  -0.392  0.00  0.00     0.068 C 
ATOM      8  C   UNL d   1      23.827 -16.712  -1.033  0.00  0.00     0.039 C 
ATOM      9  C   UNL d   1      24.945 -15.887  -1.221  0.00  0.00     0.032 C 
BRANCH   7  10
ATOM     10  O   UNL d   1      22.933 -18.773  -0.120  0.00  0.00    -0.352 OA
BRANCH  10  11
ATOM     11  C   UNL d   1      21.749 -18.595  -0.887  0.00  0.00     0.171 C 
ATOM     12  C   UNL d   1      20.662 -19.363  -0.168  0.00  0.00     0.034 C 
ENDBRANCH  10  11
ENDBRANCH   7  10
ENDBRANCH   1   4
BRANCH   1  13
ATOM     13  C   UNL d   1      28.080 -16.142  -2.529  0.00  0.00     0.185 C 
BRANCH  13  14
ATOM     14  C   UNL d   1      27.998 -15.245  -3.825  0.00  0.00     0.241 C 
ATOM     15  O   UNL d   1      27.332 -15.575  -4.808  0.00  0.00    -0.271 OA
ATOM     16  N   UNL d   1      28.777 -14.095  -3.851  0.00  0.00    -0.355 N 
ATOM     17  H   UNL d   1      29.329 -13.866  -3.035  0.00  0.00     0.162 HD
BRANCH  16  18
ATOM     18  C   UNL d   1      29.023 -13.363  -5.101  0.00  0.00     0.084 C 
ATOM     19  C   UNL d   1      29.673 -14.233  -6.161  0.00  0.00     0.025 C 
ATOM     20  C   UNL d   1      29.475 -13.456  -7.459  0.00  0.00     0.002 C 
ATOM     21  C   UNL d   1      28.170 -12.691  -7.294  0.00  0.00     0.002 C 
ATOM     22  C   UNL d   1      27.765 -12.886  -5.838  0.00  0.00     0.025 C 
ENDBRANCH  16  18
ENDBRANCH  13  14
BRANCH  13  23
ATOM     23  C   UNL d   1      29.562 -16.557  -2.288  0.00  0.00     0.031 C 
ATOM     24  C   UNL d   1      29.716 -17.475  -1.085  0.00  0.00     0.007 C 
ENDBRANCH  13  23
ENDBRANCH   1  13
BRANCH   2  25
ATOM     25  C   UNL d   1      27.834 -14.089   0.781  0.00  0.00     0.115 C 
ATOM     26  S   UNL d   1      26.354 -13.276   1.087  0.00  0.00     0.019 SA
ATOM     27  N   UNL d   1      26.453 -13.326   2.765  0.00  0.00    -0.203 NA
ATOM     28  C   UNL d   1      27.636 -13.868   3.105  0.00  0.00     0.155 C 
ATOM     29  C   UNL d   1      28.493 -14.206   1.986  0.00  0.00     0.065 C 
BRANCH  28  30
ATOM     30  C   UNL d   1      27.992 -14.214   4.495  0.00  0.00     0.270 C 
ATOM     31  N   UNL d   1      28.804 -15.280   4.728  0.00  0.00    -0.365 N 
ATOM     32  H   UNL d   1      29.185 -15.842   3.981  0.00  0.00     0.159 HD
ATOM     33  H   UNL d   1      28.974 -15.524   5.695  0.00  0.00     0.159 HD
ATOM     34  O   UNL d   1      27.594 -13.549   5.464  0.00  0.00    -0.266 OA
ENDBRANCH  28  30
BRANCH  29  35
ATOM     35  N   UNL d   1      29.699 -14.825   2.114  0.00  0.00    -0.299 NA
ATOM     36  H   UNL d   1      29.942 -15.094   3.078  0.00  0.00     0.124 HD
ATOM     37  H   UNL d   1      29.894 -15.614   1.503  0.00  0.00     0.124 HD
ENDBRANCH  29  35
ENDBRANCH   2  25
TORSDOF 10
ENDMDL
MODEL 3
REMARK VINA RESULT:    -8.311      3.585      8.051
REMARK INTER + INTRA:         -13.862
REMARK INTER:                 -11.294
REMARK INTRA:                  -2.569
REMARK CONF_INDEPENDENT:        2.983
REMARK UNBOUND:                -2.569
REMARK  10 active torsions:
REMARK  status: ('A' for Active; 'I' for Inactive)
REMARK    1  A    between atoms: C_2  and  O_3 
REMARK    2  A    between atoms: O_3  and  C_4 
REMARK    3  A    between atoms: C_7  and  N_8 
REMARK       I    between atoms: N_8  and  C_9 
REMARK    4  A    between atoms: C_20  and  N_8 
REMARK    5  A    between atoms: C_9  and  C_11 
REMARK    6  A    between atoms: C_14  and  C_15 
REMARK       I    between atoms: C_15  and  N_16 
REMARK    7  A    between atoms: C_18  and  N_19 
REMARK    8  A    between atoms: C_20  and  C_23 
REMARK    9  A    between atoms: C_20  and  C_21 
REMARK       I    between atoms: C_23  and  N_25 
REMARK   10  A    between atoms: N_25  and  C_26 
ROOT
ATOM      1  N   UNL d   1      27.367 -14.976  -1.381  0.00  0.00    -0.299 N 
ATOM      2  C   UNL d   1      28.037 -13.903  -0.628  0.00  0.00     0.269 C 
ATOM      3  O   UNL d   1      28.881 -13.193  -1.180  0.00  0.00    -0.266 OA
ENDROOT
BRANCH   1   4
ATOM      4  C   UNL d   1      26.302 -15.836  -0.861  0.00  0.00     0.038 C 
ATOM      5  C   UNL d   1      26.560 -16.992  -0.146  0.00  0.00     0.032 C 
ATOM      6  C   UNL d   1      25.707 -18.094  -0.143  0.00  0.00     0.039 C 
ATOM      7  C   UNL d   1      24.396 -17.930  -0.504  0.00  0.00     0.068 C 
ATOM      8  C   UNL d   1      23.999 -16.671  -0.882  0.00  0.00     0.039 C 
ATOM      9  C   UNL d   1      24.940 -15.648  -1.066  0.00  0.00     0.032 C 
BRANCH   7  10
ATOM     10  O   UNL d   1      23.574 -18.976  -0.257  0.00  0.00    -0.352 OA
BRANCH  10  11
ATOM     11  C   UNL d   1      22.273 -18.646   0.211  0.00  0.00     0.171 C 
ATOM     12  C   UNL d   1      21.325 -18.951  -0.927  0.00  0.00     0.034 C 
ENDBRANCH  10  11
ENDBRANCH   7  10
ENDBRANCH   1   4
BRANCH   1  13
ATOM     13  C   UNL d   1      27.831 -15.166  -2.820  0.00  0.00     0.185 C 
BRANCH  13  14
ATOM     14  C   UNL d   1      28.911 -16.269  -3.149  0.00  0.00     0.241 C 
ATOM     15  O   UNL d   1      29.511 -16.883  -2.264  0.00  0.00    -0.271 OA
ATOM     16  N   UNL d   1      29.226 -16.470  -4.487  0.00  0.00    -0.355 N 
ATOM     17  H   UNL d   1      28.730 -15.932  -5.186  0.00  0.00     0.162 HD
BRANCH  16  18
ATOM     18  C   UNL d   1      30.418 -17.227  -4.890  0.00  0.00     0.084 C 
ATOM     19  C   UNL d   1      30.180 -18.726  -4.886  0.00  0.00     0.025 C 
ATOM     20  C   UNL d   1      31.342 -19.293  -5.696  0.00  0.00     0.002 C 
ATOM     21  C   UNL d   1      31.700 -18.226  -6.720  0.00  0.00     0.002 C 
ATOM     22  C   UNL d   1      30.877 -17.002  -6.337  0.00  0.00     0.025 C 
ENDBRANCH  16  18
ENDBRANCH  13  14
BRANCH  13  23
ATOM     23  C   UNL d   1      26.596 -15.368  -3.746  0.00  0.00     0.031 C 
ATOM     24  C   UNL d   1      26.689 -14.541  -5.020  0.00  0.00     0.007 C 
ENDBRANCH  13  23
ENDBRANCH   1  13
BRANCH   2  25
ATOM     25  C   UNL d   1      27.805 -13.703   0.798  0.00  0.00     0.115 C 
ATOM     26  S   UNL d   1      26.417 -12.899   1.409  0.00  0.00     0.019 SA
ATOM     27  N   UNL d   1      26.654 -13.313   3.022  0.00  0.00    -0.203 NA
ATOM     28  C   UNL d   1      27.820 -13.975   3.125  0.00  0.00     0.155 C 
ATOM     29  C   UNL d   1      28.553 -14.109   1.882  0.00  0.00     0.065 C 
BRANCH  28  30
ATOM     30  C   UNL d   1      28.265 -14.629   4.371  0.00  0.00     0.270 C 
ATOM     31  N   UNL d   1      29.499 -15.199   4.419  0.00  0.00    -0.365 N 
ATOM     32  H   UNL d   1      30.132 -15.183   3.632  0.00  0.00     0.159 HD
ATOM     33  H   UNL d   1      29.744 -15.691   5.268  0.00  0.00     0.159 HD
ATOM     34  O   UNL d   1      27.560 -14.656   5.392  0.00  0.00    -0.266 OA
ENDBRANCH  28  30
BRANCH  29  35
ATOM     35  N   UNL d   1      29.719 -14.803   1.761  0.00  0.00    -0.299 NA
ATOM     36  H   UNL d   1      30.565 -14.217   1.736  0.00  0.00     0.124 HD
ATOM     37  H   UNL d   1      29.881 -15.573   2.406  0.00  0.00     0.124 HD
ENDBRANCH  29  35
ENDBRANCH   2  25
TORSDOF 10
ENDMDL
MODEL 4
REMARK VINA RESULT:    -8.233      3.207      7.737
REMARK INTER + INTRA:         -14.764
REMARK INTER:                 -11.216
REMARK INTRA:                  -3.548
REMARK CONF_INDEPENDENT:        2.983
REMARK UNBOUND:                -3.548
REMARK  10 active torsions:
REMARK  status: ('A' for Active; 'I' for Inactive)
REMARK    1  A    between atoms: C_2  and  O_3 
REMARK    2  A    between atoms: O_3  and  C_4 
REMARK    3  A    between atoms: C_7  and  N_8 
REMARK       I    between atoms: N_8  and  C_9 
REMARK    4  A    between atoms: C_20  and  N_8 
REMARK    5  A    between atoms: C_9  and  C_11 
REMARK    6  A    between atoms: C_14  and  C_15 
REMARK       I    between atoms: C_15  and  N_16 
REMARK    7  A    between atoms: C_18  and  N_19 
REMARK    8  A    between atoms: C_20  and  C_23 
REMARK    9  A    between atoms: C_20  and  C_21 
REMARK       I    between atoms: C_23  and  N_25 
REMARK   10  A    between atoms: N_25  and  C_26 
ROOT
ATOM      1  N   UNL d   1      27.424 -15.292   0.193  0.00  0.00    -0.299 N 
ATOM      2  C   UNL d   1      28.881 -15.397   0.019  0.00  0.00     0.269 C 
ATOM      3  O   UNL d   1      29.630 -14.569   0.546  0.00  0.00    -0.266 OA
ENDROOT
BRANCH   1   4
ATOM      4  C   UNL d   1      26.440 -16.247  -0.320  0.00  0.00     0.038 C 
ATOM      5  C   UNL d   1      25.617 -15.966  -1.396  0.00  0.00     0.032 C 
ATOM      6  C   UNL d   1      24.347 -16.519  -1.552  0.00  0.00     0.039 C 
ATOM      7  C   UNL d   1      24.028 -17.668  -0.879  0.00  0.00     0.068 C 
ATOM      8  C   UNL d   1      24.987 -18.202  -0.052  0.00  0.00     0.039 C 
ATOM      9  C   UNL d   1      26.165 -17.495   0.227  0.00  0.00     0.032 C 
BRANCH   7  10
ATOM     10  O   UNL d   1      22.878 -18.277  -1.249  0.00  0.00    -0.352 OA
BRANCH  10  11
ATOM     11  C   UNL d   1      22.130 -18.881  -0.202  0.00  0.00     0.171 C 
ATOM     12  C   UNL d   1      20.702 -18.959  -0.696  0.00  0.00     0.034 C 
ENDBRANCH  10  11
ENDBRANCH   7  10
ENDBRANCH   1   4
BRANCH   1  13
ATOM     13  C   UNL d   1      26.936 -14.089   0.991  0.00  0.00     0.185 C 
BRANCH  13  14
ATOM     14  C   UNL d   1      27.350 -13.941   2.507  0.00  0.00     0.241 C 
ATOM     15  O   UNL d   1      26.846 -13.090   3.243  0.00  0.00    -0.271 OA
ATOM     16  N   UNL d   1      28.373 -14.760   2.968  0.00  0.00    -0.355 N 
ATOM     17  H   UNL d   1      28.779 -15.431   2.330  0.00  0.00     0.162 HD
BRANCH  16  18
ATOM     18  C   UNL d   1      29.048 -14.498   4.246  0.00  0.00     0.084 C 
ATOM     19  C   UNL d   1      29.440 -13.040   4.405  0.00  0.00     0.025 C 
ATOM     20  C   UNL d   1      29.734 -12.890   5.894  0.00  0.00     0.002 C 
ATOM     21  C   UNL d   1      28.822 -13.880   6.603  0.00  0.00     0.002 C 
ATOM     22  C   UNL d   1      28.185 -14.712   5.497  0.00  0.00     0.025 C 
ENDBRANCH  16  18
ENDBRANCH  13  14
BRANCH  13  23
ATOM     23  C   UNL d   1      27.295 -12.777   0.233  0.00  0.00     0.031 C 
ATOM     24  C   UNL d   1      27.029 -12.882  -1.261  0.00  0.00     0.007 C 
ENDBRANCH  13  23
ENDBRANCH   1  13
BRANCH   2  25
ATOM     25  C   UNL d   1      29.483 -16.407  -0.844  0.00  0.00     0.115 C 
ATOM     26  S   UNL d   1      28.991 -16.651  -2.470  0.00  0.00     0.019 SA
ATOM     27  N   UNL d   1      30.259 -17.669  -2.901  0.00  0.00    -0.203 NA
ATOM     28  C   UNL d   1      31.004 -17.906  -1.807  0.00  0.00     0.155 C 
ATOM     29  C   UNL d   1      30.513 -17.288  -0.592  0.00  0.00     0.065 C 
BRANCH  28  30
ATOM     30  C   UNL d   1      32.290 -18.629  -1.853  0.00  0.00     0.270 C 
ATOM     31  N   UNL d   1      33.259 -18.321  -0.948  0.00  0.00    -0.365 N 
ATOM     32  H   UNL d   1      33.127 -17.619  -0.234  0.00  0.00     0.159 HD
ATOM     33  H   UNL d   1      34.148 -18.793  -1.050  0.00  0.00     0.159 HD
ATOM     34  O   UNL d   1      32.514 -19.530  -2.676  0.00  0.00    -0.266 OA
ENDBRANCH  28  30
BRANCH  29  35
ATOM     35  N   UNL d   1      31.159 -17.350   0.606  0.00  0.00    -0.299 NA
ATOM     36  H   UNL d   1      30.800 -16.701   1.320  0.00  0.00     0.124 HD
ATOM     37  H   UNL d   1      31.276 -18.265   1.034  0.00  0.00     0.124 HD
ENDBRANCH  29  35
ENDBRANCH   2  25
TORSDOF 10
ENDMDL
MODEL 5
REMARK VINA RESULT:    -8.072      1.604      2.083
REMARK INTER + INTRA:         -14.282
REMARK INTER:                 -11.055
REMARK INTRA:                  -3.227
REMARK CONF_INDEPENDENT:        2.983
REMARK UNBOUND:                -3.227
REMARK  10 active torsions:
REMARK  status: ('A' for Active; 'I' for Inactive)
REMARK    1  A    between atoms: C_2  and  O_3 
REMARK    2  A    between atoms: O_3  and  C_4 
REMARK    3  A    between atoms: C_7  and  N_8 
REMARK       I    between atoms: N_8  and  C_9 
REMARK    4  A    between atoms: C_20  and  N_8 
REMARK    5  A    between atoms: C_9  and  C_11 
REMARK    6  A    between atoms: C_14  and  C_15 
REMARK       I    between atoms: C_15  and  N_16 
REMARK    7  A    between atoms: C_18  and  N_19 
REMARK    8  A    between atoms: C_20  and  C_23 
REMARK    9  A    between atoms: C_20  and  C_21 
REMARK       I    between atoms: C_23  and  N_25 
REMARK   10  A    between atoms: N_25  and  C_26 
ROOT
ATOM      1  N   UNL d   1      25.818 -16.266  -0.554  0.00  0.00    -0.299 N 
ATOM      2  C   UNL d   1      25.786 -16.273  -2.025  0.00  0.00     0.269 C 
ATOM      3  O   UNL d   1      25.030 -17.041  -2.626  0.00  0.00    -0.266 OA
ENDROOT
BRANCH   1   4
ATOM      4  C   UNL d   1      26.615 -15.357   0.271  0.00  0.00     0.038 C 
ATOM      5  C   UNL d   1      26.279 -14.027   0.454  0.00  0.00     0.032 C 
ATOM      6  C   UNL d   1      27.220 -13.028   0.694  0.00  0.00     0.039 C 
ATOM      7  C   UNL d   1      28.458 -13.371   1.169  0.00  0.00     0.068 C 
ATOM      8  C   UNL d   1      28.713 -14.707   1.357  0.00  0.00     0.039 C 
ATOM      9  C   UNL d   1      27.809 -15.679   0.905  0.00  0.00     0.032 C 
BRANCH   7  10
ATOM     10  O   UNL d   1      29.236 -12.351   1.600  0.00  0.00    -0.352 OA
BRANCH  10  11
ATOM     11  C   UNL d   1      30.462 -12.167   0.904  0.00  0.00     0.171 C 
ATOM     12  C   UNL d   1      30.124 -11.384  -0.345  0.00  0.00     0.034 C 
ENDBRANCH  10  11
ENDBRANCH   7  10
ENDBRANCH   1   4
BRANCH   1  13
ATOM     13  C   UNL d   1      24.922 -17.290   0.133  0.00  0.00     0.185 C 
BRANCH  13  14
ATOM     14  C   UNL d   1      23.395 -17.373  -0.256  0.00  0.00     0.241 C 
ATOM     15  O   UNL d   1      22.783 -16.407  -0.717  0.00  0.00    -0.271 OA
ATOM     16  N   UNL d   1      22.733 -18.563   0.018  0.00  0.00    -0.355 N 
ATOM     17  H   UNL d   1      23.261 -19.328   0.419  0.00  0.00     0.162 HD
BRANCH  16  18
ATOM     18  C   UNL d   1      21.267 -18.650  -0.005  0.00  0.00     0.084 C 
ATOM     19  C   UNL d   1      20.748 -19.326  -1.261  0.00  0.00     0.025 C 
ATOM     20  C   UNL d   1      19.304 -19.684  -0.926  0.00  0.00     0.002 C 
ATOM     21  C   UNL d   1      19.274 -19.947   0.572  0.00  0.00     0.002 C 
ATOM     22  C   UNL d   1      20.647 -19.533   1.086  0.00  0.00     0.025 C 
ENDBRANCH  16  18
ENDBRANCH  13  14
BRANCH  13  23
ATOM     23  C   UNL d   1      25.558 -18.706   0.014  0.00  0.00     0.031 C 
ATOM     24  C   UNL d   1      26.958 -18.762   0.603  0.00  0.00     0.007 C 
ENDBRANCH  13  23
ENDBRANCH   1  13
BRANCH   2  25
ATOM     25  C   UNL d   1      26.698 -15.457  -2.818  0.00  0.00     0.115 C 
ATOM     26  S   UNL d   1      28.058 -14.659  -2.140  0.00  0.00     0.019 SA
ATOM     27  N   UNL d   1      28.770 -14.223  -3.601  0.00  0.00    -0.203 NA
ATOM     28  C   UNL d   1      27.949 -14.591  -4.601  0.00  0.00     0.155 C 
ATOM     29  C   UNL d   1      26.703 -15.194  -4.172  0.00  0.00     0.065 C 
BRANCH  28  30
ATOM     30  C   UNL d   1      28.330 -14.509  -6.024  0.00  0.00     0.270 C 
ATOM     31  N   UNL d   1      29.336 -13.673  -6.397  0.00  0.00    -0.365 N 
ATOM     32  H   UNL d   1      29.843 -13.108  -5.730  0.00  0.00     0.159 HD
ATOM     33  H   UNL d   1      29.527 -13.597  -7.387  0.00  0.00     0.159 HD
ATOM     34  O   UNL d   1      27.780 -15.199  -6.896  0.00  0.00    -0.266 OA
ENDBRANCH  28  30
BRANCH  29  35
ATOM     35  N   UNL d   1      25.769 -15.695  -5.027  0.00  0.00    -0.299 NA
ATOM     36  H   UNL d   1      26.133 -15.954  -5.954  0.00  0.00     0.124 HD
ATOM     37  H   UNL d   1      25.177 -16.452  -4.692  0.00  0.00     0.124 HD
ENDBRANCH  29  35
ENDBRANCH   2  25
TORSDOF 10
ENDMDL
MODEL 6
REMARK VINA RESULT:    -7.911      3.368      7.798
REMARK INTER + INTRA:         -14.302
REMARK INTER:                 -10.894
REMARK INTRA:                  -3.409
REMARK CONF_INDEPENDENT:        2.983
REMARK UNBOUND:                -3.409
REMARK  10 active torsions:
REMARK  status: ('A' for Active; 'I' for Inactive)
REMARK    1  A    between atoms: C_2  and  O_3 
REMARK    2  A    between atoms: O_3  and  C_4 
REMARK    3  A    between atoms: C_7  and  N_8 
REMARK       I    between atoms: N_8  and  C_9 
REMARK    4  A    between atoms: C_20  and  N_8 
REMARK    5  A    between atoms: C_9  and  C_11 
REMARK    6  A    between atoms: C_14  and  C_15 
REMARK       I    between atoms: C_15  and  N_16 
REMARK    7  A    between atoms: C_18  and  N_19 
REMARK    8  A    between atoms: C_20  and  C_23 
REMARK    9  A    between atoms: C_20  and  C_21 
REMARK       I    between atoms: C_23  and  N_25 
REMARK   10  A    between atoms: N_25  and  C_26 
ROOT
ATOM      1  N   UNL d   1      27.269 -14.201  -2.284  0.00  0.00    -0.299 N 
ATOM      2  C   UNL d   1      27.911 -13.214  -1.403  0.00  0.00     0.269 C 
ATOM      3  O   UNL d   1      28.363 -12.165  -1.872  0.00  0.00    -0.266 OA
ENDROOT
BRANCH   1   4
ATOM      4  C   UNL d   1      26.634 -15.444  -1.842  0.00  0.00     0.038 C 
ATOM      5  C   UNL d   1      25.266 -15.642  -1.893  0.00  0.00     0.032 C 
ATOM      6  C   UNL d   1      24.580 -16.471  -1.007  0.00  0.00     0.039 C 
ATOM      7  C   UNL d   1      25.268 -17.436  -0.322  0.00  0.00     0.068 C 
ATOM      8  C   UNL d   1      26.623 -17.514  -0.531  0.00  0.00     0.039 C 
ATOM      9  C   UNL d   1      27.291 -16.527  -1.270  0.00  0.00     0.032 C 
BRANCH   7  10
ATOM     10  O   UNL d   1      24.517 -18.350   0.336  0.00  0.00    -0.352 OA
BRANCH  10  11
ATOM     11  C   UNL d   1      23.109 -18.195   0.224  0.00  0.00     0.171 C 
ATOM     12  C   UNL d   1      22.672 -19.112  -0.897  0.00  0.00     0.034 C 
ENDBRANCH  10  11
ENDBRANCH   7  10
ENDBRANCH   1   4
BRANCH   1  13
ATOM     13  C   UNL d   1      27.268 -13.863  -3.770  0.00  0.00     0.185 C 
BRANCH  13  14
ATOM     14  C   UNL d   1      27.848 -14.903  -4.806  0.00  0.00     0.241 C 
ATOM     15  O   UNL d   1      27.215 -15.257  -5.803  0.00  0.00    -0.271 OA
ATOM     16  N   UNL d   1      29.079 -15.475  -4.510  0.00  0.00    -0.355 N 
ATOM     17  H   UNL d   1      29.560 -15.177  -3.671  0.00  0.00     0.162 HD
BRANCH  16  18
ATOM     18  C   UNL d   1      29.563 -16.666  -5.220  0.00  0.00     0.084 C 
ATOM     19  C   UNL d   1      30.350 -16.313  -6.469  0.00  0.00     0.025 C 
ATOM     20  C   UNL d   1      31.090 -17.599  -6.823  0.00  0.00     0.002 C 
ATOM     21  C   UNL d   1      31.357 -18.306  -5.502  0.00  0.00     0.002 C 
ATOM     22  C   UNL d   1      30.586 -17.513  -4.453  0.00  0.00     0.025 C 
ENDBRANCH  16  18
ENDBRANCH  13  14
BRANCH  13  23
ATOM     23  C   UNL d   1      25.833 -13.449  -4.212  0.00  0.00     0.031 C 
ATOM     24  C   UNL d   1      25.534 -11.989  -3.907  0.00  0.00     0.007 C 
ENDBRANCH  13  23
ENDBRANCH   1  13
BRANCH   2  25
ATOM     25  C   UNL d   1      28.121 -13.471   0.017  0.00  0.00     0.115 C 
ATOM     26  S   UNL d   1      27.026 -14.391   0.966  0.00  0.00     0.019 SA
ATOM     27  N   UNL d   1      28.019 -14.534   2.316  0.00  0.00    -0.203 NA
ATOM     28  C   UNL d   1      29.136 -13.817   2.101  0.00  0.00     0.155 C 
ATOM     29  C   UNL d   1      29.166 -13.105   0.839  0.00  0.00     0.065 C 
BRANCH  28  30
ATOM     30  C   UNL d   1      30.298 -13.848   3.010  0.00  0.00     0.270 C 
ATOM     31  N   UNL d   1      30.379 -14.826   3.953  0.00  0.00    -0.365 N 
ATOM     32  H   UNL d   1      29.673 -15.542   4.049  0.00  0.00     0.159 HD
ATOM     33  H   UNL d   1      31.157 -14.778   4.597  0.00  0.00     0.159 HD
ATOM     34  O   UNL d   1      31.223 -13.026   2.929  0.00  0.00    -0.266 OA
ENDBRANCH  28  30
BRANCH  29  35
ATOM     35  N   UNL d   1      30.233 -12.380   0.402  0.00  0.00    -0.299 NA
ATOM     36  H   UNL d   1      30.024 -11.732  -0.370  0.00  0.00     0.124 HD
ATOM     37  H   UNL d   1      30.783 -11.881   1.098  0.00  0.00     0.124 HD
ENDBRANCH  29  35
ENDBRANCH   2  25
TORSDOF 10
ENDMDL
MODEL 7
REMARK VINA RESULT:    -7.797      2.524      7.792
REMARK INTER + INTRA:         -14.382
REMARK INTER:                 -10.780
REMARK INTRA:                  -3.602
REMARK CONF_INDEPENDENT:        2.983
REMARK UNBOUND:                -3.602
REMARK  10 active torsions:
REMARK  status: ('A' for Active; 'I' for Inactive)
REMARK    1  A    between atoms: C_2  and  O_3 
REMARK    2  A    between atoms: O_3  and  C_4 
REMARK    3  A    between atoms: C_7  and  N_8 
REMARK       I    between atoms: N_8  and  C_9 
REMARK    4  A    between atoms: C_20  and  N_8 
REMARK    5  A    between atoms: C_9  and  C_11 
REMARK    6  A    between atoms: C_14  and  C_15 
REMARK       I    between atoms: C_15  and  N_16 
REMARK    7  A    between atoms: C_18  and  N_19 
REMARK    8  A    between atoms: C_20  and  C_23 
REMARK    9  A    between atoms: C_20  and  C_21 
REMARK       I    between atoms: C_23  and  N_25 
REMARK   10  A    between atoms: N_25  and  C_26 
ROOT
ATOM      1  N   UNL d   1      26.052 -15.242  -1.699  0.00  0.00    -0.299 N 
ATOM      2  C   UNL d   1      26.947 -14.306  -1.001  0.00  0.00     0.269 C 
ATOM      3  O   UNL d   1      27.645 -13.518  -1.644  0.00  0.00    -0.266 OA
ENDROOT
BRANCH   1   4
ATOM      4  C   UNL d   1      25.126 -16.172  -1.049  0.00  0.00     0.038 C 
ATOM      5  C   UNL d   1      25.542 -17.363  -0.481  0.00  0.00     0.032 C 
ATOM      6  C   UNL d   1      24.729 -18.492  -0.394  0.00  0.00     0.039 C 
ATOM      7  C   UNL d   1      23.371 -18.350  -0.487  0.00  0.00     0.068 C 
ATOM      8  C   UNL d   1      22.881 -17.084  -0.690  0.00  0.00     0.039 C 
ATOM      9  C   UNL d   1      23.747 -16.019  -0.977  0.00  0.00     0.032 C 
BRANCH   7  10
ATOM     10  O   UNL d   1      22.634 -19.438  -0.163  0.00  0.00    -0.352 OA
BRANCH  10  11
ATOM     11  C   UNL d   1      21.264 -19.196   0.131  0.00  0.00     0.171 C 
ATOM     12  C   UNL d   1      20.522 -19.328  -1.180  0.00  0.00     0.034 C 
ENDBRANCH  10  11
ENDBRANCH   7  10
ENDBRANCH   1   4
BRANCH   1  13
ATOM     13  C   UNL d   1      26.107 -15.201  -3.221  0.00  0.00     0.185 C 
BRANCH  13  14
ATOM     14  C   UNL d   1      25.462 -13.983  -3.991  0.00  0.00     0.241 C 
ATOM     15  O   UNL d   1      24.423 -14.097  -4.644  0.00  0.00    -0.271 OA
ATOM     16  N   UNL d   1      26.158 -12.781  -3.973  0.00  0.00    -0.355 N 
ATOM     17  H   UNL d   1      27.020 -12.729  -3.445  0.00  0.00     0.162 HD
BRANCH  16  18
ATOM     18  C   UNL d   1      25.826 -11.688  -4.897  0.00  0.00     0.084 C 
ATOM     19  C   UNL d   1      25.896 -10.327  -4.231  0.00  0.00     0.025 C 
ATOM     20  C   UNL d   1      25.930  -9.340  -5.394  0.00  0.00     0.002 C 
ATOM     21  C   UNL d   1      26.638 -10.059  -6.532  0.00  0.00     0.002 C 
ATOM     22  C   UNL d   1      26.805 -11.499  -6.064  0.00  0.00     0.025 C 
ENDBRANCH  16  18
ENDBRANCH  13  14
BRANCH  13  23
ATOM     23  C   UNL d   1      27.578 -15.385  -3.698  0.00  0.00     0.031 C 
ATOM     24  C   UNL d   1      27.730 -15.172  -5.196  0.00  0.00     0.007 C 
ENDBRANCH  13  23
ENDBRANCH   1  13
BRANCH   2  25
ATOM     25  C   UNL d   1      27.113 -14.336   0.448  0.00  0.00     0.115 C 
ATOM     26  S   UNL d   1      27.778 -15.683   1.279  0.00  0.00     0.019 SA
ATOM     27  N   UNL d   1      27.953 -14.920   2.767  0.00  0.00    -0.203 NA
ATOM     28  C   UNL d   1      27.431 -13.684   2.676  0.00  0.00     0.155 C 
ATOM     29  C   UNL d   1      26.839 -13.369   1.391  0.00  0.00     0.065 C 
BRANCH  28  30
ATOM     30  C   UNL d   1      27.558 -12.677   3.748  0.00  0.00     0.270 C 
ATOM     31  N   UNL d   1      27.905 -13.079   5.000  0.00  0.00    -0.365 N 
ATOM     32  H   UNL d   1      28.091 -14.046   5.225  0.00  0.00     0.159 HD
ATOM     33  H   UNL d   1      27.922 -12.370   5.721  0.00  0.00     0.159 HD
ATOM     34  O   UNL d   1      27.384 -11.466   3.541  0.00  0.00    -0.266 OA
ENDBRANCH  28  30
BRANCH  29  35
ATOM     35  N   UNL d   1      26.319 -12.150   1.074  0.00  0.00    -0.299 NA
ATOM     36  H   UNL d   1      26.687 -11.369   1.635  0.00  0.00     0.124 HD
ATOM     37  H   UNL d   1      26.325 -11.873   0.095  0.00  0.00     0.124 HD
ENDBRANCH  29  35
ENDBRANCH   2  25
TORSDOF 10
ENDMDL
MODEL 8
REMARK VINA RESULT:    -7.720      3.730      8.263
REMARK INTER + INTRA:         -14.213
REMARK INTER:                 -10.703
REMARK INTRA:                  -3.511
REMARK CONF_INDEPENDENT:        2.983
REMARK UNBOUND:                -3.511
REMARK  10 active torsions:
REMARK  status: ('A' for Active; 'I' for Inactive)
REMARK    1  A    between atoms: C_2  and  O_3 
REMARK    2  A    between atoms: O_3  and  C_4 
REMARK    3  A    between atoms: C_7  and  N_8 
REMARK       I    between atoms: N_8  and  C_9 
REMARK    4  A    between atoms: C_20  and  N_8 
REMARK    5  A    between atoms: C_9  and  C_11 
REMARK    6  A    between atoms: C_14  and  C_15 
REMARK       I    between atoms: C_15  and  N_16 
REMARK    7  A    between atoms: C_18  and  N_19 
REMARK    8  A    between atoms: C_20  and  C_23 
REMARK    9  A    between atoms: C_20  and  C_21 
REMARK       I    between atoms: C_23  and  N_25 
REMARK   10  A    between atoms: N_25  and  C_26 
ROOT
ATOM      1  N   UNL d   1      28.380 -15.335  -0.705  0.00  0.00    -0.299 N 
ATOM      2  C   UNL d   1      28.995 -14.330   0.176  0.00  0.00     0.269 C 
ATOM      3  O   UNL d   1      30.093 -13.844  -0.109  0.00  0.00    -0.266 OA
ENDROOT
BRANCH   1   4
ATOM      4  C   UNL d   1      27.056 -15.930  -0.514  0.00  0.00     0.038 C 
ATOM      5  C   UNL d   1      26.854 -17.077   0.233  0.00  0.00     0.032 C 
ATOM      6  C   UNL d   1      25.820 -17.978  -0.014  0.00  0.00     0.039 C 
ATOM      7  C   UNL d   1      24.727 -17.566  -0.728  0.00  0.00     0.068 C 
ATOM      8  C   UNL d   1      24.726 -16.273  -1.190  0.00  0.00     0.039 C 
ATOM      9  C   UNL d   1      25.876 -15.477  -1.092  0.00  0.00     0.032 C 
BRANCH   7  10
ATOM     10  O   UNL d   1      23.667 -18.406  -0.733  0.00  0.00    -0.352 OA
BRANCH  10  11
ATOM     11  C   UNL d   1      22.450 -17.875  -0.224  0.00  0.00     0.171 C 
ATOM     12  C   UNL d   1      21.438 -18.997  -0.292  0.00  0.00     0.034 C 
ENDBRANCH  10  11
ENDBRANCH   7  10
ENDBRANCH   1   4
BRANCH   1  13
ATOM     13  C   UNL d   1      29.208 -15.754  -1.913  0.00  0.00     0.185 C 
BRANCH  13  14
ATOM     14  C   UNL d   1      30.432 -16.731  -1.716  0.00  0.00     0.241 C 
ATOM     15  O   UNL d   1      30.693 -17.624  -2.524  0.00  0.00    -0.271 OA
ATOM     16  N   UNL d   1      31.167 -16.600  -0.545  0.00  0.00    -0.355 N 
ATOM     17  H   UNL d   1      30.911 -15.870   0.107  0.00  0.00     0.162 HD
BRANCH  16  18
ATOM     18  C   UNL d   1      32.112 -17.638  -0.111  0.00  0.00     0.084 C 
ATOM     19  C   UNL d   1      32.456 -17.527   1.363  0.00  0.00     0.025 C 
ATOM     20  C   UNL d   1      33.086 -18.874   1.704  0.00  0.00     0.002 C 
ATOM     21  C   UNL d   1      32.421 -19.892   0.791  0.00  0.00     0.002 C 
ATOM     22  C   UNL d   1      31.582 -19.076  -0.186  0.00  0.00     0.025 C 
ENDBRANCH  16  18
ENDBRANCH  13  14
BRANCH  13  23
ATOM     23  C   UNL d   1      28.271 -16.325  -3.018  0.00  0.00     0.031 C 
ATOM     24  C   UNL d   1      27.748 -15.241  -3.948  0.00  0.00     0.007 C 
ENDBRANCH  13  23
ENDBRANCH   1  13
BRANCH   2  25
ATOM     25  C   UNL d   1      28.388 -13.945   1.446  0.00  0.00     0.115 C 
ATOM     26  S   UNL d   1      26.860 -13.171   1.547  0.00  0.00     0.019 SA
ATOM     27  N   UNL d   1      26.679 -13.328   3.212  0.00  0.00    -0.203 NA
ATOM     28  C   UNL d   1      27.800 -13.876   3.712  0.00  0.00     0.155 C 
ATOM     29  C   UNL d   1      28.839 -14.131   2.735  0.00  0.00     0.065 C 
BRANCH  28  30
ATOM     30  C   UNL d   1      27.926 -14.307   5.119  0.00  0.00     0.270 C 
ATOM     31  N   UNL d   1      28.663 -15.412   5.413  0.00  0.00    -0.365 N 
ATOM     32  H   UNL d   1      29.139 -15.948   4.701  0.00  0.00     0.159 HD
ATOM     33  H   UNL d   1      28.674 -15.712   6.378  0.00  0.00     0.159 HD
ATOM     34  O   UNL d   1      27.401 -13.680   6.052  0.00  0.00    -0.266 OA
ENDBRANCH  28  30
BRANCH  29  35
ATOM     35  N   UNL d   1      30.021 -14.742   3.026  0.00  0.00    -0.299 NA
ATOM     36  H   UNL d   1      29.987 -15.373   3.839  0.00  0.00     0.124 HD
ATOM     37  H   UNL d   1      30.507 -15.219   2.270  0.00  0.00     0.124 HD
ENDBRANCH  29  35
ENDBRANCH   2  25
TORSDOF 10
ENDMDL
MODEL 9
REMARK VINA RESULT:    -7.585      2.510      7.209
REMARK INTER + INTRA:         -14.050
REMARK INTER:                 -10.568
REMARK INTRA:                  -3.482
REMARK CONF_INDEPENDENT:        2.983
REMARK UNBOUND:                -3.482
REMARK  10 active torsions:
REMARK  status: ('A' for Active; 'I' for Inactive)
REMARK    1  A    between atoms: C_2  and  O_3 
REMARK    2  A    between atoms: O_3  and  C_4 
REMARK    3  A    between atoms: C_7  and  N_8 
REMARK       I    between atoms: N_8  and  C_9 
REMARK    4  A    between atoms: C_20  and  N_8 
REMARK    5  A    between atoms: C_9  and  C_11 
REMARK    6  A    between atoms: C_14  and  C_15 
REMARK       I    between atoms: C_15  and  N_16 
REMARK    7  A    between atoms: C_18  and  N_19 
REMARK    8  A    between atoms: C_20  and  C_23 
REMARK    9  A    between atoms: C_20  and  C_21 
REMARK       I    between atoms: C_23  and  N_25 
REMARK   10  A    between atoms: N_25  and  C_26 
ROOT
ATOM      1  N   UNL d   1      26.725 -14.920  -0.567  0.00  0.00    -0.299 N 
ATOM      2  C   UNL d   1      27.595 -14.343  -1.604  0.00  0.00     0.269 C 
ATOM      3  O   UNL d   1      28.341 -13.399  -1.334  0.00  0.00    -0.266 OA
ENDROOT
BRANCH   1   4
ATOM      4  C   UNL d   1      25.852 -16.081  -0.744  0.00  0.00     0.038 C 
ATOM      5  C   UNL d   1      24.569 -15.980  -1.254  0.00  0.00     0.032 C 
ATOM      6  C   UNL d   1      23.541 -16.858  -0.916  0.00  0.00     0.039 C 
ATOM      7  C   UNL d   1      23.852 -18.088  -0.400  0.00  0.00     0.068 C 
ATOM      8  C   UNL d   1      25.182 -18.378  -0.217  0.00  0.00     0.039 C 
ATOM      9  C   UNL d   1      26.159 -17.386  -0.377  0.00  0.00     0.032 C 
BRANCH   7  10
ATOM     10  O   UNL d   1      22.832 -18.973  -0.313  0.00  0.00    -0.352 OA
BRANCH  10  11
ATOM     11  C   UNL d   1      21.601 -18.562  -0.894  0.00  0.00     0.171 C 
ATOM     12  C   UNL d   1      20.517 -19.331  -0.171  0.00  0.00     0.034 C 
ENDBRANCH  10  11
ENDBRANCH   7  10
ENDBRANCH   1   4
BRANCH   1  13
ATOM     13  C   UNL d   1      26.775 -14.238   0.795  0.00  0.00     0.185 C 
BRANCH  13  14
ATOM     14  C   UNL d   1      27.970 -14.551   1.778  0.00  0.00     0.241 C 
ATOM     15  O   UNL d   1      27.790 -14.771   2.978  0.00  0.00    -0.271 OA
ATOM     16  N   UNL d   1      29.255 -14.491   1.255  0.00  0.00    -0.355 N 
ATOM     17  H   UNL d   1      29.367 -14.286   0.271  0.00  0.00     0.162 HD
BRANCH  16  18
ATOM     18  C   UNL d   1      30.437 -14.451   2.126  0.00  0.00     0.084 C 
ATOM     19  C   UNL d   1      31.586 -15.277   1.580  0.00  0.00     0.025 C 
ATOM     20  C   UNL d   1      32.803 -14.797   2.365  0.00  0.00     0.002 C 
ATOM     21  C   UNL d   1      32.540 -13.334   2.690  0.00  0.00     0.002 C 
ATOM     22  C   UNL d   1      31.100 -13.074   2.265  0.00  0.00     0.025 C 
ENDBRANCH  16  18
ENDBRANCH  13  14
BRANCH  13  23
ATOM     23  C   UNL d   1      26.654 -12.695   0.613  0.00  0.00     0.031 C 
ATOM     24  C   UNL d   1      26.733 -11.951   1.937  0.00  0.00     0.007 C 
ENDBRANCH  13  23
ENDBRANCH   1  13
BRANCH   2  25
ATOM     25  C   UNL d   1      27.542 -14.794  -2.991  0.00  0.00     0.115 C 
ATOM     26  S   UNL d   1      26.066 -15.025  -3.836  0.00  0.00     0.019 SA
ATOM     27  N   UNL d   1      26.748 -15.211  -5.362  0.00  0.00    -0.203 NA
ATOM     28  C   UNL d   1      28.087 -15.194  -5.234  0.00  0.00     0.155 C 
ATOM     29  C   UNL d   1      28.565 -15.073  -3.871  0.00  0.00     0.065 C 
BRANCH  28  30
ATOM     30  C   UNL d   1      29.004 -15.169  -6.390  0.00  0.00     0.270 C 
ATOM     31  N   UNL d   1      28.671 -14.437  -7.488  0.00  0.00    -0.365 N 
ATOM     32  H   UNL d   1      27.819 -13.897  -7.538  0.00  0.00     0.159 HD
ATOM     33  H   UNL d   1      29.293 -14.494  -8.283  0.00  0.00     0.159 HD
ATOM     34  O   UNL d   1      30.086 -15.776  -6.389  0.00  0.00    -0.266 OA
ENDBRANCH  28  30
BRANCH  29  35
ATOM     35  N   UNL d   1      29.881 -14.969  -3.535  0.00  0.00    -0.299 NA
ATOM     36  H   UNL d   1      30.527 -14.947  -4.337  0.00  0.00     0.124 HD
ATOM     37  H   UNL d   1      30.148 -14.230  -2.889  0.00  0.00     0.124 HD
ENDBRANCH  29  35
ENDBRANCH   2  25
TORSDOF 10
ENDMDL
