MODEL 1
REMARK VINA RESULT:    -8.514      0.000      0.000
REMARK INTER + INTRA:         -12.949
REMARK INTER:                 -10.901
REMARK INTRA:                  -2.048
REMARK CONF_INDEPENDENT:        2.386
REMARK UNBOUND:                -2.048
REMARK  8 active torsions:
REMARK  status: ('A' for Active; 'I' for Inactive)
REMARK    1  A    between atoms: C_2  and  C_3 
REMARK    2  A    between atoms: C_3  and  N_4 
REMARK       I    between atoms: N_4  and  C_5 
REMARK    3  A    between atoms: C_7  and  C_5 
REMARK    4  A    between atoms: C_7  and  N_9 
REMARK       I    between atoms: N_9  and  C_10 
REMARK    5  A    between atoms: C_10  and  C_12 
REMARK    6  A    between atoms: C_16  and  C_17 
REMARK    7  A    between atoms: C_17  and  S_18 
REMARK    8  A    between atoms: S_18  and  C_19 
ROOT
ATOM      1  C   UNL d   1      28.803 -14.236   4.136  0.00  0.00     0.081 A 
ATOM      2  S   UNL d   1      27.194 -13.965   3.608  0.00  0.00    -0.063 SA
ATOM      3  C   UNL d   1      27.643 -14.035   1.970  0.00  0.00     0.116 A 
ATOM      4  N   UNL d   1      26.718 -13.918   0.976  0.00  0.00    -0.226 NA
ATOM      5  C   UNL d   1      27.199 -14.032  -0.225  0.00  0.00     0.117 A 
ATOM      6  N   UNL d   1      28.540 -14.238  -0.479  0.00  0.00    -0.310 N 
ATOM      7  C   UNL d   1      29.506 -14.357   0.478  0.00  0.00     0.260 A 
ATOM      8  O   UNL d   1      30.687 -14.549   0.182  0.00  0.00    -0.267 OA
ATOM      9  C   UNL d   1      29.002 -14.240   1.827  0.00  0.00     0.075 A 
ATOM     10  C   UNL d   1      29.700 -14.331   3.081  0.00  0.00    -0.021 A 
ATOM     11  C   UNL d   1      31.161 -14.594   3.241  0.00  0.00     0.051 C 
ATOM     12  H   UNL d   1      28.851 -14.326  -1.439  0.00  0.00     0.170 HD
ENDROOT
BRANCH   1  13
ATOM     13  C   UNL d   1      29.030 -14.416   5.560  0.00  0.00     0.259 C 
ATOM     14  N   UNL d   1      30.054 -13.659   6.105  0.00  0.00    -0.344 N 
ATOM     15  H   UNL d   1      30.600 -13.054   5.511  0.00  0.00     0.163 HD
ATOM     16  O   UNL d   1      28.372 -15.199   6.236  0.00  0.00    -0.267 OA
BRANCH  14  17
ATOM     17  C   UNL d   1      30.457 -13.846   7.492  0.00  0.00     0.172 C 
ATOM     18  C   UNL d   1      31.644 -12.951   7.853  0.00  0.00     0.042 C 
BRANCH  17  19
ATOM     19  C   UNL d   1      29.257 -13.578   8.430  0.00  0.00     0.240 C 
ATOM     20  N   UNL d   1      28.910 -14.613   9.276  0.00  0.00    -0.359 N 
ATOM     21  H   UNL d   1      29.407 -15.491   9.250  0.00  0.00     0.162 HD
ATOM     22  O   UNL d   1      28.676 -12.495   8.460  0.00  0.00    -0.271 OA
BRANCH  20  23
ATOM     23  C   UNL d   1      27.829 -14.444  10.219  0.00  0.00     0.122 C 
BRANCH  23  24
ATOM     24  C   UNL d   1      28.337 -14.072  11.603  0.00  0.00     0.015 C 
ATOM     25  C   UNL d   1      28.645 -12.586  11.678  0.00  0.00     0.006 C 
ENDBRANCH  23  24
ENDBRANCH  20  23
ENDBRANCH  17  19
ENDBRANCH  14  17
ENDBRANCH   1  13
BRANCH   5  26
ATOM     26  C   UNL d   1      26.278 -13.928  -1.439  0.00  0.00     0.158 C 
BRANCH  26  27
ATOM     27  S   UNL d   1      26.493 -15.396  -2.510  0.00  0.00    -0.122 SA
BRANCH  27  28
ATOM     28  C   UNL d   1      25.805 -16.701  -1.519  0.00  0.00     0.007 C 
ATOM     29  C   UNL d   1      24.413 -16.844  -1.529  0.00  0.00     0.025 C 
ATOM     30  C   UNL d   1      23.764 -17.565  -0.523  0.00  0.00    -0.061 C 
ATOM     31  C   UNL d   1      22.273 -17.709  -0.525  0.00  0.00     0.048 C 
ATOM     32  C   UNL d   1      24.528 -18.183   0.467  0.00  0.00     0.007 C 
ATOM     33  C   UNL d   1      25.915 -18.233   0.346  0.00  0.00     0.009 C 
ATOM     34  C   UNL d   1      26.573 -17.427  -0.593  0.00  0.00    -0.045 C 
ATOM     35  C   UNL d   1      28.064 -17.271  -0.507  0.00  0.00     0.049 C 
ENDBRANCH  27  28
ENDBRANCH  26  27
ENDBRANCH   5  26
TORSDOF 8
ENDMDL
MODEL 2
REMARK VINA RESULT:    -8.446      7.158     10.269
REMARK INTER + INTRA:         -12.307
REMARK INTER:                 -10.832
REMARK INTRA:                  -1.474
REMARK CONF_INDEPENDENT:        2.386
REMARK UNBOUND:                -1.474
REMARK  8 active torsions:
REMARK  status: ('A' for Active; 'I' for Inactive)
REMARK    1  A    between atoms: C_2  and  C_3 
REMARK    2  A    between atoms: C_3  and  N_4 
REMARK       I    between atoms: N_4  and  C_5 
REMARK    3  A    between atoms: C_7  and  C_5 
REMARK    4  A    between atoms: C_7  and  N_9 
REMARK       I    between atoms: N_9  and  C_10 
REMARK    5  A    between atoms: C_10  and  C_12 
REMARK    6  A    between atoms: C_16  and  C_17 
REMARK    7  A    between atoms: C_17  and  S_18 
REMARK    8  A    between atoms: S_18  and  C_19 
ROOT
ATOM      1  C   UNL d   1      25.997 -15.615  -2.469  0.00  0.00     0.081 A 
ATOM      2  S   UNL d   1      24.776 -14.429  -2.676  0.00  0.00    -0.063 SA
ATOM      3  C   UNL d   1      25.741 -13.513  -3.733  0.00  0.00     0.116 A 
ATOM      4  N   UNL d   1      25.272 -12.375  -4.315  0.00  0.00    -0.226 NA
ATOM      5  C   UNL d   1      26.105 -11.802  -5.131  0.00  0.00     0.117 A 
ATOM      6  N   UNL d   1      27.371 -12.295  -5.377  0.00  0.00    -0.310 N 
ATOM      7  C   UNL d   1      27.890 -13.426  -4.819  0.00  0.00     0.260 A 
ATOM      8  O   UNL d   1      29.027 -13.816  -5.090  0.00  0.00    -0.267 OA
ATOM      9  C   UNL d   1      26.985 -14.091  -3.909  0.00  0.00     0.075 A 
ATOM     10  C   UNL d   1      27.163 -15.303  -3.156  0.00  0.00    -0.021 A 
ATOM     11  C   UNL d   1      28.380 -16.167  -3.182  0.00  0.00     0.051 C 
ATOM     12  H   UNL d   1      27.970 -11.805  -6.031  0.00  0.00     0.170 HD
ENDROOT
BRANCH   1  13
ATOM     13  C   UNL d   1      25.667 -16.806  -1.705  0.00  0.00     0.259 C 
ATOM     14  N   UNL d   1      24.317 -17.105  -1.613  0.00  0.00    -0.344 N 
ATOM     15  H   UNL d   1      23.639 -16.495  -2.040  0.00  0.00     0.163 HD
ATOM     16  O   UNL d   1      26.523 -17.495  -1.160  0.00  0.00    -0.267 OA
BRANCH  14  17
ATOM     17  C   UNL d   1      23.857 -18.200  -0.770  0.00  0.00     0.172 C 
ATOM     18  C   UNL d   1      24.533 -18.171   0.602  0.00  0.00     0.042 C 
BRANCH  17  19
ATOM     19  C   UNL d   1      22.318 -18.144  -0.628  0.00  0.00     0.240 C 
ATOM     20  N   UNL d   1      21.731 -19.223   0.006  0.00  0.00    -0.359 N 
ATOM     21  H   UNL d   1      22.289 -20.000   0.328  0.00  0.00     0.162 HD
ATOM     22  O   UNL d   1      21.657 -17.180  -1.009  0.00  0.00    -0.271 OA
BRANCH  20  23
ATOM     23  C   UNL d   1      20.304 -19.243   0.224  0.00  0.00     0.122 C 
BRANCH  23  24
ATOM     24  C   UNL d   1      19.850 -20.534   0.889  0.00  0.00     0.015 C 
ATOM     25  C   UNL d   1      18.381 -20.794   0.605  0.00  0.00     0.006 C 
ENDBRANCH  23  24
ENDBRANCH  20  23
ENDBRANCH  17  19
ENDBRANCH  14  17
ENDBRANCH   1  13
BRANCH   5  26
ATOM     26  C   UNL d   1      25.713 -10.519  -5.860  0.00  0.00     0.158 C 
BRANCH  26  27
ATOM     27  S   UNL d   1      25.308  -9.211  -4.646  0.00  0.00    -0.122 SA
BRANCH  27  28
ATOM     28  C   UNL d   1      24.733  -7.886  -5.681  0.00  0.00     0.007 C 
ATOM     29  C   UNL d   1      23.427  -7.433  -5.471  0.00  0.00     0.025 C 
ATOM     30  C   UNL d   1      22.766  -6.684  -6.449  0.00  0.00    -0.061 C 
ATOM     31  C   UNL d   1      21.363  -6.208  -6.231  0.00  0.00     0.048 C 
ATOM     32  C   UNL d   1      23.446  -6.352  -7.620  0.00  0.00     0.007 C 
ATOM     33  C   UNL d   1      24.812  -6.605  -7.727  0.00  0.00     0.009 C 
ATOM     34  C   UNL d   1      25.451  -7.445  -6.804  0.00  0.00    -0.045 C 
ATOM     35  C   UNL d   1      26.837  -7.940  -7.104  0.00  0.00     0.049 C 
ENDBRANCH  27  28
ENDBRANCH  26  27
ENDBRANCH   5  26
TORSDOF 8
ENDMDL
MODEL 3
REMARK VINA RESULT:    -8.272      6.259      9.537
REMARK INTER + INTRA:         -12.828
REMARK INTER:                 -10.658
REMARK INTRA:                  -2.170
REMARK CONF_INDEPENDENT:        2.386
REMARK UNBOUND:                -2.170
REMARK  8 active torsions:
REMARK  status: ('A' for Active; 'I' for Inactive)
REMARK    1  A    between atoms: C_2  and  C_3 
REMARK    2  A    between atoms: C_3  and  N_4 
REMARK       I    between atoms: N_4  and  C_5 
REMARK    3  A    between atoms: C_7  and  C_5 
REMARK    4  A    between atoms: C_7  and  N_9 
REMARK       I    between atoms: N_9  and  C_10 
REMARK    5  A    between atoms: C_10  and  C_12 
REMARK    6  A    between atoms: C_16  and  C_17 
REMARK    7  A    between atoms: C_17  and  S_18 
REMARK    8  A    between atoms: S_18  and  C_19 
ROOT
ATOM      1  C   UNL d   1      25.484 -15.116  -1.762  0.00  0.00     0.081 A 
ATOM      2  S   UNL d   1      24.644 -14.476  -3.113  0.00  0.00    -0.063 SA
ATOM      3  C   UNL d   1      25.507 -13.013  -3.049  0.00  0.00     0.116 A 
ATOM      4  N   UNL d   1      25.301 -12.027  -3.966  0.00  0.00    -0.226 NA
ATOM      5  C   UNL d   1      26.060 -10.983  -3.818  0.00  0.00     0.117 A 
ATOM      6  N   UNL d   1      26.990 -10.872  -2.803  0.00  0.00    -0.310 N 
ATOM      7  C   UNL d   1      27.233 -11.826  -1.859  0.00  0.00     0.260 A 
ATOM      8  O   UNL d   1      28.086 -11.665  -0.984  0.00  0.00    -0.267 OA
ATOM      9  C   UNL d   1      26.407 -13.003  -1.999  0.00  0.00     0.075 A 
ATOM     10  C   UNL d   1      26.387 -14.211  -1.219  0.00  0.00    -0.021 A 
ATOM     11  C   UNL d   1      27.276 -14.506  -0.057  0.00  0.00     0.051 C 
ATOM     12  H   UNL d   1      27.557 -10.034  -2.747  0.00  0.00     0.170 HD
ENDROOT
BRANCH   1  13
ATOM     13  C   UNL d   1      25.235 -16.501  -1.401  0.00  0.00     0.259 C 
ATOM     14  N   UNL d   1      23.904 -16.884  -1.372  0.00  0.00    -0.344 N 
ATOM     15  H   UNL d   1      23.184 -16.208  -1.570  0.00  0.00     0.163 HD
ATOM     16  O   UNL d   1      26.140 -17.280  -1.121  0.00  0.00    -0.267 OA
BRANCH  14  17
ATOM     17  C   UNL d   1      23.524 -18.210  -0.903  0.00  0.00     0.172 C 
ATOM     18  C   UNL d   1      24.165 -18.528   0.449  0.00  0.00     0.042 C 
BRANCH  17  19
ATOM     19  C   UNL d   1      21.984 -18.319  -0.823  0.00  0.00     0.240 C 
ATOM     20  N   UNL d   1      21.491 -19.434  -0.172  0.00  0.00    -0.359 N 
ATOM     21  H   UNL d   1      22.116 -20.133   0.200  0.00  0.00     0.162 HD
ATOM     22  O   UNL d   1      21.239 -17.447  -1.266  0.00  0.00    -0.271 OA
BRANCH  20  23
ATOM     23  C   UNL d   1      20.067 -19.604  -0.009  0.00  0.00     0.122 C 
BRANCH  23  24
ATOM     24  C   UNL d   1      19.725 -20.940   0.633  0.00  0.00     0.015 C 
ATOM     25  C   UNL d   1      18.269 -20.969   1.064  0.00  0.00     0.006 C 
ENDBRANCH  23  24
ENDBRANCH  20  23
ENDBRANCH  17  19
ENDBRANCH  14  17
ENDBRANCH   1  13
BRANCH   5  26
ATOM     26  C   UNL d   1      25.943  -9.800  -4.776  0.00  0.00     0.158 C 
BRANCH  26  27
ATOM     27  S   UNL d   1      27.542  -9.527  -5.623  0.00  0.00    -0.122 SA
BRANCH  27  28
ATOM     28  C   UNL d   1      27.625 -10.903  -6.744  0.00  0.00     0.007 C 
ATOM     29  C   UNL d   1      28.017 -12.137  -6.212  0.00  0.00     0.025 C 
ATOM     30  C   UNL d   1      28.472 -13.161  -7.047  0.00  0.00    -0.061 C 
ATOM     31  C   UNL d   1      28.903 -14.478  -6.480  0.00  0.00     0.048 C 
ATOM     32  C   UNL d   1      28.483 -12.953  -8.427  0.00  0.00     0.007 C 
ATOM     33  C   UNL d   1      27.880 -11.819  -8.965  0.00  0.00     0.009 C 
ATOM     34  C   UNL d   1      27.523 -10.746  -8.136  0.00  0.00    -0.045 C 
ATOM     35  C   UNL d   1      27.157  -9.430  -8.760  0.00  0.00     0.049 C 
ENDBRANCH  27  28
ENDBRANCH  26  27
ENDBRANCH   5  26
TORSDOF 8
ENDMDL
MODEL 4
REMARK VINA RESULT:    -8.227      6.528      9.888
REMARK INTER + INTRA:         -12.679
REMARK INTER:                 -10.613
REMARK INTRA:                  -2.066
REMARK CONF_INDEPENDENT:        2.386
REMARK UNBOUND:                -2.066
REMARK  8 active torsions:
REMARK  status: ('A' for Active; 'I' for Inactive)
REMARK    1  A    between atoms: C_2  and  C_3 
REMARK    2  A    between atoms: C_3  and  N_4 
REMARK       I    between atoms: N_4  and  C_5 
REMARK    3  A    between atoms: C_7  and  C_5 
REMARK    4  A    between atoms: C_7  and  N_9 
REMARK       I    between atoms: N_9  and  C_10 
REMARK    5  A    between atoms: C_10  and  C_12 
REMARK    6  A    between atoms: C_16  and  C_17 
REMARK    7  A    between atoms: C_17  and  S_18 
REMARK    8  A    between atoms: S_18  and  C_19 
ROOT
ATOM      1  C   UNL d   1      25.702 -15.394  -2.248  0.00  0.00     0.081 A 
ATOM      2  S   UNL d   1      25.530 -15.249  -3.948  0.00  0.00    -0.063 SA
ATOM      3  C   UNL d   1      26.175 -13.677  -3.953  0.00  0.00     0.116 A 
ATOM      4  N   UNL d   1      26.347 -12.985  -5.114  0.00  0.00    -0.226 NA
ATOM      5  C   UNL d   1      26.887 -11.813  -4.970  0.00  0.00     0.117 A 
ATOM      6  N   UNL d   1      27.245 -11.300  -3.738  0.00  0.00    -0.310 N 
ATOM      7  C   UNL d   1      27.092 -11.949  -2.548  0.00  0.00     0.260 A 
ATOM      8  O   UNL d   1      27.442 -11.435  -1.484  0.00  0.00    -0.267 OA
ATOM      9  C   UNL d   1      26.496 -13.259  -2.675  0.00  0.00     0.075 A 
ATOM     10  C   UNL d   1      26.200 -14.237  -1.664  0.00  0.00    -0.021 A 
ATOM     11  C   UNL d   1      26.480 -14.086  -0.205  0.00  0.00     0.051 C 
ATOM     12  H   UNL d   1      27.671 -10.381  -3.694  0.00  0.00     0.170 HD
ENDROOT
BRANCH   1  13
ATOM     13  C   UNL d   1      25.404 -16.680  -1.641  0.00  0.00     0.259 C 
ATOM     14  N   UNL d   1      24.059 -16.983  -1.506  0.00  0.00    -0.344 N 
ATOM     15  H   UNL d   1      23.363 -16.314  -1.797  0.00  0.00     0.163 HD
ATOM     16  O   UNL d   1      26.282 -17.444  -1.257  0.00  0.00    -0.267 OA
BRANCH  14  17
ATOM     17  C   UNL d   1      23.637 -18.184  -0.799  0.00  0.00     0.172 C 
ATOM     18  C   UNL d   1      24.238 -18.246   0.606  0.00  0.00     0.042 C 
BRANCH  17  19
ATOM     19  C   UNL d   1      22.092 -18.247  -0.742  0.00  0.00     0.240 C 
ATOM     20  N   UNL d   1      21.556 -19.364  -0.130  0.00  0.00    -0.359 N 
ATOM     21  H   UNL d   1      22.154 -20.093   0.230  0.00  0.00     0.162 HD
ATOM     22  O   UNL d   1      21.382 -17.340  -1.169  0.00  0.00    -0.271 OA
BRANCH  20  23
ATOM     23  C   UNL d   1      20.125 -19.494   0.010  0.00  0.00     0.122 C 
BRANCH  23  24
ATOM     24  C   UNL d   1      19.746 -20.291   1.249  0.00  0.00     0.015 C 
ATOM     25  C   UNL d   1      18.558 -21.192   0.963  0.00  0.00     0.006 C 
ENDBRANCH  23  24
ENDBRANCH  20  23
ENDBRANCH  17  19
ENDBRANCH  14  17
ENDBRANCH   1  13
BRANCH   5  26
ATOM     26  C   UNL d   1      27.145 -10.925  -6.185  0.00  0.00     0.158 C 
BRANCH  26  27
ATOM     27  S   UNL d   1      25.649  -9.942  -6.565  0.00  0.00    -0.122 SA
BRANCH  27  28
ATOM     28  C   UNL d   1      25.774  -8.588  -5.421  0.00  0.00     0.007 C 
ATOM     29  C   UNL d   1      27.000  -8.414  -4.770  0.00  0.00     0.025 C 
ATOM     30  C   UNL d   1      27.086  -7.644  -3.607  0.00  0.00    -0.061 C 
ATOM     31  C   UNL d   1      28.395  -7.466  -2.901  0.00  0.00     0.048 C 
ATOM     32  C   UNL d   1      25.939  -7.009  -3.129  0.00  0.00     0.007 C 
ATOM     33  C   UNL d   1      24.780  -6.995  -3.901  0.00  0.00     0.009 C 
ATOM     34  C   UNL d   1      24.655  -7.849  -5.007  0.00  0.00    -0.045 C 
ATOM     35  C   UNL d   1      23.305  -8.035  -5.637  0.00  0.00     0.049 C 
ENDBRANCH  27  28
ENDBRANCH  26  27
ENDBRANCH   5  26
TORSDOF 8
ENDMDL
MODEL 5
REMARK VINA RESULT:    -8.062      7.120      9.783
REMARK INTER + INTRA:         -12.495
REMARK INTER:                 -10.448
REMARK INTRA:                  -2.047
REMARK CONF_INDEPENDENT:        2.386
REMARK UNBOUND:                -2.047
REMARK  8 active torsions:
REMARK  status: ('A' for Active; 'I' for Inactive)
REMARK    1  A    between atoms: C_2  and  C_3 
REMARK    2  A    between atoms: C_3  and  N_4 
REMARK       I    between atoms: N_4  and  C_5 
REMARK    3  A    between atoms: C_7  and  C_5 
REMARK    4  A    between atoms: C_7  and  N_9 
REMARK       I    between atoms: N_9  and  C_10 
REMARK    5  A    between atoms: C_10  and  C_12 
REMARK    6  A    between atoms: C_16  and  C_17 
REMARK    7  A    between atoms: C_17  and  S_18 
REMARK    8  A    between atoms: S_18  and  C_19 
ROOT
ATOM      1  C   UNL d   1      26.754 -16.062  -2.277  0.00  0.00     0.081 A 
ATOM      2  S   UNL d   1      28.302 -16.631  -1.809  0.00  0.00    -0.063 SA
ATOM      3  C   UNL d   1      28.993 -16.201  -3.301  0.00  0.00     0.116 A 
ATOM      4  N   UNL d   1      30.320 -16.383  -3.547  0.00  0.00    -0.226 NA
ATOM      5  C   UNL d   1      30.715 -15.971  -4.713  0.00  0.00     0.117 A 
ATOM      6  N   UNL d   1      29.858 -15.409  -5.639  0.00  0.00    -0.310 N 
ATOM      7  C   UNL d   1      28.523 -15.208  -5.445  0.00  0.00     0.260 A 
ATOM      8  O   UNL d   1      27.816 -14.691  -6.312  0.00  0.00    -0.267 OA
ATOM      9  C   UNL d   1      28.052 -15.652  -4.153  0.00  0.00     0.075 A 
ATOM     10  C   UNL d   1      26.733 -15.590  -3.583  0.00  0.00    -0.021 A 
ATOM     11  C   UNL d   1      25.530 -15.007  -4.248  0.00  0.00     0.051 C 
ATOM     12  H   UNL d   1      30.231 -15.100  -6.529  0.00  0.00     0.170 HD
ENDROOT
BRANCH   1  13
ATOM     13  C   UNL d   1      25.700 -16.056  -1.277  0.00  0.00     0.259 C 
ATOM     14  N   UNL d   1      24.749 -17.056  -1.400  0.00  0.00    -0.344 N 
ATOM     15  H   UNL d   1      24.806 -17.710  -2.165  0.00  0.00     0.163 HD
ATOM     16  O   UNL d   1      25.643 -15.212  -0.390  0.00  0.00    -0.267 OA
BRANCH  14  17
ATOM     17  C   UNL d   1      23.579 -17.076  -0.534  0.00  0.00     0.172 C 
ATOM     18  C   UNL d   1      22.605 -15.950  -0.885  0.00  0.00     0.042 C 
BRANCH  17  19
ATOM     19  C   UNL d   1      22.883 -18.455  -0.620  0.00  0.00     0.240 C 
ATOM     20  N   UNL d   1      21.797 -18.635   0.214  0.00  0.00    -0.359 N 
ATOM     21  H   UNL d   1      21.506 -17.907   0.850  0.00  0.00     0.162 HD
ATOM     22  O   UNL d   1      23.240 -19.322  -1.415  0.00  0.00    -0.271 OA
BRANCH  20  23
ATOM     23  C   UNL d   1      21.055 -19.874   0.176  0.00  0.00     0.122 C 
BRANCH  23  24
ATOM     24  C   UNL d   1      19.554 -19.635   0.116  0.00  0.00     0.015 C 
ATOM     25  C   UNL d   1      18.796 -20.913   0.428  0.00  0.00     0.006 C 
ENDBRANCH  23  24
ENDBRANCH  20  23
ENDBRANCH  17  19
ENDBRANCH  14  17
ENDBRANCH   1  13
BRANCH   5  26
ATOM     26  C   UNL d   1      32.179 -16.106  -5.126  0.00  0.00     0.158 C 
BRANCH  26  27
ATOM     27  S   UNL d   1      32.783 -17.789  -4.736  0.00  0.00    -0.122 SA
BRANCH  27  28
ATOM     28  C   UNL d   1      32.182 -18.744  -6.109  0.00  0.00     0.007 C 
ATOM     29  C   UNL d   1      32.730 -18.469  -7.366  0.00  0.00     0.025 C 
ATOM     30  C   UNL d   1      32.078 -18.878  -8.532  0.00  0.00    -0.061 C 
ATOM     31  C   UNL d   1      32.656 -18.574  -9.880  0.00  0.00     0.048 C 
ATOM     32  C   UNL d   1      30.895 -19.609  -8.425  0.00  0.00     0.007 C 
ATOM     33  C   UNL d   1      30.477 -20.078  -7.181  0.00  0.00     0.009 C 
ATOM     34  C   UNL d   1      31.061 -19.584  -6.006  0.00  0.00    -0.045 C 
ATOM     35  C   UNL d   1      30.404 -19.870  -4.687  0.00  0.00     0.049 C 
ENDBRANCH  27  28
ENDBRANCH  26  27
ENDBRANCH   5  26
TORSDOF 8
ENDMDL
MODEL 6
REMARK VINA RESULT:    -7.931      5.342      9.285
REMARK INTER + INTRA:         -12.397
REMARK INTER:                 -10.317
REMARK INTRA:                  -2.080
REMARK CONF_INDEPENDENT:        2.386
REMARK UNBOUND:                -2.080
REMARK  8 active torsions:
REMARK  status: ('A' for Active; 'I' for Inactive)
REMARK    1  A    between atoms: C_2  and  C_3 
REMARK    2  A    between atoms: C_3  and  N_4 
REMARK       I    between atoms: N_4  and  C_5 
REMARK    3  A    between atoms: C_7  and  C_5 
REMARK    4  A    between atoms: C_7  and  N_9 
REMARK       I    between atoms: N_9  and  C_10 
REMARK    5  A    between atoms: C_10  and  C_12 
REMARK    6  A    between atoms: C_16  and  C_17 
REMARK    7  A    between atoms: C_17  and  S_18 
REMARK    8  A    between atoms: S_18  and  C_19 
ROOT
ATOM      1  C   UNL d   1      25.950 -15.222  -2.008  0.00  0.00     0.081 A 
ATOM      2  S   UNL d   1      26.358 -14.044  -0.830  0.00  0.00    -0.063 SA
ATOM      3  C   UNL d   1      26.414 -12.800  -1.986  0.00  0.00     0.116 A 
ATOM      4  N   UNL d   1      26.672 -11.511  -1.628  0.00  0.00    -0.226 NA
ATOM      5  C   UNL d   1      26.643 -10.661  -2.610  0.00  0.00     0.117 A 
ATOM      6  N   UNL d   1      26.387 -11.033  -3.915  0.00  0.00    -0.310 N 
ATOM      7  C   UNL d   1      26.126 -12.308  -4.326  0.00  0.00     0.260 A 
ATOM      8  O   UNL d   1      25.896 -12.570  -5.508  0.00  0.00    -0.267 OA
ATOM      9  C   UNL d   1      26.147 -13.278  -3.255  0.00  0.00     0.075 A 
ATOM     10  C   UNL d   1      25.903 -14.694  -3.292  0.00  0.00    -0.021 A 
ATOM     11  C   UNL d   1      25.544 -15.479  -4.511  0.00  0.00     0.051 C 
ATOM     12  H   UNL d   1      26.370 -10.320  -4.635  0.00  0.00     0.170 HD
ENDROOT
BRANCH   1  13
ATOM     13  C   UNL d   1      25.628 -16.561  -1.548  0.00  0.00     0.259 C 
ATOM     14  N   UNL d   1      24.284 -16.811  -1.320  0.00  0.00    -0.344 N 
ATOM     15  H   UNL d   1      23.609 -16.074  -1.451  0.00  0.00     0.163 HD
ATOM     16  O   UNL d   1      26.487 -17.414  -1.357  0.00  0.00    -0.267 OA
BRANCH  14  17
ATOM     17  C   UNL d   1      23.853 -18.075  -0.739  0.00  0.00     0.172 C 
ATOM     18  C   UNL d   1      24.535 -18.332   0.606  0.00  0.00     0.042 C 
BRANCH  17  19
ATOM     19  C   UNL d   1      22.314 -18.088  -0.589  0.00  0.00     0.240 C 
ATOM     20  N   UNL d   1      21.772 -19.231  -0.035  0.00  0.00    -0.359 N 
ATOM     21  H   UNL d   1      22.360 -20.009   0.227  0.00  0.00     0.162 HD
ATOM     22  O   UNL d   1      21.616 -17.124  -0.896  0.00  0.00    -0.271 OA
BRANCH  20  23
ATOM     23  C   UNL d   1      20.348 -19.322   0.185  0.00  0.00     0.122 C 
BRANCH  23  24
ATOM     24  C   UNL d   1      19.926 -20.724   0.598  0.00  0.00     0.015 C 
ATOM     25  C   UNL d   1      18.455 -20.750   0.976  0.00  0.00     0.006 C 
ENDBRANCH  23  24
ENDBRANCH  20  23
ENDBRANCH  17  19
ENDBRANCH  14  17
ENDBRANCH   1  13
BRANCH   5  26
ATOM     26  C   UNL d   1      26.909  -9.179  -2.358  0.00  0.00     0.158 C 
BRANCH  26  27
ATOM     27  S   UNL d   1      28.301  -8.987  -1.187  0.00  0.00    -0.122 SA
BRANCH  27  28
ATOM     28  C   UNL d   1      27.518  -9.235   0.389  0.00  0.00     0.007 C 
ATOM     29  C   UNL d   1      27.869 -10.386   1.102  0.00  0.00     0.025 C 
ATOM     30  C   UNL d   1      27.058 -10.858   2.137  0.00  0.00    -0.061 C 
ATOM     31  C   UNL d   1      27.425 -12.097   2.895  0.00  0.00     0.048 C 
ATOM     32  C   UNL d   1      25.915 -10.137   2.484  0.00  0.00     0.007 C 
ATOM     33  C   UNL d   1      25.694  -8.877   1.931  0.00  0.00     0.009 C 
ATOM     34  C   UNL d   1      26.438  -8.450   0.823  0.00  0.00    -0.045 C 
ATOM     35  C   UNL d   1      25.988  -7.234   0.065  0.00  0.00     0.049 C 
ENDBRANCH  27  28
ENDBRANCH  26  27
ENDBRANCH   5  26
TORSDOF 8
ENDMDL
MODEL 7
REMARK VINA RESULT:    -7.902      6.863      9.213
REMARK INTER + INTRA:         -12.750
REMARK INTER:                 -10.288
REMARK INTRA:                  -2.461
REMARK CONF_INDEPENDENT:        2.386
REMARK UNBOUND:                -2.461
REMARK  8 active torsions:
REMARK  status: ('A' for Active; 'I' for Inactive)
REMARK    1  A    between atoms: C_2  and  C_3 
REMARK    2  A    between atoms: C_3  and  N_4 
REMARK       I    between atoms: N_4  and  C_5 
REMARK    3  A    between atoms: C_7  and  C_5 
REMARK    4  A    between atoms: C_7  and  N_9 
REMARK       I    between atoms: N_9  and  C_10 
REMARK    5  A    between atoms: C_10  and  C_12 
REMARK    6  A    between atoms: C_16  and  C_17 
REMARK    7  A    between atoms: C_17  and  S_18 
REMARK    8  A    between atoms: S_18  and  C_19 
ROOT
ATOM      1  C   UNL d   1      26.687 -16.262  -1.706  0.00  0.00     0.081 A 
ATOM      2  S   UNL d   1      28.239 -16.562  -1.043  0.00  0.00    -0.063 SA
ATOM      3  C   UNL d   1      29.017 -16.203  -2.511  0.00  0.00     0.116 A 
ATOM      4  N   UNL d   1      30.375 -16.227  -2.619  0.00  0.00    -0.226 NA
ATOM      5  C   UNL d   1      30.830 -15.892  -3.788  0.00  0.00     0.117 A 
ATOM      6  N   UNL d   1      30.006 -15.554  -4.844  0.00  0.00    -0.310 N 
ATOM      7  C   UNL d   1      28.644 -15.517  -4.790  0.00  0.00     0.260 A 
ATOM      8  O   UNL d   1      27.968 -15.197  -5.769  0.00  0.00    -0.267 OA
ATOM      9  C   UNL d   1      28.105 -15.881  -3.499  0.00  0.00     0.075 A 
ATOM     10  C   UNL d   1      26.738 -15.939  -3.056  0.00  0.00    -0.021 A 
ATOM     11  C   UNL d   1      25.544 -15.600  -3.885  0.00  0.00     0.051 C 
ATOM     12  H   UNL d   1      30.424 -15.294  -5.729  0.00  0.00     0.170 HD
ENDROOT
BRANCH   1  13
ATOM     13  C   UNL d   1      25.546 -16.292  -0.808  0.00  0.00     0.259 C 
ATOM     14  N   UNL d   1      24.621 -17.296  -1.046  0.00  0.00    -0.344 N 
ATOM     15  H   UNL d   1      24.755 -17.927  -1.820  0.00  0.00     0.163 HD
ATOM     16  O   UNL d   1      25.397 -15.475   0.094  0.00  0.00    -0.267 OA
BRANCH  14  17
ATOM     17  C   UNL d   1      23.376 -17.351  -0.292  0.00  0.00     0.172 C 
ATOM     18  C   UNL d   1      22.530 -16.096  -0.520  0.00  0.00     0.042 C 
BRANCH  17  19
ATOM     19  C   UNL d   1      22.586 -18.625  -0.671  0.00  0.00     0.240 C 
ATOM     20  N   UNL d   1      21.479 -18.903   0.109  0.00  0.00    -0.359 N 
ATOM     21  H   UNL d   1      21.233 -18.310   0.887  0.00  0.00     0.162 HD
ATOM     22  O   UNL d   1      22.890 -19.325  -1.634  0.00  0.00    -0.271 OA
BRANCH  20  23
ATOM     23  C   UNL d   1      20.653 -20.048  -0.192  0.00  0.00     0.122 C 
BRANCH  23  24
ATOM     24  C   UNL d   1      19.192 -19.800   0.151  0.00  0.00     0.015 C 
ATOM     25  C   UNL d   1      18.937 -20.058   1.625  0.00  0.00     0.006 C 
ENDBRANCH  23  24
ENDBRANCH  20  23
ENDBRANCH  17  19
ENDBRANCH  14  17
ENDBRANCH   1  13
BRANCH   5  26
ATOM     26  C   UNL d   1      32.333 -15.869  -4.055  0.00  0.00     0.158 C 
BRANCH  26  27
ATOM     27  S   UNL d   1      32.726 -16.936  -5.489  0.00  0.00    -0.122 SA
BRANCH  27  28
ATOM     28  C   UNL d   1      31.618 -18.307  -5.266  0.00  0.00     0.007 C 
ATOM     29  C   UNL d   1      31.692 -18.996  -4.051  0.00  0.00     0.025 C 
ATOM     30  C   UNL d   1      31.155 -20.280  -3.926  0.00  0.00    -0.061 C 
ATOM     31  C   UNL d   1      31.243 -21.025  -2.630  0.00  0.00     0.048 C 
ATOM     32  C   UNL d   1      30.499 -20.848  -5.018  0.00  0.00     0.007 C 
ATOM     33  C   UNL d   1      30.227 -20.075  -6.145  0.00  0.00     0.009 C 
ATOM     34  C   UNL d   1      30.851 -18.833  -6.319  0.00  0.00    -0.045 C 
ATOM     35  C   UNL d   1      30.780 -18.160  -7.660  0.00  0.00     0.049 C 
ENDBRANCH  27  28
ENDBRANCH  26  27
ENDBRANCH   5  26
TORSDOF 8
ENDMDL
MODEL 8
REMARK VINA RESULT:    -7.898      6.329      9.029
REMARK INTER + INTRA:         -13.323
REMARK INTER:                 -10.285
REMARK INTRA:                  -3.038
REMARK CONF_INDEPENDENT:        2.386
REMARK UNBOUND:                -3.038
REMARK  8 active torsions:
REMARK  status: ('A' for Active; 'I' for Inactive)
REMARK    1  A    between atoms: C_2  and  C_3 
REMARK    2  A    between atoms: C_3  and  N_4 
REMARK       I    between atoms: N_4  and  C_5 
REMARK    3  A    between atoms: C_7  and  C_5 
REMARK    4  A    between atoms: C_7  and  N_9 
REMARK       I    between atoms: N_9  and  C_10 
REMARK    5  A    between atoms: C_10  and  C_12 
REMARK    6  A    between atoms: C_16  and  C_17 
REMARK    7  A    between atoms: C_17  and  S_18 
REMARK    8  A    between atoms: S_18  and  C_19 
ROOT
ATOM      1  C   UNL d   1      25.365 -15.179  -1.810  0.00  0.00     0.081 A 
ATOM      2  S   UNL d   1      24.471 -14.458  -3.083  0.00  0.00    -0.063 SA
ATOM      3  C   UNL d   1      25.394 -13.032  -3.023  0.00  0.00     0.116 A 
ATOM      4  N   UNL d   1      25.171 -12.006  -3.891  0.00  0.00    -0.226 NA
ATOM      5  C   UNL d   1      25.979 -10.998  -3.754  0.00  0.00     0.117 A 
ATOM      6  N   UNL d   1      26.973 -10.959  -2.796  0.00  0.00    -0.310 N 
ATOM      7  C   UNL d   1      27.235 -11.956  -1.903  0.00  0.00     0.260 A 
ATOM      8  O   UNL d   1      28.145 -11.860  -1.078  0.00  0.00    -0.267 OA
ATOM      9  C   UNL d   1      26.355 -13.095  -2.032  0.00  0.00     0.075 A 
ATOM     10  C   UNL d   1      26.334 -14.329  -1.294  0.00  0.00    -0.021 A 
ATOM     11  C   UNL d   1      27.281 -14.700  -0.199  0.00  0.00     0.051 C 
ATOM     12  H   UNL d   1      27.575 -10.146  -2.746  0.00  0.00     0.170 HD
ENDROOT
BRANCH   1  13
ATOM     13  C   UNL d   1      25.084 -16.566  -1.482  0.00  0.00     0.259 C 
ATOM     14  N   UNL d   1      23.747 -16.880  -1.297  0.00  0.00    -0.344 N 
ATOM     15  H   UNL d   1      23.048 -16.157  -1.368  0.00  0.00     0.163 HD
ATOM     16  O   UNL d   1      25.970 -17.404  -1.358  0.00  0.00    -0.267 OA
BRANCH  14  17
ATOM     17  C   UNL d   1      23.353 -18.206  -0.842  0.00  0.00     0.172 C 
ATOM     18  C   UNL d   1      23.959 -18.530   0.525  0.00  0.00     0.042 C 
BRANCH  17  19
ATOM     19  C   UNL d   1      21.811 -18.313  -0.802  0.00  0.00     0.240 C 
ATOM     20  N   UNL d   1      21.300 -19.426  -0.162  0.00  0.00    -0.359 N 
ATOM     21  H   UNL d   1      21.914 -20.126   0.228  0.00  0.00     0.162 HD
ATOM     22  O   UNL d   1      21.080 -17.441  -1.266  0.00  0.00    -0.271 OA
BRANCH  20  23
ATOM     23  C   UNL d   1      19.871 -19.594  -0.036  0.00  0.00     0.122 C 
BRANCH  23  24
ATOM     24  C   UNL d   1      19.472 -20.020   1.369  0.00  0.00     0.015 C 
ATOM     25  C   UNL d   1      18.493 -21.181   1.317  0.00  0.00     0.006 C 
ENDBRANCH  23  24
ENDBRANCH  20  23
ENDBRANCH  17  19
ENDBRANCH  14  17
ENDBRANCH   1  13
BRANCH   5  26
ATOM     26  C   UNL d   1      25.852  -9.777  -4.662  0.00  0.00     0.158 C 
BRANCH  26  27
ATOM     27  S   UNL d   1      26.682 -10.101  -6.260  0.00  0.00    -0.122 SA
BRANCH  27  28
ATOM     28  C   UNL d   1      27.763 -11.456  -5.867  0.00  0.00     0.007 C 
ATOM     29  C   UNL d   1      27.226 -12.745  -5.952  0.00  0.00     0.025 C 
ATOM     30  C   UNL d   1      27.852 -13.821  -5.316  0.00  0.00    -0.061 C 
ATOM     31  C   UNL d   1      27.274 -15.200  -5.395  0.00  0.00     0.048 C 
ATOM     32  C   UNL d   1      29.050 -13.600  -4.635  0.00  0.00     0.007 C 
ATOM     33  C   UNL d   1      29.697 -12.371  -4.746  0.00  0.00     0.009 C 
ATOM     34  C   UNL d   1      29.027 -11.264  -5.286  0.00  0.00    -0.045 C 
ATOM     35  C   UNL d   1      29.626  -9.897  -5.124  0.00  0.00     0.049 C 
ENDBRANCH  27  28
ENDBRANCH  26  27
ENDBRANCH   5  26
TORSDOF 8
ENDMDL
MODEL 9
REMARK VINA RESULT:    -7.090      7.011      9.238
REMARK INTER + INTRA:         -12.308
REMARK INTER:                  -9.476
REMARK INTRA:                  -2.832
REMARK CONF_INDEPENDENT:        2.386
REMARK UNBOUND:                -2.832
REMARK  8 active torsions:
REMARK  status: ('A' for Active; 'I' for Inactive)
REMARK    1  A    between atoms: C_2  and  C_3 
REMARK    2  A    between atoms: C_3  and  N_4 
REMARK       I    between atoms: N_4  and  C_5 
REMARK    3  A    between atoms: C_7  and  C_5 
REMARK    4  A    between atoms: C_7  and  N_9 
REMARK       I    between atoms: N_9  and  C_10 
REMARK    5  A    between atoms: C_10  and  C_12 
REMARK    6  A    between atoms: C_16  and  C_17 
REMARK    7  A    between atoms: C_17  and  S_18 
REMARK    8  A    between atoms: S_18  and  C_19 
ROOT
ATOM      1  C   UNL d   1      26.173 -15.675  -2.602  0.00  0.00     0.081 A 
ATOM      2  S   UNL d   1      24.965 -14.490  -2.878  0.00  0.00    -0.063 SA
ATOM      3  C   UNL d   1      25.921 -13.674  -4.022  0.00  0.00     0.116 A 
ATOM      4  N   UNL d   1      25.456 -12.577  -4.682  0.00  0.00    -0.226 NA
ATOM      5  C   UNL d   1      26.280 -12.083  -5.556  0.00  0.00     0.117 A 
ATOM      6  N   UNL d   1      27.534 -12.614  -5.788  0.00  0.00    -0.310 N 
ATOM      7  C   UNL d   1      28.048 -13.706  -5.152  0.00  0.00     0.260 A 
ATOM      8  O   UNL d   1      29.174 -14.134  -5.414  0.00  0.00    -0.267 OA
ATOM      9  C   UNL d   1      27.153 -14.283  -4.176  0.00  0.00     0.075 A 
ATOM     10  C   UNL d   1      27.329 -15.436  -3.334  0.00  0.00    -0.021 A 
ATOM     11  C   UNL d   1      28.533 -16.319  -3.315  0.00  0.00     0.051 C 
ATOM     12  H   UNL d   1      28.127 -12.187  -6.489  0.00  0.00     0.170 HD
ENDROOT
BRANCH   1  13
ATOM     13  C   UNL d   1      25.841 -16.796  -1.741  0.00  0.00     0.259 C 
ATOM     14  N   UNL d   1      24.503 -17.153  -1.707  0.00  0.00    -0.344 N 
ATOM     15  H   UNL d   1      23.830 -16.624  -2.240  0.00  0.00     0.163 HD
ATOM     16  O   UNL d   1      26.685 -17.382  -1.072  0.00  0.00    -0.267 OA
BRANCH  14  17
ATOM     17  C   UNL d   1      24.032 -18.178  -0.786  0.00  0.00     0.172 C 
ATOM     18  C   UNL d   1      24.638 -17.998   0.607  0.00  0.00     0.042 C 
BRANCH  17  19
ATOM     19  C   UNL d   1      22.487 -18.160  -0.723  0.00  0.00     0.240 C 
ATOM     20  N   UNL d   1      21.894 -19.265  -0.144  0.00  0.00    -0.359 N 
ATOM     21  H   UNL d   1      22.452 -20.037   0.189  0.00  0.00     0.162 HD
ATOM     22  O   UNL d   1      21.824 -17.202  -1.116  0.00  0.00    -0.271 OA
BRANCH  20  23
ATOM     23  C   UNL d   1      20.458 -19.323  -0.001  0.00  0.00     0.122 C 
BRANCH  23  24
ATOM     24  C   UNL d   1      20.002 -20.630   0.628  0.00  0.00     0.015 C 
ATOM     25  C   UNL d   1      18.881 -20.383   1.622  0.00  0.00     0.006 C 
ENDBRANCH  23  24
ENDBRANCH  20  23
ENDBRANCH  17  19
ENDBRANCH  14  17
ENDBRANCH   1  13
BRANCH   5  26
ATOM     26  C   UNL d   1      25.893 -10.855  -6.377  0.00  0.00     0.158 C 
BRANCH  26  27
ATOM     27  S   UNL d   1      26.829  -9.396  -5.792  0.00  0.00    -0.122 SA
BRANCH  27  28
ATOM     28  C   UNL d   1      27.410  -9.922  -4.197  0.00  0.00     0.007 C 
ATOM     29  C   UNL d   1      28.657 -10.553  -4.148  0.00  0.00     0.025 C 
ATOM     30  C   UNL d   1      29.024 -11.323  -3.041  0.00  0.00    -0.061 C 
ATOM     31  C   UNL d   1      30.354 -12.010  -2.991  0.00  0.00     0.048 C 
ATOM     32  C   UNL d   1      28.146 -11.415  -1.960  0.00  0.00     0.007 C 
ATOM     33  C   UNL d   1      27.013 -10.605  -1.914  0.00  0.00     0.009 C 
ATOM     34  C   UNL d   1      26.587  -9.917  -3.059  0.00  0.00    -0.045 C 
ATOM     35  C   UNL d   1      25.218  -9.299  -3.073  0.00  0.00     0.049 C 
ENDBRANCH  27  28
ENDBRANCH  26  27
ENDBRANCH   5  26
TORSDOF 8
ENDMDL
