MODEL 1
REMARK VINA RESULT:   -10.147      0.000      0.000
REMARK INTER + INTRA:         -12.659
REMARK INTER:                 -11.937
REMARK INTRA:                  -0.722
REMARK CONF_INDEPENDENT:        1.790
REMARK UNBOUND:                -0.722
REMARK  6 active torsions:
REMARK  status: ('A' for Active; 'I' for Inactive)
REMARK    1  A    between atoms: N_7  and  C_8 
REMARK    2  A    between atoms: C_11  and  C_12 
REMARK       I    between atoms: C_12  and  N_14 
REMARK       I    between atoms: C_15  and  N_16 
REMARK       I    between atoms: C_15  and  N_28 
REMARK    3  A    between atoms: N_16  and  C_17 
REMARK    4  A    between atoms: C_17  and  C_18 
REMARK    5  A    between atoms: C_18  and  C_19 
REMARK    6  A    between atoms: N_28  and  C_29 
ROOT
ATOM      1  C   UNL d   1      30.024 -16.159  -0.431  0.00  0.00     0.293 C 
ATOM      2  O   UNL d   1      30.844 -16.360   0.451  0.00  0.00    -0.265 OA
ATOM      3  N   UNL d   1      28.857 -15.432  -0.276  0.00  0.00    -0.023 NA
ATOM      4  C   UNL d   1      28.624 -14.839   0.863  0.00  0.00     0.704 C 
ATOM      5  N   UNL d   1      27.475 -14.101   1.008  0.00  0.00    -0.224 N 
ATOM      6  N   UNL d   1      29.456 -14.822   1.957  0.00  0.00    -0.190 N 
ATOM      7  H   UNL d   1      27.404 -13.525   1.838  0.00  0.00     0.177 HD
ATOM      8  H   UNL d   1      30.302 -15.389   1.838  0.00  0.00     0.184 HD
ENDROOT
BRANCH   5   9
ATOM      9  C   UNL d   1      26.546 -13.855  -0.064  0.00  0.00     0.142 C 
BRANCH   9  10
ATOM     10  C   UNL d   1      26.501 -15.036  -1.019  0.00  0.00     0.057 C 
BRANCH  10  11
ATOM     11  C   UNL d   1      26.044 -16.336  -0.435  0.00  0.00    -0.048 C 
ATOM     12  C   UNL d   1      24.775 -16.724  -0.549  0.00  0.00    -0.006 C 
ATOM     13  C   UNL d   1      23.659 -16.082  -1.144  0.00  0.00     0.014 C 
ATOM     14  C   UNL d   1      24.664 -18.001   0.161  0.00  0.00     0.038 C 
ATOM     15  C   UNL d   1      22.445 -16.583  -0.894  0.00  0.00     0.001 C 
ATOM     16  C   UNL d   1      22.283 -17.851  -0.196  0.00  0.00     0.002 C 
ATOM     17  C   UNL d   1      23.310 -18.575   0.298  0.00  0.00     0.030 C 
ATOM     18  N   UNL d   1      25.803 -18.400   0.586  0.00  0.00    -0.385 N 
ATOM     19  C   UNL d   1      26.829 -17.333   0.371  0.00  0.00     0.155 C 
ATOM     20  H   UNL d   1      25.942 -19.317   1.010  0.00  0.00     0.160 HD
ENDBRANCH  10  11
ENDBRANCH   9  10
ENDBRANCH   5   9
BRANCH   6  21
ATOM     21  C   UNL d   1      29.233 -14.450   3.295  0.00  0.00     0.049 A 
ATOM     22  C   UNL d   1      27.942 -14.574   3.835  0.00  0.00     0.033 A 
ATOM     23  C   UNL d   1      27.693 -14.249   5.171  0.00  0.00     0.044 A 
ATOM     24  C   UNL d   1      28.748 -13.872   5.992  0.00  0.00     0.116 A 
ATOM     25  F   UNL d   1      28.531 -13.641   7.292  0.00  0.00    -0.206 F 
ATOM     26  C   UNL d   1      30.031 -13.743   5.483  0.00  0.00     0.044 A 
ATOM     27  C   UNL d   1      30.263 -14.004   4.134  0.00  0.00     0.033 A 
ENDBRANCH   6  21
BRANCH   1  28
ATOM     28  C   UNL d   1      30.298 -16.704  -1.804  0.00  0.00     0.035 A 
ATOM     29  C   UNL d   1      29.524 -16.234  -2.879  0.00  0.00     0.019 A 
ATOM     30  C   UNL d   1      29.657 -16.795  -4.152  0.00  0.00     0.031 A 
ATOM     31  C   UNL d   1      30.620 -17.781  -4.377  0.00  0.00     0.039 A 
ATOM     32  C   UNL d   1      31.420 -18.238  -3.324  0.00  0.00     0.031 A 
ATOM     33  C   UNL d   1      31.259 -17.698  -2.040  0.00  0.00     0.019 A 
BRANCH  31  34
ATOM     34  N   UNL d   1      30.852 -18.246  -5.698  0.00  0.00    -0.320 N 
ATOM     35  C   UNL d   1      30.794 -19.575  -6.101  0.00  0.00     0.013 A 
ATOM     36  C   UNL d   1      31.026 -19.624  -7.461  0.00  0.00     0.027 A 
ATOM     37  C   UNL d   1      30.434 -20.706  -5.201  0.00  0.00     0.068 C 
ATOM     38  C   UNL d   1      31.242 -18.307  -7.906  0.00  0.00     0.027 A 
ATOM     39  C   UNL d   1      31.116 -17.466  -6.816  0.00  0.00     0.013 A 
ATOM     40  C   UNL d   1      31.325 -15.994  -6.767  0.00  0.00     0.068 C 
ENDBRANCH  31  34
ENDBRANCH   1  28
TORSDOF 6
ENDMDL
MODEL 2
REMARK VINA RESULT:    -9.515      4.406      6.169
REMARK INTER + INTRA:         -12.592
REMARK INTER:                 -11.305
REMARK INTRA:                  -1.287
REMARK CONF_INDEPENDENT:        1.790
REMARK UNBOUND:                -1.287
REMARK  6 active torsions:
REMARK  status: ('A' for Active; 'I' for Inactive)
REMARK    1  A    between atoms: N_7  and  C_8 
REMARK    2  A    between atoms: C_11  and  C_12 
REMARK       I    between atoms: C_12  and  N_14 
REMARK       I    between atoms: C_15  and  N_16 
REMARK       I    between atoms: C_15  and  N_28 
REMARK    3  A    between atoms: N_16  and  C_17 
REMARK    4  A    between atoms: C_17  and  C_18 
REMARK    5  A    between atoms: C_18  and  C_19 
REMARK    6  A    between atoms: N_28  and  C_29 
ROOT
ATOM      1  C   UNL d   1      28.328 -14.245  -5.355  0.00  0.00     0.293 C 
ATOM      2  O   UNL d   1      28.718 -13.285  -6.002  0.00  0.00    -0.265 OA
ATOM      3  N   UNL d   1      27.172 -14.269  -4.594  0.00  0.00    -0.023 NA
ATOM      4  C   UNL d   1      26.379 -13.233  -4.610  0.00  0.00     0.704 C 
ATOM      5  N   UNL d   1      25.222 -13.268  -3.870  0.00  0.00    -0.224 N 
ATOM      6  N   UNL d   1      26.546 -12.091  -5.355  0.00  0.00    -0.190 N 
ATOM      7  H   UNL d   1      24.555 -12.524  -4.031  0.00  0.00     0.177 HD
ATOM      8  H   UNL d   1      27.421 -12.075  -5.890  0.00  0.00     0.184 HD
ENDROOT
BRANCH   5   9
ATOM      9  C   UNL d   1      24.774 -14.429  -3.146  0.00  0.00     0.142 C 
BRANCH   9  10
ATOM     10  C   UNL d   1      25.567 -14.600  -1.861  0.00  0.00     0.057 C 
BRANCH  10  11
ATOM     11  C   UNL d   1      25.661 -15.996  -1.329  0.00  0.00    -0.048 C 
ATOM     12  C   UNL d   1      24.561 -16.691  -1.046  0.00  0.00    -0.006 C 
ATOM     13  C   UNL d   1      23.191 -16.334  -1.128  0.00  0.00     0.014 C 
ATOM     14  C   UNL d   1      25.010 -17.981  -0.513  0.00  0.00     0.038 C 
ATOM     15  C   UNL d   1      22.301 -17.139  -0.541  0.00  0.00     0.001 C 
ATOM     16  C   UNL d   1      22.696 -18.433  -0.001  0.00  0.00     0.002 C 
ATOM     17  C   UNL d   1      23.967 -18.888   0.008  0.00  0.00     0.030 C 
ATOM     18  N   UNL d   1      26.283 -18.091  -0.565  0.00  0.00    -0.385 N 
ATOM     19  C   UNL d   1      26.890 -16.789  -0.982  0.00  0.00     0.155 C 
ATOM     20  H   UNL d   1      26.770 -18.959  -0.339  0.00  0.00     0.160 HD
ENDBRANCH  10  11
ENDBRANCH   9  10
ENDBRANCH   5   9
BRANCH   6  21
ATOM     21  C   UNL d   1      25.927 -10.830  -5.285  0.00  0.00     0.049 A 
ATOM     22  C   UNL d   1      25.733 -10.231  -4.028  0.00  0.00     0.033 A 
ATOM     23  C   UNL d   1      25.155  -8.962  -3.925  0.00  0.00     0.044 A 
ATOM     24  C   UNL d   1      24.840  -8.257  -5.079  0.00  0.00     0.116 A 
ATOM     25  F   UNL d   1      24.364  -7.009  -4.988  0.00  0.00    -0.206 F 
ATOM     26  C   UNL d   1      25.023  -8.826  -6.330  0.00  0.00     0.044 A 
ATOM     27  C   UNL d   1      25.538 -10.118  -6.427  0.00  0.00     0.033 A 
ENDBRANCH   6  21
BRANCH   1  28
ATOM     28  C   UNL d   1      29.129 -15.515  -5.400  0.00  0.00     0.035 A 
ATOM     29  C   UNL d   1      29.203 -16.303  -4.240  0.00  0.00     0.019 A 
ATOM     30  C   UNL d   1      30.030 -17.428  -4.192  0.00  0.00     0.031 A 
ATOM     31  C   UNL d   1      30.734 -17.817  -5.334  0.00  0.00     0.039 A 
ATOM     32  C   UNL d   1      30.647 -17.061  -6.507  0.00  0.00     0.031 A 
ATOM     33  C   UNL d   1      29.844 -15.911  -6.539  0.00  0.00     0.019 A 
BRANCH  31  34
ATOM     34  N   UNL d   1      31.459 -19.038  -5.329  0.00  0.00    -0.320 N 
ATOM     35  C   UNL d   1      31.318 -20.057  -6.264  0.00  0.00     0.013 A 
ATOM     36  C   UNL d   1      32.224 -21.052  -5.957  0.00  0.00     0.027 A 
ATOM     37  C   UNL d   1      30.405 -19.992  -7.440  0.00  0.00     0.068 C 
ATOM     38  C   UNL d   1      32.931 -20.649  -4.809  0.00  0.00     0.027 A 
ATOM     39  C   UNL d   1      32.463 -19.401  -4.441  0.00  0.00     0.013 A 
ATOM     40  C   UNL d   1      32.849 -18.593  -3.253  0.00  0.00     0.068 C 
ENDBRANCH  31  34
ENDBRANCH   1  28
TORSDOF 6
ENDMDL
MODEL 3
REMARK VINA RESULT:    -9.443      4.489      6.251
REMARK INTER + INTRA:         -12.588
REMARK INTER:                 -11.233
REMARK INTRA:                  -1.355
REMARK CONF_INDEPENDENT:        1.790
REMARK UNBOUND:                -1.355
REMARK  6 active torsions:
REMARK  status: ('A' for Active; 'I' for Inactive)
REMARK    1  A    between atoms: N_7  and  C_8 
REMARK    2  A    between atoms: C_11  and  C_12 
REMARK       I    between atoms: C_12  and  N_14 
REMARK       I    between atoms: C_15  and  N_16 
REMARK       I    between atoms: C_15  and  N_28 
REMARK    3  A    between atoms: N_16  and  C_17 
REMARK    4  A    between atoms: C_17  and  C_18 
REMARK    5  A    between atoms: C_18  and  C_19 
REMARK    6  A    between atoms: N_28  and  C_29 
ROOT
ATOM      1  C   UNL d   1      28.347 -14.071  -5.501  0.00  0.00     0.293 C 
ATOM      2  O   UNL d   1      28.722 -13.103  -6.145  0.00  0.00    -0.265 OA
ATOM      3  N   UNL d   1      27.203 -14.108  -4.723  0.00  0.00    -0.023 NA
ATOM      4  C   UNL d   1      26.403 -13.077  -4.718  0.00  0.00     0.704 C 
ATOM      5  N   UNL d   1      25.258 -13.125  -3.962  0.00  0.00    -0.224 N 
ATOM      6  N   UNL d   1      26.554 -11.927  -5.454  0.00  0.00    -0.190 N 
ATOM      7  H   UNL d   1      24.585 -12.383  -4.106  0.00  0.00     0.177 HD
ATOM      8  H   UNL d   1      27.421 -11.901  -6.002  0.00  0.00     0.184 HD
ENDROOT
BRANCH   5   9
ATOM      9  C   UNL d   1      24.827 -14.295  -3.242  0.00  0.00     0.142 C 
BRANCH   9  10
ATOM     10  C   UNL d   1      25.607 -14.448  -1.947  0.00  0.00     0.057 C 
BRANCH  10  11
ATOM     11  C   UNL d   1      25.740 -15.843  -1.421  0.00  0.00    -0.048 C 
ATOM     12  C   UNL d   1      24.661 -16.578  -1.163  0.00  0.00    -0.006 C 
ATOM     13  C   UNL d   1      23.281 -16.270  -1.270  0.00  0.00     0.014 C 
ATOM     14  C   UNL d   1      25.145 -17.855  -0.630  0.00  0.00     0.038 C 
ATOM     15  C   UNL d   1      22.409 -17.110  -0.705  0.00  0.00     0.001 C 
ATOM     16  C   UNL d   1      22.839 -18.392  -0.164  0.00  0.00     0.002 C 
ATOM     17  C   UNL d   1      24.125 -18.802  -0.133  0.00  0.00     0.030 C 
ATOM     18  N   UNL d   1      26.422 -17.920  -0.657  0.00  0.00    -0.385 N 
ATOM     19  C   UNL d   1      26.990 -16.594  -1.054  0.00  0.00     0.155 C 
ATOM     20  H   UNL d   1      26.935 -18.770  -0.426  0.00  0.00     0.160 HD
ENDBRANCH  10  11
ENDBRANCH   9  10
ENDBRANCH   5   9
BRANCH   6  21
ATOM     21  C   UNL d   1      25.930 -10.670  -5.363  0.00  0.00     0.049 A 
ATOM     22  C   UNL d   1      25.725 -10.097  -4.096  0.00  0.00     0.033 A 
ATOM     23  C   UNL d   1      25.141  -8.833  -3.971  0.00  0.00     0.044 A 
ATOM     24  C   UNL d   1      24.830  -8.107  -5.113  0.00  0.00     0.116 A 
ATOM     25  F   UNL d   1      24.348  -6.863  -5.000  0.00  0.00    -0.206 F 
ATOM     26  C   UNL d   1      25.023  -8.650  -6.374  0.00  0.00     0.044 A 
ATOM     27  C   UNL d   1      25.544  -9.937  -6.493  0.00  0.00     0.033 A 
ENDBRANCH   6  21
BRANCH   1  28
ATOM     28  C   UNL d   1      29.154 -15.336  -5.570  0.00  0.00     0.035 A 
ATOM     29  C   UNL d   1      29.128 -16.210  -4.470  0.00  0.00     0.019 A 
ATOM     30  C   UNL d   1      29.952 -17.337  -4.434  0.00  0.00     0.031 A 
ATOM     31  C   UNL d   1      30.756 -17.641  -5.535  0.00  0.00     0.039 A 
ATOM     32  C   UNL d   1      30.771 -16.798  -6.651  0.00  0.00     0.031 A 
ATOM     33  C   UNL d   1      29.969 -15.648  -6.668  0.00  0.00     0.019 A 
BRANCH  31  34
ATOM     34  N   UNL d   1      31.483 -18.860  -5.557  0.00  0.00    -0.320 N 
ATOM     35  C   UNL d   1      32.456 -19.230  -4.636  0.00  0.00     0.013 A 
ATOM     36  C   UNL d   1      32.895 -20.499  -4.958  0.00  0.00     0.027 A 
ATOM     37  C   UNL d   1      32.848 -18.406  -3.458  0.00  0.00     0.068 C 
ATOM     38  C   UNL d   1      32.190 -20.918  -6.102  0.00  0.00     0.027 A 
ATOM     39  C   UNL d   1      31.313 -19.909  -6.452  0.00  0.00     0.013 A 
ATOM     40  C   UNL d   1      30.406 -19.853  -7.629  0.00  0.00     0.068 C 
ENDBRANCH  31  34
ENDBRANCH   1  28
TORSDOF 6
ENDMDL
MODEL 4
REMARK VINA RESULT:    -9.287      3.650      5.002
REMARK INTER + INTRA:         -13.162
REMARK INTER:                 -11.077
REMARK INTRA:                  -2.086
REMARK CONF_INDEPENDENT:        1.790
REMARK UNBOUND:                -2.086
REMARK  6 active torsions:
REMARK  status: ('A' for Active; 'I' for Inactive)
REMARK    1  A    between atoms: N_7  and  C_8 
REMARK    2  A    between atoms: C_11  and  C_12 
REMARK       I    between atoms: C_12  and  N_14 
REMARK       I    between atoms: C_15  and  N_16 
REMARK       I    between atoms: C_15  and  N_28 
REMARK    3  A    between atoms: N_16  and  C_17 
REMARK    4  A    between atoms: C_17  and  C_18 
REMARK    5  A    between atoms: C_18  and  C_19 
REMARK    6  A    between atoms: N_28  and  C_29 
ROOT
ATOM      1  C   UNL d   1      27.789 -12.819  -0.979  0.00  0.00     0.293 C 
ATOM      2  O   UNL d   1      27.362 -12.029  -0.151  0.00  0.00    -0.265 OA
ATOM      3  N   UNL d   1      28.431 -14.008  -0.681  0.00  0.00    -0.023 NA
ATOM      4  C   UNL d   1      28.535 -14.379   0.566  0.00  0.00     0.704 C 
ATOM      5  N   UNL d   1      29.154 -15.569   0.858  0.00  0.00    -0.224 N 
ATOM      6  N   UNL d   1      28.026 -13.717   1.657  0.00  0.00    -0.190 N 
ATOM      7  H   UNL d   1      29.074 -15.904   1.810  0.00  0.00     0.177 HD
ATOM      8  H   UNL d   1      27.580 -12.824   1.424  0.00  0.00     0.184 HD
ENDROOT
BRANCH   5   9
ATOM      9  C   UNL d   1      29.615 -16.494  -0.145  0.00  0.00     0.142 C 
BRANCH   9  10
ATOM     10  C   UNL d   1      28.515 -17.472  -0.522  0.00  0.00     0.057 C 
BRANCH  10  11
ATOM     11  C   UNL d   1      27.296 -16.877  -1.155  0.00  0.00    -0.048 C 
ATOM     12  C   UNL d   1      26.085 -17.123  -0.659  0.00  0.00    -0.006 C 
ATOM     13  C   UNL d   1      25.675 -17.931   0.431  0.00  0.00     0.014 C 
ATOM     14  C   UNL d   1      25.131 -16.431  -1.531  0.00  0.00     0.038 C 
ATOM     15  C   UNL d   1      24.371 -18.200   0.553  0.00  0.00     0.001 C 
ATOM     16  C   UNL d   1      23.384 -17.535  -0.287  0.00  0.00     0.002 C 
ATOM     17  C   UNL d   1      23.696 -16.665  -1.270  0.00  0.00     0.030 C 
ATOM     18  N   UNL d   1      25.730 -15.739  -2.425  0.00  0.00    -0.385 N 
ATOM     19  C   UNL d   1      27.199 -16.022  -2.388  0.00  0.00     0.155 C 
ATOM     20  H   UNL d   1      25.236 -15.107  -3.054  0.00  0.00     0.160 HD
ENDBRANCH  10  11
ENDBRANCH   9  10
ENDBRANCH   5   9
BRANCH   6  21
ATOM     21  C   UNL d   1      28.270 -13.860   3.035  0.00  0.00     0.049 A 
ATOM     22  C   UNL d   1      27.206 -13.701   3.939  0.00  0.00     0.033 A 
ATOM     23  C   UNL d   1      27.405 -13.873   5.312  0.00  0.00     0.044 A 
ATOM     24  C   UNL d   1      28.649 -14.279   5.778  0.00  0.00     0.116 A 
ATOM     25  F   UNL d   1      28.823 -14.527   7.082  0.00  0.00    -0.206 F 
ATOM     26  C   UNL d   1      29.714 -14.444   4.905  0.00  0.00     0.044 A 
ATOM     27  C   UNL d   1      29.529 -14.207   3.545  0.00  0.00     0.033 A 
ENDBRANCH   6  21
BRANCH   1  28
ATOM     28  C   UNL d   1      27.583 -12.514  -2.436  0.00  0.00     0.035 A 
ATOM     29  C   UNL d   1      28.651 -11.960  -3.163  0.00  0.00     0.019 A 
ATOM     30  C   UNL d   1      28.475 -11.547  -4.485  0.00  0.00     0.031 A 
ATOM     31  C   UNL d   1      27.248 -11.754  -5.118  0.00  0.00     0.039 A 
ATOM     32  C   UNL d   1      26.183 -12.333  -4.418  0.00  0.00     0.031 A 
ATOM     33  C   UNL d   1      26.353 -12.712  -3.079  0.00  0.00     0.019 A 
BRANCH  31  34
ATOM     34  N   UNL d   1      27.114 -11.468  -6.502  0.00  0.00    -0.320 N 
ATOM     35  C   UNL d   1      26.324 -10.457  -7.038  0.00  0.00     0.013 A 
ATOM     36  C   UNL d   1      26.493 -10.459  -8.408  0.00  0.00     0.027 A 
ATOM     37  C   UNL d   1      25.530  -9.496  -6.223  0.00  0.00     0.068 C 
ATOM     38  C   UNL d   1      27.394 -11.492  -8.727  0.00  0.00     0.027 A 
ATOM     39  C   UNL d   1      27.782 -12.095  -7.545  0.00  0.00     0.013 A 
ATOM     40  C   UNL d   1      28.665 -13.278  -7.370  0.00  0.00     0.068 C 
ENDBRANCH  31  34
ENDBRANCH   1  28
TORSDOF 6
ENDMDL
MODEL 5
REMARK VINA RESULT:    -9.248      3.674      5.043
REMARK INTER + INTRA:         -13.132
REMARK INTER:                 -11.038
REMARK INTRA:                  -2.094
REMARK CONF_INDEPENDENT:        1.790
REMARK UNBOUND:                -2.094
REMARK  6 active torsions:
REMARK  status: ('A' for Active; 'I' for Inactive)
REMARK    1  A    between atoms: N_7  and  C_8 
REMARK    2  A    between atoms: C_11  and  C_12 
REMARK       I    between atoms: C_12  and  N_14 
REMARK       I    between atoms: C_15  and  N_16 
REMARK       I    between atoms: C_15  and  N_28 
REMARK    3  A    between atoms: N_16  and  C_17 
REMARK    4  A    between atoms: C_17  and  C_18 
REMARK    5  A    between atoms: C_18  and  C_19 
REMARK    6  A    between atoms: N_28  and  C_29 
ROOT
ATOM      1  C   UNL d   1      27.655 -12.798  -0.861  0.00  0.00     0.293 C 
ATOM      2  O   UNL d   1      27.200 -12.042  -0.017  0.00  0.00    -0.265 OA
ATOM      3  N   UNL d   1      28.320 -13.981  -0.588  0.00  0.00    -0.023 NA
ATOM      4  C   UNL d   1      28.416 -14.385   0.649  0.00  0.00     0.704 C 
ATOM      5  N   UNL d   1      29.058 -15.569   0.915  0.00  0.00    -0.224 N 
ATOM      6  N   UNL d   1      27.879 -13.765   1.752  0.00  0.00    -0.190 N 
ATOM      7  H   UNL d   1      28.973 -15.933   1.857  0.00  0.00     0.177 HD
ATOM      8  H   UNL d   1      27.416 -12.876   1.538  0.00  0.00     0.184 HD
ENDROOT
BRANCH   5   9
ATOM      9  C   UNL d   1      29.552 -16.455  -0.107  0.00  0.00     0.142 C 
BRANCH   9  10
ATOM     10  C   UNL d   1      28.481 -17.449  -0.522  0.00  0.00     0.057 C 
BRANCH  10  11
ATOM     11  C   UNL d   1      27.256 -16.867  -1.156  0.00  0.00    -0.048 C 
ATOM     12  C   UNL d   1      26.047 -17.118  -0.657  0.00  0.00    -0.006 C 
ATOM     13  C   UNL d   1      25.645 -17.923   0.440  0.00  0.00     0.014 C 
ATOM     14  C   UNL d   1      25.087 -16.440  -1.532  0.00  0.00     0.038 C 
ATOM     15  C   UNL d   1      24.344 -18.200   0.565  0.00  0.00     0.001 C 
ATOM     16  C   UNL d   1      23.350 -17.548  -0.277  0.00  0.00     0.002 C 
ATOM     17  C   UNL d   1      23.654 -16.682  -1.267  0.00  0.00     0.030 C 
ATOM     18  N   UNL d   1      25.679 -15.750  -2.432  0.00  0.00    -0.385 N 
ATOM     19  C   UNL d   1      27.150 -16.022  -2.395  0.00  0.00     0.155 C 
ATOM     20  H   UNL d   1      25.179 -15.125  -3.064  0.00  0.00     0.160 HD
ENDBRANCH  10  11
ENDBRANCH   9  10
ENDBRANCH   5   9
BRANCH   6  21
ATOM     21  C   UNL d   1      28.109 -13.942   3.128  0.00  0.00     0.049 A 
ATOM     22  C   UNL d   1      29.393 -14.309   3.566  0.00  0.00     0.033 A 
ATOM     23  C   UNL d   1      29.666 -14.457   4.929  0.00  0.00     0.044 A 
ATOM     24  C   UNL d   1      28.678 -14.166   5.861  0.00  0.00     0.116 A 
ATOM     25  F   UNL d   1      28.957 -14.225   7.169  0.00  0.00    -0.206 F 
ATOM     26  C   UNL d   1      27.404 -13.802   5.453  0.00  0.00     0.044 A 
ATOM     27  C   UNL d   1      27.117 -13.720   4.092  0.00  0.00     0.033 A 
ENDBRANCH   6  21
BRANCH   1  28
ATOM     28  C   UNL d   1      27.460 -12.456  -2.311  0.00  0.00     0.035 A 
ATOM     29  C   UNL d   1      28.473 -11.742  -2.974  0.00  0.00     0.019 A 
ATOM     30  C   UNL d   1      28.290 -11.296  -4.285  0.00  0.00     0.031 A 
ATOM     31  C   UNL d   1      27.120 -11.626  -4.971  0.00  0.00     0.039 A 
ATOM     32  C   UNL d   1      26.115 -12.363  -4.337  0.00  0.00     0.031 A 
ATOM     33  C   UNL d   1      26.287 -12.778  -3.008  0.00  0.00     0.019 A 
BRANCH  31  34
ATOM     34  N   UNL d   1      26.997 -11.297  -6.347  0.00  0.00    -0.320 N 
ATOM     35  C   UNL d   1      27.656 -11.942  -7.387  0.00  0.00     0.013 A 
ATOM     36  C   UNL d   1      27.243 -11.376  -8.577  0.00  0.00     0.027 A 
ATOM     37  C   UNL d   1      28.564 -13.110  -7.205  0.00  0.00     0.068 C 
ATOM     38  C   UNL d   1      26.321 -10.358  -8.269  0.00  0.00     0.027 A 
ATOM     39  C   UNL d   1      26.165 -10.330  -6.895  0.00  0.00     0.013 A 
ATOM     40  C   UNL d   1      25.352  -9.383  -6.087  0.00  0.00     0.068 C 
ENDBRANCH  31  34
ENDBRANCH   1  28
TORSDOF 6
ENDMDL
MODEL 6
REMARK VINA RESULT:    -9.144      3.556      4.872
REMARK INTER + INTRA:         -13.131
REMARK INTER:                 -10.934
REMARK INTRA:                  -2.197
REMARK CONF_INDEPENDENT:        1.790
REMARK UNBOUND:                -2.197
REMARK  6 active torsions:
REMARK  status: ('A' for Active; 'I' for Inactive)
REMARK    1  A    between atoms: N_7  and  C_8 
REMARK    2  A    between atoms: C_11  and  C_12 
REMARK       I    between atoms: C_12  and  N_14 
REMARK       I    between atoms: C_15  and  N_16 
REMARK       I    between atoms: C_15  and  N_28 
REMARK    3  A    between atoms: N_16  and  C_17 
REMARK    4  A    between atoms: C_17  and  C_18 
REMARK    5  A    between atoms: C_18  and  C_19 
REMARK    6  A    between atoms: N_28  and  C_29 
ROOT
ATOM      1  C   UNL d   1      27.738 -12.966  -1.126  0.00  0.00     0.293 C 
ATOM      2  O   UNL d   1      27.252 -12.190  -0.317  0.00  0.00    -0.265 OA
ATOM      3  N   UNL d   1      28.403 -14.135  -0.800  0.00  0.00    -0.023 NA
ATOM      4  C   UNL d   1      28.465 -14.503   0.451  0.00  0.00     0.704 C 
ATOM      5  N   UNL d   1      29.107 -15.674   0.769  0.00  0.00    -0.224 N 
ATOM      6  N   UNL d   1      27.890 -13.858   1.519  0.00  0.00    -0.190 N 
ATOM      7  H   UNL d   1      28.996 -16.013   1.717  0.00  0.00     0.177 HD
ATOM      8  H   UNL d   1      27.426 -12.979   1.266  0.00  0.00     0.184 HD
ENDROOT
BRANCH   5   9
ATOM      9  C   UNL d   1      29.639 -16.584  -0.212  0.00  0.00     0.142 C 
BRANCH   9  10
ATOM     10  C   UNL d   1      28.547 -17.054  -1.158  0.00  0.00     0.057 C 
BRANCH  10  11
ATOM     11  C   UNL d   1      27.254 -17.456  -0.520  0.00  0.00    -0.048 C 
ATOM     12  C   UNL d   1      26.095 -16.984  -0.977  0.00  0.00    -0.006 C 
ATOM     13  C   UNL d   1      25.813 -16.072  -2.026  0.00  0.00     0.014 C 
ATOM     14  C   UNL d   1      25.050 -17.538  -0.111  0.00  0.00     0.038 C 
ATOM     15  C   UNL d   1      24.574 -15.578  -2.106  0.00  0.00     0.001 C 
ATOM     16  C   UNL d   1      23.501 -16.097  -1.270  0.00  0.00     0.002 C 
ATOM     17  C   UNL d   1      23.673 -17.049  -0.329  0.00  0.00     0.030 C 
ATOM     18  N   UNL d   1      25.535 -18.359   0.741  0.00  0.00    -0.385 N 
ATOM     19  C   UNL d   1      27.030 -18.332   0.681  0.00  0.00     0.155 C 
ATOM     20  H   UNL d   1      24.950 -18.923   1.357  0.00  0.00     0.160 HD
ENDBRANCH  10  11
ENDBRANCH   9  10
ENDBRANCH   5   9
BRANCH   6  21
ATOM     21  C   UNL d   1      28.079 -13.995   2.905  0.00  0.00     0.049 A 
ATOM     22  C   UNL d   1      29.336 -14.396   3.389  0.00  0.00     0.033 A 
ATOM     23  C   UNL d   1      29.569 -14.507   4.763  0.00  0.00     0.044 A 
ATOM     24  C   UNL d   1      28.571 -14.144   5.658  0.00  0.00     0.116 A 
ATOM     25  F   UNL d   1      28.816 -14.167   6.974  0.00  0.00    -0.206 F 
ATOM     26  C   UNL d   1      27.323 -13.745   5.206  0.00  0.00     0.044 A 
ATOM     27  C   UNL d   1      27.073 -13.700   3.835  0.00  0.00     0.033 A 
ENDBRANCH   6  21
BRANCH   1  28
ATOM     28  C   UNL d   1      27.585 -12.665  -2.590  0.00  0.00     0.035 A 
ATOM     29  C   UNL d   1      28.574 -11.892  -3.223  0.00  0.00     0.019 A 
ATOM     30  C   UNL d   1      28.419 -11.485  -4.550  0.00  0.00     0.031 A 
ATOM     31  C   UNL d   1      27.308 -11.911  -5.280  0.00  0.00     0.039 A 
ATOM     32  C   UNL d   1      26.330 -12.707  -4.674  0.00  0.00     0.031 A 
ATOM     33  C   UNL d   1      26.471 -13.084  -3.330  0.00  0.00     0.019 A 
BRANCH  31  34
ATOM     34  N   UNL d   1      27.224 -11.618  -6.666  0.00  0.00    -0.320 N 
ATOM     35  C   UNL d   1      26.412 -10.640  -7.230  0.00  0.00     0.013 A 
ATOM     36  C   UNL d   1      26.644 -10.620  -8.591  0.00  0.00     0.027 A 
ATOM     37  C   UNL d   1      25.537  -9.725  -6.445  0.00  0.00     0.068 C 
ATOM     38  C   UNL d   1      27.606 -11.606  -8.876  0.00  0.00     0.027 A 
ATOM     39  C   UNL d   1      27.968 -12.202  -7.683  0.00  0.00     0.013 A 
ATOM     40  C   UNL d   1      28.898 -13.344  -7.476  0.00  0.00     0.068 C 
ENDBRANCH  31  34
ENDBRANCH   1  28
TORSDOF 6
ENDMDL
MODEL 7
REMARK VINA RESULT:    -8.405      1.494      2.334
REMARK INTER + INTRA:         -12.787
REMARK INTER:                 -10.195
REMARK INTRA:                  -2.592
REMARK CONF_INDEPENDENT:        1.790
REMARK UNBOUND:                -2.592
REMARK  6 active torsions:
REMARK  status: ('A' for Active; 'I' for Inactive)
REMARK    1  A    between atoms: N_7  and  C_8 
REMARK    2  A    between atoms: C_11  and  C_12 
REMARK       I    between atoms: C_12  and  N_14 
REMARK       I    between atoms: C_15  and  N_16 
REMARK       I    between atoms: C_15  and  N_28 
REMARK    3  A    between atoms: N_16  and  C_17 
REMARK    4  A    between atoms: C_17  and  C_18 
REMARK    5  A    between atoms: C_18  and  C_19 
REMARK    6  A    between atoms: N_28  and  C_29 
ROOT
ATOM      1  C   UNL d   1      29.687 -16.205  -0.747  0.00  0.00     0.293 C 
ATOM      2  O   UNL d   1      29.915 -16.902   0.230  0.00  0.00    -0.265 OA
ATOM      3  N   UNL d   1      29.253 -14.892  -0.698  0.00  0.00    -0.023 NA
ATOM      4  C   UNL d   1      29.145 -14.300   0.460  0.00  0.00     0.704 C 
ATOM      5  N   UNL d   1      28.735 -12.991   0.504  0.00  0.00    -0.224 N 
ATOM      6  N   UNL d   1      29.461 -14.841   1.683  0.00  0.00    -0.190 N 
ATOM      7  H   UNL d   1      28.819 -12.516   1.394  0.00  0.00     0.177 HD
ATOM      8  H   UNL d   1      29.752 -15.823   1.634  0.00  0.00     0.184 HD
ENDROOT
BRANCH   5   9
ATOM      9  C   UNL d   1      28.508 -12.187  -0.669  0.00  0.00     0.142 C 
BRANCH   9  10
ATOM     10  C   UNL d   1      27.032 -12.165  -1.029  0.00  0.00     0.057 C 
BRANCH  10  11
ATOM     11  C   UNL d   1      26.566 -13.244  -1.956  0.00  0.00    -0.048 C 
ATOM     12  C   UNL d   1      26.196 -14.433  -1.484  0.00  0.00    -0.006 C 
ATOM     13  C   UNL d   1      26.179 -14.942  -0.161  0.00  0.00     0.014 C 
ATOM     14  C   UNL d   1      25.845 -15.251  -2.649  0.00  0.00     0.038 C 
ATOM     15  C   UNL d   1      26.000 -16.256  -0.000  0.00  0.00     0.001 C 
ATOM     16  C   UNL d   1      25.645 -17.111  -1.125  0.00  0.00     0.002 C 
ATOM     17  C   UNL d   1      25.530 -16.673  -2.397  0.00  0.00     0.030 C 
ATOM     18  N   UNL d   1      25.903 -14.573  -3.732  0.00  0.00    -0.385 N 
ATOM     19  C   UNL d   1      26.490 -13.225  -3.458  0.00  0.00     0.155 C 
ATOM     20  H   UNL d   1      25.590 -14.943  -4.630  0.00  0.00     0.160 HD
ENDBRANCH  10  11
ENDBRANCH   9  10
ENDBRANCH   5   9
BRANCH   6  21
ATOM     21  C   UNL d   1      29.167 -14.425   2.993  0.00  0.00     0.049 A 
ATOM     22  C   UNL d   1      27.842 -14.095   3.326  0.00  0.00     0.033 A 
ATOM     23  C   UNL d   1      27.508 -13.713   4.629  0.00  0.00     0.044 A 
ATOM     24  C   UNL d   1      28.481 -13.733   5.619  0.00  0.00     0.116 A 
ATOM     25  F   UNL d   1      28.150 -13.450   6.885  0.00  0.00    -0.206 F 
ATOM     26  C   UNL d   1      29.795 -14.056   5.316  0.00  0.00     0.044 A 
ATOM     27  C   UNL d   1      30.138 -14.372   4.003  0.00  0.00     0.033 A 
ENDBRANCH   6  21
BRANCH   1  28
ATOM     28  C   UNL d   1      29.919 -16.786  -2.113  0.00  0.00     0.035 A 
ATOM     29  C   UNL d   1      30.840 -17.839  -2.247  0.00  0.00     0.019 A 
ATOM     30  C   UNL d   1      31.181 -18.332  -3.508  0.00  0.00     0.031 A 
ATOM     31  C   UNL d   1      30.546 -17.826  -4.644  0.00  0.00     0.039 A 
ATOM     32  C   UNL d   1      29.604 -16.799  -4.526  0.00  0.00     0.031 A 
ATOM     33  C   UNL d   1      29.291 -16.281  -3.260  0.00  0.00     0.019 A 
BRANCH  31  34
ATOM     34  N   UNL d   1      30.786 -18.425  -5.909  0.00  0.00    -0.320 N 
ATOM     35  C   UNL d   1      30.747 -19.791  -6.168  0.00  0.00     0.013 A 
ATOM     36  C   UNL d   1      30.980 -19.980  -7.516  0.00  0.00     0.027 A 
ATOM     37  C   UNL d   1      30.405 -20.825  -5.152  0.00  0.00     0.068 C 
ATOM     38  C   UNL d   1      31.176 -18.714  -8.098  0.00  0.00     0.027 A 
ATOM     39  C   UNL d   1      31.037 -17.764  -7.103  0.00  0.00     0.013 A 
ATOM     40  C   UNL d   1      31.224 -16.293  -7.212  0.00  0.00     0.068 C 
ENDBRANCH  31  34
ENDBRANCH   1  28
TORSDOF 6
ENDMDL
MODEL 8
REMARK VINA RESULT:    -7.926      3.714      5.437
REMARK INTER + INTRA:         -12.715
REMARK INTER:                  -9.716
REMARK INTRA:                  -2.999
REMARK CONF_INDEPENDENT:        1.790
REMARK UNBOUND:                -2.999
REMARK  6 active torsions:
REMARK  status: ('A' for Active; 'I' for Inactive)
REMARK    1  A    between atoms: N_7  and  C_8 
REMARK    2  A    between atoms: C_11  and  C_12 
REMARK       I    between atoms: C_12  and  N_14 
REMARK       I    between atoms: C_15  and  N_16 
REMARK       I    between atoms: C_15  and  N_28 
REMARK    3  A    between atoms: N_16  and  C_17 
REMARK    4  A    between atoms: C_17  and  C_18 
REMARK    5  A    between atoms: C_18  and  C_19 
REMARK    6  A    between atoms: N_28  and  C_29 
ROOT
ATOM      1  C   UNL d   1      27.604 -12.572  -0.746  0.00  0.00     0.293 C 
ATOM      2  O   UNL d   1      27.056 -11.825   0.048  0.00  0.00    -0.265 OA
ATOM      3  N   UNL d   1      28.360 -13.679  -0.400  0.00  0.00    -0.023 NA
ATOM      4  C   UNL d   1      28.447 -14.021   0.856  0.00  0.00     0.704 C 
ATOM      5  N   UNL d   1      29.180 -15.131   1.195  0.00  0.00    -0.224 N 
ATOM      6  N   UNL d   1      27.819 -13.406   1.913  0.00  0.00    -0.190 N 
ATOM      7  H   UNL d   1      29.094 -15.461   2.149  0.00  0.00     0.177 HD
ATOM      8  H   UNL d   1      27.288 -12.571   1.644  0.00  0.00     0.184 HD
ENDROOT
BRANCH   5   9
ATOM      9  C   UNL d   1      29.786 -16.011   0.230  0.00  0.00     0.142 C 
BRANCH   9  10
ATOM     10  C   UNL d   1      28.832 -17.130  -0.151  0.00  0.00     0.057 C 
BRANCH  10  11
ATOM     11  C   UNL d   1      27.554 -16.709  -0.808  0.00  0.00    -0.048 C 
ATOM     12  C   UNL d   1      27.539 -16.328  -2.084  0.00  0.00    -0.006 C 
ATOM     13  C   UNL d   1      28.591 -16.202  -3.027  0.00  0.00     0.014 C 
ATOM     14  C   UNL d   1      26.157 -15.947  -2.388  0.00  0.00     0.038 C 
ATOM     15  C   UNL d   1      28.332 -15.555  -4.167  0.00  0.00     0.001 C 
ATOM     16  C   UNL d   1      26.975 -15.160  -4.517  0.00  0.00     0.002 C 
ATOM     17  C   UNL d   1      25.905 -15.351  -3.716  0.00  0.00     0.030 C 
ATOM     18  N   UNL d   1      25.380 -16.176  -1.398  0.00  0.00    -0.385 N 
ATOM     19  C   UNL d   1      26.183 -16.583  -0.204  0.00  0.00     0.155 C 
ATOM     20  H   UNL d   1      24.367 -16.075  -1.459  0.00  0.00     0.160 HD
ENDBRANCH  10  11
ENDBRANCH   9  10
ENDBRANCH   5   9
BRANCH   6  21
ATOM     21  C   UNL d   1      28.014 -13.505   3.302  0.00  0.00     0.049 A 
ATOM     22  C   UNL d   1      28.057 -12.331   4.073  0.00  0.00     0.033 A 
ATOM     23  C   UNL d   1      28.212 -12.394   5.461  0.00  0.00     0.044 A 
ATOM     24  C   UNL d   1      28.248 -13.631   6.090  0.00  0.00     0.116 A 
ATOM     25  F   UNL d   1      28.312 -13.698   7.425  0.00  0.00    -0.206 F 
ATOM     26  C   UNL d   1      28.208 -14.804   5.351  0.00  0.00     0.044 A 
ATOM     27  C   UNL d   1      28.120 -14.737   3.962  0.00  0.00     0.033 A 
ENDBRANCH   6  21
BRANCH   1  28
ATOM     28  C   UNL d   1      27.433 -12.309  -2.216  0.00  0.00     0.035 A 
ATOM     29  C   UNL d   1      28.576 -12.039  -2.987  0.00  0.00     0.019 A 
ATOM     30  C   UNL d   1      28.460 -11.670  -4.329  0.00  0.00     0.031 A 
ATOM     31  C   UNL d   1      27.201 -11.642  -4.933  0.00  0.00     0.039 A 
ATOM     32  C   UNL d   1      26.055 -11.939  -4.187  0.00  0.00     0.031 A 
ATOM     33  C   UNL d   1      26.173 -12.273  -2.830  0.00  0.00     0.019 A 
BRANCH  31  34
ATOM     34  N   UNL d   1      27.098 -11.409  -6.330  0.00  0.00    -0.320 N 
ATOM     35  C   UNL d   1      26.359 -10.389  -6.919  0.00  0.00     0.013 A 
ATOM     36  C   UNL d   1      26.546 -10.456  -8.285  0.00  0.00     0.027 A 
ATOM     37  C   UNL d   1      25.597  -9.361  -6.156  0.00  0.00     0.068 C 
ATOM     38  C   UNL d   1      27.405 -11.539  -8.548  0.00  0.00     0.027 A 
ATOM     39  C   UNL d   1      27.751 -12.108  -7.336  0.00  0.00     0.013 A 
ATOM     40  C   UNL d   1      28.580 -13.319  -7.098  0.00  0.00     0.068 C 
ENDBRANCH  31  34
ENDBRANCH   1  28
TORSDOF 6
ENDMDL
MODEL 9
REMARK VINA RESULT:    -7.780      3.692      5.340
REMARK INTER + INTRA:         -12.651
REMARK INTER:                  -9.570
REMARK INTRA:                  -3.081
REMARK CONF_INDEPENDENT:        1.790
REMARK UNBOUND:                -3.081
REMARK  6 active torsions:
REMARK  status: ('A' for Active; 'I' for Inactive)
REMARK    1  A    between atoms: N_7  and  C_8 
REMARK    2  A    between atoms: C_11  and  C_12 
REMARK       I    between atoms: C_12  and  N_14 
REMARK       I    between atoms: C_15  and  N_16 
REMARK       I    between atoms: C_15  and  N_28 
REMARK    3  A    between atoms: N_16  and  C_17 
REMARK    4  A    between atoms: C_17  and  C_18 
REMARK    5  A    between atoms: C_18  and  C_19 
REMARK    6  A    between atoms: N_28  and  C_29 
ROOT
ATOM      1  C   UNL d   1      27.908 -12.804  -0.918  0.00  0.00     0.293 C 
ATOM      2  O   UNL d   1      27.370 -12.096  -0.082  0.00  0.00    -0.265 OA
ATOM      3  N   UNL d   1      28.680 -13.918  -0.635  0.00  0.00    -0.023 NA
ATOM      4  C   UNL d   1      28.797 -14.311   0.604  0.00  0.00     0.704 C 
ATOM      5  N   UNL d   1      29.546 -15.428   0.880  0.00  0.00    -0.224 N 
ATOM      6  N   UNL d   1      28.187 -13.746   1.698  0.00  0.00    -0.190 N 
ATOM      7  H   UNL d   1      29.484 -15.798   1.820  0.00  0.00     0.177 HD
ATOM      8  H   UNL d   1      27.643 -12.906   1.477  0.00  0.00     0.184 HD
ENDROOT
BRANCH   5   9
ATOM      9  C   UNL d   1      30.138 -16.262  -0.134  0.00  0.00     0.142 C 
BRANCH   9  10
ATOM     10  C   UNL d   1      29.064 -16.937  -0.969  0.00  0.00     0.057 C 
BRANCH  10  11
ATOM     11  C   UNL d   1      28.900 -16.425  -2.367  0.00  0.00    -0.048 C 
ATOM     12  C   UNL d   1      27.730 -15.940  -2.780  0.00  0.00    -0.006 C 
ATOM     13  C   UNL d   1      26.486 -15.823  -2.110  0.00  0.00     0.014 C 
ATOM     14  C   UNL d   1      27.907 -15.573  -4.188  0.00  0.00     0.038 C 
ATOM     15  C   UNL d   1      25.408 -15.530  -2.844  0.00  0.00     0.001 C 
ATOM     16  C   UNL d   1      25.531 -15.156  -4.246  0.00  0.00     0.002 C 
ATOM     17  C   UNL d   1      26.701 -15.133  -4.920  0.00  0.00     0.030 C 
ATOM     18  N   UNL d   1      29.118 -15.734  -4.565  0.00  0.00    -0.385 N 
ATOM     19  C   UNL d   1      29.900 -16.417  -3.489  0.00  0.00     0.155 C 
ATOM     20  H   UNL d   1      29.455 -15.432  -5.480  0.00  0.00     0.160 HD
ENDBRANCH  10  11
ENDBRANCH   9  10
ENDBRANCH   5   9
BRANCH   6  21
ATOM     21  C   UNL d   1      28.414 -13.901   3.078  0.00  0.00     0.049 A 
ATOM     22  C   UNL d   1      27.350 -13.700   3.973  0.00  0.00     0.033 A 
ATOM     23  C   UNL d   1      27.530 -13.882   5.347  0.00  0.00     0.044 A 
ATOM     24  C   UNL d   1      28.752 -14.338   5.823  0.00  0.00     0.116 A 
ATOM     25  F   UNL d   1      28.906 -14.594   7.128  0.00  0.00    -0.206 F 
ATOM     26  C   UNL d   1      29.817 -14.544   4.959  0.00  0.00     0.044 A 
ATOM     27  C   UNL d   1      29.653 -14.298   3.597  0.00  0.00     0.033 A 
ENDBRANCH   6  21
BRANCH   1  28
ATOM     28  C   UNL d   1      27.702 -12.482  -2.372  0.00  0.00     0.035 A 
ATOM     29  C   UNL d   1      28.832 -12.358  -3.198  0.00  0.00     0.019 A 
ATOM     30  C   UNL d   1      28.703 -11.942  -4.525  0.00  0.00     0.031 A 
ATOM     31  C   UNL d   1      27.432 -11.719  -5.060  0.00  0.00     0.039 A 
ATOM     32  C   UNL d   1      26.294 -11.868  -4.259  0.00  0.00     0.031 A 
ATOM     33  C   UNL d   1      26.431 -12.250  -2.917  0.00  0.00     0.019 A 
BRANCH  31  34
ATOM     34  N   UNL d   1      27.293 -11.438  -6.445  0.00  0.00    -0.320 N 
ATOM     35  C   UNL d   1      27.833 -12.199  -7.475  0.00  0.00     0.013 A 
ATOM     36  C   UNL d   1      27.440 -11.641  -8.675  0.00  0.00     0.027 A 
ATOM     37  C   UNL d   1      28.609 -13.454  -7.269  0.00  0.00     0.068 C 
ATOM     38  C   UNL d   1      26.652 -10.512  -8.384  0.00  0.00     0.027 A 
ATOM     39  C   UNL d   1      26.555 -10.407  -7.009  0.00  0.00     0.013 A 
ATOM     40  C   UNL d   1      25.887  -9.338  -6.219  0.00  0.00     0.068 C 
ENDBRANCH  31  34
ENDBRANCH   1  28
TORSDOF 6
ENDMDL
