MODEL 1
REMARK VINA RESULT:    -7.078      0.000      0.000
REMARK INTER + INTRA:         -11.146
REMARK INTER:                  -8.569
REMARK INTRA:                  -2.577
REMARK CONF_INDEPENDENT:        1.492
REMARK UNBOUND:                -2.577
REMARK  5 active torsions:
REMARK  status: ('A' for Active; 'I' for Inactive)
REMARK       I    between atoms: C_2  and  N_4 
REMARK    1  A    between atoms: N_4  and  N_5 
REMARK       I    between atoms: N_5  and  C_6 
REMARK    2  A    between atoms: C_6  and  C_8 
REMARK    3  A    between atoms: C_8  and  O_9 
REMARK    4  A    between atoms: C_8  and  C_10 
REMARK    5  A    between atoms: C_8  and  C_16 
ROOT
ATOM      1  C   UNL d   1      25.824 -16.157  -0.741  0.00  0.00     0.195 C 
ENDROOT
BRANCH   1   2
ATOM      2  C   UNL d   1      27.154 -16.974  -0.282  0.00  0.00     0.280 C 
ATOM      3  N   UNL d   1      28.306 -16.827  -1.060  0.00  0.00    -0.264 N 
ATOM      4  H   UNL d   1      28.335 -16.359  -1.962  0.00  0.00     0.190 HD
ATOM      5  O   UNL d   1      27.217 -17.691   0.724  0.00  0.00    -0.268 OA
BRANCH   3   6
ATOM      6  N   UNL d   1      29.378 -17.724  -0.821  0.00  0.00    -0.268 N 
ATOM      7  C   UNL d   1      30.388 -17.823  -1.761  0.00  0.00     0.232 C 
ATOM      8  C   UNL d   1      31.563 -18.668  -1.326  0.00  0.00     0.119 C 
ATOM      9  O   UNL d   1      30.343 -17.252  -2.840  0.00  0.00    -0.272 OA
ATOM     10  H   UNL d   1      29.348 -18.245   0.054  0.00  0.00     0.190 HD
ENDBRANCH   3   6
ENDBRANCH   1   2
BRANCH   1  11
ATOM     11  O   UNL d   1      25.583 -15.116   0.230  0.00  0.00    -0.371 OA
ATOM     12  H   UNL d   1      26.189 -15.247   0.974  0.00  0.00     0.212 HD
ENDBRANCH   1  11
BRANCH   1  13
ATOM     13  C   UNL d   1      26.021 -15.435  -2.104  0.00  0.00    -0.010 C 
ATOM     14  C   UNL d   1      26.635 -14.180  -2.203  0.00  0.00     0.011 C 
ATOM     15  C   UNL d   1      26.796 -13.523  -3.422  0.00  0.00     0.001 C 
ATOM     16  C   UNL d   1      26.520 -14.181  -4.606  0.00  0.00     0.000 C 
ATOM     17  C   UNL d   1      25.906 -15.417  -4.558  0.00  0.00     0.001 C 
ATOM     18  C   UNL d   1      25.530 -15.945  -3.323  0.00  0.00     0.011 C 
ENDBRANCH   1  13
BRANCH   1  19
ATOM     19  C   UNL d   1      24.590 -17.114  -0.623  0.00  0.00    -0.010 C 
ATOM     20  C   UNL d   1      24.633 -18.514  -0.460  0.00  0.00     0.011 C 
ATOM     21  C   UNL d   1      23.500 -19.325  -0.520  0.00  0.00     0.001 C 
ATOM     22  C   UNL d   1      22.254 -18.736  -0.480  0.00  0.00     0.000 C 
ATOM     23  C   UNL d   1      22.155 -17.350  -0.521  0.00  0.00     0.001 C 
ATOM     24  C   UNL d   1      23.300 -16.557  -0.667  0.00  0.00     0.011 C 
ENDBRANCH   1  19
TORSDOF 5
ENDMDL
MODEL 2
REMARK VINA RESULT:    -6.866      1.538      1.603
REMARK INTER + INTRA:         -10.759
REMARK INTER:                  -8.357
REMARK INTRA:                  -2.402
REMARK CONF_INDEPENDENT:        1.492
REMARK UNBOUND:                -2.402
REMARK  5 active torsions:
REMARK  status: ('A' for Active; 'I' for Inactive)
REMARK       I    between atoms: C_2  and  N_4 
REMARK    1  A    between atoms: N_4  and  N_5 
REMARK       I    between atoms: N_5  and  C_6 
REMARK    2  A    between atoms: C_6  and  C_8 
REMARK    3  A    between atoms: C_8  and  O_9 
REMARK    4  A    between atoms: C_8  and  C_10 
REMARK    5  A    between atoms: C_8  and  C_16 
ROOT
ATOM      1  C   UNL d   1      25.970 -15.936  -0.964  0.00  0.00     0.195 C 
ENDROOT
BRANCH   1   2
ATOM      2  C   UNL d   1      27.324 -16.758  -0.592  0.00  0.00     0.280 C 
ATOM      3  N   UNL d   1      28.314 -16.084   0.127  0.00  0.00    -0.264 N 
ATOM      4  H   UNL d   1      28.310 -15.084   0.315  0.00  0.00     0.190 HD
ATOM      5  O   UNL d   1      27.516 -17.945  -0.879  0.00  0.00    -0.268 OA
BRANCH   3   6
ATOM      6  N   UNL d   1      29.586 -16.702   0.230  0.00  0.00    -0.268 N 
ATOM      7  C   UNL d   1      30.710 -15.904   0.339  0.00  0.00     0.232 C 
ATOM      8  C   UNL d   1      31.988 -16.660   0.622  0.00  0.00     0.119 C 
ATOM      9  O   UNL d   1      30.666 -14.686   0.241  0.00  0.00    -0.272 OA
ATOM     10  H   UNL d   1      29.598 -17.720   0.230  0.00  0.00     0.190 HD
ENDBRANCH   3   6
ENDBRANCH   1   2
BRANCH   1  11
ATOM     11  O   UNL d   1      25.844 -14.838  -0.035  0.00  0.00    -0.371 OA
ATOM     12  H   UNL d   1      26.671 -14.334  -0.047  0.00  0.00     0.212 HD
ENDBRANCH   1  11
BRANCH   1  13
ATOM     13  C   UNL d   1      26.044 -15.295  -2.379  0.00  0.00    -0.010 C 
ATOM     14  C   UNL d   1      27.087 -15.574  -3.272  0.00  0.00     0.011 C 
ATOM     15  C   UNL d   1      27.166 -14.986  -4.533  0.00  0.00     0.001 C 
ATOM     16  C   UNL d   1      26.105 -14.244  -5.020  0.00  0.00     0.000 C 
ATOM     17  C   UNL d   1      25.059 -13.935  -4.173  0.00  0.00     0.001 C 
ATOM     18  C   UNL d   1      25.124 -14.331  -2.837  0.00  0.00     0.011 C 
ENDBRANCH   1  13
BRANCH   1  19
ATOM     19  C   UNL d   1      24.736 -16.856  -0.672  0.00  0.00    -0.010 C 
ATOM     20  C   UNL d   1      24.779 -18.196  -0.235  0.00  0.00     0.011 C 
ATOM     21  C   UNL d   1      23.649 -19.007  -0.145  0.00  0.00     0.001 C 
ATOM     22  C   UNL d   1      22.401 -18.428  -0.236  0.00  0.00     0.000 C 
ATOM     23  C   UNL d   1      22.300 -17.078  -0.553  0.00  0.00     0.001 C 
ATOM     24  C   UNL d   1      23.445 -16.325  -0.840  0.00  0.00     0.011 C 
ENDBRANCH   1  19
TORSDOF 5
ENDMDL
MODEL 3
REMARK VINA RESULT:    -6.835      2.756      5.515
REMARK INTER + INTRA:         -10.951
REMARK INTER:                  -8.327
REMARK INTRA:                  -2.624
REMARK CONF_INDEPENDENT:        1.492
REMARK UNBOUND:                -2.624
REMARK  5 active torsions:
REMARK  status: ('A' for Active; 'I' for Inactive)
REMARK       I    between atoms: C_2  and  N_4 
REMARK    1  A    between atoms: N_4  and  N_5 
REMARK       I    between atoms: N_5  and  C_6 
REMARK    2  A    between atoms: C_6  and  C_8 
REMARK    3  A    between atoms: C_8  and  O_9 
REMARK    4  A    between atoms: C_8  and  C_10 
REMARK    5  A    between atoms: C_8  and  C_16 
ROOT
ATOM      1  C   UNL d   1      26.949 -16.484  -0.190  0.00  0.00     0.195 C 
ENDROOT
BRANCH   1   2
ATOM      2  C   UNL d   1      27.035 -15.128   0.705  0.00  0.00     0.280 C 
ATOM      3  N   UNL d   1      27.777 -15.178   1.889  0.00  0.00    -0.264 N 
ATOM      4  H   UNL d   1      28.150 -16.031   2.298  0.00  0.00     0.190 HD
ATOM      5  O   UNL d   1      26.512 -14.054   0.389  0.00  0.00    -0.268 OA
BRANCH   3   6
ATOM      6  N   UNL d   1      27.645 -14.094   2.792  0.00  0.00    -0.268 N 
ATOM      7  C   UNL d   1      27.914 -14.303   4.132  0.00  0.00     0.232 C 
ATOM      8  C   UNL d   1      27.917 -13.047   4.972  0.00  0.00     0.119 C 
ATOM      9  O   UNL d   1      28.156 -15.410   4.591  0.00  0.00    -0.272 OA
ATOM     10  H   UNL d   1      27.366 -13.200   2.391  0.00  0.00     0.190 HD
ENDBRANCH   3   6
ENDBRANCH   1   2
BRANCH   1  11
ATOM     11  O   UNL d   1      27.753 -17.496   0.455  0.00  0.00    -0.371 OA
ATOM     12  H   UNL d   1      28.476 -17.056   0.925  0.00  0.00     0.212 HD
ENDBRANCH   1  11
BRANCH   1  13
ATOM     13  C   UNL d   1      25.505 -17.057  -0.249  0.00  0.00    -0.010 C 
ATOM     14  C   UNL d   1      24.402 -16.268  -0.605  0.00  0.00     0.011 C 
ATOM     15  C   UNL d   1      23.104 -16.774  -0.639  0.00  0.00     0.001 C 
ATOM     16  C   UNL d   1      22.886 -18.133  -0.505  0.00  0.00     0.000 C 
ATOM     17  C   UNL d   1      23.941 -18.949  -0.146  0.00  0.00     0.001 C 
ATOM     18  C   UNL d   1      25.184 -18.377   0.126  0.00  0.00     0.011 C 
ENDBRANCH   1  13
BRANCH   1  19
ATOM     19  C   UNL d   1      27.658 -16.219  -1.561  0.00  0.00    -0.010 C 
ATOM     20  C   UNL d   1      28.925 -16.701  -1.952  0.00  0.00     0.011 C 
ATOM     21  C   UNL d   1      29.567 -16.299  -3.123  0.00  0.00     0.001 C 
ATOM     22  C   UNL d   1      28.849 -15.604  -4.074  0.00  0.00     0.000 C 
ATOM     23  C   UNL d   1      27.550 -15.202  -3.786  0.00  0.00     0.001 C 
ATOM     24  C   UNL d   1      26.993 -15.439  -2.523  0.00  0.00     0.011 C 
ENDBRANCH   1  19
TORSDOF 5
ENDMDL
MODEL 4
REMARK VINA RESULT:    -6.706      3.036      6.222
REMARK INTER + INTRA:         -10.692
REMARK INTER:                  -8.197
REMARK INTRA:                  -2.495
REMARK CONF_INDEPENDENT:        1.492
REMARK UNBOUND:                -2.495
REMARK  5 active torsions:
REMARK  status: ('A' for Active; 'I' for Inactive)
REMARK       I    between atoms: C_2  and  N_4 
REMARK    1  A    between atoms: N_4  and  N_5 
REMARK       I    between atoms: N_5  and  C_6 
REMARK    2  A    between atoms: C_6  and  C_8 
REMARK    3  A    between atoms: C_8  and  O_9 
REMARK    4  A    between atoms: C_8  and  C_10 
REMARK    5  A    between atoms: C_8  and  C_16 
ROOT
ATOM      1  C   UNL d   1      26.456 -15.118  -2.071  0.00  0.00     0.195 C 
ENDROOT
BRANCH   1   2
ATOM      2  C   UNL d   1      25.779 -14.087  -3.133  0.00  0.00     0.280 C 
ATOM      3  N   UNL d   1      26.280 -12.784  -3.181  0.00  0.00    -0.264 N 
ATOM      4  H   UNL d   1      26.940 -12.396  -2.511  0.00  0.00     0.190 HD
ATOM      5  O   UNL d   1      24.872 -14.393  -3.915  0.00  0.00    -0.268 OA
BRANCH   3   6
ATOM      6  N   UNL d   1      25.536 -11.820  -3.907  0.00  0.00    -0.268 N 
ATOM      7  C   UNL d   1      25.897 -10.489  -3.816  0.00  0.00     0.232 C 
ATOM      8  C   UNL d   1      25.156  -9.575  -4.765  0.00  0.00     0.119 C 
ATOM      9  O   UNL d   1      26.763 -10.091  -3.051  0.00  0.00    -0.272 OA
ATOM     10  H   UNL d   1      24.769 -12.174  -4.477  0.00  0.00     0.190 HD
ENDBRANCH   3   6
ENDBRANCH   1   2
BRANCH   1  11
ATOM     11  O   UNL d   1      26.955 -14.347  -0.956  0.00  0.00    -0.371 OA
ATOM     12  H   UNL d   1      27.541 -14.914  -0.433  0.00  0.00     0.212 HD
ENDBRANCH   1  11
BRANCH   1  13
ATOM     13  C   UNL d   1      25.418 -16.111  -1.475  0.00  0.00    -0.010 C 
ATOM     14  C   UNL d   1      25.802 -17.287  -0.817  0.00  0.00     0.011 C 
ATOM     15  C   UNL d   1      24.873 -18.188  -0.299  0.00  0.00     0.001 C 
ATOM     16  C   UNL d   1      23.532 -17.852  -0.253  0.00  0.00     0.000 C 
ATOM     17  C   UNL d   1      23.106 -16.707  -0.896  0.00  0.00     0.001 C 
ATOM     18  C   UNL d   1      24.026 -15.949  -1.620  0.00  0.00     0.011 C 
ENDBRANCH   1  13
BRANCH   1  19
ATOM     19  C   UNL d   1      27.730 -15.743  -2.732  0.00  0.00    -0.010 C 
ATOM     20  C   UNL d   1      28.665 -16.592  -2.103  0.00  0.00     0.011 C 
ATOM     21  C   UNL d   1      29.861 -16.986  -2.701  0.00  0.00     0.001 C 
ATOM     22  C   UNL d   1      30.040 -16.763  -4.050  0.00  0.00     0.000 C 
ATOM     23  C   UNL d   1      29.089 -16.028  -4.749  0.00  0.00     0.001 C 
ATOM     24  C   UNL d   1      27.993 -15.464  -4.085  0.00  0.00     0.011 C 
ENDBRANCH   1  19
TORSDOF 5
ENDMDL
MODEL 5
REMARK VINA RESULT:    -6.609      2.351      5.282
REMARK INTER + INTRA:         -11.053
REMARK INTER:                  -8.100
REMARK INTRA:                  -2.952
REMARK CONF_INDEPENDENT:        1.492
REMARK UNBOUND:                -2.952
REMARK  5 active torsions:
REMARK  status: ('A' for Active; 'I' for Inactive)
REMARK       I    between atoms: C_2  and  N_4 
REMARK    1  A    between atoms: N_4  and  N_5 
REMARK       I    between atoms: N_5  and  C_6 
REMARK    2  A    between atoms: C_6  and  C_8 
REMARK    3  A    between atoms: C_8  and  O_9 
REMARK    4  A    between atoms: C_8  and  C_10 
REMARK    5  A    between atoms: C_8  and  C_16 
ROOT
ATOM      1  C   UNL d   1      26.414 -16.222  -1.114  0.00  0.00     0.195 C 
ENDROOT
BRANCH   1   2
ATOM      2  C   UNL d   1      27.389 -16.070   0.180  0.00  0.00     0.280 C 
ATOM      3  N   UNL d   1      27.030 -15.136   1.155  0.00  0.00    -0.264 N 
ATOM      4  H   UNL d   1      26.284 -14.452   1.051  0.00  0.00     0.190 HD
ATOM      5  O   UNL d   1      28.406 -16.747   0.366  0.00  0.00    -0.268 OA
BRANCH   3   6
ATOM      6  N   UNL d   1      27.994 -14.816   2.144  0.00  0.00    -0.268 N 
ATOM      7  C   UNL d   1      27.745 -13.763   3.005  0.00  0.00     0.232 C 
ATOM      8  C   UNL d   1      28.748 -13.624   4.127  0.00  0.00     0.119 C 
ATOM      9  O   UNL d   1      26.778 -13.026   2.882  0.00  0.00    -0.272 OA
ATOM     10  H   UNL d   1      28.828 -15.401   2.171  0.00  0.00     0.190 HD
ENDBRANCH   3   6
ENDBRANCH   1   2
BRANCH   1  11
ATOM     11  O   UNL d   1      27.075 -17.075  -2.074  0.00  0.00    -0.371 OA
ATOM     12  H   UNL d   1      27.882 -17.422  -1.666  0.00  0.00     0.212 HD
ENDBRANCH   1  11
BRANCH   1  13
ATOM     13  C   UNL d   1      25.076 -16.933  -0.760  0.00  0.00    -0.010 C 
ATOM     14  C   UNL d   1      23.838 -16.284  -0.856  0.00  0.00     0.011 C 
ATOM     15  C   UNL d   1      22.640 -16.913  -0.521  0.00  0.00     0.001 C 
ATOM     16  C   UNL d   1      22.619 -18.271  -0.259  0.00  0.00     0.000 C 
ATOM     17  C   UNL d   1      23.816 -18.950  -0.145  0.00  0.00     0.001 C 
ATOM     18  C   UNL d   1      25.014 -18.242  -0.242  0.00  0.00     0.011 C 
ENDBRANCH   1  13
BRANCH   1  19
ATOM     19  C   UNL d   1      26.305 -14.828  -1.820  0.00  0.00    -0.010 C 
ATOM     20  C   UNL d   1      26.919 -13.630  -1.398  0.00  0.00     0.011 C 
ATOM     21  C   UNL d   1      26.655 -12.391  -1.979  0.00  0.00     0.001 C 
ATOM     22  C   UNL d   1      25.971 -12.346  -3.176  0.00  0.00     0.000 C 
ATOM     23  C   UNL d   1      25.440 -13.520  -3.700  0.00  0.00     0.001 C 
ATOM     24  C   UNL d   1      25.542 -14.726  -2.995  0.00  0.00     0.011 C 
ENDBRANCH   1  19
TORSDOF 5
ENDMDL
MODEL 6
REMARK VINA RESULT:    -6.593      2.902      5.492
REMARK INTER + INTRA:         -11.024
REMARK INTER:                  -8.085
REMARK INTRA:                  -2.940
REMARK CONF_INDEPENDENT:        1.492
REMARK UNBOUND:                -2.940
REMARK  5 active torsions:
REMARK  status: ('A' for Active; 'I' for Inactive)
REMARK       I    between atoms: C_2  and  N_4 
REMARK    1  A    between atoms: N_4  and  N_5 
REMARK       I    between atoms: N_5  and  C_6 
REMARK    2  A    between atoms: C_6  and  C_8 
REMARK    3  A    between atoms: C_8  and  O_9 
REMARK    4  A    between atoms: C_8  and  C_10 
REMARK    5  A    between atoms: C_8  and  C_16 
ROOT
ATOM      1  C   UNL d   1      25.523 -14.617  -3.452  0.00  0.00     0.195 C 
ENDROOT
BRANCH   1   2
ATOM      2  C   UNL d   1      26.393 -15.197  -4.698  0.00  0.00     0.280 C 
ATOM      3  N   UNL d   1      27.776 -15.304  -4.529  0.00  0.00    -0.264 N 
ATOM      4  H   UNL d   1      28.291 -14.920  -3.741  0.00  0.00     0.190 HD
ATOM      5  O   UNL d   1      25.905 -15.575  -5.769  0.00  0.00    -0.268 OA
BRANCH   3   6
ATOM      6  N   UNL d   1      28.561 -15.560  -5.682  0.00  0.00    -0.268 N 
ATOM      7  C   UNL d   1      29.936 -15.613  -5.557  0.00  0.00     0.232 C 
ATOM      8  C   UNL d   1      30.660 -16.067  -6.803  0.00  0.00     0.119 C 
ATOM      9  O   UNL d   1      30.515 -15.341  -4.514  0.00  0.00    -0.272 OA
ATOM     10  H   UNL d   1      28.053 -15.705  -6.554  0.00  0.00     0.190 HD
ENDBRANCH   3   6
ENDBRANCH   1   2
BRANCH   1  11
ATOM     11  O   UNL d   1      24.173 -14.398  -3.913  0.00  0.00    -0.371 OA
ATOM     12  H   UNL d   1      24.170 -14.449  -4.881  0.00  0.00     0.212 HD
ENDBRANCH   1  11
BRANCH   1  13
ATOM     13  C   UNL d   1      25.417 -15.640  -2.285  0.00  0.00    -0.010 C 
ATOM     14  C   UNL d   1      24.195 -15.951  -1.673  0.00  0.00     0.011 C 
ATOM     15  C   UNL d   1      24.100 -16.853  -0.615  0.00  0.00     0.001 C 
ATOM     16  C   UNL d   1      25.195 -17.619  -0.257  0.00  0.00     0.000 C 
ATOM     17  C   UNL d   1      26.422 -17.343  -0.826  0.00  0.00     0.001 C 
ATOM     18  C   UNL d   1      26.538 -16.266  -1.705  0.00  0.00     0.011 C 
ENDBRANCH   1  13
BRANCH   1  19
ATOM     19  C   UNL d   1      26.063 -13.192  -3.091  0.00  0.00    -0.010 C 
ATOM     20  C   UNL d   1      27.066 -12.895  -2.144  0.00  0.00     0.011 C 
ATOM     21  C   UNL d   1      27.390 -11.596  -1.757  0.00  0.00     0.001 C 
ATOM     22  C   UNL d   1      26.907 -10.537  -2.498  0.00  0.00     0.000 C 
ATOM     23  C   UNL d   1      26.000 -10.783  -3.523  0.00  0.00     0.001 C 
ATOM     24  C   UNL d   1      25.530 -12.079  -3.764  0.00  0.00     0.011 C 
ENDBRANCH   1  19
TORSDOF 5
ENDMDL
MODEL 7
REMARK VINA RESULT:    -6.498      3.507      5.539
REMARK INTER + INTRA:         -10.844
REMARK INTER:                  -7.990
REMARK INTRA:                  -2.854
REMARK CONF_INDEPENDENT:        1.492
REMARK UNBOUND:                -2.854
REMARK  5 active torsions:
REMARK  status: ('A' for Active; 'I' for Inactive)
REMARK       I    between atoms: C_2  and  N_4 
REMARK    1  A    between atoms: N_4  and  N_5 
REMARK       I    between atoms: N_5  and  C_6 
REMARK    2  A    between atoms: C_6  and  C_8 
REMARK    3  A    between atoms: C_8  and  O_9 
REMARK    4  A    between atoms: C_8  and  C_10 
REMARK    5  A    between atoms: C_8  and  C_16 
ROOT
ATOM      1  C   UNL d   1      26.308 -15.273  -4.240  0.00  0.00     0.195 C 
ENDROOT
BRANCH   1   2
ATOM      2  C   UNL d   1      25.543 -13.836  -4.250  0.00  0.00     0.280 C 
ATOM      3  N   UNL d   1      26.310 -12.693  -4.010  0.00  0.00    -0.264 N 
ATOM      4  H   UNL d   1      27.277 -12.704  -3.696  0.00  0.00     0.190 HD
ATOM      5  O   UNL d   1      24.338 -13.693  -4.485  0.00  0.00    -0.268 OA
BRANCH   3   6
ATOM      6  N   UNL d   1      25.619 -11.480  -3.763  0.00  0.00    -0.268 N 
ATOM      7  C   UNL d   1      26.307 -10.422  -3.198  0.00  0.00     0.232 C 
ATOM      8  C   UNL d   1      25.528  -9.128  -3.144  0.00  0.00     0.119 C 
ATOM      9  O   UNL d   1      27.459 -10.521  -2.801  0.00  0.00    -0.272 OA
ATOM     10  H   UNL d   1      24.637 -11.453  -4.034  0.00  0.00     0.190 HD
ENDBRANCH   3   6
ENDBRANCH   1   2
BRANCH   1  11
ATOM     11  O   UNL d   1      25.529 -16.199  -5.029  0.00  0.00    -0.371 OA
ATOM     12  H   UNL d   1      24.776 -15.719  -5.404  0.00  0.00     0.212 HD
ENDBRANCH   1  11
BRANCH   1  13
ATOM     13  C   UNL d   1      27.704 -15.198  -4.921  0.00  0.00    -0.010 C 
ATOM     14  C   UNL d   1      28.805 -15.927  -4.451  0.00  0.00     0.011 C 
ATOM     15  C   UNL d   1      30.061 -15.847  -5.048  0.00  0.00     0.001 C 
ATOM     16  C   UNL d   1      30.216 -15.182  -6.251  0.00  0.00     0.000 C 
ATOM     17  C   UNL d   1      29.162 -14.443  -6.749  0.00  0.00     0.001 C 
ATOM     18  C   UNL d   1      27.988 -14.339  -6.002  0.00  0.00     0.011 C 
ENDBRANCH   1  13
BRANCH   1  19
ATOM     19  C   UNL d   1      26.264 -15.847  -2.784  0.00  0.00    -0.010 C 
ATOM     20  C   UNL d   1      27.241 -15.659  -1.784  0.00  0.00     0.011 C 
ATOM     21  C   UNL d   1      27.220 -16.326  -0.560  0.00  0.00     0.001 C 
ATOM     22  C   UNL d   1      26.078 -17.005  -0.189  0.00  0.00     0.000 C 
ATOM     23  C   UNL d   1      25.032 -17.124  -1.097  0.00  0.00     0.001 C 
ATOM     24  C   UNL d   1      25.155 -16.619  -2.397  0.00  0.00     0.011 C 
ENDBRANCH   1  19
TORSDOF 5
ENDMDL
MODEL 8
REMARK VINA RESULT:    -6.437      2.474      4.267
REMARK INTER + INTRA:         -10.905
REMARK INTER:                  -7.929
REMARK INTRA:                  -2.977
REMARK CONF_INDEPENDENT:        1.492
REMARK UNBOUND:                -2.977
REMARK  5 active torsions:
REMARK  status: ('A' for Active; 'I' for Inactive)
REMARK       I    between atoms: C_2  and  N_4 
REMARK    1  A    between atoms: N_4  and  N_5 
REMARK       I    between atoms: N_5  and  C_6 
REMARK    2  A    between atoms: C_6  and  C_8 
REMARK    3  A    between atoms: C_8  and  O_9 
REMARK    4  A    between atoms: C_8  and  C_10 
REMARK    5  A    between atoms: C_8  and  C_16 
ROOT
ATOM      1  C   UNL d   1      26.890 -16.487  -0.084  0.00  0.00     0.195 C 
ENDROOT
BRANCH   1   2
ATOM      2  C   UNL d   1      27.633 -16.257  -1.513  0.00  0.00     0.280 C 
ATOM      3  N   UNL d   1      27.004 -15.427  -2.445  0.00  0.00    -0.264 N 
ATOM      4  H   UNL d   1      26.058 -15.068  -2.349  0.00  0.00     0.190 HD
ATOM      5  O   UNL d   1      28.728 -16.746  -1.813  0.00  0.00    -0.268 OA
BRANCH   3   6
ATOM      6  N   UNL d   1      27.508 -15.427  -3.770  0.00  0.00    -0.268 N 
ATOM      7  C   UNL d   1      26.708 -14.946  -4.789  0.00  0.00     0.232 C 
ATOM      8  C   UNL d   1      27.404 -14.825  -6.126  0.00  0.00     0.119 C 
ATOM      9  O   UNL d   1      25.543 -14.619  -4.615  0.00  0.00    -0.272 OA
ATOM     10  H   UNL d   1      28.456 -15.779  -3.895  0.00  0.00     0.190 HD
ENDBRANCH   3   6
ENDBRANCH   1   2
BRANCH   1  11
ATOM     11  O   UNL d   1      27.565 -17.563   0.603  0.00  0.00    -0.371 OA
ATOM     12  H   UNL d   1      28.423 -17.704   0.176  0.00  0.00     0.212 HD
ENDBRANCH   1  11
BRANCH   1  13
ATOM     13  C   UNL d   1      27.008 -15.245   0.844  0.00  0.00    -0.010 C 
ATOM     14  C   UNL d   1      26.331 -14.047   0.578  0.00  0.00     0.011 C 
ATOM     15  C   UNL d   1      26.450 -12.926   1.398  0.00  0.00     0.001 C 
ATOM     16  C   UNL d   1      27.099 -13.023   2.616  0.00  0.00     0.000 C 
ATOM     17  C   UNL d   1      27.788 -14.182   2.917  0.00  0.00     0.001 C 
ATOM     18  C   UNL d   1      27.858 -15.200   1.966  0.00  0.00     0.011 C 
ENDBRANCH   1  13
BRANCH   1  19
ATOM     19  C   UNL d   1      25.445 -17.027  -0.358  0.00  0.00    -0.010 C 
ATOM     20  C   UNL d   1      24.347 -16.273  -0.822  0.00  0.00     0.011 C 
ATOM     21  C   UNL d   1      23.050 -16.778  -0.894  0.00  0.00     0.001 C 
ATOM     22  C   UNL d   1      22.853 -18.136  -0.758  0.00  0.00     0.000 C 
ATOM     23  C   UNL d   1      23.928 -18.948  -0.413  0.00  0.00     0.001 C 
ATOM     24  C   UNL d   1      25.185 -18.391  -0.144  0.00  0.00     0.011 C 
ENDBRANCH   1  19
TORSDOF 5
ENDMDL
MODEL 9
REMARK VINA RESULT:    -6.300      2.581      5.023
REMARK INTER + INTRA:         -10.688
REMARK INTER:                  -7.792
REMARK INTRA:                  -2.897
REMARK CONF_INDEPENDENT:        1.492
REMARK UNBOUND:                -2.897
REMARK  5 active torsions:
REMARK  status: ('A' for Active; 'I' for Inactive)
REMARK       I    between atoms: C_2  and  N_4 
REMARK    1  A    between atoms: N_4  and  N_5 
REMARK       I    between atoms: N_5  and  C_6 
REMARK    2  A    between atoms: C_6  and  C_8 
REMARK    3  A    between atoms: C_8  and  O_9 
REMARK    4  A    between atoms: C_8  and  C_10 
REMARK    5  A    between atoms: C_8  and  C_16 
ROOT
ATOM      1  C   UNL d   1      27.374 -16.382  -0.519  0.00  0.00     0.195 C 
ENDROOT
BRANCH   1   2
ATOM      2  C   UNL d   1      26.279 -17.516  -0.113  0.00  0.00     0.280 C 
ATOM      3  N   UNL d   1      24.965 -17.336  -0.553  0.00  0.00    -0.264 N 
ATOM      4  H   UNL d   1      24.616 -16.486  -0.989  0.00  0.00     0.190 HD
ATOM      5  O   UNL d   1      26.544 -18.536   0.533  0.00  0.00    -0.268 OA
BRANCH   3   6
ATOM      6  N   UNL d   1      23.965 -18.171   0.006  0.00  0.00    -0.268 N 
ATOM      7  C   UNL d   1      22.638 -17.899  -0.268  0.00  0.00     0.232 C 
ATOM      8  C   UNL d   1      21.671 -18.951   0.226  0.00  0.00     0.119 C 
ATOM      9  O   UNL d   1      22.281 -16.905  -0.884  0.00  0.00    -0.272 OA
ATOM     10  H   UNL d   1      24.291 -18.947   0.579  0.00  0.00     0.190 HD
ENDBRANCH   3   6
ENDBRANCH   1   2
BRANCH   1  11
ATOM     11  O   UNL d   1      28.690 -16.958  -0.371  0.00  0.00    -0.371 OA
ATOM     12  H   UNL d   1      28.607 -17.776   0.141  0.00  0.00     0.212 HD
ENDBRANCH   1  11
BRANCH   1  13
ATOM     13  C   UNL d   1      27.255 -15.962  -2.012  0.00  0.00    -0.010 C 
ATOM     14  C   UNL d   1      26.039 -15.559  -2.581  0.00  0.00     0.011 C 
ATOM     15  C   UNL d   1      25.927 -15.200  -3.922  0.00  0.00     0.001 C 
ATOM     16  C   UNL d   1      27.063 -15.049  -4.697  0.00  0.00     0.000 C 
ATOM     17  C   UNL d   1      28.283 -15.442  -4.182  0.00  0.00     0.001 C 
ATOM     18  C   UNL d   1      28.332 -16.031  -2.918  0.00  0.00     0.011 C 
ENDBRANCH   1  13
BRANCH   1  19
ATOM     19  C   UNL d   1      27.313 -15.233   0.543  0.00  0.00    -0.010 C 
ATOM     20  C   UNL d   1      28.000 -15.199   1.775  0.00  0.00     0.011 C 
ATOM     21  C   UNL d   1      27.780 -14.221   2.745  0.00  0.00     0.001 C 
ATOM     22  C   UNL d   1      27.061 -13.094   2.407  0.00  0.00     0.000 C 
ATOM     23  C   UNL d   1      26.456 -13.023   1.157  0.00  0.00     0.001 C 
ATOM     24  C   UNL d   1      26.519 -14.106   0.271  0.00  0.00     0.011 C 
ENDBRANCH   1  19
TORSDOF 5
ENDMDL
