MODEL 1
REMARK VINA RESULT:   -29.739      0.000      0.000
REMARK INTER + INTRA:         -32.342
REMARK INTER:                 -31.827
REMARK INTRA:                  -0.515
REMARK CONF_INDEPENDENT:        2.088
REMARK UNBOUND:                -0.515
REMARK  7 active torsions:
REMARK  status: ('A' for Active; 'I' for Inactive)
REMARK    1  A    between atoms: C_2  and  N_3 
REMARK    2  A    between atoms: C_4  and  S_5 
REMARK    3  A    between atoms: S_5  and  C_6 
REMARK    4  A    between atoms: C_6  and  C_7 
REMARK       I    between atoms: C_7  and  N_9 
REMARK       I    between atoms: N_9  and  C_10 
REMARK       I    between atoms: C_10  and  N_12 
REMARK    5  A    between atoms: N_12  and  C_13 
REMARK    6  A    between atoms: C_13  and  C_14 
REMARK    7  A    between atoms: C_27  and  N_28 
ROOT
ATOM      1  S   UNL d   1      24.961 -15.515  -1.412  0.00  0.00    -0.082 SA
ENDROOT
BRANCH   1   2
ATOM      2  C   UNL d   1      23.780 -16.822  -1.123  0.00  0.00     0.173 A 
ATOM      3  N   UNL d   1      24.147 -18.178  -0.686  0.00  0.00    -0.312 N 
ATOM      4  C   UNL d   1      23.219 -19.134  -0.513  0.00  0.00     0.120 A 
ATOM      5  C   UNL d   1      21.850 -18.783  -0.707  0.00  0.00     0.089 A 
ATOM      6  C   UNL d   1      20.605 -19.443  -0.591  0.00  0.00     0.076 A 
ATOM      7  C   UNL d   1      21.616 -17.492  -1.093  0.00  0.00     0.212 A 
ATOM      8  N   UNL d   1      19.631 -18.576  -0.897  0.00  0.00    -0.130 NA
ATOM      9  C   UNL d   1      20.233 -20.842  -0.207  0.00  0.00     0.074 C 
ATOM     10  O   UNL d   1      20.254 -17.369  -1.209  0.00  0.00    -0.192 OA
ATOM     11  N   UNL d   1      22.528 -16.508  -1.319  0.00  0.00    -0.197 NA
BRANCH   3  12
ATOM     12  C   UNL d   1      25.509 -18.559  -0.368  0.00  0.00     0.128 C 
ATOM     13  C   UNL d   1      26.160 -17.500   0.496  0.00  0.00     0.027 C 
ENDBRANCH   3  12
BRANCH   4  14
ATOM     14  N   UNL d   1      23.492 -20.372  -0.145  0.00  0.00    -0.384 N 
ATOM     15  H   UNL d   1      22.956 -20.854   0.561  0.00  0.00     0.157 HD
ATOM     16  H   UNL d   1      24.242 -20.911  -0.550  0.00  0.00     0.157 HD
ENDBRANCH   4  14
ENDBRANCH   1   2
BRANCH   1  17
ATOM     17  C   UNL d   1      24.779 -14.578  -2.986  0.00  0.00     0.185 C 
BRANCH  17  18
ATOM     18  C   UNL d   1      25.774 -14.926  -4.093  0.00  0.00     0.235 C 
ATOM     19  O   UNL d   1      25.366 -15.143  -5.231  0.00  0.00    -0.272 OA
ATOM     20  N   UNL d   1      27.127 -14.987  -3.712  0.00  0.00    -0.279 N 
ATOM     21  C   UNL d   1      28.116 -15.298  -4.627  0.00  0.00     0.323 C 
ATOM     22  H   UNL d   1      27.419 -14.804  -2.764  0.00  0.00     0.173 HD
ATOM     23  O   UNL d   1      27.901 -15.560  -5.811  0.00  0.00    -0.247 OA
ATOM     24  N   UNL d   1      29.409 -15.293  -4.154  0.00  0.00    -0.339 N 
ATOM     25  H   UNL d   1      29.613 -15.169  -3.181  0.00  0.00     0.164 HD
BRANCH  24  26
ATOM     26  C   UNL d   1      30.508 -15.629  -5.079  0.00  0.00     0.162 C 
BRANCH  26  27
ATOM     27  C   UNL d   1      30.664 -17.093  -5.447  0.00  0.00    -0.040 C 
ATOM     28  C   UNL d   1      30.917 -18.082  -4.492  0.00  0.00     0.009 C 
ATOM     29  C   UNL d   1      30.758 -19.431  -4.799  0.00  0.00     0.001 C 
ATOM     30  C   UNL d   1      30.617 -19.832  -6.119  0.00  0.00     0.000 C 
ATOM     31  C   UNL d   1      30.513 -18.871  -7.120  0.00  0.00     0.001 C 
ATOM     32  C   UNL d   1      30.450 -17.514  -6.777  0.00  0.00     0.009 C 
ENDBRANCH  26  27
ENDBRANCH  24  26
ENDBRANCH  17  18
ENDBRANCH   1  17
TORSDOF 7
ENDMDL
MODEL 2
REMARK VINA RESULT:   -28.724      1.574      2.132
REMARK INTER + INTRA:         -31.231
REMARK INTER:                 -30.812
REMARK INTRA:                  -0.419
REMARK CONF_INDEPENDENT:        2.088
REMARK UNBOUND:                -0.419
REMARK  7 active torsions:
REMARK  status: ('A' for Active; 'I' for Inactive)
REMARK    1  A    between atoms: C_2  and  N_3 
REMARK    2  A    between atoms: C_4  and  S_5 
REMARK    3  A    between atoms: S_5  and  C_6 
REMARK    4  A    between atoms: C_6  and  C_7 
REMARK       I    between atoms: C_7  and  N_9 
REMARK       I    between atoms: N_9  and  C_10 
REMARK       I    between atoms: C_10  and  N_12 
REMARK    5  A    between atoms: N_12  and  C_13 
REMARK    6  A    between atoms: C_13  and  C_14 
REMARK    7  A    between atoms: C_27  and  N_28 
ROOT
ATOM      1  S   UNL d   1      24.916 -15.411  -1.334  0.00  0.00    -0.082 SA
ENDROOT
BRANCH   1   2
ATOM      2  C   UNL d   1      23.758 -16.744  -1.071  0.00  0.00     0.173 A 
ATOM      3  N   UNL d   1      24.147 -18.098  -0.651  0.00  0.00    -0.312 N 
ATOM      4  C   UNL d   1      23.235 -19.074  -0.497  0.00  0.00     0.120 A 
ATOM      5  C   UNL d   1      21.862 -18.745  -0.695  0.00  0.00     0.089 A 
ATOM      6  C   UNL d   1      20.628 -19.429  -0.595  0.00  0.00     0.076 A 
ATOM      7  C   UNL d   1      21.606 -17.454  -1.063  0.00  0.00     0.212 A 
ATOM      8  N   UNL d   1      19.640 -18.576  -0.895  0.00  0.00    -0.130 NA
ATOM      9  C   UNL d   1      20.280 -20.840  -0.233  0.00  0.00     0.074 C 
ATOM     10  O   UNL d   1      20.243 -17.353  -1.186  0.00  0.00    -0.192 OA
ATOM     11  N   UNL d   1      22.501 -16.450  -1.270  0.00  0.00    -0.197 NA
BRANCH   3  12
ATOM     12  C   UNL d   1      25.514 -18.459  -0.330  0.00  0.00     0.128 C 
ATOM     13  C   UNL d   1      25.882 -17.941   1.044  0.00  0.00     0.027 C 
ENDBRANCH   3  12
BRANCH   4  14
ATOM     14  N   UNL d   1      23.529 -20.311  -0.145  0.00  0.00    -0.384 N 
ATOM     15  H   UNL d   1      24.301 -20.818  -0.552  0.00  0.00     0.157 HD
ATOM     16  H   UNL d   1      23.009 -20.821   0.553  0.00  0.00     0.157 HD
ENDBRANCH   4  14
ENDBRANCH   1   2
BRANCH   1  17
ATOM     17  C   UNL d   1      24.708 -14.436  -2.883  0.00  0.00     0.185 C 
BRANCH  17  18
ATOM     18  C   UNL d   1      25.595 -14.847  -4.057  0.00  0.00     0.235 C 
ATOM     19  O   UNL d   1      25.540 -15.996  -4.488  0.00  0.00    -0.272 OA
ATOM     20  N   UNL d   1      26.447 -13.850  -4.568  0.00  0.00    -0.279 N 
ATOM     21  C   UNL d   1      27.298 -14.107  -5.627  0.00  0.00     0.323 C 
ATOM     22  H   UNL d   1      26.461 -12.917  -4.183  0.00  0.00     0.173 HD
ATOM     23  O   UNL d   1      27.395 -15.202  -6.181  0.00  0.00    -0.247 OA
ATOM     24  N   UNL d   1      28.058 -13.049  -6.070  0.00  0.00    -0.339 N 
ATOM     25  H   UNL d   1      28.069 -12.170  -5.590  0.00  0.00     0.164 HD
BRANCH  24  26
ATOM     26  C   UNL d   1      28.996 -13.263  -7.189  0.00  0.00     0.162 C 
BRANCH  26  27
ATOM     27  C   UNL d   1      30.165 -14.194  -6.928  0.00  0.00    -0.040 C 
ATOM     28  C   UNL d   1      30.029 -15.585  -6.928  0.00  0.00     0.009 C 
ATOM     29  C   UNL d   1      31.146 -16.415  -6.988  0.00  0.00     0.001 C 
ATOM     30  C   UNL d   1      32.412 -15.892  -6.770  0.00  0.00     0.000 C 
ATOM     31  C   UNL d   1      32.569 -14.518  -6.614  0.00  0.00     0.001 C 
ATOM     32  C   UNL d   1      31.467 -13.669  -6.778  0.00  0.00     0.009 C 
ENDBRANCH  26  27
ENDBRANCH  24  26
ENDBRANCH  17  18
ENDBRANCH   1  17
TORSDOF 7
ENDMDL
MODEL 3
REMARK VINA RESULT:   -28.636      3.549      5.993
REMARK INTER + INTRA:         -31.082
REMARK INTER:                 -30.724
REMARK INTRA:                  -0.358
REMARK CONF_INDEPENDENT:        2.088
REMARK UNBOUND:                -0.358
REMARK  7 active torsions:
REMARK  status: ('A' for Active; 'I' for Inactive)
REMARK    1  A    between atoms: C_2  and  N_3 
REMARK    2  A    between atoms: C_4  and  S_5 
REMARK    3  A    between atoms: S_5  and  C_6 
REMARK    4  A    between atoms: C_6  and  C_7 
REMARK       I    between atoms: C_7  and  N_9 
REMARK       I    between atoms: N_9  and  C_10 
REMARK       I    between atoms: C_10  and  N_12 
REMARK    5  A    between atoms: N_12  and  C_13 
REMARK    6  A    between atoms: C_13  and  C_14 
REMARK    7  A    between atoms: C_27  and  N_28 
ROOT
ATOM      1  S   UNL d   1      25.012 -15.502  -1.323  0.00  0.00    -0.082 SA
ENDROOT
BRANCH   1   2
ATOM      2  C   UNL d   1      23.831 -16.815  -1.063  0.00  0.00     0.173 A 
ATOM      3  N   UNL d   1      24.196 -18.176  -0.645  0.00  0.00    -0.312 N 
ATOM      4  C   UNL d   1      23.267 -19.136  -0.494  0.00  0.00     0.120 A 
ATOM      5  C   UNL d   1      21.900 -18.783  -0.693  0.00  0.00     0.089 A 
ATOM      6  C   UNL d   1      20.654 -19.446  -0.596  0.00  0.00     0.076 A 
ATOM      7  C   UNL d   1      21.667 -17.487  -1.059  0.00  0.00     0.212 A 
ATOM      8  N   UNL d   1      19.682 -18.574  -0.896  0.00  0.00    -0.130 NA
ATOM      9  C   UNL d   1      20.280 -20.851  -0.237  0.00  0.00     0.074 C 
ATOM     10  O   UNL d   1      20.306 -17.362  -1.183  0.00  0.00    -0.192 OA
ATOM     11  N   UNL d   1      22.580 -16.498  -1.264  0.00  0.00    -0.197 NA
BRANCH   3  12
ATOM     12  C   UNL d   1      25.556 -18.562  -0.323  0.00  0.00     0.128 C 
ATOM     13  C   UNL d   1      26.183 -17.541   0.602  0.00  0.00     0.027 C 
ENDBRANCH   3  12
BRANCH   4  14
ATOM     14  N   UNL d   1      23.538 -20.379  -0.144  0.00  0.00    -0.384 N 
ATOM     15  H   UNL d   1      23.020 -20.861   0.575  0.00  0.00     0.157 HD
ATOM     16  H   UNL d   1      24.270 -20.923  -0.576  0.00  0.00     0.157 HD
ENDBRANCH   4  14
ENDBRANCH   1   2
BRANCH   1  17
ATOM     17  C   UNL d   1      26.457 -15.898  -2.395  0.00  0.00     0.185 C 
BRANCH  17  18
ATOM     18  C   UNL d   1      26.589 -15.070  -3.673  0.00  0.00     0.235 C 
ATOM     19  O   UNL d   1      27.148 -15.553  -4.654  0.00  0.00    -0.272 OA
ATOM     20  N   UNL d   1      26.055 -13.769  -3.627  0.00  0.00    -0.279 N 
ATOM     21  C   UNL d   1      26.121 -12.927  -4.722  0.00  0.00     0.323 C 
ATOM     22  H   UNL d   1      25.604 -13.410  -2.798  0.00  0.00     0.173 HD
ATOM     23  O   UNL d   1      26.655 -13.228  -5.789  0.00  0.00    -0.247 OA
ATOM     24  N   UNL d   1      25.533 -11.691  -4.578  0.00  0.00    -0.339 N 
ATOM     25  H   UNL d   1      25.166 -11.381  -3.699  0.00  0.00     0.164 HD
BRANCH  24  26
ATOM     26  C   UNL d   1      25.581 -10.742  -5.707  0.00  0.00     0.162 C 
BRANCH  26  27
ATOM     27  C   UNL d   1      25.376  -9.277  -5.373  0.00  0.00    -0.040 C 
ATOM     28  C   UNL d   1      24.628  -8.421  -6.186  0.00  0.00     0.009 C 
ATOM     29  C   UNL d   1      24.202  -7.180  -5.720  0.00  0.00     0.001 C 
ATOM     30  C   UNL d   1      24.740  -6.653  -4.556  0.00  0.00     0.000 C 
ATOM     31  C   UNL d   1      25.613  -7.424  -3.794  0.00  0.00     0.001 C 
ATOM     32  C   UNL d   1      25.860  -8.755  -4.154  0.00  0.00     0.009 C 
ENDBRANCH  26  27
ENDBRANCH  24  26
ENDBRANCH  17  18
ENDBRANCH   1  17
TORSDOF 7
ENDMDL
MODEL 4
REMARK VINA RESULT:   -28.332      4.728      7.029
REMARK INTER + INTRA:         -30.766
REMARK INTER:                 -30.420
REMARK INTRA:                  -0.345
REMARK CONF_INDEPENDENT:        2.088
REMARK UNBOUND:                -0.345
REMARK  7 active torsions:
REMARK  status: ('A' for Active; 'I' for Inactive)
REMARK    1  A    between atoms: C_2  and  N_3 
REMARK    2  A    between atoms: C_4  and  S_5 
REMARK    3  A    between atoms: S_5  and  C_6 
REMARK    4  A    between atoms: C_6  and  C_7 
REMARK       I    between atoms: C_7  and  N_9 
REMARK       I    between atoms: N_9  and  C_10 
REMARK       I    between atoms: C_10  and  N_12 
REMARK    5  A    between atoms: N_12  and  C_13 
REMARK    6  A    between atoms: C_13  and  C_14 
REMARK    7  A    between atoms: C_27  and  N_28 
ROOT
ATOM      1  S   UNL d   1      24.944 -15.479  -1.283  0.00  0.00    -0.082 SA
ENDROOT
BRANCH   1   2
ATOM      2  C   UNL d   1      23.769 -16.802  -1.053  0.00  0.00     0.173 A 
ATOM      3  N   UNL d   1      24.139 -18.171  -0.666  0.00  0.00    -0.312 N 
ATOM      4  C   UNL d   1      23.214 -19.138  -0.535  0.00  0.00     0.120 A 
ATOM      5  C   UNL d   1      21.845 -18.786  -0.726  0.00  0.00     0.089 A 
ATOM      6  C   UNL d   1      20.602 -19.455  -0.643  0.00  0.00     0.076 A 
ATOM      7  C   UNL d   1      21.607 -17.482  -1.063  0.00  0.00     0.212 A 
ATOM      8  N   UNL d   1      19.626 -18.581  -0.923  0.00  0.00    -0.130 NA
ATOM      9  C   UNL d   1      20.234 -20.869  -0.316  0.00  0.00     0.074 C 
ATOM     10  O   UNL d   1      20.246 -17.360  -1.184  0.00  0.00    -0.192 OA
ATOM     11  N   UNL d   1      22.516 -16.486  -1.245  0.00  0.00    -0.197 NA
BRANCH   3  12
ATOM     12  C   UNL d   1      25.501 -18.558  -0.352  0.00  0.00     0.128 C 
ATOM     13  C   UNL d   1      25.828 -18.203   1.082  0.00  0.00     0.027 C 
ENDBRANCH   3  12
BRANCH   4  14
ATOM     14  N   UNL d   1      23.490 -20.387  -0.214  0.00  0.00    -0.384 N 
ATOM     15  H   UNL d   1      24.109 -20.961  -0.767  0.00  0.00     0.157 HD
ATOM     16  H   UNL d   1      23.110 -20.840   0.603  0.00  0.00     0.157 HD
ENDBRANCH   4  14
ENDBRANCH   1   2
BRANCH   1  17
ATOM     17  C   UNL d   1      26.642 -15.767  -0.631  0.00  0.00     0.185 C 
BRANCH  17  18
ATOM     18  C   UNL d   1      27.218 -14.659   0.250  0.00  0.00     0.235 C 
ATOM     19  O   UNL d   1      26.709 -13.541   0.232  0.00  0.00    -0.272 OA
ATOM     20  N   UNL d   1      28.334 -15.008   1.034  0.00  0.00    -0.279 N 
ATOM     21  C   UNL d   1      28.942 -14.086   1.866  0.00  0.00     0.323 C 
ATOM     22  H   UNL d   1      28.723 -15.939   1.017  0.00  0.00     0.173 HD
ATOM     23  O   UNL d   1      28.583 -12.913   1.972  0.00  0.00    -0.247 OA
ATOM     24  N   UNL d   1      30.001 -14.546   2.615  0.00  0.00    -0.339 N 
ATOM     25  H   UNL d   1      30.374 -15.468   2.491  0.00  0.00     0.164 HD
BRANCH  24  26
ATOM     26  C   UNL d   1      30.701 -13.607   3.513  0.00  0.00     0.162 C 
BRANCH  26  27
ATOM     27  C   UNL d   1      30.057 -13.347   4.862  0.00  0.00    -0.040 C 
ATOM     28  C   UNL d   1      30.046 -12.082   5.455  0.00  0.00     0.009 C 
ATOM     29  C   UNL d   1      29.204 -11.800   6.527  0.00  0.00     0.001 C 
ATOM     30  C   UNL d   1      28.569 -12.832   7.202  0.00  0.00     0.000 C 
ATOM     31  C   UNL d   1      28.681 -14.134   6.724  0.00  0.00     0.001 C 
ATOM     32  C   UNL d   1      29.348 -14.377   5.516  0.00  0.00     0.009 C 
ENDBRANCH  26  27
ENDBRANCH  24  26
ENDBRANCH  17  18
ENDBRANCH   1  17
TORSDOF 7
ENDMDL
MODEL 5
REMARK VINA RESULT:   -27.753      3.165      4.376
REMARK INTER + INTRA:         -30.297
REMARK INTER:                 -29.841
REMARK INTRA:                  -0.455
REMARK CONF_INDEPENDENT:        2.088
REMARK UNBOUND:                -0.455
REMARK  7 active torsions:
REMARK  status: ('A' for Active; 'I' for Inactive)
REMARK    1  A    between atoms: C_2  and  N_3 
REMARK    2  A    between atoms: C_4  and  S_5 
REMARK    3  A    between atoms: S_5  and  C_6 
REMARK    4  A    between atoms: C_6  and  C_7 
REMARK       I    between atoms: C_7  and  N_9 
REMARK       I    between atoms: N_9  and  C_10 
REMARK       I    between atoms: C_10  and  N_12 
REMARK    5  A    between atoms: N_12  and  C_13 
REMARK    6  A    between atoms: C_13  and  C_14 
REMARK    7  A    between atoms: C_27  and  N_28 
ROOT
ATOM      1  S   UNL d   1      24.902 -15.437  -1.400  0.00  0.00    -0.082 SA
ENDROOT
BRANCH   1   2
ATOM      2  C   UNL d   1      23.741 -16.762  -1.115  0.00  0.00     0.173 A 
ATOM      3  N   UNL d   1      24.127 -18.113  -0.680  0.00  0.00    -0.312 N 
ATOM      4  C   UNL d   1      23.213 -19.084  -0.510  0.00  0.00     0.120 A 
ATOM      5  C   UNL d   1      21.840 -18.753  -0.706  0.00  0.00     0.089 A 
ATOM      6  C   UNL d   1      20.605 -19.432  -0.592  0.00  0.00     0.076 A 
ATOM      7  C   UNL d   1      21.587 -17.465  -1.089  0.00  0.00     0.212 A 
ATOM      8  N   UNL d   1      19.618 -18.579  -0.899  0.00  0.00    -0.130 NA
ATOM      9  C   UNL d   1      20.253 -20.837  -0.212  0.00  0.00     0.074 C 
ATOM     10  O   UNL d   1      20.223 -17.362  -1.207  0.00  0.00    -0.192 OA
ATOM     11  N   UNL d   1      22.484 -16.467  -1.313  0.00  0.00    -0.197 NA
BRANCH   3  12
ATOM     12  C   UNL d   1      25.495 -18.474  -0.361  0.00  0.00     0.128 C 
ATOM     13  C   UNL d   1      25.901 -17.863   0.963  0.00  0.00     0.027 C 
ENDBRANCH   3  12
BRANCH   4  14
ATOM     14  N   UNL d   1      23.504 -20.318  -0.144  0.00  0.00    -0.384 N 
ATOM     15  H   UNL d   1      22.982 -20.805   0.569  0.00  0.00     0.157 HD
ATOM     16  H   UNL d   1      24.256 -20.848  -0.557  0.00  0.00     0.157 HD
ENDBRANCH   4  14
ENDBRANCH   1   2
BRANCH   1  17
ATOM     17  C   UNL d   1      26.381 -15.846  -2.418  0.00  0.00     0.185 C 
BRANCH  17  18
ATOM     18  C   UNL d   1      27.033 -14.675  -3.153  0.00  0.00     0.235 C 
ATOM     19  O   UNL d   1      28.248 -14.510  -3.077  0.00  0.00    -0.272 OA
ATOM     20  N   UNL d   1      26.164 -13.836  -3.876  0.00  0.00    -0.279 N 
ATOM     21  C   UNL d   1      26.640 -12.743  -4.576  0.00  0.00     0.323 C 
ATOM     22  H   UNL d   1      25.170 -14.007  -3.910  0.00  0.00     0.173 HD
ATOM     23  O   UNL d   1      27.825 -12.409  -4.607  0.00  0.00    -0.247 OA
ATOM     24  N   UNL d   1      25.708 -12.015  -5.278  0.00  0.00    -0.339 N 
ATOM     25  H   UNL d   1      24.726 -12.206  -5.206  0.00  0.00     0.164 HD
BRANCH  24  26
ATOM     26  C   UNL d   1      26.151 -10.828  -6.035  0.00  0.00     0.162 C 
BRANCH  26  27
ATOM     27  C   UNL d   1      26.948 -11.086  -7.300  0.00  0.00    -0.040 C 
ATOM     28  C   UNL d   1      27.083 -10.128  -8.309  0.00  0.00     0.009 C 
ATOM     29  C   UNL d   1      28.048 -10.265  -9.303  0.00  0.00     0.001 C 
ATOM     30  C   UNL d   1      28.701 -11.477  -9.475  0.00  0.00     0.000 C 
ATOM     31  C   UNL d   1      28.475 -12.512  -8.572  0.00  0.00     0.001 C 
ATOM     32  C   UNL d   1      27.672 -12.289  -7.446  0.00  0.00     0.009 C 
ENDBRANCH  26  27
ENDBRANCH  24  26
ENDBRANCH  17  18
ENDBRANCH   1  17
TORSDOF 7
ENDMDL
