MODEL 1
REMARK VINA RESULT:    -7.052      0.000      0.000
REMARK INTER + INTRA:          -9.890
REMARK INTER:                  -8.543
REMARK INTRA:                  -1.346
REMARK CONF_INDEPENDENT:        1.492
REMARK UNBOUND:                -1.346
REMARK  5 active torsions:
REMARK  status: ('A' for Active; 'I' for Inactive)
REMARK    1  A    between atoms: S_2  and  C_3 
REMARK    2  A    between atoms: C_7  and  N_8 
REMARK       I    between atoms: N_8  and  C_9 
REMARK    3  A    between atoms: C_9  and  C_11 
REMARK    4  A    between atoms: C_11  and  N_13 
REMARK    5  A    between atoms: N_13  and  C_14 
ROOT
ATOM      1  N   UNL d   1      26.407 -15.131  -2.507  0.00  0.00    -0.325 N 
ATOM      2  C   UNL d   1      25.665 -14.380  -3.443  0.00  0.00     0.244 C 
ATOM      3  O   UNL d   1      24.468 -14.450  -3.657  0.00  0.00    -0.271 OA
ATOM      4  H   UNL d   1      27.394 -14.936  -2.383  0.00  0.00     0.169 HD
ENDROOT
BRANCH   2   5
ATOM      5  C   UNL d   1      26.509 -13.419  -4.292  0.00  0.00     0.170 C 
ATOM      6  C   UNL d   1      27.029 -14.321  -5.382  0.00  0.00     0.042 C 
BRANCH   5   7
ATOM      7  N   UNL d   1      25.632 -12.342  -4.828  0.00  0.00    -0.377 N 
ATOM      8  H   UNL d   1      24.653 -12.646  -4.880  0.00  0.00     0.160 HD
BRANCH   7   9
ATOM      9  C   UNL d   1      25.827 -10.966  -4.764  0.00  0.00     0.034 A 
ATOM     10  C   UNL d   1      25.720 -10.312  -3.520  0.00  0.00     0.029 A 
ATOM     11  C   UNL d   1      25.829  -8.912  -3.405  0.00  0.00     0.002 A 
ATOM     12  C   UNL d   1      26.122  -8.134  -4.513  0.00  0.00     0.001 A 
ATOM     13  C   UNL d   1      26.257  -8.746  -5.738  0.00  0.00     0.009 A 
ATOM     14  C   UNL d   1      26.102 -10.133  -5.873  0.00  0.00    -0.036 A 
ATOM     15  C   UNL d   1      26.280 -10.572  -7.283  0.00  0.00     0.050 C 
ENDBRANCH   7   9
ENDBRANCH   5   7
ENDBRANCH   2   5
BRANCH   1  16
ATOM     16  C   UNL d   1      25.875 -16.166  -1.717  0.00  0.00     0.036 A 
ATOM     17  C   UNL d   1      26.714 -17.002  -0.972  0.00  0.00     0.029 A 
ATOM     18  C   UNL d   1      26.143 -17.957  -0.120  0.00  0.00     0.004 A 
ATOM     19  C   UNL d   1      24.751 -18.094  -0.032  0.00  0.00     0.018 A 
ATOM     20  C   UNL d   1      23.922 -17.236  -0.739  0.00  0.00     0.002 A 
ATOM     21  C   UNL d   1      24.497 -16.337  -1.620  0.00  0.00     0.048 A 
BRANCH  20  22
ATOM     22  S   UNL d   1      22.155 -17.193  -0.520  0.00  0.00    -0.134 SA
ATOM     23  C   UNL d   1      21.756 -18.941  -0.895  0.00  0.00     0.095 C 
ENDBRANCH  20  22
ENDBRANCH   1  16
TORSDOF 5
ENDMDL
MODEL 2
REMARK VINA RESULT:    -7.011      0.479      1.597
REMARK INTER + INTRA:          -9.866
REMARK INTER:                  -8.503
REMARK INTRA:                  -1.363
REMARK CONF_INDEPENDENT:        1.492
REMARK UNBOUND:                -1.363
REMARK  5 active torsions:
REMARK  status: ('A' for Active; 'I' for Inactive)
REMARK    1  A    between atoms: S_2  and  C_3 
REMARK    2  A    between atoms: C_7  and  N_8 
REMARK       I    between atoms: N_8  and  C_9 
REMARK    3  A    between atoms: C_9  and  C_11 
REMARK    4  A    between atoms: C_11  and  N_13 
REMARK    5  A    between atoms: N_13  and  C_14 
ROOT
ATOM      1  N   UNL d   1      26.391 -15.086  -2.549  0.00  0.00    -0.325 N 
ATOM      2  C   UNL d   1      25.645 -14.362  -3.502  0.00  0.00     0.244 C 
ATOM      3  O   UNL d   1      24.450 -14.450  -3.721  0.00  0.00    -0.271 OA
ATOM      4  H   UNL d   1      27.375 -14.878  -2.423  0.00  0.00     0.169 HD
ENDROOT
BRANCH   2   5
ATOM      5  C   UNL d   1      26.483 -13.408  -4.366  0.00  0.00     0.170 C 
ATOM      6  C   UNL d   1      27.119 -14.346  -5.361  0.00  0.00     0.042 C 
BRANCH   5   7
ATOM      7  N   UNL d   1      25.580 -12.425  -5.024  0.00  0.00    -0.377 N 
ATOM      8  H   UNL d   1      24.607 -12.545  -4.719  0.00  0.00     0.160 HD
BRANCH   7   9
ATOM      9  C   UNL d   1      25.899 -11.164  -5.517  0.00  0.00     0.034 A 
ATOM     10  C   UNL d   1      26.280 -11.029  -6.868  0.00  0.00     0.029 A 
ATOM     11  C   UNL d   1      26.691  -9.793  -7.404  0.00  0.00     0.002 A 
ATOM     12  C   UNL d   1      26.661  -8.643  -6.630  0.00  0.00     0.001 A 
ATOM     13  C   UNL d   1      26.270  -8.739  -5.315  0.00  0.00     0.009 A 
ATOM     14  C   UNL d   1      25.907  -9.972  -4.757  0.00  0.00    -0.036 A 
ATOM     15  C   UNL d   1      25.532  -9.839  -3.324  0.00  0.00     0.050 C 
ENDBRANCH   7   9
ENDBRANCH   5   7
ENDBRANCH   2   5
BRANCH   1  16
ATOM     16  C   UNL d   1      25.866 -16.111  -1.741  0.00  0.00     0.036 A 
ATOM     17  C   UNL d   1      26.712 -16.930  -0.985  0.00  0.00     0.029 A 
ATOM     18  C   UNL d   1      26.148 -17.875  -0.116  0.00  0.00     0.004 A 
ATOM     19  C   UNL d   1      24.758 -18.019  -0.024  0.00  0.00     0.018 A 
ATOM     20  C   UNL d   1      23.922 -17.177  -0.743  0.00  0.00     0.002 A 
ATOM     21  C   UNL d   1      24.489 -16.289  -1.639  0.00  0.00     0.048 A 
BRANCH  20  22
ATOM     22  S   UNL d   1      22.155 -17.142  -0.520  0.00  0.00    -0.134 SA
ATOM     23  C   UNL d   1      21.779 -18.918  -0.757  0.00  0.00     0.095 C 
ENDBRANCH  20  22
ENDBRANCH   1  16
TORSDOF 5
ENDMDL
MODEL 3
REMARK VINA RESULT:    -6.865      2.259      4.763
REMARK INTER + INTRA:          -9.418
REMARK INTER:                  -8.357
REMARK INTRA:                  -1.061
REMARK CONF_INDEPENDENT:        1.492
REMARK UNBOUND:                -1.061
REMARK  5 active torsions:
REMARK  status: ('A' for Active; 'I' for Inactive)
REMARK    1  A    between atoms: S_2  and  C_3 
REMARK    2  A    between atoms: C_7  and  N_8 
REMARK       I    between atoms: N_8  and  C_9 
REMARK    3  A    between atoms: C_9  and  C_11 
REMARK    4  A    between atoms: C_11  and  N_13 
REMARK    5  A    between atoms: N_13  and  C_14 
ROOT
ATOM      1  N   UNL d   1      26.214 -15.947  -2.778  0.00  0.00    -0.325 N 
ATOM      2  C   UNL d   1      25.568 -14.916  -3.493  0.00  0.00     0.244 C 
ATOM      3  O   UNL d   1      24.433 -14.506  -3.324  0.00  0.00    -0.271 OA
ATOM      4  H   UNL d   1      27.185 -16.157  -2.976  0.00  0.00     0.169 HD
ENDROOT
BRANCH   2   5
ATOM      5  C   UNL d   1      26.408 -14.312  -4.626  0.00  0.00     0.170 C 
ATOM      6  C   UNL d   1      25.949 -12.876  -4.640  0.00  0.00     0.042 C 
BRANCH   5   7
ATOM      7  N   UNL d   1      27.851 -14.433  -4.281  0.00  0.00    -0.377 N 
ATOM      8  H   UNL d   1      28.026 -14.184  -3.301  0.00  0.00     0.160 HD
BRANCH   7   9
ATOM      9  C   UNL d   1      28.806 -15.260  -4.866  0.00  0.00     0.034 A 
ATOM     10  C   UNL d   1      29.126 -15.085  -6.228  0.00  0.00     0.029 A 
ATOM     11  C   UNL d   1      30.025 -15.941  -6.895  0.00  0.00     0.002 A 
ATOM     12  C   UNL d   1      30.685 -16.946  -6.207  0.00  0.00     0.001 A 
ATOM     13  C   UNL d   1      30.411 -17.126  -4.871  0.00  0.00     0.009 A 
ATOM     14  C   UNL d   1      29.481 -16.313  -4.208  0.00  0.00    -0.036 A 
ATOM     15  C   UNL d   1      29.338 -16.694  -2.777  0.00  0.00     0.050 C 
ENDBRANCH   7   9
ENDBRANCH   5   7
ENDBRANCH   2   5
BRANCH   1  16
ATOM     16  C   UNL d   1      25.598 -16.737  -1.790  0.00  0.00     0.036 A 
ATOM     17  C   UNL d   1      26.333 -17.228  -0.706  0.00  0.00     0.029 A 
ATOM     18  C   UNL d   1      25.665 -17.927   0.309  0.00  0.00     0.004 A 
ATOM     19  C   UNL d   1      24.285 -18.157   0.229  0.00  0.00     0.018 A 
ATOM     20  C   UNL d   1      23.553 -17.632  -0.826  0.00  0.00     0.002 A 
ATOM     21  C   UNL d   1      24.231 -16.995  -1.850  0.00  0.00     0.048 A 
BRANCH  20  22
ATOM     22  S   UNL d   1      21.774 -17.685  -0.895  0.00  0.00    -0.134 SA
ATOM     23  C   UNL d   1      21.486 -19.331  -0.145  0.00  0.00     0.095 C 
ENDBRANCH  20  22
ENDBRANCH   1  16
TORSDOF 5
ENDMDL
MODEL 4
REMARK VINA RESULT:    -6.773      1.894      3.895
REMARK INTER + INTRA:          -9.413
REMARK INTER:                  -8.264
REMARK INTRA:                  -1.149
REMARK CONF_INDEPENDENT:        1.492
REMARK UNBOUND:                -1.149
REMARK  5 active torsions:
REMARK  status: ('A' for Active; 'I' for Inactive)
REMARK    1  A    between atoms: S_2  and  C_3 
REMARK    2  A    between atoms: C_7  and  N_8 
REMARK       I    between atoms: N_8  and  C_9 
REMARK    3  A    between atoms: C_9  and  C_11 
REMARK    4  A    between atoms: C_11  and  N_13 
REMARK    5  A    between atoms: N_13  and  C_14 
ROOT
ATOM      1  N   UNL d   1      26.025 -14.492  -2.505  0.00  0.00    -0.325 N 
ATOM      2  C   UNL d   1      25.579 -14.191  -3.810  0.00  0.00     0.244 C 
ATOM      3  O   UNL d   1      24.783 -14.825  -4.479  0.00  0.00    -0.271 OA
ATOM      4  H   UNL d   1      26.648 -13.850  -2.031  0.00  0.00     0.169 HD
ENDROOT
BRANCH   2   5
ATOM      5  C   UNL d   1      26.233 -12.946  -4.427  0.00  0.00     0.170 C 
ATOM      6  C   UNL d   1      25.815 -11.854  -3.475  0.00  0.00     0.042 C 
BRANCH   5   7
ATOM      7  N   UNL d   1      27.709 -13.132  -4.451  0.00  0.00    -0.377 N 
ATOM      8  H   UNL d   1      28.157 -12.685  -3.644  0.00  0.00     0.160 HD
BRANCH   7   9
ATOM      9  C   UNL d   1      28.434 -14.163  -5.041  0.00  0.00     0.034 A 
ATOM     10  C   UNL d   1      28.775 -15.294  -4.270  0.00  0.00     0.029 A 
ATOM     11  C   UNL d   1      29.574 -16.332  -4.789  0.00  0.00     0.002 A 
ATOM     12  C   UNL d   1      29.992 -16.308  -6.110  0.00  0.00     0.001 A 
ATOM     13  C   UNL d   1      29.655 -15.229  -6.893  0.00  0.00     0.009 A 
ATOM     14  C   UNL d   1      28.902 -14.166  -6.375  0.00  0.00    -0.036 A 
ATOM     15  C   UNL d   1      28.667 -13.110  -7.394  0.00  0.00     0.050 C 
ENDBRANCH   7   9
ENDBRANCH   5   7
ENDBRANCH   2   5
BRANCH   1  16
ATOM     16  C   UNL d   1      25.670 -15.653  -1.793  0.00  0.00     0.036 A 
ATOM     17  C   UNL d   1      26.649 -16.439  -1.175  0.00  0.00     0.029 A 
ATOM     18  C   UNL d   1      26.251 -17.531  -0.392  0.00  0.00     0.004 A 
ATOM     19  C   UNL d   1      24.894 -17.851  -0.250  0.00  0.00     0.018 A 
ATOM     20  C   UNL d   1      23.925 -17.044  -0.829  0.00  0.00     0.002 A 
ATOM     21  C   UNL d   1      24.332 -16.005  -1.646  0.00  0.00     0.048 A 
BRANCH  20  22
ATOM     22  S   UNL d   1      22.183 -17.246  -0.520  0.00  0.00    -0.134 SA
ATOM     23  C   UNL d   1      22.109 -19.068  -0.346  0.00  0.00     0.095 C 
ENDBRANCH  20  22
ENDBRANCH   1  16
TORSDOF 5
ENDMDL
MODEL 5
REMARK VINA RESULT:    -6.644      4.992      7.859
REMARK INTER + INTRA:          -8.985
REMARK INTER:                  -8.136
REMARK INTRA:                  -0.849
REMARK CONF_INDEPENDENT:        1.492
REMARK UNBOUND:                -0.849
REMARK  5 active torsions:
REMARK  status: ('A' for Active; 'I' for Inactive)
REMARK    1  A    between atoms: S_2  and  C_3 
REMARK    2  A    between atoms: C_7  and  N_8 
REMARK       I    between atoms: N_8  and  C_9 
REMARK    3  A    between atoms: C_9  and  C_11 
REMARK    4  A    between atoms: C_11  and  N_13 
REMARK    5  A    between atoms: N_13  and  C_14 
ROOT
ATOM      1  N   UNL d   1      28.475 -14.760   2.176  0.00  0.00    -0.325 N 
ATOM      2  C   UNL d   1      27.634 -14.655   1.047  0.00  0.00     0.244 C 
ATOM      3  O   UNL d   1      26.626 -13.980   0.943  0.00  0.00    -0.271 OA
ATOM      4  H   UNL d   1      29.321 -15.314   2.116  0.00  0.00     0.169 HD
ENDROOT
BRANCH   2   5
ATOM      5  C   UNL d   1      28.050 -15.544  -0.133  0.00  0.00     0.170 C 
ATOM      6  C   UNL d   1      29.537 -15.683   0.073  0.00  0.00     0.042 C 
BRANCH   5   7
ATOM      7  N   UNL d   1      27.347 -16.852  -0.031  0.00  0.00    -0.377 N 
ATOM      8  H   UNL d   1      27.832 -17.489   0.611  0.00  0.00     0.160 HD
BRANCH   7   9
ATOM      9  C   UNL d   1      25.996 -17.117  -0.228  0.00  0.00     0.034 A 
ATOM     10  C   UNL d   1      25.400 -18.200   0.450  0.00  0.00     0.029 A 
ATOM     11  C   UNL d   1      24.057 -18.566   0.231  0.00  0.00     0.002 A 
ATOM     12  C   UNL d   1      23.251 -17.818  -0.612  0.00  0.00     0.001 A 
ATOM     13  C   UNL d   1      23.798 -16.741  -1.270  0.00  0.00     0.009 A 
ATOM     14  C   UNL d   1      25.146 -16.397  -1.098  0.00  0.00    -0.036 A 
ATOM     15  C   UNL d   1      25.519 -15.209  -1.912  0.00  0.00     0.050 C 
ENDBRANCH   7   9
ENDBRANCH   5   7
ENDBRANCH   2   5
BRANCH   1  16
ATOM     16  C   UNL d   1      28.219 -14.148   3.416  0.00  0.00     0.036 A 
ATOM     17  C   UNL d   1      28.349 -14.867   4.609  0.00  0.00     0.029 A 
ATOM     18  C   UNL d   1      28.183 -14.199   5.830  0.00  0.00     0.004 A 
ATOM     19  C   UNL d   1      27.865 -12.835   5.859  0.00  0.00     0.018 A 
ATOM     20  C   UNL d   1      27.780 -12.115   4.676  0.00  0.00     0.002 A 
ATOM     21  C   UNL d   1      27.887 -12.797   3.478  0.00  0.00     0.048 A 
BRANCH  20  22
ATOM     22  S   UNL d   1      27.600 -10.344   4.628  0.00  0.00    -0.134 SA
ATOM     23  C   UNL d   1      27.204 -10.122   2.854  0.00  0.00     0.095 C 
ENDBRANCH  20  22
ENDBRANCH   1  16
TORSDOF 5
ENDMDL
MODEL 6
REMARK VINA RESULT:    -6.634      3.859      7.697
REMARK INTER + INTRA:          -9.207
REMARK INTER:                  -8.126
REMARK INTRA:                  -1.081
REMARK CONF_INDEPENDENT:        1.492
REMARK UNBOUND:                -1.081
REMARK  5 active torsions:
REMARK  status: ('A' for Active; 'I' for Inactive)
REMARK    1  A    between atoms: S_2  and  C_3 
REMARK    2  A    between atoms: C_7  and  N_8 
REMARK       I    between atoms: N_8  and  C_9 
REMARK    3  A    between atoms: C_9  and  C_11 
REMARK    4  A    between atoms: C_11  and  N_13 
REMARK    5  A    between atoms: N_13  and  C_14 
ROOT
ATOM      1  N   UNL d   1      28.194 -15.058  -4.384  0.00  0.00    -0.325 N 
ATOM      2  C   UNL d   1      26.801 -15.197  -4.564  0.00  0.00     0.244 C 
ATOM      3  O   UNL d   1      26.224 -15.575  -5.567  0.00  0.00    -0.271 OA
ATOM      4  H   UNL d   1      28.555 -14.789  -3.477  0.00  0.00     0.169 HD
ENDROOT
BRANCH   2   5
ATOM      5  C   UNL d   1      25.964 -14.767  -3.351  0.00  0.00     0.170 C 
ATOM      6  C   UNL d   1      24.992 -13.788  -3.959  0.00  0.00     0.042 C 
BRANCH   5   7
ATOM      7  N   UNL d   1      25.275 -15.959  -2.786  0.00  0.00    -0.377 N 
ATOM      8  H   UNL d   1      24.780 -16.487  -3.514  0.00  0.00     0.160 HD
BRANCH   7   9
ATOM      9  C   UNL d   1      25.611 -16.684  -1.647  0.00  0.00     0.034 A 
ATOM     10  C   UNL d   1      26.949 -16.685  -1.201  0.00  0.00     0.029 A 
ATOM     11  C   UNL d   1      27.364 -17.461  -0.101  0.00  0.00     0.002 A 
ATOM     12  C   UNL d   1      26.446 -18.200   0.629  0.00  0.00     0.001 A 
ATOM     13  C   UNL d   1      25.129 -18.200   0.232  0.00  0.00     0.009 A 
ATOM     14  C   UNL d   1      24.712 -17.470  -0.890  0.00  0.00    -0.036 A 
ATOM     15  C   UNL d   1      23.254 -17.626  -1.136  0.00  0.00     0.050 C 
ENDBRANCH   7   9
ENDBRANCH   5   7
ENDBRANCH   2   5
BRANCH   1  16
ATOM     16  C   UNL d   1      29.150 -15.261  -5.396  0.00  0.00     0.036 A 
ATOM     17  C   UNL d   1      29.599 -14.192  -6.180  0.00  0.00     0.029 A 
ATOM     18  C   UNL d   1      30.623 -14.413  -7.111  0.00  0.00     0.004 A 
ATOM     19  C   UNL d   1      31.173 -15.691  -7.278  0.00  0.00     0.018 A 
ATOM     20  C   UNL d   1      30.755 -16.738  -6.470  0.00  0.00     0.002 A 
ATOM     21  C   UNL d   1      29.704 -16.522  -5.596  0.00  0.00     0.048 A 
BRANCH  20  22
ATOM     22  S   UNL d   1      31.548 -18.333  -6.460  0.00  0.00    -0.134 SA
ATOM     23  C   UNL d   1      30.405 -19.240  -5.353  0.00  0.00     0.095 C 
ENDBRANCH  20  22
ENDBRANCH   1  16
TORSDOF 5
ENDMDL
MODEL 7
REMARK VINA RESULT:    -6.170      3.455      8.161
REMARK INTER + INTRA:          -9.104
REMARK INTER:                  -7.662
REMARK INTRA:                  -1.442
REMARK CONF_INDEPENDENT:        1.492
REMARK UNBOUND:                -1.442
REMARK  5 active torsions:
REMARK  status: ('A' for Active; 'I' for Inactive)
REMARK    1  A    between atoms: S_2  and  C_3 
REMARK    2  A    between atoms: C_7  and  N_8 
REMARK       I    between atoms: N_8  and  C_9 
REMARK    3  A    between atoms: C_9  and  C_11 
REMARK    4  A    between atoms: C_11  and  N_13 
REMARK    5  A    between atoms: N_13  and  C_14 
ROOT
ATOM      1  N   UNL d   1      27.061 -13.416  -4.729  0.00  0.00    -0.325 N 
ATOM      2  C   UNL d   1      26.433 -14.653  -4.472  0.00  0.00     0.244 C 
ATOM      3  O   UNL d   1      26.429 -15.638  -5.189  0.00  0.00    -0.271 OA
ATOM      4  H   UNL d   1      27.040 -12.690  -4.023  0.00  0.00     0.169 HD
ENDROOT
BRANCH   2   5
ATOM      5  C   UNL d   1      25.641 -14.697  -3.158  0.00  0.00     0.170 C 
ATOM      6  C   UNL d   1      24.400 -13.911  -3.500  0.00  0.00     0.042 C 
BRANCH   5   7
ATOM      7  N   UNL d   1      25.331 -16.113  -2.822  0.00  0.00    -0.377 N 
ATOM      8  H   UNL d   1      25.273 -16.695  -3.665  0.00  0.00     0.160 HD
BRANCH   7   9
ATOM      9  C   UNL d   1      25.612 -16.796  -1.643  0.00  0.00     0.034 A 
ATOM     10  C   UNL d   1      26.938 -16.824  -1.162  0.00  0.00     0.029 A 
ATOM     11  C   UNL d   1      27.298 -17.563  -0.019  0.00  0.00     0.002 A 
ATOM     12  C   UNL d   1      26.336 -18.234   0.720  0.00  0.00     0.001 A 
ATOM     13  C   UNL d   1      25.030 -18.206   0.289  0.00  0.00     0.009 A 
ATOM     14  C   UNL d   1      24.667 -17.514  -0.875  0.00  0.00    -0.036 A 
ATOM     15  C   UNL d   1      23.210 -17.628  -1.152  0.00  0.00     0.050 C 
ENDBRANCH   7   9
ENDBRANCH   5   7
ENDBRANCH   2   5
BRANCH   1  16
ATOM     16  C   UNL d   1      27.726 -13.096  -5.927  0.00  0.00     0.036 A 
ATOM     17  C   UNL d   1      28.760 -13.906  -6.409  0.00  0.00     0.029 A 
ATOM     18  C   UNL d   1      29.332 -13.612  -7.655  0.00  0.00     0.004 A 
ATOM     19  C   UNL d   1      28.896 -12.506  -8.397  0.00  0.00     0.018 A 
ATOM     20  C   UNL d   1      27.843 -11.730  -7.935  0.00  0.00     0.002 A 
ATOM     21  C   UNL d   1      27.327 -11.995  -6.679  0.00  0.00     0.048 A 
BRANCH  20  22
ATOM     22  S   UNL d   1      27.083 -10.447  -8.909  0.00  0.00    -0.134 SA
ATOM     23  C   UNL d   1      26.314 -11.469 -10.219  0.00  0.00     0.095 C 
ENDBRANCH  20  22
ENDBRANCH   1  16
TORSDOF 5
ENDMDL
MODEL 8
REMARK VINA RESULT:    -6.122      3.595      8.067
REMARK INTER + INTRA:          -9.014
REMARK INTER:                  -7.613
REMARK INTRA:                  -1.401
REMARK CONF_INDEPENDENT:        1.492
REMARK UNBOUND:                -1.401
REMARK  5 active torsions:
REMARK  status: ('A' for Active; 'I' for Inactive)
REMARK    1  A    between atoms: S_2  and  C_3 
REMARK    2  A    between atoms: C_7  and  N_8 
REMARK       I    between atoms: N_8  and  C_9 
REMARK    3  A    between atoms: C_9  and  C_11 
REMARK    4  A    between atoms: C_11  and  N_13 
REMARK    5  A    between atoms: N_13  and  C_14 
ROOT
ATOM      1  N   UNL d   1      27.362 -13.644  -4.740  0.00  0.00    -0.325 N 
ATOM      2  C   UNL d   1      26.464 -14.722  -4.591  0.00  0.00     0.244 C 
ATOM      3  O   UNL d   1      26.260 -15.624  -5.384  0.00  0.00    -0.271 OA
ATOM      4  H   UNL d   1      27.484 -12.988  -3.978  0.00  0.00     0.169 HD
ENDROOT
BRANCH   2   5
ATOM      5  C   UNL d   1      25.644 -14.684  -3.293  0.00  0.00     0.170 C 
ATOM      6  C   UNL d   1      24.440 -13.871  -3.694  0.00  0.00     0.042 C 
BRANCH   5   7
ATOM      7  N   UNL d   1      25.277 -16.074  -2.907  0.00  0.00    -0.377 N 
ATOM      8  H   UNL d   1      25.141 -16.669  -3.732  0.00  0.00     0.160 HD
BRANCH   7   9
ATOM      9  C   UNL d   1      25.586 -16.747  -1.729  0.00  0.00     0.034 A 
ATOM     10  C   UNL d   1      26.908 -16.707  -1.240  0.00  0.00     0.029 A 
ATOM     11  C   UNL d   1      27.299 -17.432  -0.097  0.00  0.00     0.002 A 
ATOM     12  C   UNL d   1      26.369 -18.156   0.632  0.00  0.00     0.001 A 
ATOM     13  C   UNL d   1      25.066 -18.194   0.192  0.00  0.00     0.009 A 
ATOM     14  C   UNL d   1      24.675 -17.517  -0.971  0.00  0.00    -0.036 A 
ATOM     15  C   UNL d   1      23.228 -17.707  -1.258  0.00  0.00     0.050 C 
ENDBRANCH   7   9
ENDBRANCH   5   7
ENDBRANCH   2   5
BRANCH   1  16
ATOM     16  C   UNL d   1      28.117 -13.394  -5.901  0.00  0.00     0.036 A 
ATOM     17  C   UNL d   1      27.839 -12.288  -6.710  0.00  0.00     0.029 A 
ATOM     18  C   UNL d   1      28.674 -12.015  -7.803  0.00  0.00     0.004 A 
ATOM     19  C   UNL d   1      29.758 -12.853  -8.099  0.00  0.00     0.018 A 
ATOM     20  C   UNL d   1      30.055 -13.925  -7.270  0.00  0.00     0.002 A 
ATOM     21  C   UNL d   1      29.191 -14.217  -6.231  0.00  0.00     0.048 A 
BRANCH  20  22
ATOM     22  S   UNL d   1      31.532 -14.905  -7.443  0.00  0.00    -0.134 SA
ATOM     23  C   UNL d   1      30.833 -16.571  -7.144  0.00  0.00     0.095 C 
ENDBRANCH  20  22
ENDBRANCH   1  16
TORSDOF 5
ENDMDL
MODEL 9
REMARK VINA RESULT:    -6.029      5.729      8.058
REMARK INTER + INTRA:          -8.934
REMARK INTER:                  -7.520
REMARK INTRA:                  -1.413
REMARK CONF_INDEPENDENT:        1.492
REMARK UNBOUND:                -1.413
REMARK  5 active torsions:
REMARK  status: ('A' for Active; 'I' for Inactive)
REMARK    1  A    between atoms: S_2  and  C_3 
REMARK    2  A    between atoms: C_7  and  N_8 
REMARK       I    between atoms: N_8  and  C_9 
REMARK    3  A    between atoms: C_9  and  C_11 
REMARK    4  A    between atoms: C_11  and  N_13 
REMARK    5  A    between atoms: N_13  and  C_14 
ROOT
ATOM      1  N   UNL d   1      27.562 -15.651   1.062  0.00  0.00    -0.325 N 
ATOM      2  C   UNL d   1      27.405 -14.381   1.656  0.00  0.00     0.244 C 
ATOM      3  O   UNL d   1      26.502 -13.587   1.464  0.00  0.00    -0.271 OA
ATOM      4  H   UNL d   1      28.330 -16.244   1.350  0.00  0.00     0.169 HD
ENDROOT
BRANCH   2   5
ATOM      5  C   UNL d   1      28.547 -13.982   2.601  0.00  0.00     0.170 C 
ATOM      6  C   UNL d   1      29.638 -13.580   1.640  0.00  0.00     0.042 C 
BRANCH   5   7
ATOM      7  N   UNL d   1      28.103 -12.843   3.449  0.00  0.00    -0.377 N 
ATOM      8  H   UNL d   1      27.297 -12.360   3.037  0.00  0.00     0.160 HD
BRANCH   7   9
ATOM      9  C   UNL d   1      28.254 -12.687   4.824  0.00  0.00     0.034 A 
ATOM     10  C   UNL d   1      28.301 -11.387   5.369  0.00  0.00     0.029 A 
ATOM     11  C   UNL d   1      28.532 -11.165   6.741  0.00  0.00     0.002 A 
ATOM     12  C   UNL d   1      28.646 -12.232   7.619  0.00  0.00     0.001 A 
ATOM     13  C   UNL d   1      28.580 -13.512   7.120  0.00  0.00     0.009 A 
ATOM     14  C   UNL d   1      28.401 -13.746   5.749  0.00  0.00    -0.036 A 
ATOM     15  C   UNL d   1      28.371 -15.199   5.438  0.00  0.00     0.050 C 
ENDBRANCH   7   9
ENDBRANCH   5   7
ENDBRANCH   2   5
BRANCH   1  16
ATOM     16  C   UNL d   1      26.717 -16.172   0.064  0.00  0.00     0.036 A 
ATOM     17  C   UNL d   1      26.053 -17.389   0.253  0.00  0.00     0.029 A 
ATOM     18  C   UNL d   1      25.144 -17.827  -0.719  0.00  0.00     0.004 A 
ATOM     19  C   UNL d   1      24.919 -17.073  -1.879  0.00  0.00     0.018 A 
ATOM     20  C   UNL d   1      25.547 -15.846  -2.042  0.00  0.00     0.002 A 
ATOM     21  C   UNL d   1      26.485 -15.453  -1.105  0.00  0.00     0.048 A 
BRANCH  20  22
ATOM     22  S   UNL d   1      25.156 -14.725  -3.370  0.00  0.00    -0.134 SA
ATOM     23  C   UNL d   1      26.593 -15.029  -4.464  0.00  0.00     0.095 C 
ENDBRANCH  20  22
ENDBRANCH   1  16
TORSDOF 5
ENDMDL
