MODEL 1
REMARK VINA RESULT:   -10.753      0.000      0.000
REMARK INTER + INTRA:         -14.536
REMARK INTER:                 -12.841
REMARK INTRA:                  -1.695
REMARK CONF_INDEPENDENT:        2.088
REMARK UNBOUND:                -1.695
REMARK  7 active torsions:
REMARK  status: ('A' for Active; 'I' for Inactive)
REMARK    1  A    between atoms: C_4  and  S_5 
REMARK    2  A    between atoms: S_5  and  C_6 
REMARK    3  A    between atoms: C_6  and  C_7 
REMARK       I    between atoms: C_7  and  N_9 
REMARK    4  A    between atoms: N_9  and  C_10 
REMARK    5  A    between atoms: C_15  and  C_16 
REMARK       I    between atoms: C_16  and  N_18 
REMARK    6  A    between atoms: N_18  and  C_19 
REMARK    7  A    between atoms: C_26  and  C_27 
REMARK       I    between atoms: C_27  and  N_28 
ROOT
ATOM      1  C   UNL d   1      25.330 -14.799  -3.473  0.00  0.00     0.231 C 
ATOM      2  O   UNL d   1      25.995 -15.468  -4.246  0.00  0.00    -0.272 OA
ATOM      3  N   UNL d   1      25.095 -15.089  -2.085  0.00  0.00    -0.326 N 
ATOM      4  H   UNL d   1      24.300 -14.725  -1.562  0.00  0.00     0.169 HD
ENDROOT
BRANCH   3   5
ATOM      5  C   UNL d   1      25.797 -16.167  -1.539  0.00  0.00     0.050 C 
ATOM      6  C   UNL d   1      27.195 -16.108  -1.595  0.00  0.00     0.030 C 
ATOM      7  C   UNL d   1      27.911 -16.791  -0.619  0.00  0.00     0.002 C 
ATOM      8  C   UNL d   1      27.276 -17.772   0.137  0.00  0.00     0.001 C 
ATOM      9  C   UNL d   1      25.898 -17.973   0.023  0.00  0.00     0.019 C 
ATOM     10  C   UNL d   1      25.120 -17.114  -0.752  0.00  0.00     0.059 C 
BRANCH  10  11
ATOM     11  C   UNL d   1      23.614 -17.218  -0.617  0.00  0.00     0.258 C 
ATOM     12  O   UNL d   1      22.915 -16.338  -1.112  0.00  0.00    -0.267 OA
ATOM     13  N   UNL d   1      23.092 -18.281   0.115  0.00  0.00    -0.323 N 
ATOM     14  H   UNL d   1      23.718 -18.754   0.747  0.00  0.00     0.169 HD
BRANCH  13  15
ATOM     15  C   UNL d   1      21.745 -18.692   0.105  0.00  0.00     0.035 C 
ATOM     16  C   UNL d   1      21.126 -18.876  -1.128  0.00  0.00     0.031 C 
ATOM     17  C   UNL d   1      20.006 -19.698  -1.185  0.00  0.00     0.026 C 
ATOM     18  C   UNL d   1      19.298 -19.979  -0.019  0.00  0.00     0.034 C 
ATOM     19 CL   UNL d   1      17.819 -20.850  -0.115  0.00  0.00    -0.084 Cl
ATOM     20  C   UNL d   1      19.767 -19.530   1.210  0.00  0.00     0.026 C 
ATOM     21  C   UNL d   1      21.033 -18.953   1.278  0.00  0.00     0.031 C 
ENDBRANCH  13  15
ENDBRANCH  10  11
ENDBRANCH   3   5
BRANCH   1  22
ATOM     22  C   UNL d   1      24.785 -13.469  -3.783  0.00  0.00     0.184 C 
BRANCH  22  23
ATOM     23  S   UNL d   1      25.653 -11.861  -3.516  0.00  0.00    -0.100 SA
BRANCH  23  24
ATOM     24  C   UNL d   1      26.019 -10.895  -5.123  0.00  0.00     0.110 A 
ATOM     25  N   UNL d   1      26.844 -11.660  -5.924  0.00  0.00    -0.245 NA
ATOM     26  C   UNL d   1      27.203 -11.202  -7.161  0.00  0.00     0.038 A 
ATOM     27  C   UNL d   1      28.076 -12.079  -8.038  0.00  0.00     0.071 C 
ATOM     28  C   UNL d   1      26.769  -9.964  -7.653  0.00  0.00    -0.031 A 
ATOM     29  C   UNL d   1      25.954  -9.150  -6.842  0.00  0.00    -0.035 A 
ATOM     30  C   UNL d   1      27.145  -9.497  -9.035  0.00  0.00     0.051 C 
ATOM     31  C   UNL d   1      25.565  -9.599  -5.575  0.00  0.00     0.073 A 
ATOM     32  C   UNL d   1      25.515  -7.815  -7.378  0.00  0.00     0.050 C 
BRANCH  31  33
ATOM     33  C   UNL d   1      24.732  -8.576  -4.799  0.00  0.00     0.252 C 
ATOM     34  N   UNL d   1      25.188  -8.443  -3.568  0.00  0.00    -0.366 N 
ATOM     35  H   UNL d   1      25.845  -9.184  -3.498  0.00  0.00     0.159 HD
ATOM     36  H   UNL d   1      24.499  -8.184  -2.876  0.00  0.00     0.159 HD
ATOM     37  O   UNL d   1      23.808  -7.855  -5.044  0.00  0.00    -0.268 OA
ENDBRANCH  31  33
ENDBRANCH  23  24
ENDBRANCH  22  23
ENDBRANCH   1  22
TORSDOF 7
ENDMDL
MODEL 2
REMARK VINA RESULT:   -10.197      1.829      2.767
REMARK INTER + INTRA:         -14.296
REMARK INTER:                 -12.285
REMARK INTRA:                  -2.010
REMARK CONF_INDEPENDENT:        2.088
REMARK UNBOUND:                -2.010
REMARK  7 active torsions:
REMARK  status: ('A' for Active; 'I' for Inactive)
REMARK    1  A    between atoms: C_4  and  S_5 
REMARK    2  A    between atoms: S_5  and  C_6 
REMARK    3  A    between atoms: C_6  and  C_7 
REMARK       I    between atoms: C_7  and  N_9 
REMARK    4  A    between atoms: N_9  and  C_10 
REMARK    5  A    between atoms: C_15  and  C_16 
REMARK       I    between atoms: C_16  and  N_18 
REMARK    6  A    between atoms: N_18  and  C_19 
REMARK    7  A    between atoms: C_26  and  C_27 
REMARK       I    between atoms: C_27  and  N_28 
ROOT
ATOM      1  C   UNL d   1      25.159 -15.077  -3.386  0.00  0.00     0.231 C 
ATOM      2  O   UNL d   1      25.774 -15.792  -4.160  0.00  0.00    -0.272 OA
ATOM      3  N   UNL d   1      25.004 -15.292  -1.974  0.00  0.00    -0.326 N 
ATOM      4  H   UNL d   1      24.243 -14.894  -1.426  0.00  0.00     0.169 HD
ENDROOT
BRANCH   3   5
ATOM      5  C   UNL d   1      25.730 -16.345  -1.413  0.00  0.00     0.050 C 
ATOM      6  C   UNL d   1      27.126 -16.266  -1.491  0.00  0.00     0.030 C 
ATOM      7  C   UNL d   1      27.867 -16.914  -0.509  0.00  0.00     0.002 C 
ATOM      8  C   UNL d   1      27.258 -17.886   0.279  0.00  0.00     0.001 C 
ATOM      9  C   UNL d   1      25.882 -18.112   0.191  0.00  0.00     0.019 C 
ATOM     10  C   UNL d   1      25.080 -17.283  -0.593  0.00  0.00     0.059 C 
BRANCH  10  11
ATOM     11  C   UNL d   1      23.578 -17.406  -0.433  0.00  0.00     0.258 C 
ATOM     12  O   UNL d   1      22.859 -16.534  -0.913  0.00  0.00    -0.267 OA
ATOM     13  N   UNL d   1      23.081 -18.480   0.301  0.00  0.00    -0.323 N 
ATOM     14  H   UNL d   1      23.723 -18.949   0.921  0.00  0.00     0.169 HD
BRANCH  13  15
ATOM     15  C   UNL d   1      21.739 -18.908   0.312  0.00  0.00     0.035 C 
ATOM     16  C   UNL d   1      21.145 -19.229  -0.906  0.00  0.00     0.031 C 
ATOM     17  C   UNL d   1      20.036 -20.067  -0.894  0.00  0.00     0.026 C 
ATOM     18  C   UNL d   1      19.310 -20.234   0.282  0.00  0.00     0.034 C 
ATOM     19 CL   UNL d   1      17.844 -21.131   0.253  0.00  0.00    -0.084 Cl
ATOM     20  C   UNL d   1      19.752 -19.653   1.465  0.00  0.00     0.026 C 
ATOM     21  C   UNL d   1      21.010 -19.054   1.493  0.00  0.00     0.031 C 
ENDBRANCH  13  15
ENDBRANCH  10  11
ENDBRANCH   3   5
BRANCH   1  22
ATOM     22  C   UNL d   1      24.604 -13.761  -3.735  0.00  0.00     0.184 C 
BRANCH  22  23
ATOM     23  S   UNL d   1      25.573 -12.312  -4.343  0.00  0.00    -0.100 SA
BRANCH  23  24
ATOM     24  C   UNL d   1      27.097 -12.779  -5.397  0.00  0.00     0.110 A 
ATOM     25  N   UNL d   1      27.754 -13.830  -4.788  0.00  0.00    -0.245 NA
ATOM     26  C   UNL d   1      28.852 -14.382  -5.386  0.00  0.00     0.038 A 
ATOM     27  C   UNL d   1      29.530 -15.562  -4.719  0.00  0.00     0.071 C 
ATOM     28  C   UNL d   1      29.353 -13.909  -6.607  0.00  0.00    -0.031 A 
ATOM     29  C   UNL d   1      28.721 -12.816  -7.232  0.00  0.00    -0.035 A 
ATOM     30  C   UNL d   1      30.540 -14.558  -7.268  0.00  0.00     0.051 C 
ATOM     31  C   UNL d   1      27.589 -12.238  -6.644  0.00  0.00     0.073 A 
ATOM     32  C   UNL d   1      29.284 -12.308  -8.530  0.00  0.00     0.050 C 
BRANCH  31  33
ATOM     33  C   UNL d   1      27.057 -11.027  -7.414  0.00  0.00     0.252 C 
ATOM     34  N   UNL d   1      27.712  -9.934  -7.071  0.00  0.00    -0.366 N 
ATOM     35  H   UNL d   1      28.245 -10.236  -6.290  0.00  0.00     0.159 HD
ATOM     36  H   UNL d   1      27.187  -9.074  -7.142  0.00  0.00     0.159 HD
ATOM     37  O   UNL d   1      26.234 -10.841  -8.263  0.00  0.00    -0.268 OA
ENDBRANCH  31  33
ENDBRANCH  23  24
ENDBRANCH  22  23
ENDBRANCH   1  22
TORSDOF 7
ENDMDL
MODEL 3
REMARK VINA RESULT:   -10.166      2.925      3.896
REMARK INTER + INTRA:         -14.116
REMARK INTER:                 -12.254
REMARK INTRA:                  -1.862
REMARK CONF_INDEPENDENT:        2.088
REMARK UNBOUND:                -1.862
REMARK  7 active torsions:
REMARK  status: ('A' for Active; 'I' for Inactive)
REMARK    1  A    between atoms: C_4  and  S_5 
REMARK    2  A    between atoms: S_5  and  C_6 
REMARK    3  A    between atoms: C_6  and  C_7 
REMARK       I    between atoms: C_7  and  N_9 
REMARK    4  A    between atoms: N_9  and  C_10 
REMARK    5  A    between atoms: C_15  and  C_16 
REMARK       I    between atoms: C_16  and  N_18 
REMARK    6  A    between atoms: N_18  and  C_19 
REMARK    7  A    between atoms: C_26  and  C_27 
REMARK       I    between atoms: C_27  and  N_28 
ROOT
ATOM      1  C   UNL d   1      25.280 -15.227  -3.170  0.00  0.00     0.231 C 
ATOM      2  O   UNL d   1      26.192 -15.789  -3.752  0.00  0.00    -0.272 OA
ATOM      3  N   UNL d   1      24.765 -15.565  -1.872  0.00  0.00    -0.326 N 
ATOM      4  H   UNL d   1      23.828 -15.319  -1.558  0.00  0.00     0.169 HD
ENDROOT
BRANCH   3   5
ATOM      5  C   UNL d   1      25.456 -16.547  -1.157  0.00  0.00     0.050 C 
ATOM      6  C   UNL d   1      26.847 -16.408  -1.069  0.00  0.00     0.030 C 
ATOM      7  C   UNL d   1      27.484 -16.957   0.037  0.00  0.00     0.002 C 
ATOM      8  C   UNL d   1      26.819 -17.906   0.810  0.00  0.00     0.001 C 
ATOM      9  C   UNL d   1      25.474 -18.200   0.570  0.00  0.00     0.019 C 
ATOM     10  C   UNL d   1      24.745 -17.461  -0.360  0.00  0.00     0.059 C 
BRANCH  10  11
ATOM     11  C   UNL d   1      23.241 -17.644  -0.377  0.00  0.00     0.258 C 
ATOM     12  O   UNL d   1      22.579 -17.026  -1.207  0.00  0.00    -0.267 OA
ATOM     13  N   UNL d   1      22.669 -18.466   0.590  0.00  0.00    -0.323 N 
ATOM     14  H   UNL d   1      23.221 -18.663   1.411  0.00  0.00     0.169 HD
BRANCH  13  15
ATOM     15  C   UNL d   1      21.355 -18.972   0.555  0.00  0.00     0.035 C 
ATOM     16  C   UNL d   1      20.760 -19.161  -0.689  0.00  0.00     0.031 C 
ATOM     17  C   UNL d   1      19.702 -20.058  -0.782  0.00  0.00     0.026 C 
ATOM     18  C   UNL d   1      19.007 -20.426   0.367  0.00  0.00     0.034 C 
ATOM     19 CL   UNL d   1      17.596 -21.398   0.230  0.00  0.00    -0.084 Cl
ATOM     20  C   UNL d   1      19.434 -19.985   1.614  0.00  0.00     0.026 C 
ATOM     21  C   UNL d   1      20.655 -19.320   1.712  0.00  0.00     0.031 C 
ENDBRANCH  13  15
ENDBRANCH  10  11
ENDBRANCH   3   5
BRANCH   1  22
ATOM     22  C   UNL d   1      24.650 -13.978  -3.625  0.00  0.00     0.184 C 
BRANCH  22  23
ATOM     23  S   UNL d   1      25.535 -12.531  -4.356  0.00  0.00    -0.100 SA
BRANCH  23  24
ATOM     24  C   UNL d   1      27.437 -12.616  -4.194  0.00  0.00     0.110 A 
ATOM     25  N   UNL d   1      27.846 -11.677  -3.267  0.00  0.00    -0.245 NA
ATOM     26  C   UNL d   1      29.168 -11.583  -2.935  0.00  0.00     0.038 A 
ATOM     27  C   UNL d   1      29.587 -10.573  -1.885  0.00  0.00     0.071 C 
ATOM     28  C   UNL d   1      30.143 -12.407  -3.515  0.00  0.00    -0.031 A 
ATOM     29  C   UNL d   1      29.756 -13.350  -4.487  0.00  0.00    -0.035 A 
ATOM     30  C   UNL d   1      31.589 -12.314  -3.105  0.00  0.00     0.051 C 
ATOM     31  C   UNL d   1      28.406 -13.471  -4.838  0.00  0.00     0.073 A 
ATOM     32  C   UNL d   1      30.818 -14.211  -5.114  0.00  0.00     0.050 C 
BRANCH  31  33
ATOM     33  C   UNL d   1      28.159 -14.496  -5.948  0.00  0.00     0.252 C 
ATOM     34  N   UNL d   1      28.731 -14.111  -7.073  0.00  0.00    -0.366 N 
ATOM     35  H   UNL d   1      29.012 -13.182  -6.866  0.00  0.00     0.159 HD
ATOM     36  H   UNL d   1      28.281 -14.429  -7.919  0.00  0.00     0.159 HD
ATOM     37  O   UNL d   1      27.615 -15.559  -6.032  0.00  0.00    -0.268 OA
ENDBRANCH  31  33
ENDBRANCH  23  24
ENDBRANCH  22  23
ENDBRANCH   1  22
TORSDOF 7
ENDMDL
MODEL 4
REMARK VINA RESULT:    -9.893      4.019      6.895
REMARK INTER + INTRA:         -15.080
REMARK INTER:                 -11.981
REMARK INTRA:                  -3.099
REMARK CONF_INDEPENDENT:        2.088
REMARK UNBOUND:                -3.099
REMARK  7 active torsions:
REMARK  status: ('A' for Active; 'I' for Inactive)
REMARK    1  A    between atoms: C_4  and  S_5 
REMARK    2  A    between atoms: S_5  and  C_6 
REMARK    3  A    between atoms: C_6  and  C_7 
REMARK       I    between atoms: C_7  and  N_9 
REMARK    4  A    between atoms: N_9  and  C_10 
REMARK    5  A    between atoms: C_15  and  C_16 
REMARK       I    between atoms: C_16  and  N_18 
REMARK    6  A    between atoms: N_18  and  C_19 
REMARK    7  A    between atoms: C_26  and  C_27 
REMARK       I    between atoms: C_27  and  N_28 
ROOT
ATOM      1  C   UNL d   1      28.869 -16.402  -1.611  0.00  0.00     0.231 C 
ATOM      2  O   UNL d   1      29.264 -17.143  -2.495  0.00  0.00    -0.272 OA
ATOM      3  N   UNL d   1      28.269 -15.109  -1.793  0.00  0.00    -0.326 N 
ATOM      4  H   UNL d   1      28.254 -14.390  -1.072  0.00  0.00     0.169 HD
ENDROOT
BRANCH   3   5
ATOM      5  C   UNL d   1      27.997 -14.720  -3.107  0.00  0.00     0.050 C 
ATOM      6  C   UNL d   1      29.094 -14.374  -3.907  0.00  0.00     0.030 C 
ATOM      7  C   UNL d   1      28.973 -14.546  -5.281  0.00  0.00     0.002 C 
ATOM      8  C   UNL d   1      27.709 -14.699  -5.844  0.00  0.00     0.001 C 
ATOM      9  C   UNL d   1      26.580 -14.824  -5.030  0.00  0.00     0.019 C 
ATOM     10  C   UNL d   1      26.715 -14.926  -3.646  0.00  0.00     0.059 C 
BRANCH  10  11
ATOM     11  C   UNL d   1      25.491 -15.332  -2.850  0.00  0.00     0.258 C 
ATOM     12  O   UNL d   1      24.408 -14.829  -3.135  0.00  0.00    -0.267 OA
ATOM     13  N   UNL d   1      25.662 -16.220  -1.792  0.00  0.00    -0.323 N 
ATOM     14  H   UNL d   1      26.595 -16.324  -1.425  0.00  0.00     0.169 HD
BRANCH  13  15
ATOM     15  C   UNL d   1      24.626 -16.918  -1.140  0.00  0.00     0.035 C 
ATOM     16  C   UNL d   1      23.379 -16.304  -1.051  0.00  0.00     0.031 C 
ATOM     17  C   UNL d   1      22.264 -17.110  -0.851  0.00  0.00     0.026 C 
ATOM     18  C   UNL d   1      22.425 -18.399  -0.350  0.00  0.00     0.034 C 
ATOM     19 CL   UNL d   1      21.039 -19.329   0.058  0.00  0.00    -0.084 Cl
ATOM     20  C   UNL d   1      23.699 -18.918  -0.152  0.00  0.00     0.026 C 
ATOM     21  C   UNL d   1      24.799 -18.202  -0.621  0.00  0.00     0.031 C 
ENDBRANCH  13  15
ENDBRANCH  10  11
ENDBRANCH   3   5
BRANCH   1  22
ATOM     22  C   UNL d   1      28.776 -16.777  -0.192  0.00  0.00     0.184 C 
BRANCH  22  23
ATOM     23  S   UNL d   1      27.462 -16.227   0.983  0.00  0.00    -0.100 SA
BRANCH  23  24
ATOM     24  C   UNL d   1      27.560 -14.378   1.454  0.00  0.00     0.110 A 
ATOM     25  N   UNL d   1      27.508 -13.621   0.300  0.00  0.00    -0.245 NA
ATOM     26  C   UNL d   1      27.505 -12.257   0.383  0.00  0.00     0.038 A 
ATOM     27  C   UNL d   1      27.404 -11.449  -0.896  0.00  0.00     0.071 C 
ATOM     28  C   UNL d   1      27.566 -11.584   1.611  0.00  0.00    -0.031 A 
ATOM     29  C   UNL d   1      27.655 -12.333   2.801  0.00  0.00    -0.035 A 
ATOM     30  C   UNL d   1      27.523 -10.080   1.681  0.00  0.00     0.051 C 
ATOM     31  C   UNL d   1      27.651 -13.731   2.744  0.00  0.00     0.073 A 
ATOM     32  C   UNL d   1      27.742 -11.594   4.108  0.00  0.00     0.050 C 
BRANCH  31  33
ATOM     33  C   UNL d   1      27.812 -14.394   4.114  0.00  0.00     0.252 C 
ATOM     34  N   UNL d   1      28.881 -15.168   4.134  0.00  0.00    -0.366 N 
ATOM     35  H   UNL d   1      29.152 -15.188   3.179  0.00  0.00     0.159 HD
ATOM     36  H   UNL d   1      28.833 -15.957   4.761  0.00  0.00     0.159 HD
ATOM     37  O   UNL d   1      27.236 -14.353   5.163  0.00  0.00    -0.268 OA
ENDBRANCH  31  33
ENDBRANCH  23  24
ENDBRANCH  22  23
ENDBRANCH   1  22
TORSDOF 7
ENDMDL
MODEL 5
REMARK VINA RESULT:    -9.018      3.434      4.886
REMARK INTER + INTRA:         -14.127
REMARK INTER:                 -11.106
REMARK INTRA:                  -3.021
REMARK CONF_INDEPENDENT:        2.088
REMARK UNBOUND:                -3.021
REMARK  7 active torsions:
REMARK  status: ('A' for Active; 'I' for Inactive)
REMARK    1  A    between atoms: C_4  and  S_5 
REMARK    2  A    between atoms: S_5  and  C_6 
REMARK    3  A    between atoms: C_6  and  C_7 
REMARK       I    between atoms: C_7  and  N_9 
REMARK    4  A    between atoms: N_9  and  C_10 
REMARK    5  A    between atoms: C_15  and  C_16 
REMARK       I    between atoms: C_16  and  N_18 
REMARK    6  A    between atoms: N_18  and  C_19 
REMARK    7  A    between atoms: C_26  and  C_27 
REMARK       I    between atoms: C_27  and  N_28 
ROOT
ATOM      1  C   UNL d   1      30.223 -16.947  -2.993  0.00  0.00     0.231 C 
ATOM      2  O   UNL d   1      31.177 -16.879  -2.237  0.00  0.00    -0.272 OA
ATOM      3  N   UNL d   1      28.953 -16.298  -2.816  0.00  0.00    -0.326 N 
ATOM      4  H   UNL d   1      28.092 -16.619  -3.257  0.00  0.00     0.169 HD
ENDROOT
BRANCH   3   5
ATOM      5  C   UNL d   1      28.844 -15.406  -1.747  0.00  0.00     0.050 C 
ATOM      6  C   UNL d   1      29.772 -14.357  -1.697  0.00  0.00     0.030 C 
ATOM      7  C   UNL d   1      29.389 -13.183  -1.060  0.00  0.00     0.002 C 
ATOM      8  C   UNL d   1      28.291 -13.195  -0.205  0.00  0.00     0.001 C 
ATOM      9  C   UNL d   1      27.489 -14.334  -0.095  0.00  0.00     0.019 C 
ATOM     10  C   UNL d   1      27.700 -15.429  -0.931  0.00  0.00     0.059 C 
BRANCH  10  11
ATOM     11  C   UNL d   1      26.638 -16.510  -0.951  0.00  0.00     0.258 C 
ATOM     12  O   UNL d   1      26.990 -17.685  -0.884  0.00  0.00    -0.267 OA
ATOM     13  N   UNL d   1      25.310 -16.123  -1.101  0.00  0.00    -0.323 N 
ATOM     14  H   UNL d   1      25.139 -15.201  -1.472  0.00  0.00     0.169 HD
BRANCH  13  15
ATOM     15  C   UNL d   1      24.190 -16.942  -0.858  0.00  0.00     0.035 C 
ATOM     16  C   UNL d   1      22.956 -16.326  -0.672  0.00  0.00     0.031 C 
ATOM     17  C   UNL d   1      21.806 -17.076  -0.895  0.00  0.00     0.026 C 
ATOM     18  C   UNL d   1      21.880 -18.467  -0.893  0.00  0.00     0.034 C 
ATOM     19 CL   UNL d   1      20.435 -19.391  -0.996  0.00  0.00    -0.084 Cl
ATOM     20  C   UNL d   1      23.111 -19.102  -0.776  0.00  0.00     0.026 C 
ATOM     21  C   UNL d   1      24.273 -18.336  -0.837  0.00  0.00     0.031 C 
ENDBRANCH  13  15
ENDBRANCH  10  11
ENDBRANCH   3   5
BRANCH   1  22
ATOM     22  C   UNL d   1      30.260 -17.574  -4.323  0.00  0.00     0.184 C 
BRANCH  22  23
ATOM     23  S   UNL d   1      29.958 -16.711  -5.927  0.00  0.00    -0.100 SA
BRANCH  23  24
ATOM     24  C   UNL d   1      28.828 -15.176  -5.788  0.00  0.00     0.110 A 
ATOM     25  N   UNL d   1      27.692 -15.523  -5.082  0.00  0.00    -0.245 NA
ATOM     26  C   UNL d   1      26.751 -14.573  -4.802  0.00  0.00     0.038 A 
ATOM     27  C   UNL d   1      25.534 -14.969  -3.990  0.00  0.00     0.071 C 
ATOM     28  C   UNL d   1      26.888 -13.241  -5.218  0.00  0.00    -0.031 A 
ATOM     29  C   UNL d   1      28.021 -12.870  -5.969  0.00  0.00    -0.035 A 
ATOM     30  C   UNL d   1      25.858 -12.202  -4.865  0.00  0.00     0.051 C 
ATOM     31  C   UNL d   1      29.004 -13.823  -6.262  0.00  0.00     0.073 A 
ATOM     32  C   UNL d   1      28.142 -11.442  -6.426  0.00  0.00     0.050 C 
BRANCH  31  33
ATOM     33  C   UNL d   1      30.138 -13.275  -7.132  0.00  0.00     0.252 C 
ATOM     34  N   UNL d   1      29.772 -13.232  -8.399  0.00  0.00    -0.366 N 
ATOM     35  H   UNL d   1      28.912 -13.727  -8.394  0.00  0.00     0.159 HD
ATOM     36  H   UNL d   1      30.520 -13.335  -9.069  0.00  0.00     0.159 HD
ATOM     37  O   UNL d   1      31.241 -12.851  -6.941  0.00  0.00    -0.268 OA
ENDBRANCH  31  33
ENDBRANCH  23  24
ENDBRANCH  22  23
ENDBRANCH   1  22
TORSDOF 7
ENDMDL
MODEL 6
REMARK VINA RESULT:    -8.337      3.833      7.178
REMARK INTER + INTRA:         -14.222
REMARK INTER:                 -10.425
REMARK INTRA:                  -3.797
REMARK CONF_INDEPENDENT:        2.088
REMARK UNBOUND:                -3.797
REMARK  7 active torsions:
REMARK  status: ('A' for Active; 'I' for Inactive)
REMARK    1  A    between atoms: C_4  and  S_5 
REMARK    2  A    between atoms: S_5  and  C_6 
REMARK    3  A    between atoms: C_6  and  C_7 
REMARK       I    between atoms: C_7  and  N_9 
REMARK    4  A    between atoms: N_9  and  C_10 
REMARK    5  A    between atoms: C_15  and  C_16 
REMARK       I    between atoms: C_16  and  N_18 
REMARK    6  A    between atoms: N_18  and  C_19 
REMARK    7  A    between atoms: C_26  and  C_27 
REMARK       I    between atoms: C_27  and  N_28 
ROOT
ATOM      1  C   UNL d   1      27.195 -11.877  -1.104  0.00  0.00     0.231 C 
ATOM      2  O   UNL d   1      27.027 -10.944  -1.871  0.00  0.00    -0.272 OA
ATOM      3  N   UNL d   1      27.418 -13.248  -1.473  0.00  0.00    -0.326 N 
ATOM      4  H   UNL d   1      27.227 -14.034  -0.855  0.00  0.00     0.169 HD
ENDROOT
BRANCH   3   5
ATOM      5  C   UNL d   1      27.587 -13.515  -2.834  0.00  0.00     0.050 C 
ATOM      6  C   UNL d   1      28.761 -13.042  -3.434  0.00  0.00     0.030 C 
ATOM      7  C   UNL d   1      29.246 -13.729  -4.540  0.00  0.00     0.002 C 
ATOM      8  C   UNL d   1      28.407 -14.604  -5.225  0.00  0.00     0.001 C 
ATOM      9  C   UNL d   1      27.136 -14.904  -4.727  0.00  0.00     0.019 C 
ATOM     10  C   UNL d   1      26.739 -14.433  -3.476  0.00  0.00     0.059 C 
BRANCH  10  11
ATOM     11  C   UNL d   1      25.472 -15.013  -2.879  0.00  0.00     0.258 C 
ATOM     12  O   UNL d   1      24.406 -14.824  -3.458  0.00  0.00    -0.267 OA
ATOM     13  N   UNL d   1      25.568 -15.689  -1.666  0.00  0.00    -0.323 N 
ATOM     14  H   UNL d   1      26.391 -15.518  -1.109  0.00  0.00     0.169 HD
BRANCH  13  15
ATOM     15  C   UNL d   1      24.574 -16.523  -1.118  0.00  0.00     0.035 C 
ATOM     16  C   UNL d   1      23.290 -16.002  -0.975  0.00  0.00     0.031 C 
ATOM     17  C   UNL d   1      22.226 -16.894  -0.890  0.00  0.00     0.026 C 
ATOM     18  C   UNL d   1      22.465 -18.221  -0.544  0.00  0.00     0.034 C 
ATOM     19 CL   UNL d   1      21.137 -19.278  -0.272  0.00  0.00    -0.084 Cl
ATOM     20  C   UNL d   1      23.768 -18.681  -0.391  0.00  0.00     0.026 C 
ATOM     21  C   UNL d   1      24.824 -17.847  -0.754  0.00  0.00     0.031 C 
ENDBRANCH  13  15
ENDBRANCH  10  11
ENDBRANCH   3   5
BRANCH   1  22
ATOM     22  C   UNL d   1      27.371 -11.737   0.349  0.00  0.00     0.184 C 
BRANCH  22  23
ATOM     23  S   UNL d   1      27.588 -13.127   1.545  0.00  0.00    -0.100 SA
BRANCH  23  24
ATOM     24  C   UNL d   1      28.820 -14.468   0.968  0.00  0.00     0.110 A 
ATOM     25  N   UNL d   1      28.208 -15.254   0.012  0.00  0.00    -0.245 NA
ATOM     26  C   UNL d   1      28.912 -16.254  -0.597  0.00  0.00     0.038 A 
ATOM     27  C   UNL d   1      28.230 -17.075  -1.674  0.00  0.00     0.071 C 
ATOM     28  C   UNL d   1      30.249 -16.528  -0.277  0.00  0.00    -0.031 A 
ATOM     29  C   UNL d   1      30.886 -15.763   0.721  0.00  0.00    -0.035 A 
ATOM     30  C   UNL d   1      31.018 -17.609  -0.988  0.00  0.00     0.051 C 
ATOM     31  C   UNL d   1      30.189 -14.726   1.353  0.00  0.00     0.073 A 
ATOM     32  C   UNL d   1      32.314 -16.083   1.067  0.00  0.00     0.050 C 
BRANCH  31  33
ATOM     33  C   UNL d   1      31.001 -14.031   2.449  0.00  0.00     0.252 C 
ATOM     34  N   UNL d   1      31.145 -14.825   3.494  0.00  0.00    -0.366 N 
ATOM     35  H   UNL d   1      30.532 -15.576   3.283  0.00  0.00     0.159 HD
ATOM     36  H   UNL d   1      31.237 -14.357   4.384  0.00  0.00     0.159 HD
ATOM     37  O   UNL d   1      31.556 -12.978   2.572  0.00  0.00    -0.268 OA
ENDBRANCH  31  33
ENDBRANCH  23  24
ENDBRANCH  22  23
ENDBRANCH   1  22
TORSDOF 7
ENDMDL
MODEL 7
REMARK VINA RESULT:    -7.872      4.078      7.059
REMARK INTER + INTRA:         -14.194
REMARK INTER:                  -9.960
REMARK INTRA:                  -4.235
REMARK CONF_INDEPENDENT:        2.088
REMARK UNBOUND:                -4.235
REMARK  7 active torsions:
REMARK  status: ('A' for Active; 'I' for Inactive)
REMARK    1  A    between atoms: C_4  and  S_5 
REMARK    2  A    between atoms: S_5  and  C_6 
REMARK    3  A    between atoms: C_6  and  C_7 
REMARK       I    between atoms: C_7  and  N_9 
REMARK    4  A    between atoms: N_9  and  C_10 
REMARK    5  A    between atoms: C_15  and  C_16 
REMARK       I    between atoms: C_16  and  N_18 
REMARK    6  A    between atoms: N_18  and  C_19 
REMARK    7  A    between atoms: C_26  and  C_27 
REMARK       I    between atoms: C_27  and  N_28 
ROOT
ATOM      1  C   UNL d   1      29.250 -16.151  -2.054  0.00  0.00     0.231 C 
ATOM      2  O   UNL d   1      29.227 -17.104  -2.815  0.00  0.00    -0.272 OA
ATOM      3  N   UNL d   1      28.982 -14.783  -2.400  0.00  0.00    -0.326 N 
ATOM      4  H   UNL d   1      29.320 -13.990  -1.858  0.00  0.00     0.169 HD
ENDROOT
BRANCH   3   5
ATOM      5  C   UNL d   1      28.527 -14.538  -3.698  0.00  0.00     0.050 C 
ATOM      6  C   UNL d   1      29.500 -14.297  -4.677  0.00  0.00     0.030 C 
ATOM      7  C   UNL d   1      29.189 -14.619  -5.993  0.00  0.00     0.002 C 
ATOM      8  C   UNL d   1      27.859 -14.817  -6.354  0.00  0.00     0.001 C 
ATOM      9  C   UNL d   1      26.856 -14.838  -5.381  0.00  0.00     0.019 C 
ATOM     10  C   UNL d   1      27.184 -14.788  -4.027  0.00  0.00     0.059 C 
BRANCH  10  11
ATOM     11  C   UNL d   1      26.085 -15.088  -3.028  0.00  0.00     0.258 C 
ATOM     12  O   UNL d   1      25.116 -14.336  -2.971  0.00  0.00    -0.267 OA
ATOM     13  N   UNL d   1      26.251 -16.178  -2.178  0.00  0.00    -0.323 N 
ATOM     14  H   UNL d   1      27.187 -16.532  -2.062  0.00  0.00     0.169 HD
BRANCH  13  15
ATOM     15  C   UNL d   1      25.233 -16.768  -1.403  0.00  0.00     0.035 C 
ATOM     16  C   UNL d   1      23.997 -16.130  -1.352  0.00  0.00     0.031 C 
ATOM     17  C   UNL d   1      22.881 -16.887  -1.007  0.00  0.00     0.026 C 
ATOM     18  C   UNL d   1      23.049 -18.101  -0.346  0.00  0.00     0.034 C 
ATOM     19 CL   UNL d   1      21.670 -18.949   0.230  0.00  0.00    -0.084 Cl
ATOM     20  C   UNL d   1      24.325 -18.607  -0.126  0.00  0.00     0.026 C 
ATOM     21  C   UNL d   1      25.413 -17.976  -0.725  0.00  0.00     0.031 C 
ENDBRANCH  13  15
ENDBRANCH  10  11
ENDBRANCH   3   5
BRANCH   1  22
ATOM     22  C   UNL d   1      29.391 -16.258  -0.594  0.00  0.00     0.184 C 
BRANCH  22  23
ATOM     23  S   UNL d   1      28.006 -16.209   0.626  0.00  0.00    -0.100 SA
BRANCH  23  24
ATOM     24  C   UNL d   1      27.860 -14.558   1.577  0.00  0.00     0.110 A 
ATOM     25  N   UNL d   1      27.880 -14.822   2.932  0.00  0.00    -0.245 NA
ATOM     26  C   UNL d   1      27.845 -13.788   3.826  0.00  0.00     0.038 A 
ATOM     27  C   UNL d   1      27.910 -14.103   5.308  0.00  0.00     0.071 C 
ATOM     28  C   UNL d   1      27.778 -12.450   3.416  0.00  0.00    -0.031 A 
ATOM     29  C   UNL d   1      27.722 -12.155   2.039  0.00  0.00    -0.035 A 
ATOM     30  C   UNL d   1      27.780 -11.325   4.416  0.00  0.00     0.051 C 
ATOM     31  C   UNL d   1      27.766 -13.196   1.103  0.00  0.00     0.073 A 
ATOM     32  C   UNL d   1      27.629 -10.715   1.617  0.00  0.00     0.050 C 
BRANCH  31  33
ATOM     33  C   UNL d   1      27.638 -12.715  -0.344  0.00  0.00     0.252 C 
ATOM     34  N   UNL d   1      26.406 -12.891  -0.785  0.00  0.00    -0.366 N 
ATOM     35  H   UNL d   1      25.994 -13.435  -0.065  0.00  0.00     0.159 HD
ATOM     36  H   UNL d   1      26.321 -13.045  -1.779  0.00  0.00     0.159 HD
ATOM     37  O   UNL d   1      28.359 -12.194  -1.145  0.00  0.00    -0.268 OA
ENDBRANCH  31  33
ENDBRANCH  23  24
ENDBRANCH  22  23
ENDBRANCH   1  22
TORSDOF 7
ENDMDL
