MODEL 1
REMARK VINA RESULT:    -8.362      0.000      0.000
REMARK INTER + INTRA:         -14.765
REMARK INTER:                 -11.345
REMARK INTRA:                  -3.420
REMARK CONF_INDEPENDENT:        2.983
REMARK UNBOUND:                -3.420
REMARK  10 active torsions:
REMARK  status: ('A' for Active; 'I' for Inactive)
REMARK    1  A    between atoms: O_2  and  C_3 
REMARK    2  A    between atoms: C_9  and  C_10 
REMARK    3  A    between atoms: C_10  and  N_11 
REMARK    4  A    between atoms: N_14  and  C_15 
REMARK    5  A    between atoms: C_17  and  N_18 
REMARK    6  A    between atoms: N_18  and  C_19 
REMARK    7  A    between atoms: C_19  and  C_20 
REMARK    8  A    between atoms: C_20  and  C_21 
REMARK    9  A    between atoms: C_21  and  O_22 
REMARK   10  A    between atoms: C_23  and  N_24 
ROOT
ATOM      1  C   UNL d   1      28.086 -11.354   1.608  0.00  0.00     0.066 C 
ATOM      2  C   UNL d   1      27.859 -10.883   0.244  0.00  0.00     0.063 C 
ATOM      3  C   UNL d   1      27.031  -9.774  -0.217  0.00  0.00     0.066 C 
ATOM      4  C   UNL d   1      26.481  -8.895   0.745  0.00  0.00     0.162 C 
ATOM      5  C   UNL d   1      26.692  -9.235   2.104  0.00  0.00     0.155 A 
ATOM      6  N   UNL d   1      26.281  -8.635   3.230  0.00  0.00    -0.100 NA
ATOM      7  O   UNL d   1      26.728  -9.398   4.281  0.00  0.00    -0.106 OA
ATOM      8  N   UNL d   1      27.391 -10.531   3.852  0.00  0.00    -0.101 NA
ATOM      9  C   UNL d   1      27.449 -10.452   2.514  0.00  0.00     0.146 A 
ENDROOT
BRANCH   1  10
ATOM     10  N   UNL d   1      28.653 -12.628   1.889  0.00  0.00    -0.376 N 
ATOM     11  C   UNL d   1      29.894 -13.053   1.232  0.00  0.00     0.150 C 
ATOM     12  C   UNL d   1      29.715 -14.287   0.319  0.00  0.00     0.255 C 
ATOM     13  N   UNL d   1      28.919 -15.466   0.978  0.00  0.00    -0.064 N 
ATOM     14  C   UNL d   1      27.780 -15.084   1.959  0.00  0.00     0.255 C 
ATOM     15  H   UNL d   1      29.599 -15.957   1.568  0.00  0.00     0.280 HD
ATOM     16  C   UNL d   1      28.018 -13.716   2.725  0.00  0.00     0.150 C 
BRANCH  13  17
ATOM     17  C   UNL d   1      28.441 -16.480  -0.084  0.00  0.00     0.276 C 
BRANCH  17  18
ATOM     18  C   UNL d   1      26.985 -16.407  -0.530  0.00  0.00     0.003 A 
ATOM     19  C   UNL d   1      26.077 -17.429  -0.177  0.00  0.00     0.035 A 
ATOM     20  C   UNL d   1      24.741 -17.384  -0.624  0.00  0.00     0.034 A 
ATOM     21  C   UNL d   1      24.294 -16.366  -1.447  0.00  0.00     0.026 A 
ATOM     22 CL   UNL d   1      23.604 -18.574  -0.146  0.00  0.00    -0.084 Cl
ATOM     23  C   UNL d   1      25.155 -15.352  -1.757  0.00  0.00     0.039 A 
ATOM     24  C   UNL d   1      26.443 -15.342  -1.270  0.00  0.00     0.076 A 
BRANCH  24  25
ATOM     25  O   UNL d   1      27.179 -14.268  -1.645  0.00  0.00    -0.355 OA
ATOM     26  C   UNL d   1      27.164 -13.969  -3.043  0.00  0.00     0.210 C 
ENDBRANCH  24  25
ENDBRANCH  17  18
ENDBRANCH  13  17
ENDBRANCH   1  10
BRANCH   3  27
ATOM     27  N   UNL d   1      26.683  -9.644  -1.570  0.00  0.00    -0.388 N 
ATOM     28  H   UNL d   1      26.213  -8.772  -1.851  0.00  0.00     0.159 HD
BRANCH  27  29
ATOM     29  C   UNL d   1      26.989 -10.563  -2.643  0.00  0.00     0.122 C 
BRANCH  29  30
ATOM     30  C   UNL d   1      26.547 -10.065  -4.016  0.00  0.00     0.045 C 
BRANCH  30  31
ATOM     31  C   UNL d   1      25.168  -9.419  -3.905  0.00  0.00     0.165 C 
BRANCH  31  32
ATOM     32  O   UNL d   1      25.274  -8.091  -3.422  0.00  0.00    -0.401 OA
ATOM     33  H   UNL d   1      24.779  -8.024  -2.586  0.00  0.00     0.209 HD
ENDBRANCH  31  32
ENDBRANCH  30  31
ENDBRANCH  29  30
ENDBRANCH  27  29
ENDBRANCH   3  27
BRANCH   4  34
ATOM     34  N   UNL d   1      25.720  -7.685   0.400  0.00  0.00    -0.111 N 
ATOM     35  O   UNL d   1      25.646  -7.325  -0.764  0.00  0.00    -0.532 OA
ATOM     36  O   UNL d   1      25.154  -7.079   1.344  0.00  0.00    -0.532 OA
ENDBRANCH   4  34
TORSDOF 10
ENDMDL
MODEL 2
REMARK VINA RESULT:    -8.130      1.428      1.954
REMARK INTER + INTRA:         -14.475
REMARK INTER:                 -11.113
REMARK INTRA:                  -3.362
REMARK CONF_INDEPENDENT:        2.983
REMARK UNBOUND:                -3.362
REMARK  10 active torsions:
REMARK  status: ('A' for Active; 'I' for Inactive)
REMARK    1  A    between atoms: O_2  and  C_3 
REMARK    2  A    between atoms: C_9  and  C_10 
REMARK    3  A    between atoms: C_10  and  N_11 
REMARK    4  A    between atoms: N_14  and  C_15 
REMARK    5  A    between atoms: C_17  and  N_18 
REMARK    6  A    between atoms: N_18  and  C_19 
REMARK    7  A    between atoms: C_19  and  C_20 
REMARK    8  A    between atoms: C_20  and  C_21 
REMARK    9  A    between atoms: C_21  and  O_22 
REMARK   10  A    between atoms: C_23  and  N_24 
ROOT
ATOM      1  C   UNL d   1      28.084 -11.348   1.601  0.00  0.00     0.066 C 
ATOM      2  C   UNL d   1      27.859 -10.871   0.239  0.00  0.00     0.063 C 
ATOM      3  C   UNL d   1      27.031  -9.759  -0.218  0.00  0.00     0.066 C 
ATOM      4  C   UNL d   1      26.481  -8.884   0.748  0.00  0.00     0.162 C 
ATOM      5  C   UNL d   1      26.690  -9.231   2.106  0.00  0.00     0.155 A 
ATOM      6  N   UNL d   1      26.279  -8.636   3.235  0.00  0.00    -0.100 NA
ATOM      7  O   UNL d   1      26.724  -9.405   4.282  0.00  0.00    -0.106 OA
ATOM      8  N   UNL d   1      27.386 -10.536   3.848  0.00  0.00    -0.101 NA
ATOM      9  C   UNL d   1      27.446 -10.450   2.511  0.00  0.00     0.146 A 
ENDROOT
BRANCH   1  10
ATOM     10  N   UNL d   1      28.650 -12.623   1.876  0.00  0.00    -0.376 N 
ATOM     11  C   UNL d   1      29.895 -13.043   1.223  0.00  0.00     0.150 C 
ATOM     12  C   UNL d   1      29.723 -14.271   0.301  0.00  0.00     0.255 C 
ATOM     13  N   UNL d   1      28.924 -15.455   0.946  0.00  0.00    -0.064 N 
ATOM     14  C   UNL d   1      27.778 -15.081   1.924  0.00  0.00     0.255 C 
ATOM     15  H   UNL d   1      29.600 -15.949   1.537  0.00  0.00     0.280 HD
ATOM     16  C   UNL d   1      28.011 -13.718   2.701  0.00  0.00     0.150 C 
BRANCH  13  17
ATOM     17  C   UNL d   1      28.453 -16.461  -0.126  0.00  0.00     0.276 C 
BRANCH  17  18
ATOM     18  C   UNL d   1      27.174 -16.138  -0.890  0.00  0.00     0.003 A 
ATOM     19  C   UNL d   1      27.181 -15.175  -1.922  0.00  0.00     0.035 A 
ATOM     20  C   UNL d   1      25.990 -14.845  -2.600  0.00  0.00     0.034 A 
ATOM     21  C   UNL d   1      24.782 -15.422  -2.251  0.00  0.00     0.026 A 
ATOM     22 CL   UNL d   1      25.989 -13.734  -3.906  0.00  0.00    -0.084 Cl
ATOM     23  C   UNL d   1      24.775 -16.385  -1.282  0.00  0.00     0.039 A 
ATOM     24  C   UNL d   1      25.940 -16.773  -0.659  0.00  0.00     0.076 A 
BRANCH  24  25
ATOM     25  O   UNL d   1      25.787 -17.748   0.268  0.00  0.00    -0.355 OA
ATOM     26  C   UNL d   1      24.540 -18.446   0.228  0.00  0.00     0.210 C 
ENDBRANCH  24  25
ENDBRANCH  17  18
ENDBRANCH  13  17
ENDBRANCH   1  10
BRANCH   3  27
ATOM     27  N   UNL d   1      26.686  -9.622  -1.570  0.00  0.00    -0.388 N 
ATOM     28  H   UNL d   1      26.294  -8.716  -1.864  0.00  0.00     0.159 HD
BRANCH  27  29
ATOM     29  C   UNL d   1      26.898 -10.583  -2.628  0.00  0.00     0.122 C 
BRANCH  29  30
ATOM     30  C   UNL d   1      26.539 -10.054  -4.013  0.00  0.00     0.045 C 
BRANCH  30  31
ATOM     31  C   UNL d   1      25.173  -9.372  -3.961  0.00  0.00     0.165 C 
BRANCH  31  32
ATOM     32  O   UNL d   1      25.287  -8.062  -3.432  0.00  0.00    -0.401 OA
ATOM     33  H   UNL d   1      24.778  -8.016  -2.604  0.00  0.00     0.209 HD
ENDBRANCH  31  32
ENDBRANCH  30  31
ENDBRANCH  29  30
ENDBRANCH  27  29
ENDBRANCH   3  27
BRANCH   4  34
ATOM     34  N   UNL d   1      25.721  -7.672   0.409  0.00  0.00    -0.111 N 
ATOM     35  O   UNL d   1      25.649  -7.306  -0.754  0.00  0.00    -0.532 OA
ATOM     36  O   UNL d   1      25.155  -7.070   1.355  0.00  0.00    -0.532 OA
ENDBRANCH   4  34
TORSDOF 10
ENDMDL
MODEL 3
REMARK VINA RESULT:    -8.017      1.776      4.070
REMARK INTER + INTRA:         -14.237
REMARK INTER:                 -11.000
REMARK INTRA:                  -3.236
REMARK CONF_INDEPENDENT:        2.983
REMARK UNBOUND:                -3.236
REMARK  10 active torsions:
REMARK  status: ('A' for Active; 'I' for Inactive)
REMARK    1  A    between atoms: O_2  and  C_3 
REMARK    2  A    between atoms: C_9  and  C_10 
REMARK    3  A    between atoms: C_10  and  N_11 
REMARK    4  A    between atoms: N_14  and  C_15 
REMARK    5  A    between atoms: C_17  and  N_18 
REMARK    6  A    between atoms: N_18  and  C_19 
REMARK    7  A    between atoms: C_19  and  C_20 
REMARK    8  A    between atoms: C_20  and  C_21 
REMARK    9  A    between atoms: C_21  and  O_22 
REMARK   10  A    between atoms: C_23  and  N_24 
ROOT
ATOM      1  C   UNL d   1      27.826 -11.996   2.093  0.00  0.00     0.066 C 
ATOM      2  C   UNL d   1      27.646 -11.261   3.343  0.00  0.00     0.063 C 
ATOM      3  C   UNL d   1      27.273  -9.863   3.538  0.00  0.00     0.066 C 
ATOM      4  C   UNL d   1      26.855  -9.111   2.415  0.00  0.00     0.162 C 
ATOM      5  C   UNL d   1      26.941  -9.756   1.156  0.00  0.00     0.155 A 
ATOM      6  N   UNL d   1      26.656  -9.311  -0.076  0.00  0.00    -0.100 NA
ATOM      7  O   UNL d   1      26.953 -10.327  -0.951  0.00  0.00    -0.106 OA
ATOM      8  N   UNL d   1      27.484 -11.427  -0.305  0.00  0.00    -0.101 NA
ATOM      9  C   UNL d   1      27.445 -11.151   1.006  0.00  0.00     0.146 A 
ENDROOT
BRANCH   1  10
ATOM     10  N   UNL d   1      28.496 -13.250   2.038  0.00  0.00    -0.376 N 
ATOM     11  C   UNL d   1      29.658 -13.436   1.161  0.00  0.00     0.150 C 
ATOM     12  C   UNL d   1      29.425 -14.480   0.046  0.00  0.00     0.255 C 
ATOM     13  N   UNL d   1      28.795 -15.826   0.545  0.00  0.00    -0.064 N 
ATOM     14  C   UNL d   1      27.780 -15.736   1.715  0.00  0.00     0.255 C 
ATOM     15  H   UNL d   1      29.575 -16.364   0.936  0.00  0.00     0.280 HD
ATOM     16  C   UNL d   1      28.044 -14.527   2.708  0.00  0.00     0.150 C 
BRANCH  13  17
ATOM     17  C   UNL d   1      28.234 -16.651  -0.634  0.00  0.00     0.276 C 
BRANCH  17  18
ATOM     18  C   UNL d   1      26.745 -16.530  -0.940  0.00  0.00     0.003 A 
ATOM     19  C   UNL d   1      25.838 -17.509  -0.478  0.00  0.00     0.035 A 
ATOM     20  C   UNL d   1      24.468 -17.420  -0.797  0.00  0.00     0.034 A 
ATOM     21  C   UNL d   1      23.981 -16.401  -1.596  0.00  0.00     0.026 A 
ATOM     22 CL   UNL d   1      23.339 -18.556  -0.185  0.00  0.00    -0.084 Cl
ATOM     23  C   UNL d   1      24.845 -15.428  -2.010  0.00  0.00     0.039 A 
ATOM     24  C   UNL d   1      26.174 -15.458  -1.648  0.00  0.00     0.076 A 
BRANCH  24  25
ATOM     25  O   UNL d   1      26.910 -14.421  -2.116  0.00  0.00    -0.355 OA
ATOM     26  C   UNL d   1      26.252 -13.576  -3.063  0.00  0.00     0.210 C 
ENDBRANCH  24  25
ENDBRANCH  17  18
ENDBRANCH  13  17
ENDBRANCH   1  10
BRANCH   3  27
ATOM     27  N   UNL d   1      27.436  -9.238   4.783  0.00  0.00    -0.388 N 
ATOM     28  H   UNL d   1      26.676  -8.620   5.100  0.00  0.00     0.159 HD
BRANCH  27  29
ATOM     29  C   UNL d   1      28.519  -9.430   5.722  0.00  0.00     0.122 C 
BRANCH  29  30
ATOM     30  C   UNL d   1      29.304  -8.156   6.014  0.00  0.00     0.045 C 
BRANCH  30  31
ATOM     31  C   UNL d   1      28.464  -6.939   5.633  0.00  0.00     0.165 C 
BRANCH  31  32
ATOM     32  O   UNL d   1      27.223  -6.953   6.317  0.00  0.00    -0.401 OA
ATOM     33  H   UNL d   1      26.538  -7.286   5.711  0.00  0.00     0.209 HD
ENDBRANCH  31  32
ENDBRANCH  30  31
ENDBRANCH  29  30
ENDBRANCH  27  29
ENDBRANCH   3  27
BRANCH   4  34
ATOM     34  N   UNL d   1      26.356  -7.732   2.501  0.00  0.00    -0.111 N 
ATOM     35  O   UNL d   1      25.669  -7.276   1.599  0.00  0.00    -0.532 OA
ATOM     36  O   UNL d   1      26.653  -7.080   3.534  0.00  0.00    -0.532 OA
ENDBRANCH   4  34
TORSDOF 10
ENDMDL
MODEL 4
REMARK VINA RESULT:    -7.733      2.380      4.630
REMARK INTER + INTRA:         -13.739
REMARK INTER:                 -10.716
REMARK INTRA:                  -3.022
REMARK CONF_INDEPENDENT:        2.983
REMARK UNBOUND:                -3.022
REMARK  10 active torsions:
REMARK  status: ('A' for Active; 'I' for Inactive)
REMARK    1  A    between atoms: O_2  and  C_3 
REMARK    2  A    between atoms: C_9  and  C_10 
REMARK    3  A    between atoms: C_10  and  N_11 
REMARK    4  A    between atoms: N_14  and  C_15 
REMARK    5  A    between atoms: C_17  and  N_18 
REMARK    6  A    between atoms: N_18  and  C_19 
REMARK    7  A    between atoms: C_19  and  C_20 
REMARK    8  A    between atoms: C_20  and  C_21 
REMARK    9  A    between atoms: C_21  and  O_22 
REMARK   10  A    between atoms: C_23  and  N_24 
ROOT
ATOM      1  C   UNL d   1      27.871 -12.231   2.052  0.00  0.00     0.066 C 
ATOM      2  C   UNL d   1      27.701 -11.534   3.325  0.00  0.00     0.063 C 
ATOM      3  C   UNL d   1      27.346 -10.139   3.566  0.00  0.00     0.066 C 
ATOM      4  C   UNL d   1      26.937  -9.346   2.468  0.00  0.00     0.162 C 
ATOM      5  C   UNL d   1      27.015  -9.950   1.189  0.00  0.00     0.155 A 
ATOM      6  N   UNL d   1      26.735  -9.462  -0.027  0.00  0.00    -0.100 NA
ATOM      7  O   UNL d   1      27.019 -10.453  -0.935  0.00  0.00    -0.106 OA
ATOM      8  N   UNL d   1      27.536 -11.579  -0.326  0.00  0.00    -0.101 NA
ATOM      9  C   UNL d   1      27.501 -11.346   0.994  0.00  0.00     0.146 A 
ENDROOT
BRANCH   1  10
ATOM     10  N   UNL d   1      28.525 -13.490   1.956  0.00  0.00    -0.376 N 
ATOM     11  C   UNL d   1      29.694 -13.659   1.085  0.00  0.00     0.150 C 
ATOM     12  C   UNL d   1      29.460 -14.656  -0.072  0.00  0.00     0.255 C 
ATOM     13  N   UNL d   1      28.806 -16.011   0.368  0.00  0.00    -0.064 N 
ATOM     14  C   UNL d   1      27.780 -15.953   1.530  0.00  0.00     0.255 C 
ATOM     15  H   UNL d   1      29.575 -16.575   0.746  0.00  0.00     0.280 HD
ATOM     16  C   UNL d   1      28.049 -14.787   2.571  0.00  0.00     0.150 C 
BRANCH  13  17
ATOM     17  C   UNL d   1      28.248 -16.783  -0.848  0.00  0.00     0.276 C 
BRANCH  17  18
ATOM     18  C   UNL d   1      27.012 -16.218  -1.540  0.00  0.00     0.003 A 
ATOM     19  C   UNL d   1      27.144 -15.299  -2.603  0.00  0.00     0.035 A 
ATOM     20  C   UNL d   1      26.001 -14.745  -3.214  0.00  0.00     0.034 A 
ATOM     21  C   UNL d   1      24.728 -15.053  -2.770  0.00  0.00     0.026 A 
ATOM     22 CL   UNL d   1      26.137 -13.686  -4.556  0.00  0.00    -0.084 Cl
ATOM     23  C   UNL d   1      24.592 -15.973  -1.770  0.00  0.00     0.039 A 
ATOM     24  C   UNL d   1      25.694 -16.580  -1.209  0.00  0.00     0.076 A 
BRANCH  24  25
ATOM     25  O   UNL d   1      25.409 -17.483  -0.241  0.00  0.00    -0.355 OA
ATOM     26  C   UNL d   1      24.098 -18.051  -0.294  0.00  0.00     0.210 C 
ENDBRANCH  24  25
ENDBRANCH  17  18
ENDBRANCH  13  17
ENDBRANCH   1  10
BRANCH   3  27
ATOM     27  N   UNL d   1      27.517  -9.557   4.830  0.00  0.00    -0.388 N 
ATOM     28  H   UNL d   1      26.813  -8.867   5.128  0.00  0.00     0.159 HD
BRANCH  27  29
ATOM     29  C   UNL d   1      28.529  -9.880   5.811  0.00  0.00     0.122 C 
BRANCH  29  30
ATOM     30  C   UNL d   1      29.420  -8.697   6.179  0.00  0.00     0.045 C 
BRANCH  30  31
ATOM     31  C   UNL d   1      28.589  -7.638   6.901  0.00  0.00     0.165 C 
BRANCH  31  32
ATOM     32  O   UNL d   1      27.658  -7.041   6.015  0.00  0.00    -0.401 OA
ATOM     33  H   UNL d   1      26.971  -7.696   5.799  0.00  0.00     0.209 HD
ENDBRANCH  31  32
ENDBRANCH  30  31
ENDBRANCH  29  30
ENDBRANCH  27  29
ENDBRANCH   3  27
BRANCH   4  34
ATOM     34  N   UNL d   1      26.456  -7.964   2.599  0.00  0.00    -0.111 N 
ATOM     35  O   UNL d   1      25.710  -7.497   1.752  0.00  0.00    -0.532 OA
ATOM     36  O   UNL d   1      26.831  -7.322   3.613  0.00  0.00    -0.532 OA
ENDBRANCH   4  34
TORSDOF 10
ENDMDL
MODEL 5
REMARK VINA RESULT:    -7.732      3.474      5.544
REMARK INTER + INTRA:         -14.360
REMARK INTER:                 -10.715
REMARK INTRA:                  -3.645
REMARK CONF_INDEPENDENT:        2.983
REMARK UNBOUND:                -3.645
REMARK  10 active torsions:
REMARK  status: ('A' for Active; 'I' for Inactive)
REMARK    1  A    between atoms: O_2  and  C_3 
REMARK    2  A    between atoms: C_9  and  C_10 
REMARK    3  A    between atoms: C_10  and  N_11 
REMARK    4  A    between atoms: N_14  and  C_15 
REMARK    5  A    between atoms: C_17  and  N_18 
REMARK    6  A    between atoms: N_18  and  C_19 
REMARK    7  A    between atoms: C_19  and  C_20 
REMARK    8  A    between atoms: C_20  and  C_21 
REMARK    9  A    between atoms: C_21  and  O_22 
REMARK   10  A    between atoms: C_23  and  N_24 
ROOT
ATOM      1  C   UNL d   1      27.926 -11.634   1.877  0.00  0.00     0.066 C 
ATOM      2  C   UNL d   1      27.767 -11.170   0.500  0.00  0.00     0.063 C 
ATOM      3  C   UNL d   1      27.035 -10.011   0.002  0.00  0.00     0.066 C 
ATOM      4  C   UNL d   1      26.529  -9.077   0.937  0.00  0.00     0.162 C 
ATOM      5  C   UNL d   1      26.682  -9.410   2.306  0.00  0.00     0.155 A 
ATOM      6  N   UNL d   1      26.291  -8.762   3.413  0.00  0.00    -0.100 NA
ATOM      7  O   UNL d   1      26.655  -9.538   4.486  0.00  0.00    -0.106 OA
ATOM      8  N   UNL d   1      27.241 -10.725   4.089  0.00  0.00    -0.101 NA
ATOM      9  C   UNL d   1      27.336 -10.672   2.753  0.00  0.00     0.146 A 
ENDROOT
BRANCH   1  10
ATOM     10  N   UNL d   1      28.389 -12.941   2.190  0.00  0.00    -0.376 N 
ATOM     11  C   UNL d   1      27.502 -13.908   2.848  0.00  0.00     0.150 C 
ATOM     12  C   UNL d   1      27.985 -14.328   4.254  0.00  0.00     0.255 C 
ATOM     13  N   UNL d   1      29.501 -14.721   4.324  0.00  0.00    -0.064 N 
ATOM     14  C   UNL d   1      30.472 -13.946   3.395  0.00  0.00     0.255 C 
ATOM     15  H   UNL d   1      29.549 -15.686   3.980  0.00  0.00     0.280 HD
ATOM     16  C   UNL d   1      29.809 -13.439   2.046  0.00  0.00     0.150 C 
BRANCH  13  17
ATOM     17  C   UNL d   1      30.006 -14.745   5.783  0.00  0.00     0.276 C 
BRANCH  17  18
ATOM     18  C   UNL d   1      29.438 -13.710   6.748  0.00  0.00     0.003 A 
ATOM     19  C   UNL d   1      29.095 -14.075   8.068  0.00  0.00     0.035 A 
ATOM     20  C   UNL d   1      28.530 -13.128   8.946  0.00  0.00     0.034 A 
ATOM     21  C   UNL d   1      28.264 -11.834   8.533  0.00  0.00     0.026 A 
ATOM     22 CL   UNL d   1      28.175 -13.529  10.575  0.00  0.00    -0.084 Cl
ATOM     23  C   UNL d   1      28.633 -11.464   7.272  0.00  0.00     0.039 A 
ATOM     24  C   UNL d   1      29.252 -12.355   6.423  0.00  0.00     0.076 A 
BRANCH  24  25
ATOM     25  O   UNL d   1      29.576 -11.846   5.210  0.00  0.00    -0.355 OA
ATOM     26  C   UNL d   1      30.462 -10.724   5.229  0.00  0.00     0.210 C 
ENDBRANCH  24  25
ENDBRANCH  17  18
ENDBRANCH  13  17
ENDBRANCH   1  10
BRANCH   3  27
ATOM     27  N   UNL d   1      26.730  -9.877  -1.360  0.00  0.00    -0.388 N 
ATOM     28  H   UNL d   1      26.329  -8.979  -1.666  0.00  0.00     0.159 HD
BRANCH  27  29
ATOM     29  C   UNL d   1      26.996 -10.832  -2.413  0.00  0.00     0.122 C 
BRANCH  29  30
ATOM     30  C   UNL d   1      26.652 -10.315  -3.806  0.00  0.00     0.045 C 
BRANCH  30  31
ATOM     31  C   UNL d   1      25.313  -9.581  -3.761  0.00  0.00     0.165 C 
BRANCH  31  32
ATOM     32  O   UNL d   1      25.476  -8.273  -3.242  0.00  0.00    -0.401 OA
ATOM     33  H   UNL d   1      24.781  -8.112  -2.580  0.00  0.00     0.209 HD
ENDBRANCH  31  32
ENDBRANCH  30  31
ENDBRANCH  29  30
ENDBRANCH  27  29
ENDBRANCH   3  27
BRANCH   4  34
ATOM     34  N   UNL d   1      25.870  -7.820   0.556  0.00  0.00    -0.111 N 
ATOM     35  O   UNL d   1      25.529  -7.026   1.419  0.00  0.00    -0.532 OA
ATOM     36  O   UNL d   1      25.703  -7.613  -0.672  0.00  0.00    -0.532 OA
ENDBRANCH   4  34
TORSDOF 10
ENDMDL
MODEL 6
REMARK VINA RESULT:    -7.694      3.734      5.941
REMARK INTER + INTRA:         -13.894
REMARK INTER:                 -10.677
REMARK INTRA:                  -3.217
REMARK CONF_INDEPENDENT:        2.983
REMARK UNBOUND:                -3.217
REMARK  10 active torsions:
REMARK  status: ('A' for Active; 'I' for Inactive)
REMARK    1  A    between atoms: O_2  and  C_3 
REMARK    2  A    between atoms: C_9  and  C_10 
REMARK    3  A    between atoms: C_10  and  N_11 
REMARK    4  A    between atoms: N_14  and  C_15 
REMARK    5  A    between atoms: C_17  and  N_18 
REMARK    6  A    between atoms: N_18  and  C_19 
REMARK    7  A    between atoms: C_19  and  C_20 
REMARK    8  A    between atoms: C_20  and  C_21 
REMARK    9  A    between atoms: C_21  and  O_22 
REMARK   10  A    between atoms: C_23  and  N_24 
ROOT
ATOM      1  C   UNL d   1      27.970 -11.638   1.824  0.00  0.00     0.066 C 
ATOM      2  C   UNL d   1      27.830 -11.181   0.443  0.00  0.00     0.063 C 
ATOM      3  C   UNL d   1      27.100 -10.027  -0.070  0.00  0.00     0.066 C 
ATOM      4  C   UNL d   1      26.575  -9.092   0.853  0.00  0.00     0.162 C 
ATOM      5  C   UNL d   1      26.708  -9.418   2.225  0.00  0.00     0.155 A 
ATOM      6  N   UNL d   1      26.297  -8.768   3.323  0.00  0.00    -0.100 NA
ATOM      7  O   UNL d   1      26.648  -9.539   4.404  0.00  0.00    -0.106 OA
ATOM      8  N   UNL d   1      27.245 -10.724   4.022  0.00  0.00    -0.101 NA
ATOM      9  C   UNL d   1      27.361 -10.676   2.687  0.00  0.00     0.146 A 
ENDROOT
BRANCH   1  10
ATOM     10  N   UNL d   1      28.434 -12.942   2.150  0.00  0.00    -0.376 N 
ATOM     11  C   UNL d   1      27.509 -13.952   2.677  0.00  0.00     0.150 C 
ATOM     12  C   UNL d   1      27.844 -14.404   4.116  0.00  0.00     0.255 C 
ATOM     13  N   UNL d   1      29.354 -14.758   4.344  0.00  0.00    -0.064 N 
ATOM     14  C   UNL d   1      30.399 -13.928   3.553  0.00  0.00     0.255 C 
ATOM     15  H   UNL d   1      29.469 -15.710   3.980  0.00  0.00     0.280 HD
ATOM     16  C   UNL d   1      29.876 -13.397   2.153  0.00  0.00     0.150 C 
BRANCH  13  17
ATOM     17  C   UNL d   1      29.693 -14.816   5.849  0.00  0.00     0.276 C 
BRANCH  17  18
ATOM     18  C   UNL d   1      29.380 -13.586   6.695  0.00  0.00     0.003 A 
ATOM     19  C   UNL d   1      29.436 -12.295   6.127  0.00  0.00     0.035 A 
ATOM     20  C   UNL d   1      29.188 -11.155   6.919  0.00  0.00     0.034 A 
ATOM     21  C   UNL d   1      28.922 -11.265   8.272  0.00  0.00     0.026 A 
ATOM     22 CL   UNL d   1      29.178  -9.584   6.235  0.00  0.00    -0.084 Cl
ATOM     23  C   UNL d   1      28.824 -12.513   8.818  0.00  0.00     0.039 A 
ATOM     24  C   UNL d   1      28.992 -13.641   8.045  0.00  0.00     0.076 A 
BRANCH  24  25
ATOM     25  O   UNL d   1      28.851 -14.810   8.715  0.00  0.00    -0.355 OA
ATOM     26  C   UNL d   1      28.729 -14.696  10.135  0.00  0.00     0.210 C 
ENDBRANCH  24  25
ENDBRANCH  17  18
ENDBRANCH  13  17
ENDBRANCH   1  10
BRANCH   3  27
ATOM     27  N   UNL d   1      26.816  -9.901  -1.438  0.00  0.00    -0.388 N 
ATOM     28  H   UNL d   1      26.625  -8.953  -1.792  0.00  0.00     0.159 HD
BRANCH  27  29
ATOM     29  C   UNL d   1      26.847 -10.945  -2.437  0.00  0.00     0.122 C 
BRANCH  29  30
ATOM     30  C   UNL d   1      26.390 -10.482  -3.817  0.00  0.00     0.045 C 
BRANCH  30  31
ATOM     31  C   UNL d   1      25.155  -9.594  -3.674  0.00  0.00     0.165 C 
BRANCH  31  32
ATOM     32  O   UNL d   1      25.511  -8.319  -3.168  0.00  0.00    -0.401 OA
ATOM     33  H   UNL d   1      24.821  -8.028  -2.547  0.00  0.00     0.209 HD
ENDBRANCH  31  32
ENDBRANCH  30  31
ENDBRANCH  29  30
ENDBRANCH  27  29
ENDBRANCH   3  27
BRANCH   4  34
ATOM     34  N   UNL d   1      25.916  -7.840   0.456  0.00  0.00    -0.111 N 
ATOM     35  O   UNL d   1      26.105  -7.380  -0.659  0.00  0.00    -0.532 OA
ATOM     36  O   UNL d   1      25.155  -7.303   1.301  0.00  0.00    -0.532 OA
ENDBRANCH   4  34
TORSDOF 10
ENDMDL
MODEL 7
REMARK VINA RESULT:    -7.437      5.121      8.753
REMARK INTER + INTRA:         -13.344
REMARK INTER:                 -10.420
REMARK INTRA:                  -2.924
REMARK CONF_INDEPENDENT:        2.983
REMARK UNBOUND:                -2.924
REMARK  10 active torsions:
REMARK  status: ('A' for Active; 'I' for Inactive)
REMARK    1  A    between atoms: O_2  and  C_3 
REMARK    2  A    between atoms: C_9  and  C_10 
REMARK    3  A    between atoms: C_10  and  N_11 
REMARK    4  A    between atoms: N_14  and  C_15 
REMARK    5  A    between atoms: C_17  and  N_18 
REMARK    6  A    between atoms: N_18  and  C_19 
REMARK    7  A    between atoms: C_19  and  C_20 
REMARK    8  A    between atoms: C_20  and  C_21 
REMARK    9  A    between atoms: C_21  and  O_22 
REMARK   10  A    between atoms: C_23  and  N_24 
ROOT
ATOM      1  C   UNL d   1      30.645 -17.784  -3.768  0.00  0.00     0.066 C 
ATOM      2  C   UNL d   1      30.497 -16.826  -4.861  0.00  0.00     0.063 C 
ATOM      3  C   UNL d   1      30.713 -17.026  -6.290  0.00  0.00     0.066 C 
ATOM      4  C   UNL d   1      30.933 -18.340  -6.764  0.00  0.00     0.162 C 
ATOM      5  C   UNL d   1      31.039 -19.356  -5.781  0.00  0.00     0.155 A 
ATOM      6  N   UNL d   1      31.273 -20.670  -5.903  0.00  0.00    -0.100 NA
ATOM      7  O   UNL d   1      31.315 -21.192  -4.634  0.00  0.00    -0.106 OA
ATOM      8  N   UNL d   1      31.161 -20.217  -3.668  0.00  0.00    -0.101 NA
ATOM      9  C   UNL d   1      30.929 -19.070  -4.323  0.00  0.00     0.146 A 
ENDROOT
BRANCH   1  10
ATOM     10  N   UNL d   1      30.716 -17.380  -2.406  0.00  0.00    -0.376 N 
ATOM     11  C   UNL d   1      30.362 -18.314  -1.332  0.00  0.00     0.150 C 
ATOM     12  C   UNL d   1      29.133 -17.869  -0.508  0.00  0.00     0.255 C 
ATOM     13  N   UNL d   1      29.175 -16.372  -0.047  0.00  0.00    -0.064 N 
ATOM     14  C   UNL d   1      29.842 -15.356  -1.012  0.00  0.00     0.255 C 
ATOM     15  H   UNL d   1      29.779 -16.358   0.781  0.00  0.00     0.280 HD
ATOM     16  C   UNL d   1      30.992 -15.979  -1.910  0.00  0.00     0.150 C 
BRANCH  13  17
ATOM     17  C   UNL d   1      27.782 -15.890   0.413  0.00  0.00     0.276 C 
BRANCH  17  18
ATOM     18  C   UNL d   1      26.577 -16.291  -0.431  0.00  0.00     0.003 A 
ATOM     19  C   UNL d   1      25.600 -17.167   0.089  0.00  0.00     0.035 A 
ATOM     20  C   UNL d   1      24.508 -17.572  -0.706  0.00  0.00     0.034 A 
ATOM     21  C   UNL d   1      24.384 -17.157  -2.020  0.00  0.00     0.026 A 
ATOM     22 CL   UNL d   1      23.271 -18.575  -0.072  0.00  0.00    -0.084 Cl
ATOM     23  C   UNL d   1      25.303 -16.276  -2.515  0.00  0.00     0.039 A 
ATOM     24  C   UNL d   1      26.336 -15.812  -1.731  0.00  0.00     0.076 A 
BRANCH  24  25
ATOM     25  O   UNL d   1      27.161 -14.932  -2.347  0.00  0.00    -0.355 OA
ATOM     26  C   UNL d   1      26.665 -13.596  -2.457  0.00  0.00     0.210 C 
ENDBRANCH  24  25
ENDBRANCH  17  18
ENDBRANCH  13  17
ENDBRANCH   1  10
BRANCH   3  27
ATOM     27  N   UNL d   1      30.820 -15.935  -7.165  0.00  0.00    -0.388 N 
ATOM     28  H   UNL d   1      31.207 -16.121  -8.101  0.00  0.00     0.159 HD
BRANCH  27  29
ATOM     29  C   UNL d   1      30.365 -14.582  -6.935  0.00  0.00     0.122 C 
BRANCH  29  30
ATOM     30  C   UNL d   1      28.846 -14.448  -6.895  0.00  0.00     0.045 C 
BRANCH  30  31
ATOM     31  C   UNL d   1      28.361 -14.562  -5.451  0.00  0.00     0.165 C 
BRANCH  31  32
ATOM     32  O   UNL d   1      27.102 -15.209  -5.395  0.00  0.00    -0.401 OA
ATOM     33  H   UNL d   1      26.784 -15.191  -4.475  0.00  0.00     0.209 HD
ENDBRANCH  31  32
ENDBRANCH  30  31
ENDBRANCH  29  30
ENDBRANCH  27  29
ENDBRANCH   3  27
BRANCH   4  34
ATOM     34  N   UNL d   1      31.057 -18.681  -8.188  0.00  0.00    -0.111 N 
ATOM     35  O   UNL d   1      31.778 -18.012  -8.913  0.00  0.00    -0.532 OA
ATOM     36  O   UNL d   1      30.413 -19.681  -8.594  0.00  0.00    -0.532 OA
ENDBRANCH   4  34
TORSDOF 10
ENDMDL
MODEL 8
REMARK VINA RESULT:    -6.899      4.468      7.387
REMARK INTER + INTRA:         -13.638
REMARK INTER:                  -9.882
REMARK INTRA:                  -3.757
REMARK CONF_INDEPENDENT:        2.983
REMARK UNBOUND:                -3.757
REMARK  10 active torsions:
REMARK  status: ('A' for Active; 'I' for Inactive)
REMARK    1  A    between atoms: O_2  and  C_3 
REMARK    2  A    between atoms: C_9  and  C_10 
REMARK    3  A    between atoms: C_10  and  N_11 
REMARK    4  A    between atoms: N_14  and  C_15 
REMARK    5  A    between atoms: C_17  and  N_18 
REMARK    6  A    between atoms: N_18  and  C_19 
REMARK    7  A    between atoms: C_19  and  C_20 
REMARK    8  A    between atoms: C_20  and  C_21 
REMARK    9  A    between atoms: C_21  and  O_22 
REMARK   10  A    between atoms: C_23  and  N_24 
ROOT
ATOM      1  C   UNL d   1      28.788 -12.508   5.622  0.00  0.00     0.066 C 
ATOM      2  C   UNL d   1      28.460 -12.500   7.046  0.00  0.00     0.063 C 
ATOM      3  C   UNL d   1      28.761 -11.483   8.049  0.00  0.00     0.066 C 
ATOM      4  C   UNL d   1      29.289 -10.243   7.619  0.00  0.00     0.162 C 
ATOM      5  C   UNL d   1      29.592 -10.131   6.239  0.00  0.00     0.155 A 
ATOM      6  N   UNL d   1      30.121  -9.118   5.540  0.00  0.00    -0.100 NA
ATOM      7  O   UNL d   1      30.240  -9.543   4.239  0.00  0.00    -0.106 OA
ATOM      8  N   UNL d   1      29.839 -10.856   4.087  0.00  0.00    -0.101 NA
ATOM      9  C   UNL d   1      29.373 -11.250   5.280  0.00  0.00     0.146 A 
ENDROOT
BRANCH   1  10
ATOM     10  N   UNL d   1      28.722 -13.690   4.834  0.00  0.00    -0.376 N 
ATOM     11  C   UNL d   1      29.948 -14.324   4.337  0.00  0.00     0.150 C 
ATOM     12  C   UNL d   1      30.058 -14.330   2.796  0.00  0.00     0.255 C 
ATOM     13  N   UNL d   1      28.761 -14.813   2.060  0.00  0.00    -0.064 N 
ATOM     14  C   UNL d   1      27.402 -14.451   2.717  0.00  0.00     0.255 C 
ATOM     15  H   UNL d   1      28.790 -15.837   2.102  0.00  0.00     0.280 HD
ATOM     16  C   UNL d   1      27.461 -14.330   4.298  0.00  0.00     0.150 C 
BRANCH  13  17
ATOM     17  C   UNL d   1      28.791 -14.429   0.565  0.00  0.00     0.276 C 
BRANCH  17  18
ATOM     18  C   UNL d   1      27.665 -14.946  -0.324  0.00  0.00     0.003 A 
ATOM     19  C   UNL d   1      27.298 -14.246  -1.494  0.00  0.00     0.035 A 
ATOM     20  C   UNL d   1      26.229 -14.701  -2.292  0.00  0.00     0.034 A 
ATOM     21  C   UNL d   1      25.490 -15.815  -1.936  0.00  0.00     0.026 A 
ATOM     22 CL   UNL d   1      25.815 -13.910  -3.756  0.00  0.00    -0.084 Cl
ATOM     23  C   UNL d   1      25.867 -16.521  -0.829  0.00  0.00     0.039 A 
ATOM     24  C   UNL d   1      26.953 -16.133  -0.076  0.00  0.00     0.076 A 
BRANCH  24  25
ATOM     25  O   UNL d   1      27.220 -16.935   0.982  0.00  0.00    -0.355 OA
ATOM     26  C   UNL d   1      26.834 -18.303   0.833  0.00  0.00     0.210 C 
ENDBRANCH  24  25
ENDBRANCH  17  18
ENDBRANCH  13  17
ENDBRANCH   1  10
BRANCH   3  27
ATOM     27  N   UNL d   1      28.646 -11.762   9.419  0.00  0.00    -0.388 N 
ATOM     28  H   UNL d   1      28.865 -10.998  10.073  0.00  0.00     0.159 HD
BRANCH  27  29
ATOM     29  C   UNL d   1      28.166 -12.984  10.025  0.00  0.00     0.122 C 
BRANCH  29  30
ATOM     30  C   UNL d   1      28.735 -13.237  11.417  0.00  0.00     0.045 C 
BRANCH  30  31
ATOM     31  C   UNL d   1      29.996 -12.399  11.614  0.00  0.00     0.165 C 
BRANCH  31  32
ATOM     32  O   UNL d   1      29.668 -11.099  12.073  0.00  0.00    -0.401 OA
ATOM     33  H   UNL d   1      29.534 -10.522  11.301  0.00  0.00     0.209 HD
ENDBRANCH  31  32
ENDBRANCH  30  31
ENDBRANCH  29  30
ENDBRANCH  27  29
ENDBRANCH   3  27
BRANCH   4  34
ATOM     34  N   UNL d   1      29.532  -9.107   8.519  0.00  0.00    -0.111 N 
ATOM     35  O   UNL d   1      29.269  -7.972   8.151  0.00  0.00    -0.532 OA
ATOM     36  O   UNL d   1      29.993  -9.370   9.659  0.00  0.00    -0.532 OA
ENDBRANCH   4  34
TORSDOF 10
ENDMDL
MODEL 9
REMARK VINA RESULT:    -6.761      5.031      7.822
REMARK INTER + INTRA:         -13.274
REMARK INTER:                  -9.744
REMARK INTRA:                  -3.529
REMARK CONF_INDEPENDENT:        2.983
REMARK UNBOUND:                -3.529
REMARK  10 active torsions:
REMARK  status: ('A' for Active; 'I' for Inactive)
REMARK    1  A    between atoms: O_2  and  C_3 
REMARK    2  A    between atoms: C_9  and  C_10 
REMARK    3  A    between atoms: C_10  and  N_11 
REMARK    4  A    between atoms: N_14  and  C_15 
REMARK    5  A    between atoms: C_17  and  N_18 
REMARK    6  A    between atoms: N_18  and  C_19 
REMARK    7  A    between atoms: C_19  and  C_20 
REMARK    8  A    between atoms: C_20  and  C_21 
REMARK    9  A    between atoms: C_21  and  O_22 
REMARK   10  A    between atoms: C_23  and  N_24 
ROOT
ATOM      1  C   UNL d   1      28.259 -15.375  -1.182  0.00  0.00     0.066 C 
ATOM      2  C   UNL d   1      29.153 -15.262  -2.333  0.00  0.00     0.063 C 
ATOM      3  C   UNL d   1      28.825 -15.303  -3.754  0.00  0.00     0.066 C 
ATOM      4  C   UNL d   1      27.464 -15.279  -4.136  0.00  0.00     0.162 C 
ATOM      5  C   UNL d   1      26.513 -15.331  -3.087  0.00  0.00     0.155 A 
ATOM      6  N   UNL d   1      25.173 -15.354  -3.121  0.00  0.00    -0.100 NA
ATOM      7  O   UNL d   1      24.738 -15.445  -1.821  0.00  0.00    -0.106 OA
ATOM      8  N   UNL d   1      25.788 -15.533  -0.929  0.00  0.00    -0.101 NA
ATOM      9  C   UNL d   1      26.910 -15.409  -1.652  0.00  0.00     0.146 A 
ENDROOT
BRANCH   1  10
ATOM     10  N   UNL d   1      28.739 -15.639   0.130  0.00  0.00    -0.376 N 
ATOM     11  C   UNL d   1      27.869 -15.443   1.296  0.00  0.00     0.150 C 
ATOM     12  C   UNL d   1      28.369 -14.344   2.259  0.00  0.00     0.255 C 
ATOM     13  N   UNL d   1      29.890 -14.450   2.624  0.00  0.00    -0.064 N 
ATOM     14  C   UNL d   1      30.844 -14.973   1.518  0.00  0.00     0.255 C 
ATOM     15  H   UNL d   1      29.945 -15.166   3.356  0.00  0.00     0.280 HD
ATOM     16  C   UNL d   1      30.163 -15.983   0.502  0.00  0.00     0.150 C 
BRANCH  13  17
ATOM     17  C   UNL d   1      30.408 -13.137   3.250  0.00  0.00     0.276 C 
BRANCH  17  18
ATOM     18  C   UNL d   1      29.747 -12.655   4.537  0.00  0.00     0.003 A 
ATOM     19  C   UNL d   1      29.680 -11.276   4.834  0.00  0.00     0.035 A 
ATOM     20  C   UNL d   1      29.108 -10.833   6.043  0.00  0.00     0.034 A 
ATOM     21  C   UNL d   1      28.632 -11.729   6.984  0.00  0.00     0.026 A 
ATOM     22 CL   UNL d   1      28.949  -9.162   6.390  0.00  0.00    -0.084 Cl
ATOM     23  C   UNL d   1      28.654 -13.062   6.684  0.00  0.00     0.039 A 
ATOM     24  C   UNL d   1      29.144 -13.509   5.477  0.00  0.00     0.076 A 
BRANCH  24  25
ATOM     25  O   UNL d   1      29.089 -14.852   5.309  0.00  0.00    -0.355 OA
ATOM     26  C   UNL d   1      27.782 -15.396   5.110  0.00  0.00     0.210 C 
ENDBRANCH  24  25
ENDBRANCH  17  18
ENDBRANCH  13  17
ENDBRANCH   1  10
BRANCH   3  27
ATOM     27  N   UNL d   1      29.825 -15.483  -4.722  0.00  0.00    -0.388 N 
ATOM     28  H   UNL d   1      29.694 -15.007  -5.625  0.00  0.00     0.159 HD
BRANCH  27  29
ATOM     29  C   UNL d   1      31.073 -16.197  -4.567  0.00  0.00     0.122 C 
BRANCH  29  30
ATOM     30  C   UNL d   1      31.302 -17.262  -5.634  0.00  0.00     0.045 C 
BRANCH  30  31
ATOM     31  C   UNL d   1      30.405 -16.980  -6.838  0.00  0.00     0.165 C 
BRANCH  31  32
ATOM     32  O   UNL d   1      30.510 -15.624  -7.233  0.00  0.00    -0.401 OA
ATOM     33  H   UNL d   1      29.624 -15.301  -7.473  0.00  0.00     0.209 HD
ENDBRANCH  31  32
ENDBRANCH  30  31
ENDBRANCH  29  30
ENDBRANCH  27  29
ENDBRANCH   3  27
BRANCH   4  34
ATOM     34  N   UNL d   1      27.012 -15.210  -5.533  0.00  0.00    -0.111 N 
ATOM     35  O   UNL d   1      27.780 -14.826  -6.402  0.00  0.00    -0.532 OA
ATOM     36  O   UNL d   1      25.834 -15.577  -5.771  0.00  0.00    -0.532 OA
ENDBRANCH   4  34
TORSDOF 10
ENDMDL
