MODEL 1
REMARK VINA RESULT:    -8.016      0.000      0.000
REMARK INTER + INTRA:         -12.043
REMARK INTER:                  -9.508
REMARK INTRA:                  -2.535
REMARK CONF_INDEPENDENT:        1.492
REMARK UNBOUND:                -2.535
REMARK  5 active torsions:
REMARK  status: ('A' for Active; 'I' for Inactive)
REMARK    1  A    between atoms: O_2  and  C_3 
REMARK    2  A    between atoms: C_13  and  C_14 
REMARK    3  A    between atoms: C_14  and  C_16 
REMARK    4  A    between atoms: C_22  and  C_23 
REMARK    5  A    between atoms: C_27  and  N_28 
ROOT
ATOM      1  C   UNL d   1      31.215 -15.614  -1.684  0.00  0.00     0.069 A 
ATOM      2  C   UNL d   1      31.867 -16.224  -0.600  0.00  0.00     0.039 A 
ATOM      3  C   UNL d   1      31.489 -15.948   0.727  0.00  0.00     0.033 A 
ATOM      4  C   UNL d   1      30.448 -15.071   0.933  0.00  0.00     0.044 A 
ATOM      5  C   UNL d   1      29.793 -14.444  -0.131  0.00  0.00     0.018 A 
ATOM      6  C   UNL d   1      30.195 -14.678  -1.446  0.00  0.00     0.049 A 
ATOM      7  C   UNL d   1      28.557 -13.758   0.404  0.00  0.00     0.249 A 
ATOM      8  C   UNL d   1      28.655 -14.074   1.934  0.00  0.00     0.264 A 
ATOM      9  O   UNL d   1      27.890 -13.666   2.804  0.00  0.00    -0.270 OA
ATOM     10  N   UNL d   1      29.790 -14.825   2.134  0.00  0.00    -0.324 N 
ATOM     11  C   UNL d   1      27.203 -14.225  -0.193  0.00  0.00     0.122 C 
ATOM     12  C   UNL d   1      26.783 -13.068  -1.193  0.00  0.00     0.065 C 
ATOM     13  C   UNL d   1      27.898 -11.990  -1.100  0.00  0.00     0.209 C 
ATOM     14  C   UNL d   1      27.387 -10.548  -1.107  0.00  0.00     0.109 C 
ATOM     15  S   UNL d   1      27.976  -9.810   0.427  0.00  0.00    -0.140 SA
ATOM     16  C   UNL d   1      28.147 -11.376   1.255  0.00  0.00     0.311 C 
ATOM     17  N   UNL d   1      28.637 -12.261   0.165  0.00  0.00    -0.034 N 
ATOM     18  H   UNL d   1      30.025 -15.225   3.036  0.00  0.00     0.169 HD
ATOM     19  H   UNL d   1      29.627 -12.005   0.033  0.00  0.00     0.283 HD
ENDROOT
BRANCH  11  20
ATOM     20  C   UNL d   1      27.168 -15.700  -0.710  0.00  0.00     0.169 C 
ATOM     21  O   UNL d   1      28.077 -16.287  -1.282  0.00  0.00    -0.292 OA
BRANCH  20  22
ATOM     22  C   UNL d   1      25.981 -16.540  -0.656  0.00  0.00     0.028 C 
ATOM     23  C   UNL d   1      24.756 -16.131  -1.150  0.00  0.00     0.018 C 
ATOM     24  C   UNL d   1      23.655 -16.944  -0.903  0.00  0.00     0.020 C 
ATOM     25  C   UNL d   1      23.830 -18.097  -0.148  0.00  0.00     0.116 C 
ATOM     26  N   UNL d   1      25.037 -18.565   0.230  0.00  0.00    -0.272 NA
ATOM     27  C   UNL d   1      26.100 -17.797  -0.077  0.00  0.00     0.131 C 
ENDBRANCH  20  22
ENDBRANCH  11  20
BRANCH  12  28
ATOM     28  C   UNL d   1      26.475 -13.462  -2.627  0.00  0.00    -0.049 C 
ATOM     29  C   UNL d   1      25.156 -13.405  -3.098  0.00  0.00     0.007 C 
ATOM     30  C   UNL d   1      24.780 -14.075  -4.268  0.00  0.00     0.003 C 
ATOM     31  C   UNL d   1      25.723 -14.791  -5.003  0.00  0.00     0.036 C 
ATOM     32  C   UNL d   1      27.059 -14.724  -4.622  0.00  0.00     0.103 C 
ATOM     33  C   UNL d   1      27.439 -13.998  -3.488  0.00  0.00     0.043 C 
BRANCH  32  34
ATOM     34  N   UNL d   1      28.090 -15.475  -5.346  0.00  0.00    -0.116 N 
ATOM     35  O   UNL d   1      28.755 -16.303  -4.716  0.00  0.00    -0.532 OA
ATOM     36  O   UNL d   1      28.247 -15.201  -6.548  0.00  0.00    -0.532 OA
ENDBRANCH  32  34
ENDBRANCH  12  28
BRANCH   1  37
ATOM     37  O   UNL d   1      31.443 -15.902  -3.003  0.00  0.00    -0.356 OA
ATOM     38  C   UNL d   1      31.272 -17.262  -3.426  0.00  0.00     0.210 C 
ENDBRANCH   1  37
TORSDOF 5
ENDMDL
MODEL 2
REMARK VINA RESULT:    -7.533      3.090      5.503
REMARK INTER + INTRA:         -11.227
REMARK INTER:                  -9.025
REMARK INTRA:                  -2.202
REMARK CONF_INDEPENDENT:        1.492
REMARK UNBOUND:                -2.202
REMARK  5 active torsions:
REMARK  status: ('A' for Active; 'I' for Inactive)
REMARK    1  A    between atoms: O_2  and  C_3 
REMARK    2  A    between atoms: C_13  and  C_14 
REMARK    3  A    between atoms: C_14  and  C_16 
REMARK    4  A    between atoms: C_22  and  C_23 
REMARK    5  A    between atoms: C_27  and  N_28 
ROOT
ATOM      1  C   UNL d   1      24.748 -16.887  -1.135  0.00  0.00     0.069 A 
ATOM      2  C   UNL d   1      25.013 -17.844  -0.142  0.00  0.00     0.039 A 
ATOM      3  C   UNL d   1      26.333 -18.197   0.196  0.00  0.00     0.033 A 
ATOM      4  C   UNL d   1      27.361 -17.565  -0.467  0.00  0.00     0.044 A 
ATOM      5  C   UNL d   1      27.119 -16.619  -1.466  0.00  0.00     0.018 A 
ATOM      6  C   UNL d   1      25.813 -16.300  -1.838  0.00  0.00     0.049 A 
ATOM      7  C   UNL d   1      28.425 -15.938  -1.808  0.00  0.00     0.249 A 
ATOM      8  C   UNL d   1      29.429 -16.684  -0.866  0.00  0.00     0.264 A 
ATOM      9  O   UNL d   1      30.644 -16.513  -0.831  0.00  0.00    -0.270 OA
ATOM     10  N   UNL d   1      28.714 -17.612  -0.146  0.00  0.00    -0.324 N 
ATOM     11  C   UNL d   1      28.471 -14.401  -1.594  0.00  0.00     0.122 C 
ATOM     12  C   UNL d   1      28.365 -13.788  -3.053  0.00  0.00     0.065 C 
ATOM     13  C   UNL d   1      28.291 -14.997  -4.027  0.00  0.00     0.209 C 
ATOM     14  C   UNL d   1      29.105 -14.828  -5.310  0.00  0.00     0.109 C 
ATOM     15  S   UNL d   1      30.273 -16.200  -5.335  0.00  0.00    -0.140 SA
ATOM     16  C   UNL d   1      30.214 -16.439  -3.573  0.00  0.00     0.311 C 
ATOM     17  N   UNL d   1      28.783 -16.179  -3.264  0.00  0.00    -0.034 N 
ATOM     18  H   UNL d   1      29.133 -18.164   0.595  0.00  0.00     0.169 HD
ATOM     19  H   UNL d   1      28.278 -17.017  -3.588  0.00  0.00     0.283 HD
ENDROOT
BRANCH  11  20
ATOM     20  C   UNL d   1      27.517 -13.846  -0.487  0.00  0.00     0.169 C 
ATOM     21  O   UNL d   1      26.418 -13.340  -0.667  0.00  0.00    -0.292 OA
BRANCH  20  22
ATOM     22  C   UNL d   1      27.878 -13.780   0.921  0.00  0.00     0.028 C 
ATOM     23  C   UNL d   1      29.142 -14.100   1.382  0.00  0.00     0.018 C 
ATOM     24  C   UNL d   1      29.334 -14.157   2.758  0.00  0.00     0.020 C 
ATOM     25  C   UNL d   1      28.249 -13.929   3.595  0.00  0.00     0.116 C 
ATOM     26  N   UNL d   1      27.048 -13.496   3.159  0.00  0.00    -0.272 NA
ATOM     27  C   UNL d   1      26.901 -13.382   1.824  0.00  0.00     0.131 C 
ENDBRANCH  20  22
ENDBRANCH  11  20
BRANCH  12  28
ATOM     28  C   UNL d   1      27.266 -12.772  -3.305  0.00  0.00    -0.049 C 
ATOM     29  C   UNL d   1      26.323 -13.001  -4.317  0.00  0.00     0.007 C 
ATOM     30  C   UNL d   1      25.528 -11.959  -4.809  0.00  0.00     0.003 C 
ATOM     31  C   UNL d   1      25.642 -10.675  -4.279  0.00  0.00     0.036 C 
ATOM     32  C   UNL d   1      26.466 -10.479  -3.176  0.00  0.00     0.103 C 
ATOM     33  C   UNL d   1      27.209 -11.539  -2.645  0.00  0.00     0.043 C 
BRANCH  32  34
ATOM     34  N   UNL d   1      26.640  -9.144  -2.591  0.00  0.00    -0.116 N 
ATOM     35  O   UNL d   1      25.631  -8.535  -2.224  0.00  0.00    -0.532 OA
ATOM     36  O   UNL d   1      27.800  -8.702  -2.534  0.00  0.00    -0.532 OA
ENDBRANCH  32  34
ENDBRANCH  12  28
BRANCH   1  37
ATOM     37  O   UNL d   1      23.506 -16.407  -1.454  0.00  0.00    -0.356 OA
ATOM     38  C   UNL d   1      22.441 -16.650  -0.524  0.00  0.00     0.210 C 
ENDBRANCH   1  37
TORSDOF 5
ENDMDL
MODEL 3
REMARK VINA RESULT:    -7.525      2.784      5.343
REMARK INTER + INTRA:         -11.550
REMARK INTER:                  -9.016
REMARK INTRA:                  -2.534
REMARK CONF_INDEPENDENT:        1.492
REMARK UNBOUND:                -2.534
REMARK  5 active torsions:
REMARK  status: ('A' for Active; 'I' for Inactive)
REMARK    1  A    between atoms: O_2  and  C_3 
REMARK    2  A    between atoms: C_13  and  C_14 
REMARK    3  A    between atoms: C_14  and  C_16 
REMARK    4  A    between atoms: C_22  and  C_23 
REMARK    5  A    between atoms: C_27  and  N_28 
ROOT
ATOM      1  C   UNL d   1      28.606 -13.672   3.412  0.00  0.00     0.069 A 
ATOM      2  C   UNL d   1      29.591 -12.946   4.102  0.00  0.00     0.039 A 
ATOM      3  C   UNL d   1      30.932 -12.953   3.678  0.00  0.00     0.033 A 
ATOM      4  C   UNL d   1      31.250 -13.681   2.554  0.00  0.00     0.044 A 
ATOM      5  C   UNL d   1      30.289 -14.419   1.859  0.00  0.00     0.018 A 
ATOM      6  C   UNL d   1      28.967 -14.454   2.303  0.00  0.00     0.049 A 
ATOM      7  C   UNL d   1      30.892 -14.886   0.554  0.00  0.00     0.249 A 
ATOM      8  C   UNL d   1      32.348 -14.320   0.656  0.00  0.00     0.264 A 
ATOM      9  O   UNL d   1      33.249 -14.500  -0.158  0.00  0.00    -0.270 OA
ATOM     10  N   UNL d   1      32.453 -13.654   1.855  0.00  0.00    -0.324 N 
ATOM     11  C   UNL d   1      30.180 -14.406  -0.739  0.00  0.00     0.122 C 
ATOM     12  C   UNL d   1      29.379 -15.675  -1.252  0.00  0.00     0.065 C 
ATOM     13  C   UNL d   1      29.691 -16.819  -0.248  0.00  0.00     0.209 C 
ATOM     14  C   UNL d   1      29.913 -18.187  -0.895  0.00  0.00     0.109 C 
ATOM     15  S   UNL d   1      31.569 -18.700  -0.405  0.00  0.00    -0.140 SA
ATOM     16  C   UNL d   1      32.123 -17.037  -0.098  0.00  0.00     0.311 C 
ATOM     17  N   UNL d   1      30.915 -16.403   0.493  0.00  0.00    -0.034 N 
ATOM     18  H   UNL d   1      33.282 -13.127   2.113  0.00  0.00     0.169 HD
ATOM     19  H   UNL d   1      30.860 -16.768   1.456  0.00  0.00     0.283 HD
ENDROOT
BRANCH  11  20
ATOM     20  C   UNL d   1      29.418 -13.046  -0.623  0.00  0.00     0.169 C 
ATOM     21  O   UNL d   1      29.317 -12.358   0.383  0.00  0.00    -0.292 OA
BRANCH  20  22
ATOM     22  C   UNL d   1      28.636 -12.472  -1.707  0.00  0.00     0.028 C 
ATOM     23  C   UNL d   1      27.350 -11.995  -1.527  0.00  0.00     0.018 C 
ATOM     24  C   UNL d   1      26.636 -11.616  -2.659  0.00  0.00     0.020 C 
ATOM     25  C   UNL d   1      27.229 -11.767  -3.907  0.00  0.00     0.116 C 
ATOM     26  N   UNL d   1      28.521 -12.112  -4.081  0.00  0.00    -0.272 NA
ATOM     27  C   UNL d   1      29.217 -12.412  -2.967  0.00  0.00     0.131 C 
ENDBRANCH  20  22
ENDBRANCH  11  20
BRANCH  12  28
ATOM     28  C   UNL d   1      27.890 -15.508  -1.497  0.00  0.00    -0.049 C 
ATOM     29  C   UNL d   1      26.973 -15.890  -0.508  0.00  0.00     0.007 C 
ATOM     30  C   UNL d   1      25.621 -16.082  -0.815  0.00  0.00     0.003 C 
ATOM     31  C   UNL d   1      25.156 -15.867  -2.111  0.00  0.00     0.036 C 
ATOM     32  C   UNL d   1      26.031 -15.343  -3.057  0.00  0.00     0.103 C 
ATOM     33  C   UNL d   1      27.367 -15.091  -2.727  0.00  0.00     0.043 C 
BRANCH  32  34
ATOM     34  N   UNL d   1      25.601 -15.118  -4.441  0.00  0.00    -0.116 N 
ATOM     35  O   UNL d   1      26.303 -15.575  -5.348  0.00  0.00    -0.532 OA
ATOM     36  O   UNL d   1      24.567 -14.449  -4.608  0.00  0.00    -0.532 OA
ENDBRANCH  32  34
ENDBRANCH  12  28
BRANCH   1  37
ATOM     37  O   UNL d   1      27.266 -13.638   3.689  0.00  0.00    -0.356 OA
ATOM     38  C   UNL d   1      26.844 -14.075   4.988  0.00  0.00     0.210 C 
ENDBRANCH   1  37
TORSDOF 5
ENDMDL
MODEL 4
REMARK VINA RESULT:    -7.359      2.823      5.870
REMARK INTER + INTRA:         -11.228
REMARK INTER:                  -8.851
REMARK INTRA:                  -2.377
REMARK CONF_INDEPENDENT:        1.492
REMARK UNBOUND:                -2.377
REMARK  5 active torsions:
REMARK  status: ('A' for Active; 'I' for Inactive)
REMARK    1  A    between atoms: O_2  and  C_3 
REMARK    2  A    between atoms: C_13  and  C_14 
REMARK    3  A    between atoms: C_14  and  C_16 
REMARK    4  A    between atoms: C_22  and  C_23 
REMARK    5  A    between atoms: C_27  and  N_28 
ROOT
ATOM      1  C   UNL d   1      26.398 -15.479  -1.423  0.00  0.00     0.069 A 
ATOM      2  C   UNL d   1      26.642 -16.806  -1.033  0.00  0.00     0.039 A 
ATOM      3  C   UNL d   1      27.860 -17.177  -0.435  0.00  0.00     0.033 A 
ATOM      4  C   UNL d   1      28.804 -16.196  -0.229  0.00  0.00     0.044 A 
ATOM      5  C   UNL d   1      28.587 -14.873  -0.620  0.00  0.00     0.018 A 
ATOM      6  C   UNL d   1      27.400 -14.508  -1.256  0.00  0.00     0.049 A 
ATOM      7  C   UNL d   1      29.683 -14.013  -0.034  0.00  0.00     0.249 A 
ATOM      8  C   UNL d   1      30.558 -15.076   0.711  0.00  0.00     0.264 A 
ATOM      9  O   UNL d   1      31.613 -14.856   1.297  0.00  0.00    -0.270 OA
ATOM     10  N   UNL d   1      29.970 -16.305   0.523  0.00  0.00    -0.324 N 
ATOM     11  C   UNL d   1      29.224 -12.877   0.920  0.00  0.00     0.122 C 
ATOM     12  C   UNL d   1      29.355 -11.551   0.060  0.00  0.00     0.065 C 
ATOM     13  C   UNL d   1      29.902 -11.987  -1.327  0.00  0.00     0.209 C 
ATOM     14  C   UNL d   1      30.955 -11.047  -1.916  0.00  0.00     0.109 C 
ATOM     15  S   UNL d   1      32.427 -12.054  -2.168  0.00  0.00    -0.140 SA
ATOM     16  C   UNL d   1      31.955 -13.263  -0.950  0.00  0.00     0.311 C 
ATOM     17  N   UNL d   1      30.483 -13.346  -1.139  0.00  0.00    -0.034 N 
ATOM     18  H   UNL d   1      30.308 -17.145   0.981  0.00  0.00     0.169 HD
ATOM     19  H   UNL d   1      30.350 -13.887  -2.007  0.00  0.00     0.283 HD
ENDROOT
BRANCH  11  20
ATOM     20  C   UNL d   1      27.884 -13.138   1.682  0.00  0.00     0.169 C 
ATOM     21  O   UNL d   1      26.768 -13.186   1.184  0.00  0.00    -0.292 OA
BRANCH  20  22
ATOM     22  C   UNL d   1      27.797 -13.262   3.129  0.00  0.00     0.028 C 
ATOM     23  C   UNL d   1      27.732 -12.165   3.969  0.00  0.00     0.018 C 
ATOM     24  C   UNL d   1      27.813 -12.393   5.338  0.00  0.00     0.020 C 
ATOM     25  C   UNL d   1      27.991 -13.694   5.791  0.00  0.00     0.116 C 
ATOM     26  N   UNL d   1      27.930 -14.778   4.990  0.00  0.00    -0.272 NA
ATOM     27  C   UNL d   1      27.784 -14.540   3.672  0.00  0.00     0.131 C 
ENDBRANCH  20  22
ENDBRANCH  11  20
BRANCH  12  28
ATOM     28  C   UNL d   1      28.124 -10.669  -0.053  0.00  0.00    -0.049 C 
ATOM     29  C   UNL d   1      27.655 -10.285  -1.317  0.00  0.00     0.007 C 
ATOM     30  C   UNL d   1      26.763  -9.215  -1.459  0.00  0.00     0.003 C 
ATOM     31  C   UNL d   1      26.302  -8.529  -0.338  0.00  0.00     0.036 C 
ATOM     32  C   UNL d   1      26.646  -9.003   0.924  0.00  0.00     0.103 C 
ATOM     33  C   UNL d   1      27.485 -10.114   1.062  0.00  0.00     0.043 C 
BRANCH  32  34
ATOM     34  N   UNL d   1      26.207  -8.307   2.138  0.00  0.00    -0.116 N 
ATOM     35  O   UNL d   1      26.505  -8.801   3.230  0.00  0.00    -0.532 OA
ATOM     36  O   UNL d   1      25.530  -7.276   1.983  0.00  0.00    -0.532 OA
ENDBRANCH  32  34
ENDBRANCH  12  28
BRANCH   1  37
ATOM     37  O   UNL d   1      25.209 -15.008  -1.912  0.00  0.00    -0.356 OA
ATOM     38  C   UNL d   1      25.238 -13.797  -2.681  0.00  0.00     0.210 C 
ENDBRANCH   1  37
TORSDOF 5
ENDMDL
MODEL 5
REMARK VINA RESULT:    -7.310      2.012      2.885
REMARK INTER + INTRA:         -11.300
REMARK INTER:                  -8.802
REMARK INTRA:                  -2.498
REMARK CONF_INDEPENDENT:        1.492
REMARK UNBOUND:                -2.498
REMARK  5 active torsions:
REMARK  status: ('A' for Active; 'I' for Inactive)
REMARK    1  A    between atoms: O_2  and  C_3 
REMARK    2  A    between atoms: C_13  and  C_14 
REMARK    3  A    between atoms: C_14  and  C_16 
REMARK    4  A    between atoms: C_22  and  C_23 
REMARK    5  A    between atoms: C_27  and  N_28 
ROOT
ATOM      1  C   UNL d   1      30.834 -17.301  -4.434  0.00  0.00     0.069 A 
ATOM      2  C   UNL d   1      31.545 -18.428  -3.988  0.00  0.00     0.039 A 
ATOM      3  C   UNL d   1      31.975 -18.535  -2.653  0.00  0.00     0.033 A 
ATOM      4  C   UNL d   1      31.666 -17.509  -1.789  0.00  0.00     0.044 A 
ATOM      5  C   UNL d   1      30.971 -16.375  -2.215  0.00  0.00     0.018 A 
ATOM      6  C   UNL d   1      30.583 -16.240  -3.548  0.00  0.00     0.049 A 
ATOM      7  C   UNL d   1      30.573 -15.571  -0.997  0.00  0.00     0.249 A 
ATOM      8  C   UNL d   1      31.191 -16.423   0.162  0.00  0.00     0.264 A 
ATOM      9  O   UNL d   1      31.179 -16.131   1.354  0.00  0.00    -0.270 OA
ATOM     10  N   UNL d   1      31.811 -17.511  -0.405  0.00  0.00    -0.324 N 
ATOM     11  C   UNL d   1      29.051 -15.345  -0.795  0.00  0.00     0.122 C 
ATOM     12  C   UNL d   1      28.806 -13.840  -1.229  0.00  0.00     0.065 C 
ATOM     13  C   UNL d   1      30.196 -13.273  -1.632  0.00  0.00     0.209 C 
ATOM     14  C   UNL d   1      30.456 -11.841  -1.163  0.00  0.00     0.109 C 
ATOM     15  S   UNL d   1      31.934 -11.920  -0.136  0.00  0.00    -0.140 SA
ATOM     16  C   UNL d   1      31.724 -13.646   0.242  0.00  0.00     0.311 C 
ATOM     17  N   UNL d   1      31.209 -14.193  -1.041  0.00  0.00    -0.034 N 
ATOM     18  H   UNL d   1      32.216 -18.257   0.152  0.00  0.00     0.169 HD
ATOM     19  H   UNL d   1      32.027 -14.232  -1.667  0.00  0.00     0.283 HD
ENDROOT
BRANCH  11  20
ATOM     20  C   UNL d   1      28.121 -16.449  -1.394  0.00  0.00     0.169 C 
ATOM     21  O   UNL d   1      28.312 -17.073  -2.429  0.00  0.00    -0.292 OA
BRANCH  20  22
ATOM     22  C   UNL d   1      26.832 -16.807  -0.821  0.00  0.00     0.028 C 
ATOM     23  C   UNL d   1      26.681 -17.838   0.088  0.00  0.00     0.018 C 
ATOM     24  C   UNL d   1      25.387 -18.199   0.449  0.00  0.00     0.020 C 
ATOM     25  C   UNL d   1      24.318 -17.538  -0.143  0.00  0.00     0.116 C 
ATOM     26  N   UNL d   1      24.457 -16.453  -0.932  0.00  0.00    -0.272 NA
ATOM     27  C   UNL d   1      25.719 -16.077  -1.217  0.00  0.00     0.131 C 
ENDBRANCH  20  22
ENDBRANCH  11  20
BRANCH  12  28
ATOM     28  C   UNL d   1      27.746 -13.581  -2.285  0.00  0.00    -0.049 C 
ATOM     29  C   UNL d   1      26.676 -12.721  -2.004  0.00  0.00     0.007 C 
ATOM     30  C   UNL d   1      25.520 -12.728  -2.793  0.00  0.00     0.003 C 
ATOM     31  C   UNL d   1      25.425 -13.575  -3.895  0.00  0.00     0.036 C 
ATOM     32  C   UNL d   1      26.541 -14.318  -4.265  0.00  0.00     0.103 C 
ATOM     33  C   UNL d   1      27.718 -14.258  -3.510  0.00  0.00     0.043 C 
BRANCH  32  34
ATOM     34  N   UNL d   1      26.491 -15.242  -5.403  0.00  0.00    -0.116 N 
ATOM     35  O   UNL d   1      27.409 -15.198  -6.228  0.00  0.00    -0.532 OA
ATOM     36  O   UNL d   1      25.502 -15.990  -5.478  0.00  0.00    -0.532 OA
ENDBRANCH  32  34
ENDBRANCH  12  28
BRANCH   1  37
ATOM     37  O   UNL d   1      30.287 -17.159  -5.680  0.00  0.00    -0.356 OA
ATOM     38  C   UNL d   1      30.285 -15.846  -6.260  0.00  0.00     0.210 C 
ENDBRANCH   1  37
TORSDOF 5
ENDMDL
MODEL 6
REMARK VINA RESULT:    -7.203      2.929      5.574
REMARK INTER + INTRA:         -11.383
REMARK INTER:                  -8.694
REMARK INTRA:                  -2.688
REMARK CONF_INDEPENDENT:        1.492
REMARK UNBOUND:                -2.688
REMARK  5 active torsions:
REMARK  status: ('A' for Active; 'I' for Inactive)
REMARK    1  A    between atoms: O_2  and  C_3 
REMARK    2  A    between atoms: C_13  and  C_14 
REMARK    3  A    between atoms: C_14  and  C_16 
REMARK    4  A    between atoms: C_22  and  C_23 
REMARK    5  A    between atoms: C_27  and  N_28 
ROOT
ATOM      1  C   UNL d   1      30.736 -13.545  -2.381  0.00  0.00     0.069 A 
ATOM      2  C   UNL d   1      30.733 -14.768  -3.073  0.00  0.00     0.039 A 
ATOM      3  C   UNL d   1      29.921 -15.838  -2.658  0.00  0.00     0.033 A 
ATOM      4  C   UNL d   1      29.114 -15.649  -1.559  0.00  0.00     0.044 A 
ATOM      5  C   UNL d   1      29.109 -14.445  -0.849  0.00  0.00     0.018 A 
ATOM      6  C   UNL d   1      29.948 -13.397  -1.228  0.00  0.00     0.049 A 
ATOM      7  C   UNL d   1      27.952 -14.467   0.124  0.00  0.00     0.249 A 
ATOM      8  C   UNL d   1      27.344 -15.885  -0.136  0.00  0.00     0.264 A 
ATOM      9  O   UNL d   1      26.405 -16.389   0.474  0.00  0.00    -0.270 OA
ATOM     10  N   UNL d   1      28.097 -16.489  -1.115  0.00  0.00    -0.324 N 
ATOM     11  C   UNL d   1      26.892 -13.347  -0.050  0.00  0.00     0.122 C 
ATOM     12  C   UNL d   1      27.189 -12.325   1.126  0.00  0.00     0.065 C 
ATOM     13  C   UNL d   1      28.381 -12.919   1.925  0.00  0.00     0.209 C 
ATOM     14  C   UNL d   1      28.258 -12.780   3.443  0.00  0.00     0.109 C 
ATOM     15  S   UNL d   1      28.320 -14.457   4.098  0.00  0.00    -0.140 SA
ATOM     16  C   UNL d   1      27.780 -15.200   2.573  0.00  0.00     0.311 C 
ATOM     17  N   UNL d   1      28.458 -14.359   1.551  0.00  0.00    -0.034 N 
ATOM     18  H   UNL d   1      27.847 -17.387  -1.517  0.00  0.00     0.169 HD
ATOM     19  H   UNL d   1      29.446 -14.655   1.569  0.00  0.00     0.283 HD
ENDROOT
BRANCH  11  20
ATOM     20  C   UNL d   1      26.739 -12.783  -1.500  0.00  0.00     0.169 C 
ATOM     21  O   UNL d   1      26.651 -11.604  -1.812  0.00  0.00    -0.292 OA
BRANCH  20  22
ATOM     22  C   UNL d   1      26.583 -13.628  -2.675  0.00  0.00     0.028 C 
ATOM     23  C   UNL d   1      27.432 -13.554  -3.764  0.00  0.00     0.018 C 
ATOM     24  C   UNL d   1      27.099 -14.291  -4.895  0.00  0.00     0.020 C 
ATOM     25  C   UNL d   1      25.921 -15.029  -4.891  0.00  0.00     0.116 C 
ATOM     26  N   UNL d   1      25.155 -15.205  -3.795  0.00  0.00    -0.272 NA
ATOM     27  C   UNL d   1      25.532 -14.536  -2.687  0.00  0.00     0.131 C 
ENDBRANCH  20  22
ENDBRANCH  11  20
BRANCH  12  28
ATOM     28  C   UNL d   1      27.412 -10.871   0.747  0.00  0.00    -0.049 C 
ATOM     29  C   UNL d   1      28.555 -10.506   0.022  0.00  0.00     0.007 C 
ATOM     30  C   UNL d   1      28.971  -9.171  -0.042  0.00  0.00     0.003 C 
ATOM     31  C   UNL d   1      28.237  -8.174   0.596  0.00  0.00     0.036 C 
ATOM     32  C   UNL d   1      27.024  -8.511   1.187  0.00  0.00     0.103 C 
ATOM     33  C   UNL d   1      26.579  -9.837   1.190  0.00  0.00     0.043 C 
BRANCH  32  34
ATOM     34  N   UNL d   1      26.220  -7.505   1.891  0.00  0.00    -0.116 N 
ATOM     35  O   UNL d   1      26.630  -7.094   2.980  0.00  0.00    -0.532 OA
ATOM     36  O   UNL d   1      25.156  -7.156   1.352  0.00  0.00    -0.532 OA
ENDBRANCH  32  34
ENDBRANCH  12  28
BRANCH   1  37
ATOM     37  O   UNL d   1      31.410 -12.421  -2.773  0.00  0.00    -0.356 OA
ATOM     38  C   UNL d   1      30.717 -11.488  -3.614  0.00  0.00     0.210 C 
ENDBRANCH   1  37
TORSDOF 5
ENDMDL
MODEL 7
REMARK VINA RESULT:    -7.001      2.946      5.809
REMARK INTER + INTRA:         -11.270
REMARK INTER:                  -8.492
REMARK INTRA:                  -2.778
REMARK CONF_INDEPENDENT:        1.492
REMARK UNBOUND:                -2.778
REMARK  5 active torsions:
REMARK  status: ('A' for Active; 'I' for Inactive)
REMARK    1  A    between atoms: O_2  and  C_3 
REMARK    2  A    between atoms: C_13  and  C_14 
REMARK    3  A    between atoms: C_14  and  C_16 
REMARK    4  A    between atoms: C_22  and  C_23 
REMARK    5  A    between atoms: C_27  and  N_28 
ROOT
ATOM      1  C   UNL d   1      27.991 -13.623   3.192  0.00  0.00     0.069 A 
ATOM      2  C   UNL d   1      28.749 -13.141   4.272  0.00  0.00     0.039 A 
ATOM      3  C   UNL d   1      30.145 -13.313   4.316  0.00  0.00     0.033 A 
ATOM      4  C   UNL d   1      30.750 -13.956   3.260  0.00  0.00     0.044 A 
ATOM      5  C   UNL d   1      30.014 -14.452   2.182  0.00  0.00     0.018 A 
ATOM      6  C   UNL d   1      28.625 -14.327   2.155  0.00  0.00     0.049 A 
ATOM      7  C   UNL d   1      30.977 -14.863   1.091  0.00  0.00     0.249 A 
ATOM      8  C   UNL d   1      32.360 -14.549   1.753  0.00  0.00     0.264 A 
ATOM      9  O   UNL d   1      33.461 -14.778   1.262  0.00  0.00    -0.270 OA
ATOM     10  N   UNL d   1      32.116 -14.042   3.008  0.00  0.00    -0.324 N 
ATOM     11  C   UNL d   1      30.815 -14.138  -0.272  0.00  0.00     0.122 C 
ATOM     12  C   UNL d   1      30.107 -15.201  -1.212  0.00  0.00     0.065 C 
ATOM     13  C   UNL d   1      29.922 -16.483  -0.353  0.00  0.00     0.209 C 
ATOM     14  C   UNL d   1      30.201 -17.790  -1.097  0.00  0.00     0.109 C 
ATOM     15  S   UNL d   1      31.516 -18.608  -0.178  0.00  0.00    -0.140 SA
ATOM     16  C   UNL d   1      32.110 -17.097   0.551  0.00  0.00     0.311 C 
ATOM     17  N   UNL d   1      30.850 -16.348   0.804  0.00  0.00    -0.034 N 
ATOM     18  H   UNL d   1      32.857 -13.685   3.603  0.00  0.00     0.169 HD
ATOM     19  H   UNL d   1      30.425 -16.803   1.626  0.00  0.00     0.283 HD
ENDROOT
BRANCH  11  20
ATOM     20  C   UNL d   1      30.216 -12.696  -0.202  0.00  0.00     0.169 C 
ATOM     21  O   UNL d   1      29.451 -12.191  -1.012  0.00  0.00    -0.292 OA
BRANCH  20  22
ATOM     22  C   UNL d   1      30.586 -11.725   0.816  0.00  0.00     0.028 C 
ATOM     23  C   UNL d   1      31.902 -11.423   1.115  0.00  0.00     0.018 C 
ATOM     24  C   UNL d   1      32.145 -10.602   2.211  0.00  0.00     0.020 C 
ATOM     25  C   UNL d   1      31.067 -10.160   2.968  0.00  0.00     0.116 C 
ATOM     26  N   UNL d   1      29.780 -10.346   2.613  0.00  0.00    -0.272 NA
ATOM     27  C   UNL d   1      29.564 -11.088   1.509  0.00  0.00     0.131 C 
ENDBRANCH  20  22
ENDBRANCH  11  20
BRANCH  12  28
ATOM     28  C   UNL d   1      28.823 -14.776  -1.903  0.00  0.00    -0.049 C 
ATOM     29  C   UNL d   1      27.717 -14.380  -1.138  0.00  0.00     0.007 C 
ATOM     30  C   UNL d   1      26.437 -14.321  -1.701  0.00  0.00     0.003 C 
ATOM     31  C   UNL d   1      26.244 -14.630  -3.046  0.00  0.00     0.036 C 
ATOM     32  C   UNL d   1      27.358 -14.875  -3.842  0.00  0.00     0.103 C 
ATOM     33  C   UNL d   1      28.643 -14.868  -3.288  0.00  0.00     0.043 C 
BRANCH  32  34
ATOM     34  N   UNL d   1      27.212 -15.227  -5.259  0.00  0.00    -0.116 N 
ATOM     35  O   UNL d   1      26.098 -15.579  -5.657  0.00  0.00    -0.532 OA
ATOM     36  O   UNL d   1      28.237 -15.177  -5.960  0.00  0.00    -0.532 OA
ENDBRANCH  32  34
ENDBRANCH  12  28
BRANCH   1  37
ATOM     37  O   UNL d   1      26.650 -13.409   3.015  0.00  0.00    -0.356 OA
ATOM     38  C   UNL d   1      26.219 -12.912   1.740  0.00  0.00     0.210 C 
ENDBRANCH   1  37
TORSDOF 5
ENDMDL
MODEL 8
REMARK VINA RESULT:    -6.949      2.738      5.023
REMARK INTER + INTRA:         -11.568
REMARK INTER:                  -8.441
REMARK INTRA:                  -3.127
REMARK CONF_INDEPENDENT:        1.492
REMARK UNBOUND:                -3.127
REMARK  5 active torsions:
REMARK  status: ('A' for Active; 'I' for Inactive)
REMARK    1  A    between atoms: O_2  and  C_3 
REMARK    2  A    between atoms: C_13  and  C_14 
REMARK    3  A    between atoms: C_14  and  C_16 
REMARK    4  A    between atoms: C_22  and  C_23 
REMARK    5  A    between atoms: C_27  and  N_28 
ROOT
ATOM      1  C   UNL d   1      29.901 -12.922   0.851  0.00  0.00     0.069 A 
ATOM      2  C   UNL d   1      31.193 -13.304   1.250  0.00  0.00     0.039 A 
ATOM      3  C   UNL d   1      31.623 -14.639   1.141  0.00  0.00     0.033 A 
ATOM      4  C   UNL d   1      30.745 -15.561   0.617  0.00  0.00     0.044 A 
ATOM      5  C   UNL d   1      29.453 -15.204   0.225  0.00  0.00     0.018 A 
ATOM      6  C   UNL d   1      29.004 -13.892   0.374  0.00  0.00     0.049 A 
ATOM      7  C   UNL d   1      28.844 -16.363  -0.531  0.00  0.00     0.249 A 
ATOM      8  C   UNL d   1      29.991 -17.426  -0.462  0.00  0.00     0.264 A 
ATOM      9  O   UNL d   1      29.936 -18.574  -0.894  0.00  0.00    -0.270 OA
ATOM     10  N   UNL d   1      31.037 -16.867   0.234  0.00  0.00    -0.324 N 
ATOM     11  C   UNL d   1      28.416 -16.075  -1.995  0.00  0.00     0.122 C 
ATOM     12  C   UNL d   1      26.836 -15.955  -1.937  0.00  0.00     0.065 C 
ATOM     13  C   UNL d   1      26.437 -16.204  -0.456  0.00  0.00     0.209 C 
ATOM     14  C   UNL d   1      25.183 -17.060  -0.274  0.00  0.00     0.109 C 
ATOM     15  S   UNL d   1      25.696 -18.484   0.702  0.00  0.00    -0.140 SA
ATOM     16  C   UNL d   1      27.406 -18.344   0.226  0.00  0.00     0.311 C 
ATOM     17  N   UNL d   1      27.605 -16.871   0.184  0.00  0.00    -0.034 N 
ATOM     18  H   UNL d   1      31.931 -17.334   0.340  0.00  0.00     0.169 HD
ATOM     19  H   UNL d   1      27.656 -16.576   1.171  0.00  0.00     0.283 HD
ENDROOT
BRANCH  11  20
ATOM     20  C   UNL d   1      29.219 -14.948  -2.722  0.00  0.00     0.169 C 
ATOM     21  O   UNL d   1      30.058 -14.216  -2.214  0.00  0.00    -0.292 OA
BRANCH  20  22
ATOM     22  C   UNL d   1      28.984 -14.562  -4.105  0.00  0.00     0.028 C 
ATOM     23  C   UNL d   1      29.291 -13.304  -4.590  0.00  0.00     0.018 C 
ATOM     24  C   UNL d   1      28.880 -12.990  -5.881  0.00  0.00     0.020 C 
ATOM     25  C   UNL d   1      28.155 -13.932  -6.601  0.00  0.00     0.116 C 
ATOM     26  N   UNL d   1      27.961 -15.201  -6.185  0.00  0.00    -0.272 NA
ATOM     27  C   UNL d   1      28.426 -15.506  -4.957  0.00  0.00     0.131 C 
ENDBRANCH  20  22
ENDBRANCH  11  20
BRANCH  12  28
ATOM     28  C   UNL d   1      26.211 -14.692  -2.502  0.00  0.00    -0.049 C 
ATOM     29  C   UNL d   1      25.293 -14.779  -3.558  0.00  0.00     0.007 C 
ATOM     30  C   UNL d   1      24.969 -13.654  -4.325  0.00  0.00     0.003 C 
ATOM     31  C   UNL d   1      25.536 -12.415  -4.032  0.00  0.00     0.036 C 
ATOM     32  C   UNL d   1      26.327 -12.294  -2.895  0.00  0.00     0.103 C 
ATOM     33  C   UNL d   1      26.595 -13.409  -2.093  0.00  0.00     0.043 C 
BRANCH  32  34
ATOM     34  N   UNL d   1      26.967 -11.019  -2.551  0.00  0.00    -0.116 N 
ATOM     35  O   UNL d   1      28.180 -11.022  -2.322  0.00  0.00    -0.532 OA
ATOM     36  O   UNL d   1      26.231 -10.021  -2.482  0.00  0.00    -0.532 OA
ENDBRANCH  32  34
ENDBRANCH  12  28
BRANCH   1  37
ATOM     37  O   UNL d   1      29.435 -11.635   0.821  0.00  0.00    -0.356 OA
ATOM     38  C   UNL d   1      28.015 -11.444   0.744  0.00  0.00     0.210 C 
ENDBRANCH   1  37
TORSDOF 5
ENDMDL
MODEL 9
REMARK VINA RESULT:    -6.603      2.643      6.083
REMARK INTER + INTRA:         -11.372
REMARK INTER:                  -8.094
REMARK INTRA:                  -3.278
REMARK CONF_INDEPENDENT:        1.492
REMARK UNBOUND:                -3.278
REMARK  5 active torsions:
REMARK  status: ('A' for Active; 'I' for Inactive)
REMARK    1  A    between atoms: O_2  and  C_3 
REMARK    2  A    between atoms: C_13  and  C_14 
REMARK    3  A    between atoms: C_14  and  C_16 
REMARK    4  A    between atoms: C_22  and  C_23 
REMARK    5  A    between atoms: C_27  and  N_28 
ROOT
ATOM      1  C   UNL d   1      29.253 -15.326  -4.447  0.00  0.00     0.069 A 
ATOM      2  C   UNL d   1      28.697 -14.860  -5.650  0.00  0.00     0.039 A 
ATOM      3  C   UNL d   1      27.315 -14.624  -5.770  0.00  0.00     0.033 A 
ATOM      4  C   UNL d   1      26.523 -14.849  -4.667  0.00  0.00     0.044 A 
ATOM      5  C   UNL d   1      27.054 -15.322  -3.465  0.00  0.00     0.018 A 
ATOM      6  C   UNL d   1      28.416 -15.603  -3.354  0.00  0.00     0.049 A 
ATOM      7  C   UNL d   1      25.990 -15.219  -2.396  0.00  0.00     0.249 A 
ATOM      8  C   UNL d   1      24.778 -14.649  -3.208  0.00  0.00     0.264 A 
ATOM      9  O   UNL d   1      23.649 -14.450  -2.770  0.00  0.00    -0.270 OA
ATOM     10  N   UNL d   1      25.189 -14.485  -4.510  0.00  0.00    -0.324 N 
ATOM     11  C   UNL d   1      26.332 -14.327  -1.173  0.00  0.00     0.122 C 
ATOM     12  C   UNL d   1      26.670 -15.350  -0.010  0.00  0.00     0.065 C 
ATOM     13  C   UNL d   1      26.480 -16.769  -0.613  0.00  0.00     0.209 C 
ATOM     14  C   UNL d   1      25.806 -17.771   0.326  0.00  0.00     0.109 C 
ATOM     15  S   UNL d   1      24.325 -18.331  -0.533  0.00  0.00    -0.140 SA
ATOM     16  C   UNL d   1      24.227 -16.881  -1.560  0.00  0.00     0.311 C 
ATOM     17  N   UNL d   1      25.658 -16.594  -1.843  0.00  0.00    -0.034 N 
ATOM     18  H   UNL d   1      24.602 -14.048  -5.213  0.00  0.00     0.169 HD
ATOM     19  H   UNL d   1      25.945 -17.301  -2.537  0.00  0.00     0.283 HD
ENDROOT
BRANCH  11  20
ATOM     20  C   UNL d   1      27.338 -13.162  -1.451  0.00  0.00     0.169 C 
ATOM     21  O   UNL d   1      28.233 -12.788  -0.706  0.00  0.00    -0.292 OA
BRANCH  20  22
ATOM     22  C   UNL d   1      27.262 -12.300  -2.621  0.00  0.00     0.028 C 
ATOM     23  C   UNL d   1      26.087 -11.693  -3.023  0.00  0.00     0.018 C 
ATOM     24  C   UNL d   1      26.090 -11.022  -4.241  0.00  0.00     0.020 C 
ATOM     25  C   UNL d   1      27.250 -11.025  -5.005  0.00  0.00     0.116 C 
ATOM     26  N   UNL d   1      28.431 -11.506  -4.565  0.00  0.00    -0.272 NA
ATOM     27  C   UNL d   1      28.424 -12.094  -3.352  0.00  0.00     0.131 C 
ENDBRANCH  20  22
ENDBRANCH  11  20
BRANCH  12  28
ATOM     28  C   UNL d   1      28.007 -15.192   0.692  0.00  0.00    -0.049 C 
ATOM     29  C   UNL d   1      28.071 -14.545   1.934  0.00  0.00     0.007 C 
ATOM     30  C   UNL d   1      29.289 -14.075   2.439  0.00  0.00     0.003 C 
ATOM     31  C   UNL d   1      30.469 -14.268   1.724  0.00  0.00     0.036 C 
ATOM     32  C   UNL d   1      30.431 -15.041   0.568  0.00  0.00     0.103 C 
ATOM     33  C   UNL d   1      29.220 -15.565   0.103  0.00  0.00     0.043 C 
BRANCH  32  34
ATOM     34  N   UNL d   1      31.639 -15.259  -0.235  0.00  0.00    -0.116 N 
ATOM     35  O   UNL d   1      32.449 -14.331  -0.329  0.00  0.00    -0.532 OA
ATOM     36  O   UNL d   1      31.750 -16.361  -0.798  0.00  0.00    -0.532 OA
ENDBRANCH  32  34
ENDBRANCH  12  28
BRANCH   1  37
ATOM     37  O   UNL d   1      30.592 -15.481  -4.208  0.00  0.00    -0.356 OA
ATOM     38  C   UNL d   1      31.213 -14.572  -3.288  0.00  0.00     0.210 C 
ENDBRANCH   1  37
TORSDOF 5
ENDMDL
