MODEL 1
REMARK VINA RESULT:    -8.649      0.000      0.000
REMARK INTER + INTRA:         -12.603
REMARK INTER:                 -10.141
REMARK INTRA:                  -2.462
REMARK CONF_INDEPENDENT:        1.492
REMARK UNBOUND:                -2.462
REMARK  5 active torsions:
REMARK  status: ('A' for Active; 'I' for Inactive)
REMARK    1  A    between atoms: O_2  and  C_3 
REMARK    2  A    between atoms: C_13  and  C_14 
REMARK    3  A    between atoms: C_14  and  C_16 
REMARK    4  A    between atoms: C_22  and  C_23 
REMARK    5  A    between atoms: C_27  and  N_28 
ROOT
ATOM      1  C   UNL d   1      28.707 -11.160  -4.125  0.00  0.00     0.069 A 
ATOM      2  C   UNL d   1      30.008 -11.390  -4.601  0.00  0.00     0.039 A 
ATOM      3  C   UNL d   1      30.720 -12.558  -4.268  0.00  0.00     0.033 A 
ATOM      4  C   UNL d   1      30.100 -13.485  -3.466  0.00  0.00     0.044 A 
ATOM      5  C   UNL d   1      28.808 -13.280  -2.979  0.00  0.00     0.018 A 
ATOM      6  C   UNL d   1      28.117 -12.097  -3.260  0.00  0.00     0.049 A 
ATOM      7  C   UNL d   1      28.340 -14.552  -2.318  0.00  0.00     0.249 A 
ATOM      8  C   UNL d   1      29.572 -15.498  -2.538  0.00  0.00     0.264 A 
ATOM      9  O   UNL d   1      29.681 -16.659  -2.148  0.00  0.00    -0.270 OA
ATOM     10  N   UNL d   1      30.534 -14.781  -3.202  0.00  0.00    -0.324 N 
ATOM     11  C   UNL d   1      27.061 -15.254  -2.832  0.00  0.00     0.122 C 
ATOM     12  C   UNL d   1      25.955 -14.961  -1.747  0.00  0.00     0.065 C 
ATOM     13  C   UNL d   1      26.622 -14.055  -0.670  0.00  0.00     0.209 C 
ATOM     14  C   UNL d   1      26.280 -14.279   0.807  0.00  0.00     0.109 C 
ATOM     15  S   UNL d   1      27.806 -14.823   1.630  0.00  0.00    -0.140 SA
ATOM     16  C   UNL d   1      28.714 -15.167   0.137  0.00  0.00     0.311 C 
ATOM     17  N   UNL d   1      28.112 -14.237  -0.848  0.00  0.00    -0.034 N 
ATOM     18  H   UNL d   1      31.383 -15.214  -3.553  0.00  0.00     0.169 HD
ATOM     19  H   UNL d   1      28.578 -13.346  -0.629  0.00  0.00     0.283 HD
ENDROOT
BRANCH  11  20
ATOM     20  C   UNL d   1      26.584 -14.924  -4.275  0.00  0.00     0.169 C 
ATOM     21  O   UNL d   1      25.386 -14.836  -4.530  0.00  0.00    -0.292 OA
BRANCH  20  22
ATOM     22  C   UNL d   1      27.528 -14.728  -5.416  0.00  0.00     0.028 A 
ATOM     23  C   UNL d   1      28.607 -15.574  -5.674  0.00  0.00     0.018 A 
ATOM     24  C   UNL d   1      29.626 -15.151  -6.542  0.00  0.00     0.020 A 
ATOM     25  C   UNL d   1      29.513 -13.906  -7.138  0.00  0.00     0.116 A 
ATOM     26  N   UNL d   1      28.421 -13.127  -7.001  0.00  0.00    -0.272 NA
ATOM     27  C   UNL d   1      27.446 -13.552  -6.153  0.00  0.00     0.131 A 
ENDBRANCH  20  22
ENDBRANCH  11  20
BRANCH  12  28
ATOM     28  C   UNL d   1      25.332 -16.225  -1.154  0.00  0.00    -0.049 C 
ATOM     29  C   UNL d   1      26.076 -17.117  -0.367  0.00  0.00     0.007 C 
ATOM     30  C   UNL d   1      25.539 -18.188   0.326  0.00  0.00     0.003 C 
ATOM     31  C   UNL d   1      24.245 -18.552   0.052  0.00  0.00     0.036 C 
ATOM     32  C   UNL d   1      23.470 -17.720  -0.766  0.00  0.00     0.103 C 
ATOM     33  C   UNL d   1      23.972 -16.506  -1.285  0.00  0.00     0.043 C 
BRANCH  32  34
ATOM     34  N   UNL d   1      22.131 -18.169  -1.141  0.00  0.00    -0.116 N 
ATOM     35  O   UNL d   1      22.034 -19.267  -1.704  0.00  0.00    -0.532 OA
ATOM     36  O   UNL d   1      21.186 -17.408  -0.895  0.00  0.00    -0.532 OA
ENDBRANCH  32  34
ENDBRANCH  12  28
BRANCH   1  37
ATOM     37  O   UNL d   1      27.898 -10.124  -4.514  0.00  0.00    -0.356 OA
ATOM     38  C   UNL d   1      26.526 -10.406  -4.844  0.00  0.00     0.210 C 
ENDBRANCH   1  37
TORSDOF 5
ENDMDL
MODEL 2
REMARK VINA RESULT:    -8.210      3.286      6.236
REMARK INTER + INTRA:         -11.931
REMARK INTER:                  -9.702
REMARK INTRA:                  -2.229
REMARK CONF_INDEPENDENT:        1.492
REMARK UNBOUND:                -2.229
REMARK  5 active torsions:
REMARK  status: ('A' for Active; 'I' for Inactive)
REMARK    1  A    between atoms: O_2  and  C_3 
REMARK    2  A    between atoms: C_13  and  C_14 
REMARK    3  A    between atoms: C_14  and  C_16 
REMARK    4  A    between atoms: C_22  and  C_23 
REMARK    5  A    between atoms: C_27  and  N_28 
ROOT
ATOM      1  C   UNL d   1      28.668 -15.535  -4.414  0.00  0.00     0.069 A 
ATOM      2  C   UNL d   1      29.308 -16.767  -4.204  0.00  0.00     0.039 A 
ATOM      3  C   UNL d   1      29.892 -17.092  -2.965  0.00  0.00     0.033 A 
ATOM      4  C   UNL d   1      29.810 -16.170  -1.951  0.00  0.00     0.044 A 
ATOM      5  C   UNL d   1      29.179 -14.939  -2.135  0.00  0.00     0.018 A 
ATOM      6  C   UNL d   1      28.646 -14.586  -3.378  0.00  0.00     0.049 A 
ATOM      7  C   UNL d   1      29.072 -14.253  -0.795  0.00  0.00     0.249 A 
ATOM      8  C   UNL d   1      29.723 -15.314   0.160  0.00  0.00     0.264 A 
ATOM      9  O   UNL d   1      29.891 -15.200   1.373  0.00  0.00    -0.270 OA
ATOM     10  N   UNL d   1      30.122 -16.377  -0.610  0.00  0.00    -0.324 N 
ATOM     11  C   UNL d   1      27.679 -13.862  -0.247  0.00  0.00     0.122 C 
ATOM     12  C   UNL d   1      27.585 -12.298  -0.412  0.00  0.00     0.065 C 
ATOM     13  C   UNL d   1      28.908 -11.845  -1.098  0.00  0.00     0.209 C 
ATOM     14  C   UNL d   1      29.568 -10.536  -0.654  0.00  0.00     0.109 C 
ATOM     15  S   UNL d   1      31.169 -10.972   0.088  0.00  0.00    -0.140 SA
ATOM     16  C   UNL d   1      30.844 -12.717   0.227  0.00  0.00     0.311 C 
ATOM     17  N   UNL d   1      29.889 -12.974  -0.877  0.00  0.00    -0.034 N 
ATOM     18  H   UNL d   1      30.475 -17.237  -0.200  0.00  0.00     0.169 HD
ATOM     19  H   UNL d   1      30.507 -13.034  -1.698  0.00  0.00     0.283 HD
ENDROOT
BRANCH  11  20
ATOM     20  C   UNL d   1      26.439 -14.600  -0.829  0.00  0.00     0.169 C 
ATOM     21  O   UNL d   1      25.752 -14.071  -1.699  0.00  0.00    -0.292 OA
BRANCH  20  22
ATOM     22  C   UNL d   1      26.001 -15.947  -0.357  0.00  0.00     0.028 A 
ATOM     23  C   UNL d   1      26.865 -16.875   0.227  0.00  0.00     0.018 A 
ATOM     24  C   UNL d   1      26.467 -18.216   0.339  0.00  0.00     0.020 A 
ATOM     25  C   UNL d   1      25.210 -18.574  -0.117  0.00  0.00     0.116 A 
ATOM     26  N   UNL d   1      24.313 -17.673  -0.568  0.00  0.00    -0.272 NA
ATOM     27  C   UNL d   1      24.718 -16.379  -0.673  0.00  0.00     0.131 A 
ENDBRANCH  20  22
ENDBRANCH  11  20
BRANCH  12  28
ATOM     28  C   UNL d   1      27.318 -11.560   0.901  0.00  0.00    -0.049 C 
ATOM     29  C   UNL d   1      27.522 -12.172   2.147  0.00  0.00     0.007 C 
ATOM     30  C   UNL d   1      27.452 -11.517   3.364  0.00  0.00     0.003 C 
ATOM     31  C   UNL d   1      26.925 -10.250   3.387  0.00  0.00     0.036 C 
ATOM     32  C   UNL d   1      26.658  -9.610   2.170  0.00  0.00     0.103 C 
ATOM     33  C   UNL d   1      26.949 -10.216   0.928  0.00  0.00     0.043 C 
BRANCH  32  34
ATOM     34  N   UNL d   1      25.996  -8.308   2.203  0.00  0.00    -0.116 N 
ATOM     35  O   UNL d   1      26.298  -7.537   3.124  0.00  0.00    -0.532 OA
ATOM     36  O   UNL d   1      25.157  -8.073   1.324  0.00  0.00    -0.532 OA
ENDBRANCH  32  34
ENDBRANCH  12  28
BRANCH   1  37
ATOM     37  O   UNL d   1      27.955 -15.200  -5.536  0.00  0.00    -0.356 OA
ATOM     38  C   UNL d   1      26.568 -14.845  -5.393  0.00  0.00     0.210 C 
ENDBRANCH   1  37
TORSDOF 5
ENDMDL
MODEL 3
REMARK VINA RESULT:    -7.989      3.910      7.041
REMARK INTER + INTRA:         -12.230
REMARK INTER:                  -9.481
REMARK INTRA:                  -2.749
REMARK CONF_INDEPENDENT:        1.492
REMARK UNBOUND:                -2.749
REMARK  5 active torsions:
REMARK  status: ('A' for Active; 'I' for Inactive)
REMARK    1  A    between atoms: O_2  and  C_3 
REMARK    2  A    between atoms: C_13  and  C_14 
REMARK    3  A    between atoms: C_14  and  C_16 
REMARK    4  A    between atoms: C_22  and  C_23 
REMARK    5  A    between atoms: C_27  and  N_28 
ROOT
ATOM      1  C   UNL d   1      29.292 -13.970   4.942  0.00  0.00     0.069 A 
ATOM      2  C   UNL d   1      30.407 -13.124   5.054  0.00  0.00     0.039 A 
ATOM      3  C   UNL d   1      31.136 -12.710   3.923  0.00  0.00     0.033 A 
ATOM      4  C   UNL d   1      30.718 -13.148   2.691  0.00  0.00     0.044 A 
ATOM      5  C   UNL d   1      29.612 -13.989   2.552  0.00  0.00     0.018 A 
ATOM      6  C   UNL d   1      28.919 -14.450   3.675  0.00  0.00     0.049 A 
ATOM      7  C   UNL d   1      29.289 -14.115   1.084  0.00  0.00     0.249 A 
ATOM      8  C   UNL d   1      30.378 -13.190   0.437  0.00  0.00     0.264 A 
ATOM      9  O   UNL d   1      30.543 -12.983  -0.764  0.00  0.00    -0.270 OA
ATOM     10  N   UNL d   1      31.155 -12.689   1.452  0.00  0.00    -0.324 N 
ATOM     11  C   UNL d   1      27.892 -13.692   0.571  0.00  0.00     0.122 C 
ATOM     12  C   UNL d   1      27.130 -15.037   0.267  0.00  0.00     0.065 C 
ATOM     13  C   UNL d   1      28.096 -16.192   0.664  0.00  0.00     0.209 C 
ATOM     14  C   UNL d   1      28.155 -17.450  -0.209  0.00  0.00     0.109 C 
ATOM     15  S   UNL d   1      29.823 -17.524  -0.926  0.00  0.00    -0.140 SA
ATOM     16  C   UNL d   1      30.283 -15.855  -0.506  0.00  0.00     0.311 C 
ATOM     17  N   UNL d   1      29.476 -15.575   0.706  0.00  0.00    -0.034 N 
ATOM     18  H   UNL d   1      31.862 -11.978   1.288  0.00  0.00     0.169 HD
ATOM     19  H   UNL d   1      30.018 -16.038   1.448  0.00  0.00     0.283 HD
ENDROOT
BRANCH  11  20
ATOM     20  C   UNL d   1      27.060 -12.721   1.456  0.00  0.00     0.169 C 
ATOM     21  O   UNL d   1      25.881 -12.960   1.704  0.00  0.00    -0.292 OA
BRANCH  20  22
ATOM     22  C   UNL d   1      27.619 -11.455   2.019  0.00  0.00     0.028 A 
ATOM     23  C   UNL d   1      28.424 -10.579   1.289  0.00  0.00     0.018 A 
ATOM     24  C   UNL d   1      29.172  -9.602   1.964  0.00  0.00     0.020 A 
ATOM     25  C   UNL d   1      29.068  -9.524   3.342  0.00  0.00     0.116 A 
ATOM     26  N   UNL d   1      28.203 -10.276   4.053  0.00  0.00    -0.272 NA
ATOM     27  C   UNL d   1      27.489 -11.219   3.383  0.00  0.00     0.131 A 
ENDBRANCH  20  22
ENDBRANCH  11  20
BRANCH  12  28
ATOM     28  C   UNL d   1      26.640 -15.148  -1.177  0.00  0.00    -0.049 C 
ATOM     29  C   UNL d   1      25.275 -15.251  -1.488  0.00  0.00     0.007 C 
ATOM     30  C   UNL d   1      24.756 -15.195  -2.770  0.00  0.00     0.003 C 
ATOM     31  C   UNL d   1      25.629 -15.279  -3.826  0.00  0.00     0.036 C 
ATOM     32  C   UNL d   1      27.004 -15.227  -3.567  0.00  0.00     0.103 C 
ATOM     33  C   UNL d   1      27.513 -15.056  -2.261  0.00  0.00     0.043 C 
BRANCH  32  34
ATOM     34  N   UNL d   1      27.927 -15.426  -4.683  0.00  0.00    -0.116 N 
ATOM     35  O   UNL d   1      27.498 -15.208  -5.823  0.00  0.00    -0.532 OA
ATOM     36  O   UNL d   1      29.067 -15.826  -4.415  0.00  0.00    -0.532 OA
ENDBRANCH  32  34
ENDBRANCH  12  28
BRANCH   1  37
ATOM     37  O   UNL d   1      28.449 -14.302   5.971  0.00  0.00    -0.356 OA
ATOM     38  C   UNL d   1      28.896 -14.100   7.323  0.00  0.00     0.210 C 
ENDBRANCH   1  37
TORSDOF 5
ENDMDL
MODEL 4
REMARK VINA RESULT:    -7.750      8.271     11.890
REMARK INTER + INTRA:         -11.506
REMARK INTER:                  -9.242
REMARK INTRA:                  -2.264
REMARK CONF_INDEPENDENT:        1.492
REMARK UNBOUND:                -2.264
REMARK  5 active torsions:
REMARK  status: ('A' for Active; 'I' for Inactive)
REMARK    1  A    between atoms: O_2  and  C_3 
REMARK    2  A    between atoms: C_13  and  C_14 
REMARK    3  A    between atoms: C_14  and  C_16 
REMARK    4  A    between atoms: C_22  and  C_23 
REMARK    5  A    between atoms: C_27  and  N_28 
ROOT
ATOM      1  C   UNL d   1      31.744 -14.441   9.059  0.00  0.00     0.069 A 
ATOM      2  C   UNL d   1      32.685 -13.597   9.670  0.00  0.00     0.039 A 
ATOM      3  C   UNL d   1      33.016 -12.343   9.123  0.00  0.00     0.033 A 
ATOM      4  C   UNL d   1      32.381 -11.955   7.969  0.00  0.00     0.044 A 
ATOM      5  C   UNL d   1      31.442 -12.776   7.342  0.00  0.00     0.018 A 
ATOM      6  C   UNL d   1      31.150 -14.045   7.849  0.00  0.00     0.049 A 
ATOM      7  C   UNL d   1      30.782 -11.988   6.238  0.00  0.00     0.249 A 
ATOM      8  C   UNL d   1      31.490 -10.595   6.372  0.00  0.00     0.264 A 
ATOM      9  O   UNL d   1      31.303  -9.609   5.661  0.00  0.00    -0.270 OA
ATOM     10  N   UNL d   1      32.400 -10.687   7.395  0.00  0.00    -0.324 N 
ATOM     11  C   UNL d   1      29.248 -11.783   6.258  0.00  0.00     0.122 C 
ATOM     12  C   UNL d   1      28.682 -12.736   5.137  0.00  0.00     0.065 C 
ATOM     13  C   UNL d   1      29.904 -13.496   4.544  0.00  0.00     0.209 C 
ATOM     14  C   UNL d   1      29.957 -13.762   3.036  0.00  0.00     0.109 C 
ATOM     15  S   UNL d   1      31.372 -12.831   2.380  0.00  0.00    -0.140 SA
ATOM     16  C   UNL d   1      31.626 -11.826   3.828  0.00  0.00     0.311 C 
ATOM     17  N   UNL d   1      31.118 -12.681   4.928  0.00  0.00    -0.034 N 
ATOM     18  H   UNL d   1      32.905  -9.877   7.740  0.00  0.00     0.169 HD
ATOM     19  H   UNL d   1      31.904 -13.325   5.092  0.00  0.00     0.283 HD
ENDROOT
BRANCH  11  20
ATOM     20  C   UNL d   1      28.512 -11.957   7.617  0.00  0.00     0.169 C 
ATOM     21  O   UNL d   1      27.436 -12.547   7.672  0.00  0.00    -0.292 OA
BRANCH  20  22
ATOM     22  C   UNL d   1      29.040 -11.405   8.901  0.00  0.00     0.028 A 
ATOM     23  C   UNL d   1      29.652 -10.156   9.007  0.00  0.00     0.018 A 
ATOM     24  C   UNL d   1      30.406  -9.849  10.149  0.00  0.00     0.020 A 
ATOM     25  C   UNL d   1      30.500 -10.797  11.155  0.00  0.00     0.116 A 
ATOM     26  N   UNL d   1      29.815 -11.958  11.129  0.00  0.00    -0.272 NA
ATOM     27  C   UNL d   1      29.092 -12.239  10.012  0.00  0.00     0.131 A 
ENDBRANCH  20  22
ENDBRANCH  11  20
BRANCH  12  28
ATOM     28  C   UNL d   1      27.866 -12.005   4.070  0.00  0.00    -0.049 C 
ATOM     29  C   UNL d   1      27.392 -12.661   2.923  0.00  0.00     0.007 C 
ATOM     30  C   UNL d   1      26.521 -12.103   2.004  0.00  0.00     0.003 C 
ATOM     31  C   UNL d   1      26.280 -10.754   2.077  0.00  0.00     0.036 C 
ATOM     32  C   UNL d   1      26.769 -10.041   3.178  0.00  0.00     0.103 C 
ATOM     33  C   UNL d   1      27.470 -10.677   4.228  0.00  0.00     0.043 C 
BRANCH  32  34
ATOM     34  N   UNL d   1      26.602  -8.590   3.194  0.00  0.00    -0.116 N 
ATOM     35  O   UNL d   1      27.154  -7.962   4.107  0.00  0.00    -0.532 OA
ATOM     36  O   UNL d   1      25.897  -8.088   2.310  0.00  0.00    -0.532 OA
ENDBRANCH  32  34
ENDBRANCH  12  28
BRANCH   1  37
ATOM     37  O   UNL d   1      31.263 -15.606   9.600  0.00  0.00    -0.356 OA
ATOM     38  C   UNL d   1      30.820 -15.602  10.968  0.00  0.00     0.210 C 
ENDBRANCH   1  37
TORSDOF 5
ENDMDL
MODEL 5
REMARK VINA RESULT:    -7.692      3.666      6.090
REMARK INTER + INTRA:         -11.490
REMARK INTER:                  -9.184
REMARK INTRA:                  -2.307
REMARK CONF_INDEPENDENT:        1.492
REMARK UNBOUND:                -2.307
REMARK  5 active torsions:
REMARK  status: ('A' for Active; 'I' for Inactive)
REMARK    1  A    between atoms: O_2  and  C_3 
REMARK    2  A    between atoms: C_13  and  C_14 
REMARK    3  A    between atoms: C_14  and  C_16 
REMARK    4  A    between atoms: C_22  and  C_23 
REMARK    5  A    between atoms: C_27  and  N_28 
ROOT
ATOM      1  C   UNL d   1      29.181 -15.657  -3.595  0.00  0.00     0.069 A 
ATOM      2  C   UNL d   1      29.727 -16.888  -3.198  0.00  0.00     0.039 A 
ATOM      3  C   UNL d   1      30.139 -17.118  -1.871  0.00  0.00     0.033 A 
ATOM      4  C   UNL d   1      29.982 -16.102  -0.961  0.00  0.00     0.044 A 
ATOM      5  C   UNL d   1      29.443 -14.868  -1.332  0.00  0.00     0.018 A 
ATOM      6  C   UNL d   1      29.083 -14.614  -2.658  0.00  0.00     0.049 A 
ATOM      7  C   UNL d   1      29.210 -14.055  -0.082  0.00  0.00     0.249 A 
ATOM      8  C   UNL d   1      29.685 -15.046   1.037  0.00  0.00     0.264 A 
ATOM      9  O   UNL d   1      29.712 -14.825   2.246  0.00  0.00    -0.270 OA
ATOM     10  N   UNL d   1      30.119 -16.193   0.421  0.00  0.00    -0.324 N 
ATOM     11  C   UNL d   1      27.783 -13.559   0.250  0.00  0.00     0.122 C 
ATOM     12  C   UNL d   1      27.791 -12.014  -0.063  0.00  0.00     0.065 C 
ATOM     13  C   UNL d   1      29.209 -11.682  -0.616  0.00  0.00     0.209 C 
ATOM     14  C   UNL d   1      29.878 -10.365  -0.211  0.00  0.00     0.109 C 
ATOM     15  S   UNL d   1      31.352 -10.793   0.760  0.00  0.00    -0.140 SA
ATOM     16  C   UNL d   1      30.923 -12.502   1.013  0.00  0.00     0.311 C 
ATOM     17  N   UNL d   1      30.097 -12.824  -0.175  0.00  0.00    -0.034 N 
ATOM     18  H   UNL d   1      30.375 -17.023   0.947  0.00  0.00     0.169 HD
ATOM     19  H   UNL d   1      30.805 -12.986  -0.904  0.00  0.00     0.283 HD
ENDROOT
BRANCH  11  20
ATOM     20  C   UNL d   1      26.586 -14.297  -0.414  0.00  0.00     0.169 C 
ATOM     21  O   UNL d   1      25.915 -15.100   0.229  0.00  0.00    -0.292 OA
BRANCH  20  22
ATOM     22  C   UNL d   1      26.208 -14.103  -1.846  0.00  0.00     0.028 A 
ATOM     23  C   UNL d   1      26.063 -12.848  -2.439  0.00  0.00     0.018 A 
ATOM     24  C   UNL d   1      25.395 -12.736  -3.668  0.00  0.00     0.020 A 
ATOM     25  C   UNL d   1      24.917 -13.889  -4.269  0.00  0.00     0.116 A 
ATOM     26  N   UNL d   1      25.156 -15.121  -3.777  0.00  0.00    -0.272 NA
ATOM     27  C   UNL d   1      25.801 -15.209  -2.583  0.00  0.00     0.131 A 
ENDBRANCH  20  22
ENDBRANCH  11  20
BRANCH  12  28
ATOM     28  C   UNL d   1      27.406 -11.146   1.135  0.00  0.00    -0.049 C 
ATOM     29  C   UNL d   1      27.533 -11.608   2.454  0.00  0.00     0.007 C 
ATOM     30  C   UNL d   1      27.353 -10.825   3.580  0.00  0.00     0.003 C 
ATOM     31  C   UNL d   1      26.791  -9.583   3.422  0.00  0.00     0.036 C 
ATOM     32  C   UNL d   1      26.599  -9.091   2.124  0.00  0.00     0.103 C 
ATOM     33  C   UNL d   1      27.000  -9.820   0.983  0.00  0.00     0.043 C 
BRANCH  32  34
ATOM     34  N   UNL d   1      25.902  -7.817   1.962  0.00  0.00    -0.116 N 
ATOM     35  O   UNL d   1      26.085  -6.953   2.828  0.00  0.00    -0.532 OA
ATOM     36  O   UNL d   1      25.152  -7.699   0.984  0.00  0.00    -0.532 OA
ENDBRANCH  32  34
ENDBRANCH  12  28
BRANCH   1  37
ATOM     37  O   UNL d   1      28.627 -15.401  -4.823  0.00  0.00    -0.356 OA
ATOM     38  C   UNL d   1      28.332 -14.038  -5.178  0.00  0.00     0.210 C 
ENDBRANCH   1  37
TORSDOF 5
ENDMDL
MODEL 6
REMARK VINA RESULT:    -7.492      3.325      6.139
REMARK INTER + INTRA:         -11.210
REMARK INTER:                  -8.984
REMARK INTRA:                  -2.226
REMARK CONF_INDEPENDENT:        1.492
REMARK UNBOUND:                -2.226
REMARK  5 active torsions:
REMARK  status: ('A' for Active; 'I' for Inactive)
REMARK    1  A    between atoms: O_2  and  C_3 
REMARK    2  A    between atoms: C_13  and  C_14 
REMARK    3  A    between atoms: C_14  and  C_16 
REMARK    4  A    between atoms: C_22  and  C_23 
REMARK    5  A    between atoms: C_27  and  N_28 
ROOT
ATOM      1  C   UNL d   1      28.756 -13.282   4.224  0.00  0.00     0.069 A 
ATOM      2  C   UNL d   1      30.127 -13.440   4.484  0.00  0.00     0.039 A 
ATOM      3  C   UNL d   1      30.994 -14.029   3.543  0.00  0.00     0.033 A 
ATOM      4  C   UNL d   1      30.462 -14.440   2.345  0.00  0.00     0.044 A 
ATOM      5  C   UNL d   1      29.102 -14.296   2.064  0.00  0.00     0.018 A 
ATOM      6  C   UNL d   1      28.227 -13.763   3.014  0.00  0.00     0.049 A 
ATOM      7  C   UNL d   1      28.876 -14.642   0.613  0.00  0.00     0.249 A 
ATOM      8  C   UNL d   1      30.332 -14.978   0.134  0.00  0.00     0.264 A 
ATOM      9  O   UNL d   1      30.665 -15.347  -0.991  0.00  0.00    -0.270 OA
ATOM     10  N   UNL d   1      31.167 -14.839   1.214  0.00  0.00    -0.324 N 
ATOM     11  C   UNL d   1      28.259 -13.588  -0.337  0.00  0.00     0.122 C 
ATOM     12  C   UNL d   1      26.777 -14.063  -0.587  0.00  0.00     0.065 C 
ATOM     13  C   UNL d   1      26.574 -15.347   0.269  0.00  0.00     0.209 C 
ATOM     14  C   UNL d   1      25.751 -16.504  -0.306  0.00  0.00     0.109 C 
ATOM     15  S   UNL d   1      26.879 -17.914  -0.505  0.00  0.00    -0.140 SA
ATOM     16  C   UNL d   1      28.383 -16.985  -0.289  0.00  0.00     0.311 C 
ATOM     17  N   UNL d   1      27.964 -15.857   0.577  0.00  0.00    -0.034 N 
ATOM     18  H   UNL d   1      32.177 -14.899   1.125  0.00  0.00     0.169 HD
ATOM     19  H   UNL d   1      27.954 -16.285   1.513  0.00  0.00     0.283 HD
ENDROOT
BRANCH  11  20
ATOM     20  C   UNL d   1      28.344 -12.094   0.087  0.00  0.00     0.169 C 
ATOM     21  O   UNL d   1      29.084 -11.748   1.005  0.00  0.00    -0.292 OA
BRANCH  20  22
ATOM     22  C   UNL d   1      27.532 -11.020  -0.559  0.00  0.00     0.028 A 
ATOM     23  C   UNL d   1      27.064 -11.094  -1.872  0.00  0.00     0.018 A 
ATOM     24  C   UNL d   1      26.604  -9.933  -2.509  0.00  0.00     0.020 A 
ATOM     25  C   UNL d   1      26.606  -8.743  -1.801  0.00  0.00     0.116 A 
ATOM     26  N   UNL d   1      26.935  -8.672  -0.495  0.00  0.00    -0.272 NA
ATOM     27  C   UNL d   1      27.382  -9.808   0.105  0.00  0.00     0.131 A 
ENDBRANCH  20  22
ENDBRANCH  11  20
BRANCH  12  28
ATOM     28  C   UNL d   1      26.446 -14.278  -2.064  0.00  0.00    -0.049 C 
ATOM     29  C   UNL d   1      25.157 -14.061  -2.572  0.00  0.00     0.007 C 
ATOM     30  C   UNL d   1      24.828 -14.084  -3.916  0.00  0.00     0.003 C 
ATOM     31  C   UNL d   1      25.755 -14.575  -4.800  0.00  0.00     0.036 C 
ATOM     32  C   UNL d   1      27.047 -14.854  -4.336  0.00  0.00     0.103 C 
ATOM     33  C   UNL d   1      27.428 -14.609  -2.998  0.00  0.00     0.043 C 
BRANCH  32  34
ATOM     34  N   UNL d   1      27.995 -15.478  -5.256  0.00  0.00    -0.116 N 
ATOM     35  O   UNL d   1      27.890 -15.200  -6.458  0.00  0.00    -0.532 OA
ATOM     36  O   UNL d   1      28.820 -16.265  -4.775  0.00  0.00    -0.532 OA
ENDBRANCH  32  34
ENDBRANCH  12  28
BRANCH   1  37
ATOM     37  O   UNL d   1      27.878 -12.595   5.022  0.00  0.00    -0.356 OA
ATOM     38  C   UNL d   1      27.800 -11.164   4.891  0.00  0.00     0.210 C 
ENDBRANCH   1  37
TORSDOF 5
ENDMDL
MODEL 7
REMARK VINA RESULT:    -7.317      3.192      6.349
REMARK INTER + INTRA:         -11.016
REMARK INTER:                  -8.809
REMARK INTRA:                  -2.208
REMARK CONF_INDEPENDENT:        1.492
REMARK UNBOUND:                -2.208
REMARK  5 active torsions:
REMARK  status: ('A' for Active; 'I' for Inactive)
REMARK    1  A    between atoms: O_2  and  C_3 
REMARK    2  A    between atoms: C_13  and  C_14 
REMARK    3  A    between atoms: C_14  and  C_16 
REMARK    4  A    between atoms: C_22  and  C_23 
REMARK    5  A    between atoms: C_27  and  N_28 
ROOT
ATOM      1  C   UNL d   1      27.473 -11.111  -2.112  0.00  0.00     0.069 A 
ATOM      2  C   UNL d   1      26.198 -10.780  -2.599  0.00  0.00     0.039 A 
ATOM      3  C   UNL d   1      25.590 -11.516  -3.635  0.00  0.00     0.033 A 
ATOM      4  C   UNL d   1      26.277 -12.585  -4.156  0.00  0.00     0.044 A 
ATOM      5  C   UNL d   1      27.546 -12.934  -3.689  0.00  0.00     0.018 A 
ATOM      6  C   UNL d   1      28.178 -12.174  -2.701  0.00  0.00     0.049 A 
ATOM      7  C   UNL d   1      27.933 -14.255  -4.305  0.00  0.00     0.249 A 
ATOM      8  C   UNL d   1      26.666 -14.590  -5.166  0.00  0.00     0.264 A 
ATOM      9  O   UNL d   1      26.511 -15.575  -5.886  0.00  0.00    -0.270 OA
ATOM     10  N   UNL d   1      25.775 -13.557  -5.016  0.00  0.00    -0.324 N 
ATOM     11  C   UNL d   1      28.257 -15.458  -3.388  0.00  0.00     0.122 C 
ATOM     12  C   UNL d   1      29.824 -15.623  -3.448  0.00  0.00     0.065 C 
ATOM     13  C   UNL d   1      30.355 -14.476  -4.357  0.00  0.00     0.209 C 
ATOM     14  C   UNL d   1      31.509 -14.763  -5.323  0.00  0.00     0.109 C 
ATOM     15  S   UNL d   1      30.856 -14.566  -7.007  0.00  0.00    -0.140 SA
ATOM     16  C   UNL d   1      29.137 -14.549  -6.543  0.00  0.00     0.311 C 
ATOM     17  N   UNL d   1      29.163 -14.009  -5.162  0.00  0.00    -0.034 N 
ATOM     18  H   UNL d   1      24.834 -13.599  -5.394  0.00  0.00     0.169 HD
ATOM     19  H   UNL d   1      29.254 -12.995  -5.320  0.00  0.00     0.283 HD
ENDROOT
BRANCH  11  20
ATOM     20  C   UNL d   1      27.716 -15.424  -1.930  0.00  0.00     0.169 C 
ATOM     21  O   UNL d   1      28.232 -14.690  -1.091  0.00  0.00    -0.292 OA
BRANCH  20  22
ATOM     22  C   UNL d   1      26.584 -16.281  -1.465  0.00  0.00     0.028 A 
ATOM     23  C   UNL d   1      25.250 -16.034  -1.790  0.00  0.00     0.018 A 
ATOM     24  C   UNL d   1      24.231 -16.669  -1.062  0.00  0.00     0.020 A 
ATOM     25  C   UNL d   1      24.588 -17.545  -0.051  0.00  0.00     0.116 A 
ATOM     26  N   UNL d   1      25.867 -17.893   0.196  0.00  0.00    -0.272 NA
ATOM     27  C   UNL d   1      26.840 -17.265  -0.517  0.00  0.00     0.131 A 
ENDBRANCH  20  22
ENDBRANCH  11  20
BRANCH  12  28
ATOM     28  C   UNL d   1      30.274 -17.007  -3.918  0.00  0.00    -0.049 C 
ATOM     29  C   UNL d   1      30.871 -17.927  -3.042  0.00  0.00     0.007 C 
ATOM     30  C   UNL d   1      31.156 -19.243  -3.361  0.00  0.00     0.003 C 
ATOM     31  C   UNL d   1      31.071 -19.622  -4.677  0.00  0.00     0.036 C 
ATOM     32  C   UNL d   1      30.526 -18.724  -5.603  0.00  0.00     0.103 C 
ATOM     33  C   UNL d   1      30.030 -17.460  -5.214  0.00  0.00     0.043 C 
BRANCH  32  34
ATOM     34  N   UNL d   1      30.540 -19.092  -7.017  0.00  0.00    -0.116 N 
ATOM     35  O   UNL d   1      30.053 -20.187  -7.326  0.00  0.00    -0.532 OA
ATOM     36  O   UNL d   1      31.063 -18.297  -7.807  0.00  0.00    -0.532 OA
ENDBRANCH  32  34
ENDBRANCH  12  28
BRANCH   1  37
ATOM     37  O   UNL d   1      28.070 -10.539  -1.018  0.00  0.00    -0.356 OA
ATOM     38  C   UNL d   1      28.841 -11.375  -0.137  0.00  0.00     0.210 C 
ENDBRANCH   1  37
TORSDOF 5
ENDMDL
MODEL 8
REMARK VINA RESULT:    -7.231      3.593      6.582
REMARK INTER + INTRA:         -11.510
REMARK INTER:                  -8.723
REMARK INTRA:                  -2.787
REMARK CONF_INDEPENDENT:        1.492
REMARK UNBOUND:                -2.787
REMARK  5 active torsions:
REMARK  status: ('A' for Active; 'I' for Inactive)
REMARK    1  A    between atoms: O_2  and  C_3 
REMARK    2  A    between atoms: C_13  and  C_14 
REMARK    3  A    between atoms: C_14  and  C_16 
REMARK    4  A    between atoms: C_22  and  C_23 
REMARK    5  A    between atoms: C_27  and  N_28 
ROOT
ATOM      1  C   UNL d   1      28.574 -13.543   4.491  0.00  0.00     0.069 A 
ATOM      2  C   UNL d   1      29.951 -13.603   4.758  0.00  0.00     0.039 A 
ATOM      3  C   UNL d   1      30.870 -14.065   3.796  0.00  0.00     0.033 A 
ATOM      4  C   UNL d   1      30.383 -14.449   2.571  0.00  0.00     0.044 A 
ATOM      5  C   UNL d   1      29.018 -14.399   2.281  0.00  0.00     0.018 A 
ATOM      6  C   UNL d   1      28.095 -13.995   3.249  0.00  0.00     0.049 A 
ATOM      7  C   UNL d   1      28.833 -14.679   0.810  0.00  0.00     0.249 A 
ATOM      8  C   UNL d   1      30.315 -14.868   0.332  0.00  0.00     0.264 A 
ATOM      9  O   UNL d   1      30.687 -15.142  -0.808  0.00  0.00    -0.270 OA
ATOM     10  N   UNL d   1      31.128 -14.723   1.428  0.00  0.00    -0.324 N 
ATOM     11  C   UNL d   1      28.140 -13.626  -0.086  0.00  0.00     0.122 C 
ATOM     12  C   UNL d   1      26.704 -14.205  -0.382  0.00  0.00     0.065 C 
ATOM     13  C   UNL d   1      26.600 -15.549   0.398  0.00  0.00     0.209 C 
ATOM     14  C   UNL d   1      25.879 -16.734  -0.252  0.00  0.00     0.109 C 
ATOM     15  S   UNL d   1      27.120 -18.033  -0.516  0.00  0.00    -0.140 SA
ATOM     16  C   UNL d   1      28.541 -16.999  -0.229  0.00  0.00     0.311 C 
ATOM     17  N   UNL d   1      28.024 -15.960   0.694  0.00  0.00    -0.034 N 
ATOM     18  H   UNL d   1      32.140 -14.696   1.348  0.00  0.00     0.169 HD
ATOM     19  H   UNL d   1      28.042 -16.441   1.604  0.00  0.00     0.283 HD
ENDROOT
BRANCH  11  20
ATOM     20  C   UNL d   1      28.099 -12.156   0.422  0.00  0.00     0.169 C 
ATOM     21  O   UNL d   1      27.040 -11.533   0.442  0.00  0.00    -0.292 OA
BRANCH  20  22
ATOM     22  C   UNL d   1      29.317 -11.422   0.879  0.00  0.00     0.028 A 
ATOM     23  C   UNL d   1      30.566 -11.551   0.270  0.00  0.00     0.018 A 
ATOM     24  C   UNL d   1      31.713 -11.101   0.941  0.00  0.00     0.020 A 
ATOM     25  C   UNL d   1      31.564 -10.516   2.187  0.00  0.00     0.116 A 
ATOM     26  N   UNL d   1      30.358 -10.267   2.738  0.00  0.00    -0.272 NA
ATOM     27  C   UNL d   1      29.258 -10.715   2.074  0.00  0.00     0.131 A 
ENDBRANCH  20  22
ENDBRANCH  11  20
BRANCH  12  28
ATOM     28  C   UNL d   1      26.403 -14.361  -1.873  0.00  0.00    -0.049 C 
ATOM     29  C   UNL d   1      25.129 -14.106  -2.401  0.00  0.00     0.007 C 
ATOM     30  C   UNL d   1      24.830 -14.075  -3.752  0.00  0.00     0.003 C 
ATOM     31  C   UNL d   1      25.770 -14.548  -4.632  0.00  0.00     0.036 C 
ATOM     32  C   UNL d   1      27.047 -14.862  -4.150  0.00  0.00     0.103 C 
ATOM     33  C   UNL d   1      27.401 -14.672  -2.796  0.00  0.00     0.043 C 
BRANCH  32  34
ATOM     34  N   UNL d   1      28.007 -15.467  -5.071  0.00  0.00    -0.116 N 
ATOM     35  O   UNL d   1      28.911 -16.155  -4.582  0.00  0.00    -0.532 OA
ATOM     36  O   UNL d   1      27.867 -15.227  -6.277  0.00  0.00    -0.532 OA
ENDBRANCH  32  34
ENDBRANCH  12  28
BRANCH   1  37
ATOM     37  O   UNL d   1      27.636 -12.976   5.314  0.00  0.00    -0.356 OA
ATOM     38  C   UNL d   1      27.896 -11.673   5.864  0.00  0.00     0.210 C 
ENDBRANCH   1  37
TORSDOF 5
ENDMDL
MODEL 9
REMARK VINA RESULT:    -6.870      4.254      7.185
REMARK INTER + INTRA:         -10.985
REMARK INTER:                  -8.361
REMARK INTRA:                  -2.623
REMARK CONF_INDEPENDENT:        1.492
REMARK UNBOUND:                -2.623
REMARK  5 active torsions:
REMARK  status: ('A' for Active; 'I' for Inactive)
REMARK    1  A    between atoms: O_2  and  C_3 
REMARK    2  A    between atoms: C_13  and  C_14 
REMARK    3  A    between atoms: C_14  and  C_16 
REMARK    4  A    between atoms: C_22  and  C_23 
REMARK    5  A    between atoms: C_27  and  N_28 
ROOT
ATOM      1  C   UNL d   1      30.133 -16.873  -0.647  0.00  0.00     0.069 A 
ATOM      2  C   UNL d   1      28.989 -17.421  -1.249  0.00  0.00     0.039 A 
ATOM      3  C   UNL d   1      27.696 -16.964  -0.930  0.00  0.00     0.033 A 
ATOM      4  C   UNL d   1      27.579 -15.949  -0.013  0.00  0.00     0.044 A 
ATOM      5  C   UNL d   1      28.700 -15.387   0.601  0.00  0.00     0.018 A 
ATOM      6  C   UNL d   1      29.982 -15.874   0.330  0.00  0.00     0.049 A 
ATOM      7  C   UNL d   1      28.259 -14.175   1.382  0.00  0.00     0.249 A 
ATOM      8  C   UNL d   1      26.720 -14.144   1.083  0.00  0.00     0.264 A 
ATOM      9  O   UNL d   1      25.905 -13.336   1.525  0.00  0.00    -0.270 OA
ATOM     10  N   UNL d   1      26.431 -15.216   0.276  0.00  0.00    -0.324 N 
ATOM     11  C   UNL d   1      28.869 -12.791   1.053  0.00  0.00     0.122 C 
ATOM     12  C   UNL d   1      29.866 -12.479   2.234  0.00  0.00     0.065 C 
ATOM     13  C   UNL d   1      29.835 -13.718   3.177  0.00  0.00     0.209 C 
ATOM     14  C   UNL d   1      29.892 -13.502   4.693  0.00  0.00     0.109 C 
ATOM     15  S   UNL d   1      28.311 -14.084   5.374  0.00  0.00    -0.140 SA
ATOM     16  C   UNL d   1      27.461 -14.191   3.813  0.00  0.00     0.311 C 
ATOM     17  N   UNL d   1      28.555 -14.451   2.847  0.00  0.00    -0.034 N 
ATOM     18  H   UNL d   1      25.514 -15.345  -0.140  0.00  0.00     0.169 HD
ATOM     19  H   UNL d   1      28.720 -15.461   2.961  0.00  0.00     0.283 HD
ENDROOT
BRANCH  11  20
ATOM     20  C   UNL d   1      29.523 -12.602  -0.346  0.00  0.00     0.169 C 
ATOM     21  O   UNL d   1      30.658 -12.145  -0.446  0.00  0.00    -0.292 OA
BRANCH  20  22
ATOM     22  C   UNL d   1      28.817 -12.928  -1.621  0.00  0.00     0.028 A 
ATOM     23  C   UNL d   1      27.491 -12.578  -1.877  0.00  0.00     0.018 A 
ATOM     24  C   UNL d   1      26.804 -13.193  -2.935  0.00  0.00     0.020 A 
ATOM     25  C   UNL d   1      27.478 -14.120  -3.711  0.00  0.00     0.116 A 
ATOM     26  N   UNL d   1      28.793 -14.380  -3.561  0.00  0.00    -0.272 NA
ATOM     27  C   UNL d   1      29.441 -13.777  -2.529  0.00  0.00     0.131 A 
ENDBRANCH  20  22
ENDBRANCH  11  20
BRANCH  12  28
ATOM     28  C   UNL d   1      29.557 -11.172   2.964  0.00  0.00    -0.049 C 
ATOM     29  C   UNL d   1      30.504 -10.542   3.786  0.00  0.00     0.007 C 
ATOM     30  C   UNL d   1      30.347  -9.287   4.346  0.00  0.00     0.003 C 
ATOM     31  C   UNL d   1      29.104  -8.707   4.296  0.00  0.00     0.036 C 
ATOM     32  C   UNL d   1      28.106  -9.319   3.526  0.00  0.00     0.103 C 
ATOM     33  C   UNL d   1      28.355 -10.490   2.775  0.00  0.00     0.043 C 
BRANCH  32  34
ATOM     34  N   UNL d   1      26.758  -8.757   3.565  0.00  0.00    -0.116 N 
ATOM     35  O   UNL d   1      26.655  -7.525   3.605  0.00  0.00    -0.532 OA
ATOM     36  O   UNL d   1      25.810  -9.553   3.585  0.00  0.00    -0.532 OA
ENDBRANCH  32  34
ENDBRANCH  12  28
BRANCH   1  37
ATOM     37  O   UNL d   1      31.425 -17.159  -1.005  0.00  0.00    -0.356 OA
ATOM     38  C   UNL d   1      32.147 -18.149  -0.251  0.00  0.00     0.210 C 
ENDBRANCH   1  37
TORSDOF 5
ENDMDL
