MODEL 1
REMARK VINA RESULT:    -7.621      0.000      0.000
REMARK INTER + INTRA:         -11.409
REMARK INTER:                 -10.007
REMARK INTRA:                  -1.401
REMARK CONF_INDEPENDENT:        2.386
REMARK UNBOUND:                -1.401
REMARK  8 active torsions:
REMARK  status: ('A' for Active; 'I' for Inactive)
REMARK    1  A    between atoms: C_2  and  C_3 
REMARK    2  A    between atoms: C_3  and  C_4 
REMARK    3  A    between atoms: C_5  and  C_4 
REMARK    4  A    between atoms: C_5  and  C_10 
REMARK    5  A    between atoms: C_5  and  N_6 
REMARK       I    between atoms: N_6  and  C_7 
REMARK       I    between atoms: C_7  and  N_8 
REMARK       I    between atoms: C_10  and  N_12 
REMARK    6  A    between atoms: N_12  and  C_13 
REMARK    7  A    between atoms: C_19  and  C_20 
REMARK    8  A    between atoms: C_20  and  O_22 
ROOT
ATOM      1  C   UNL d   1      25.703 -14.120  -4.002  0.00  0.00     0.245 C 
ATOM      2  O   UNL d   1      25.616 -15.252  -4.488  0.00  0.00    -0.271 OA
ATOM      3  N   UNL d   1      25.690 -13.974  -2.614  0.00  0.00    -0.325 N 
ATOM      4  H   UNL d   1      25.261 -13.161  -2.199  0.00  0.00     0.169 HD
ENDROOT
BRANCH   3   5
ATOM      5  C   UNL d   1      25.571 -15.164  -1.862  0.00  0.00     0.035 A 
ATOM      6  C   UNL d   1      26.742 -15.650  -1.285  0.00  0.00     0.032 A 
ATOM      7  C   UNL d   1      26.742 -16.806  -0.525  0.00  0.00     0.034 A 
ATOM      8  C   UNL d   1      25.519 -17.458  -0.380  0.00  0.00     0.063 A 
ATOM      9  N   UNL d   1      25.196 -18.583   0.318  0.00  0.00    -0.277 N 
ATOM     10  C   UNL d   1      24.330 -17.032  -0.968  0.00  0.00     0.031 A 
ATOM     11  N   UNL d   1      23.909 -18.938   0.230  0.00  0.00    -0.167 NA
ATOM     12  H   UNL d   1      25.822 -19.144   0.886  0.00  0.00     0.189 HD
ATOM     13  C   UNL d   1      23.348 -18.007  -0.575  0.00  0.00     0.164 A 
ATOM     14  C   UNL d   1      24.351 -15.846  -1.739  0.00  0.00     0.046 A 
BRANCH  13  15
ATOM     15  C   UNL d   1      21.911 -18.063  -0.916  0.00  0.00     0.314 C 
ATOM     16  O   UNL d   1      21.158 -17.086  -0.895  0.00  0.00    -0.257 OA
BRANCH  15  17
ATOM     17  O   UNL d   1      21.487 -19.317  -1.268  0.00  0.00    -0.321 OA
ATOM     18  C   UNL d   1      20.190 -19.675  -0.776  0.00  0.00     0.213 C 
ENDBRANCH  15  17
ENDBRANCH  13  15
ENDBRANCH   3   5
BRANCH   1  19
ATOM     19  C   UNL d   1      25.690 -12.858  -4.917  0.00  0.00     0.178 C 
BRANCH  19  20
ATOM     20  N   UNL d   1      25.548 -11.546  -4.212  0.00  0.00    -0.330 N 
ATOM     21  C   UNL d   1      26.184 -10.887  -3.218  0.00  0.00     0.314 C 
ATOM     22  N   UNL d   1      27.209 -11.453  -2.567  0.00  0.00    -0.352 N 
ATOM     23  O   UNL d   1      25.800  -9.769  -2.891  0.00  0.00    -0.248 OA
ATOM     24  H   UNL d   1      27.756 -12.170  -3.032  0.00  0.00     0.160 HD
ATOM     25  H   UNL d   1      27.788 -10.831  -2.017  0.00  0.00     0.160 HD
ATOM     26  H   UNL d   1      24.739 -11.000  -4.482  0.00  0.00     0.165 HD
ENDBRANCH  19  20
BRANCH  19  27
ATOM     27  C   UNL d   1      26.991 -12.787  -5.785  0.00  0.00     0.035 C 
BRANCH  27  28
ATOM     28  C   UNL d   1      28.136 -13.567  -5.161  0.00  0.00     0.002 C 
BRANCH  28  29
ATOM     29  C   UNL d   1      28.460 -14.937  -5.699  0.00  0.00    -0.004 C 
ATOM     30  C   UNL d   1      28.824 -15.823  -4.506  0.00  0.00     0.005 C 
ENDBRANCH  28  29
ENDBRANCH  27  28
ENDBRANCH  19  27
ENDBRANCH   1  19
TORSDOF 8
ENDMDL
MODEL 2
REMARK VINA RESULT:    -6.931      1.299      1.528
REMARK INTER + INTRA:         -10.378
REMARK INTER:                  -9.317
REMARK INTRA:                  -1.061
REMARK CONF_INDEPENDENT:        2.386
REMARK UNBOUND:                -1.061
REMARK  8 active torsions:
REMARK  status: ('A' for Active; 'I' for Inactive)
REMARK    1  A    between atoms: C_2  and  C_3 
REMARK    2  A    between atoms: C_3  and  C_4 
REMARK    3  A    between atoms: C_5  and  C_4 
REMARK    4  A    between atoms: C_5  and  C_10 
REMARK    5  A    between atoms: C_5  and  N_6 
REMARK       I    between atoms: N_6  and  C_7 
REMARK       I    between atoms: C_7  and  N_8 
REMARK       I    between atoms: C_10  and  N_12 
REMARK    6  A    between atoms: N_12  and  C_13 
REMARK    7  A    between atoms: C_19  and  C_20 
REMARK    8  A    between atoms: C_20  and  O_22 
ROOT
ATOM      1  C   UNL d   1      25.739 -12.896  -2.632  0.00  0.00     0.245 C 
ATOM      2  O   UNL d   1      26.207 -12.915  -1.489  0.00  0.00    -0.271 OA
ATOM      3  N   UNL d   1      25.179 -14.062  -3.155  0.00  0.00    -0.325 N 
ATOM      4  H   UNL d   1      25.260 -14.259  -4.142  0.00  0.00     0.169 HD
ENDROOT
BRANCH   3   5
ATOM      5  C   UNL d   1      25.201 -15.197  -2.314  0.00  0.00     0.035 A 
ATOM      6  C   UNL d   1      26.447 -15.579  -1.824  0.00  0.00     0.032 A 
ATOM      7  C   UNL d   1      26.587 -16.673  -0.989  0.00  0.00     0.034 A 
ATOM      8  C   UNL d   1      25.422 -17.373  -0.679  0.00  0.00     0.063 A 
ATOM      9  N   UNL d   1      25.234 -18.458   0.125  0.00  0.00    -0.277 N 
ATOM     10  C   UNL d   1      24.160 -17.053  -1.174  0.00  0.00     0.031 A 
ATOM     11  N   UNL d   1      23.966 -18.883   0.189  0.00  0.00    -0.167 NA
ATOM     12  H   UNL d   1      25.941 -18.942   0.665  0.00  0.00     0.189 HD
ATOM     13  C   UNL d   1      23.279 -18.045  -0.619  0.00  0.00     0.164 A 
ATOM     14  C   UNL d   1      24.040 -15.928  -2.023  0.00  0.00     0.046 A 
BRANCH  13  15
ATOM     15  C   UNL d   1      21.821 -18.198  -0.811  0.00  0.00     0.314 C 
ATOM     16  O   UNL d   1      21.034 -17.254  -0.915  0.00  0.00    -0.257 OA
BRANCH  15  17
ATOM     17  O   UNL d   1      21.418 -19.507  -0.870  0.00  0.00    -0.321 OA
ATOM     18  C   UNL d   1      20.406 -19.868   0.076  0.00  0.00     0.213 C 
ENDBRANCH  15  17
ENDBRANCH  13  15
ENDBRANCH   3   5
BRANCH   1  19
ATOM     19  C   UNL d   1      25.888 -11.632  -3.533  0.00  0.00     0.178 C 
BRANCH  19  20
ATOM     20  N   UNL d   1      26.505 -10.437  -2.878  0.00  0.00    -0.330 N 
ATOM     21  C   UNL d   1      26.193  -9.133  -2.712  0.00  0.00     0.314 C 
ATOM     22  N   UNL d   1      25.085  -8.618  -3.262  0.00  0.00    -0.352 N 
ATOM     23  O   UNL d   1      26.948  -8.406  -2.073  0.00  0.00    -0.248 OA
ATOM     24  H   UNL d   1      24.301  -9.229  -3.462  0.00  0.00     0.160 HD
ATOM     25  H   UNL d   1      24.785  -7.720  -2.905  0.00  0.00     0.160 HD
ATOM     26  H   UNL d   1      27.429 -10.590  -2.492  0.00  0.00     0.165 HD
ENDBRANCH  19  20
BRANCH  19  27
ATOM     27  C   UNL d   1      26.731 -11.956  -4.812  0.00  0.00     0.035 C 
BRANCH  27  28
ATOM     28  C   UNL d   1      27.658 -13.141  -4.598  0.00  0.00     0.002 C 
BRANCH  28  29
ATOM     29  C   UNL d   1      27.412 -14.407  -5.377  0.00  0.00    -0.004 C 
ATOM     30  C   UNL d   1      28.500 -14.507  -6.447  0.00  0.00     0.005 C 
ENDBRANCH  28  29
ENDBRANCH  27  28
ENDBRANCH  19  27
ENDBRANCH   1  19
TORSDOF 8
ENDMDL
MODEL 3
REMARK VINA RESULT:    -6.451      4.947      6.971
REMARK INTER + INTRA:          -9.859
REMARK INTER:                  -8.838
REMARK INTRA:                  -1.021
REMARK CONF_INDEPENDENT:        2.386
REMARK UNBOUND:                -1.021
REMARK  8 active torsions:
REMARK  status: ('A' for Active; 'I' for Inactive)
REMARK    1  A    between atoms: C_2  and  C_3 
REMARK    2  A    between atoms: C_3  and  C_4 
REMARK    3  A    between atoms: C_5  and  C_4 
REMARK    4  A    between atoms: C_5  and  C_10 
REMARK    5  A    between atoms: C_5  and  N_6 
REMARK       I    between atoms: N_6  and  C_7 
REMARK       I    between atoms: C_7  and  N_8 
REMARK       I    between atoms: C_10  and  N_12 
REMARK    6  A    between atoms: N_12  and  C_13 
REMARK    7  A    between atoms: C_19  and  C_20 
REMARK    8  A    between atoms: C_20  and  O_22 
ROOT
ATOM      1  C   UNL d   1      26.782 -15.518  -0.750  0.00  0.00     0.245 C 
ATOM      2  O   UNL d   1      26.960 -16.499  -0.020  0.00  0.00    -0.271 OA
ATOM      3  N   UNL d   1      27.467 -14.335  -0.475  0.00  0.00    -0.325 N 
ATOM      4  H   UNL d   1      27.027 -13.446  -0.661  0.00  0.00     0.169 HD
ENDROOT
BRANCH   3   5
ATOM      5  C   UNL d   1      28.324 -14.356   0.649  0.00  0.00     0.035 A 
ATOM      6  C   UNL d   1      29.667 -14.623   0.396  0.00  0.00     0.032 A 
ATOM      7  C   UNL d   1      30.597 -14.665   1.421  0.00  0.00     0.034 A 
ATOM      8  C   UNL d   1      30.115 -14.438   2.709  0.00  0.00     0.063 A 
ATOM      9  N   UNL d   1      30.776 -14.388   3.900  0.00  0.00    -0.277 N 
ATOM     10  C   UNL d   1      28.777 -14.204   3.015  0.00  0.00     0.031 A 
ATOM     11  N   UNL d   1      29.989 -14.154   4.958  0.00  0.00    -0.167 NA
ATOM     12  H   UNL d   1      31.773 -14.495   4.045  0.00  0.00     0.189 HD
ATOM     13  C   UNL d   1      28.742 -14.053   4.445  0.00  0.00     0.164 A 
ATOM     14  C   UNL d   1      27.844 -14.162   1.952  0.00  0.00     0.046 A 
BRANCH  13  15
ATOM     15  C   UNL d   1      27.579 -13.795   5.320  0.00  0.00     0.314 C 
ATOM     16  O   UNL d   1      26.415 -14.078   5.025  0.00  0.00    -0.257 OA
BRANCH  15  17
ATOM     17  O   UNL d   1      27.917 -13.206   6.510  0.00  0.00    -0.321 OA
ATOM     18  C   UNL d   1      28.176 -11.800   6.435  0.00  0.00     0.213 C 
ENDBRANCH  15  17
ENDBRANCH  13  15
ENDBRANCH   3   5
BRANCH   1  19
ATOM     19  C   UNL d   1      25.711 -15.553  -1.882  0.00  0.00     0.178 C 
BRANCH  19  20
ATOM     20  N   UNL d   1      26.244 -15.565  -3.280  0.00  0.00    -0.330 N 
ATOM     21  C   UNL d   1      25.917 -15.000  -4.464  0.00  0.00     0.314 C 
ATOM     22  N   UNL d   1      24.825 -14.233  -4.580  0.00  0.00    -0.352 N 
ATOM     23  O   UNL d   1      26.615 -15.216  -5.450  0.00  0.00    -0.248 OA
ATOM     24  H   UNL d   1      24.462 -13.760  -3.759  0.00  0.00     0.160 HD
ATOM     25  H   UNL d   1      24.772 -13.653  -5.407  0.00  0.00     0.160 HD
ATOM     26  H   UNL d   1      27.021 -16.194  -3.436  0.00  0.00     0.165 HD
ENDBRANCH  19  20
BRANCH  19  27
ATOM     27  C   UNL d   1      24.774 -16.798  -1.724  0.00  0.00     0.035 C 
BRANCH  27  28
ATOM     28  C   UNL d   1      23.627 -16.530  -0.765  0.00  0.00     0.002 C 
BRANCH  28  29
ATOM     29  C   UNL d   1      22.619 -17.622  -0.515  0.00  0.00    -0.004 C 
ATOM     30  C   UNL d   1      23.364 -18.957  -0.576  0.00  0.00     0.005 C 
ENDBRANCH  28  29
ENDBRANCH  27  28
ENDBRANCH  19  27
ENDBRANCH   1  19
TORSDOF 8
ENDMDL
MODEL 4
REMARK VINA RESULT:    -6.434      2.549      7.779
REMARK INTER + INTRA:         -10.413
REMARK INTER:                  -8.821
REMARK INTRA:                  -1.592
REMARK CONF_INDEPENDENT:        2.386
REMARK UNBOUND:                -1.592
REMARK  8 active torsions:
REMARK  status: ('A' for Active; 'I' for Inactive)
REMARK    1  A    between atoms: C_2  and  C_3 
REMARK    2  A    between atoms: C_3  and  C_4 
REMARK    3  A    between atoms: C_5  and  C_4 
REMARK    4  A    between atoms: C_5  and  C_10 
REMARK    5  A    between atoms: C_5  and  N_6 
REMARK       I    between atoms: N_6  and  C_7 
REMARK       I    between atoms: C_7  and  N_8 
REMARK       I    between atoms: C_10  and  N_12 
REMARK    6  A    between atoms: N_12  and  C_13 
REMARK    7  A    between atoms: C_19  and  C_20 
REMARK    8  A    between atoms: C_20  and  O_22 
ROOT
ATOM      1  C   UNL d   1      25.456 -16.479  -1.864  0.00  0.00     0.245 C 
ATOM      2  O   UNL d   1      26.631 -16.212  -1.591  0.00  0.00    -0.271 OA
ATOM      3  N   UNL d   1      24.771 -15.673  -2.772  0.00  0.00    -0.325 N 
ATOM      4  H   UNL d   1      23.781 -15.511  -2.653  0.00  0.00     0.169 HD
ENDROOT
BRANCH   3   5
ATOM      5  C   UNL d   1      25.494 -14.586  -3.313  0.00  0.00     0.035 A 
ATOM      6  C   UNL d   1      25.182 -13.325  -2.810  0.00  0.00     0.032 A 
ATOM      7  C   UNL d   1      25.830 -12.190  -3.264  0.00  0.00     0.034 A 
ATOM      8  C   UNL d   1      26.794 -12.375  -4.252  0.00  0.00     0.063 A 
ATOM      9  N   UNL d   1      27.607 -11.473  -4.871  0.00  0.00    -0.277 N 
ATOM     10  C   UNL d   1      27.114 -13.610  -4.813  0.00  0.00     0.031 A 
ATOM     11  N   UNL d   1      28.419 -12.003  -5.793  0.00  0.00    -0.167 NA
ATOM     12  H   UNL d   1      27.655 -10.477  -4.690  0.00  0.00     0.189 HD
ATOM     13  C   UNL d   1      28.126 -13.323  -5.794  0.00  0.00     0.164 A 
ATOM     14  C   UNL d   1      26.442 -14.758  -4.332  0.00  0.00     0.046 A 
BRANCH  13  15
ATOM     15  C   UNL d   1      28.828 -14.258  -6.699  0.00  0.00     0.314 C 
ATOM     16  O   UNL d   1      29.536 -13.903  -7.645  0.00  0.00    -0.257 OA
BRANCH  15  17
ATOM     17  O   UNL d   1      28.623 -15.575  -6.382  0.00  0.00    -0.321 OA
ATOM     18  C   UNL d   1      29.643 -16.165  -5.569  0.00  0.00     0.213 C 
ENDBRANCH  15  17
ENDBRANCH  13  15
ENDBRANCH   3   5
BRANCH   1  19
ATOM     19  C   UNL d   1      24.703 -17.617  -1.110  0.00  0.00     0.178 C 
BRANCH  19  20
ATOM     20  N   UNL d   1      25.292 -18.026   0.204  0.00  0.00    -0.330 N 
ATOM     21  C   UNL d   1      26.525 -18.282   0.693  0.00  0.00     0.314 C 
ATOM     22  N   UNL d   1      27.601 -18.240  -0.103  0.00  0.00    -0.352 N 
ATOM     23  O   UNL d   1      26.655 -18.583   1.876  0.00  0.00    -0.248 OA
ATOM     24  H   UNL d   1      27.578 -17.666  -0.939  0.00  0.00     0.160 HD
ATOM     25  H   UNL d   1      28.499 -18.198   0.361  0.00  0.00     0.160 HD
ATOM     26  H   UNL d   1      24.616 -18.228   0.930  0.00  0.00     0.165 HD
ENDBRANCH  19  20
BRANCH  19  27
ATOM     27  C   UNL d   1      23.210 -17.221  -0.854  0.00  0.00     0.035 C 
BRANCH  27  28
ATOM     28  C   UNL d   1      22.427 -18.343  -0.194  0.00  0.00     0.002 C 
BRANCH  28  29
ATOM     29  C   UNL d   1      21.226 -18.909  -0.907  0.00  0.00    -0.004 C 
ATOM     30  C   UNL d   1      20.376 -19.638   0.134  0.00  0.00     0.005 C 
ENDBRANCH  28  29
ENDBRANCH  27  28
ENDBRANCH  19  27
ENDBRANCH   1  19
TORSDOF 8
ENDMDL
MODEL 5
REMARK VINA RESULT:    -6.434      2.477      7.240
REMARK INTER + INTRA:         -10.315
REMARK INTER:                  -8.820
REMARK INTRA:                  -1.495
REMARK CONF_INDEPENDENT:        2.386
REMARK UNBOUND:                -1.495
REMARK  8 active torsions:
REMARK  status: ('A' for Active; 'I' for Inactive)
REMARK    1  A    between atoms: C_2  and  C_3 
REMARK    2  A    between atoms: C_3  and  C_4 
REMARK    3  A    between atoms: C_5  and  C_4 
REMARK    4  A    between atoms: C_5  and  C_10 
REMARK    5  A    between atoms: C_5  and  N_6 
REMARK       I    between atoms: N_6  and  C_7 
REMARK       I    between atoms: C_7  and  N_8 
REMARK       I    between atoms: C_10  and  N_12 
REMARK    6  A    between atoms: N_12  and  C_13 
REMARK    7  A    between atoms: C_19  and  C_20 
REMARK    8  A    between atoms: C_20  and  O_22 
ROOT
ATOM      1  C   UNL d   1      24.237 -16.916  -1.380  0.00  0.00     0.245 C 
ATOM      2  O   UNL d   1      24.403 -17.589  -2.403  0.00  0.00    -0.271 OA
ATOM      3  N   UNL d   1      24.718 -15.607  -1.345  0.00  0.00    -0.325 N 
ATOM      4  H   UNL d   1      25.066 -15.224  -0.479  0.00  0.00     0.169 HD
ENDROOT
BRANCH   3   5
ATOM      5  C   UNL d   1      25.376 -15.151  -2.509  0.00  0.00     0.035 A 
ATOM      6  C   UNL d   1      24.741 -14.135  -3.220  0.00  0.00     0.032 A 
ATOM      7  C   UNL d   1      25.297 -13.609  -4.373  0.00  0.00     0.034 A 
ATOM      8  C   UNL d   1      26.509 -14.157  -4.787  0.00  0.00     0.063 A 
ATOM      9  N   UNL d   1      27.304 -13.840  -5.848  0.00  0.00    -0.277 N 
ATOM     10  C   UNL d   1      27.163 -15.199  -4.131  0.00  0.00     0.031 A 
ATOM     11  N   UNL d   1      28.409 -14.586  -5.953  0.00  0.00    -0.167 NA
ATOM     12  H   UNL d   1      27.141 -13.107  -6.529  0.00  0.00     0.189 HD
ATOM     13  C   UNL d   1      28.343 -15.450  -4.914  0.00  0.00     0.164 A 
ATOM     14  C   UNL d   1      26.579 -15.719  -2.952  0.00  0.00     0.046 A 
BRANCH  13  15
ATOM     15  C   UNL d   1      29.404 -16.455  -4.691  0.00  0.00     0.314 C 
ATOM     16  O   UNL d   1      29.982 -17.062  -5.596  0.00  0.00    -0.257 OA
BRANCH  15  17
ATOM     17  O   UNL d   1      29.696 -16.649  -3.367  0.00  0.00    -0.321 OA
ATOM     18  C   UNL d   1      30.191 -15.492  -2.683  0.00  0.00     0.213 C 
ENDBRANCH  15  17
ENDBRANCH  13  15
ENDBRANCH   3   5
BRANCH   1  19
ATOM     19  C   UNL d   1      23.622 -17.555  -0.098  0.00  0.00     0.178 C 
BRANCH  19  20
ATOM     20  N   UNL d   1      22.568 -18.592  -0.331  0.00  0.00    -0.330 N 
ATOM     21  C   UNL d   1      21.321 -18.629  -0.849  0.00  0.00     0.314 C 
ATOM     22  N   UNL d   1      20.719 -17.509  -1.270  0.00  0.00    -0.352 N 
ATOM     23  O   UNL d   1      20.723 -19.699  -0.910  0.00  0.00    -0.248 OA
ATOM     24  H   UNL d   1      21.287 -16.721  -1.564  0.00  0.00     0.160 HD
ATOM     25  H   UNL d   1      19.907 -17.632  -1.861  0.00  0.00     0.160 HD
ATOM     26  H   UNL d   1      22.785 -19.511   0.033  0.00  0.00     0.165 HD
ENDBRANCH  19  20
BRANCH  19  27
ATOM     27  C   UNL d   1      24.737 -18.207   0.788  0.00  0.00     0.035 C 
BRANCH  27  28
ATOM     28  C   UNL d   1      26.088 -18.210   0.094  0.00  0.00     0.002 C 
BRANCH  28  29
ATOM     29  C   UNL d   1      27.058 -17.094   0.385  0.00  0.00    -0.004 C 
ATOM     30  C   UNL d   1      28.299 -17.328  -0.477  0.00  0.00     0.005 C 
ENDBRANCH  28  29
ENDBRANCH  27  28
ENDBRANCH  19  27
ENDBRANCH   1  19
TORSDOF 8
ENDMDL
MODEL 6
REMARK VINA RESULT:    -6.334      1.965      7.492
REMARK INTER + INTRA:         -10.090
REMARK INTER:                  -8.720
REMARK INTRA:                  -1.370
REMARK CONF_INDEPENDENT:        2.386
REMARK UNBOUND:                -1.370
REMARK  8 active torsions:
REMARK  status: ('A' for Active; 'I' for Inactive)
REMARK    1  A    between atoms: C_2  and  C_3 
REMARK    2  A    between atoms: C_3  and  C_4 
REMARK    3  A    between atoms: C_5  and  C_4 
REMARK    4  A    between atoms: C_5  and  C_10 
REMARK    5  A    between atoms: C_5  and  N_6 
REMARK       I    between atoms: N_6  and  C_7 
REMARK       I    between atoms: C_7  and  N_8 
REMARK       I    between atoms: C_10  and  N_12 
REMARK    6  A    between atoms: N_12  and  C_13 
REMARK    7  A    between atoms: C_19  and  C_20 
REMARK    8  A    between atoms: C_20  and  O_22 
ROOT
ATOM      1  C   UNL d   1      24.283 -16.794  -1.694  0.00  0.00     0.245 C 
ATOM      2  O   UNL d   1      24.594 -17.450  -2.693  0.00  0.00    -0.271 OA
ATOM      3  N   UNL d   1      24.860 -15.538  -1.501  0.00  0.00    -0.325 N 
ATOM      4  H   UNL d   1      25.058 -15.215  -0.565  0.00  0.00     0.169 HD
ENDROOT
BRANCH   3   5
ATOM      5  C   UNL d   1      25.780 -15.115  -2.487  0.00  0.00     0.035 A 
ATOM      6  C   UNL d   1      26.925 -15.893  -2.639  0.00  0.00     0.032 A 
ATOM      7  C   UNL d   1      27.891 -15.575  -3.576  0.00  0.00     0.034 A 
ATOM      8  C   UNL d   1      27.663 -14.435  -4.344  0.00  0.00     0.063 A 
ATOM      9  N   UNL d   1      28.403 -13.886  -5.349  0.00  0.00    -0.277 N 
ATOM     10  C   UNL d   1      26.553 -13.604  -4.203  0.00  0.00     0.031 A 
ATOM     11  N   UNL d   1      27.884 -12.767  -5.869  0.00  0.00    -0.167 NA
ATOM     12  H   UNL d   1      29.271 -14.247  -5.729  0.00  0.00     0.189 HD
ATOM     13  C   UNL d   1      26.747 -12.555  -5.168  0.00  0.00     0.164 A 
ATOM     14  C   UNL d   1      25.575 -13.951  -3.241  0.00  0.00     0.046 A 
BRANCH  13  15
ATOM     15  C   UNL d   1      25.882 -11.391  -5.456  0.00  0.00     0.314 C 
ATOM     16  O   UNL d   1      25.503 -11.075  -6.586  0.00  0.00    -0.257 OA
BRANCH  15  17
ATOM     17  O   UNL d   1      25.530 -10.688  -4.334  0.00  0.00    -0.321 OA
ATOM     18  C   UNL d   1      25.470  -9.268  -4.507  0.00  0.00     0.213 C 
ENDBRANCH  15  17
ENDBRANCH  13  15
ENDBRANCH   3   5
BRANCH   1  19
ATOM     19  C   UNL d   1      23.365 -17.406  -0.592  0.00  0.00     0.178 C 
BRANCH  19  20
ATOM     20  N   UNL d   1      22.285 -18.319  -1.081  0.00  0.00    -0.330 N 
ATOM     21  C   UNL d   1      21.240 -18.986  -0.543  0.00  0.00     0.314 C 
ATOM     22  N   UNL d   1      21.010 -18.950   0.776  0.00  0.00    -0.352 N 
ATOM     23  O   UNL d   1      20.511 -19.655  -1.269  0.00  0.00    -0.248 OA
ATOM     24  H   UNL d   1      21.343 -18.158   1.316  0.00  0.00     0.160 HD
ATOM     25  H   UNL d   1      20.095 -19.257   1.079  0.00  0.00     0.160 HD
ATOM     26  H   UNL d   1      22.351 -18.574  -2.059  0.00  0.00     0.165 HD
ENDBRANCH  19  20
BRANCH  19  27
ATOM     27  C   UNL d   1      24.212 -18.200   0.459  0.00  0.00     0.035 C 
BRANCH  27  28
ATOM     28  C   UNL d   1      25.600 -18.534  -0.062  0.00  0.00     0.002 C 
BRANCH  28  29
ATOM     29  C   UNL d   1      26.796 -18.200   0.792  0.00  0.00    -0.004 C 
ATOM     30  C   UNL d   1      27.136 -16.729   0.549  0.00  0.00     0.005 C 
ENDBRANCH  28  29
ENDBRANCH  27  28
ENDBRANCH  19  27
ENDBRANCH   1  19
TORSDOF 8
ENDMDL
MODEL 7
REMARK VINA RESULT:    -5.923      4.099      7.520
REMARK INTER + INTRA:         -10.003
REMARK INTER:                  -8.310
REMARK INTRA:                  -1.693
REMARK CONF_INDEPENDENT:        2.386
REMARK UNBOUND:                -1.693
REMARK  8 active torsions:
REMARK  status: ('A' for Active; 'I' for Inactive)
REMARK    1  A    between atoms: C_2  and  C_3 
REMARK    2  A    between atoms: C_3  and  C_4 
REMARK    3  A    between atoms: C_5  and  C_4 
REMARK    4  A    between atoms: C_5  and  C_10 
REMARK    5  A    between atoms: C_5  and  N_6 
REMARK       I    between atoms: N_6  and  C_7 
REMARK       I    between atoms: C_7  and  N_8 
REMARK       I    between atoms: C_10  and  N_12 
REMARK    6  A    between atoms: N_12  and  C_13 
REMARK    7  A    between atoms: C_19  and  C_20 
REMARK    8  A    between atoms: C_20  and  O_22 
ROOT
ATOM      1  C   UNL d   1      27.517 -15.294  -3.979  0.00  0.00     0.245 C 
ATOM      2  O   UNL d   1      27.032 -15.575  -5.080  0.00  0.00    -0.271 OA
ATOM      3  N   UNL d   1      28.902 -15.324  -3.820  0.00  0.00    -0.325 N 
ATOM      4  H   UNL d   1      29.300 -15.607  -2.936  0.00  0.00     0.169 HD
ENDROOT
BRANCH   3   5
ATOM      5  C   UNL d   1      29.654 -15.690  -4.959  0.00  0.00     0.035 A 
ATOM      6  C   UNL d   1      30.183 -14.645  -5.712  0.00  0.00     0.032 A 
ATOM      7  C   UNL d   1      30.939 -14.886  -6.845  0.00  0.00     0.034 A 
ATOM      8  C   UNL d   1      31.129 -16.221  -7.196  0.00  0.00     0.063 A 
ATOM      9  N   UNL d   1      31.835 -16.771  -8.224  0.00  0.00    -0.277 N 
ATOM     10  C   UNL d   1      30.589 -17.299  -6.497  0.00  0.00     0.031 A 
ATOM     11  N   UNL d   1      31.795 -18.108  -8.268  0.00  0.00    -0.167 NA
ATOM     12  H   UNL d   1      32.376 -16.273  -8.922  0.00  0.00     0.189 HD
ATOM     13  C   UNL d   1      31.016 -18.465  -7.222  0.00  0.00     0.164 A 
ATOM     14  C   UNL d   1      29.823 -17.030  -5.339  0.00  0.00     0.046 A 
BRANCH  13  15
ATOM     15  C   UNL d   1      30.731 -19.888  -6.937  0.00  0.00     0.314 C 
ATOM     16  O   UNL d   1      31.087 -20.822  -7.659  0.00  0.00    -0.257 OA
BRANCH  15  17
ATOM     17  O   UNL d   1      30.029 -20.077  -5.775  0.00  0.00    -0.321 OA
ATOM     18  C   UNL d   1      30.835 -20.235  -4.603  0.00  0.00     0.213 C 
ENDBRANCH  15  17
ENDBRANCH  13  15
ENDBRANCH   3   5
BRANCH   1  19
ATOM     19  C   UNL d   1      26.597 -15.039  -2.746  0.00  0.00     0.178 C 
BRANCH  19  20
ATOM     20  N   UNL d   1      25.201 -14.601  -3.057  0.00  0.00    -0.330 N 
ATOM     21  C   UNL d   1      24.590 -13.857  -4.006  0.00  0.00     0.314 C 
ATOM     22  N   UNL d   1      25.301 -13.252  -4.966  0.00  0.00    -0.352 N 
ATOM     23  O   UNL d   1      23.372 -13.714  -3.971  0.00  0.00    -0.248 OA
ATOM     24  H   UNL d   1      26.205 -13.632  -5.229  0.00  0.00     0.160 HD
ATOM     25  H   UNL d   1      24.780 -12.924  -5.769  0.00  0.00     0.160 HD
ATOM     26  H   UNL d   1      24.506 -14.863  -2.369  0.00  0.00     0.165 HD
ENDBRANCH  19  20
BRANCH  19  27
ATOM     27  C   UNL d   1      26.501 -16.319  -1.850  0.00  0.00     0.035 C 
BRANCH  27  28
ATOM     28  C   UNL d   1      25.159 -17.017  -1.995  0.00  0.00     0.002 C 
BRANCH  28  29
ATOM     29  C   UNL d   1      24.506 -17.600  -0.768  0.00  0.00    -0.004 C 
ATOM     30  C   UNL d   1      23.164 -16.891  -0.583  0.00  0.00     0.005 C 
ENDBRANCH  28  29
ENDBRANCH  27  28
ENDBRANCH  19  27
ENDBRANCH   1  19
TORSDOF 8
ENDMDL
MODEL 8
REMARK VINA RESULT:    -5.781      5.257      7.067
REMARK INTER + INTRA:         -10.015
REMARK INTER:                  -8.167
REMARK INTRA:                  -1.847
REMARK CONF_INDEPENDENT:        2.386
REMARK UNBOUND:                -1.847
REMARK  8 active torsions:
REMARK  status: ('A' for Active; 'I' for Inactive)
REMARK    1  A    between atoms: C_2  and  C_3 
REMARK    2  A    between atoms: C_3  and  C_4 
REMARK    3  A    between atoms: C_5  and  C_4 
REMARK    4  A    between atoms: C_5  and  C_10 
REMARK    5  A    between atoms: C_5  and  N_6 
REMARK       I    between atoms: N_6  and  C_7 
REMARK       I    between atoms: C_7  and  N_8 
REMARK       I    between atoms: C_10  and  N_12 
REMARK    6  A    between atoms: N_12  and  C_13 
REMARK    7  A    between atoms: C_19  and  C_20 
REMARK    8  A    between atoms: C_20  and  O_22 
ROOT
ATOM      1  C   UNL d   1      28.710 -14.362   2.875  0.00  0.00     0.245 C 
ATOM      2  O   UNL d   1      27.615 -13.802   2.996  0.00  0.00    -0.271 OA
ATOM      3  N   UNL d   1      29.007 -15.022   1.682  0.00  0.00    -0.325 N 
ATOM      4  H   UNL d   1      29.574 -15.857   1.699  0.00  0.00     0.169 HD
ENDROOT
BRANCH   3   5
ATOM      5  C   UNL d   1      28.002 -14.999   0.689  0.00  0.00     0.035 A 
ATOM      6  C   UNL d   1      27.964 -13.871  -0.126  0.00  0.00     0.032 A 
ATOM      7  C   UNL d   1      27.025 -13.743  -1.134  0.00  0.00     0.034 A 
ATOM      8  C   UNL d   1      26.119 -14.792  -1.278  0.00  0.00     0.063 A 
ATOM      9  N   UNL d   1      25.112 -14.969  -2.180  0.00  0.00    -0.277 N 
ATOM     10  C   UNL d   1      26.093 -15.922  -0.465  0.00  0.00     0.031 A 
ATOM     11  N   UNL d   1      24.423 -16.105  -2.022  0.00  0.00    -0.167 NA
ATOM     12  H   UNL d   1      24.860 -14.344  -2.937  0.00  0.00     0.189 HD
ATOM     13  C   UNL d   1      24.995 -16.710  -0.956  0.00  0.00     0.164 A 
ATOM     14  C   UNL d   1      27.065 -16.035   0.557  0.00  0.00     0.046 A 
BRANCH  13  15
ATOM     15  C   UNL d   1      24.499 -18.013  -0.465  0.00  0.00     0.314 C 
ATOM     16  O   UNL d   1      24.898 -18.561   0.566  0.00  0.00    -0.257 OA
BRANCH  15  17
ATOM     17  O   UNL d   1      23.536 -18.564  -1.269  0.00  0.00    -0.321 OA
ATOM     18  C   UNL d   1      22.192 -18.389  -0.807  0.00  0.00     0.213 C 
ENDBRANCH  15  17
ENDBRANCH  13  15
ENDBRANCH   3   5
BRANCH   1  19
ATOM     19  C   UNL d   1      29.696 -14.450   4.080  0.00  0.00     0.178 C 
BRANCH  19  20
ATOM     20  N   UNL d   1      30.547 -13.241   4.312  0.00  0.00    -0.330 N 
ATOM     21  C   UNL d   1      30.482 -11.922   4.027  0.00  0.00     0.314 C 
ATOM     22  N   UNL d   1      29.463 -11.423   3.315  0.00  0.00    -0.352 N 
ATOM     23  O   UNL d   1      31.383 -11.178   4.402  0.00  0.00    -0.248 OA
ATOM     24  H   UNL d   1      28.573 -11.910   3.315  0.00  0.00     0.160 HD
ATOM     25  H   UNL d   1      29.346 -10.418   3.346  0.00  0.00     0.160 HD
ATOM     26  H   UNL d   1      31.443 -13.426   4.744  0.00  0.00     0.165 HD
ENDBRANCH  19  20
BRANCH  19  27
ATOM     27  C   UNL d   1      28.924 -14.745   5.410  0.00  0.00     0.035 C 
BRANCH  27  28
ATOM     28  C   UNL d   1      29.543 -14.031   6.599  0.00  0.00     0.002 C 
BRANCH  28  29
ATOM     29  C   UNL d   1      28.761 -12.936   7.278  0.00  0.00    -0.004 C 
ATOM     30  C   UNL d   1      27.782 -12.367   6.250  0.00  0.00     0.005 C 
ENDBRANCH  28  29
ENDBRANCH  27  28
ENDBRANCH  19  27
ENDBRANCH   1  19
TORSDOF 8
ENDMDL
MODEL 9
REMARK VINA RESULT:    -5.657      4.270      6.602
REMARK INTER + INTRA:          -9.884
REMARK INTER:                  -8.043
REMARK INTRA:                  -1.841
REMARK CONF_INDEPENDENT:        2.386
REMARK UNBOUND:                -1.841
REMARK  8 active torsions:
REMARK  status: ('A' for Active; 'I' for Inactive)
REMARK    1  A    between atoms: C_2  and  C_3 
REMARK    2  A    between atoms: C_3  and  C_4 
REMARK    3  A    between atoms: C_5  and  C_4 
REMARK    4  A    between atoms: C_5  and  C_10 
REMARK    5  A    between atoms: C_5  and  N_6 
REMARK       I    between atoms: N_6  and  C_7 
REMARK       I    between atoms: C_7  and  N_8 
REMARK       I    between atoms: C_10  and  N_12 
REMARK    6  A    between atoms: N_12  and  C_13 
REMARK    7  A    between atoms: C_19  and  C_20 
REMARK    8  A    between atoms: C_20  and  O_22 
ROOT
ATOM      1  C   UNL d   1      27.449 -12.770   2.266  0.00  0.00     0.245 C 
ATOM      2  O   UNL d   1      26.234 -12.752   2.046  0.00  0.00    -0.271 OA
ATOM      3  N   UNL d   1      28.240 -13.724   1.626  0.00  0.00    -0.325 N 
ATOM      4  H   UNL d   1      29.042 -14.112   2.101  0.00  0.00     0.169 HD
ENDROOT
BRANCH   3   5
ATOM      5  C   UNL d   1      27.567 -14.616   0.762  0.00  0.00     0.035 A 
ATOM      6  C   UNL d   1      27.561 -15.957   1.140  0.00  0.00     0.032 A 
ATOM      7  C   UNL d   1      26.929 -16.918   0.371  0.00  0.00     0.034 A 
ATOM      8  C   UNL d   1      26.314 -16.476  -0.798  0.00  0.00     0.063 A 
ATOM      9  N   UNL d   1      25.601 -17.164  -1.734  0.00  0.00    -0.277 N 
ATOM     10  C   UNL d   1      26.326 -15.154  -1.238  0.00  0.00     0.031 A 
ATOM     11  N   UNL d   1      25.156 -16.415  -2.750  0.00  0.00    -0.167 NA
ATOM     12  H   UNL d   1      25.378 -18.153  -1.719  0.00  0.00     0.189 HD
ATOM     13  C   UNL d   1      25.603 -15.168  -2.482  0.00  0.00     0.164 A 
ATOM     14  C   UNL d   1      26.974 -14.187  -0.435  0.00  0.00     0.046 A 
BRANCH  13  15
ATOM     15  C   UNL d   1      25.310 -14.042  -3.394  0.00  0.00     0.314 C 
ATOM     16  O   UNL d   1      24.442 -14.071  -4.270  0.00  0.00    -0.257 OA
BRANCH  15  17
ATOM     17  O   UNL d   1      26.098 -12.943  -3.169  0.00  0.00    -0.321 OA
ATOM     18  C   UNL d   1      25.791 -11.805  -3.982  0.00  0.00     0.213 C 
ENDBRANCH  15  17
ENDBRANCH  13  15
ENDBRANCH   3   5
BRANCH   1  19
ATOM     19  C   UNL d   1      28.077 -11.834   3.343  0.00  0.00     0.178 C 
BRANCH  19  20
ATOM     20  N   UNL d   1      27.411 -10.505   3.515  0.00  0.00    -0.330 N 
ATOM     21  C   UNL d   1      26.728  -9.637   2.736  0.00  0.00     0.314 C 
ATOM     22  N   UNL d   1      26.558  -9.876   1.429  0.00  0.00    -0.352 N 
ATOM     23  O   UNL d   1      26.282  -8.605   3.228  0.00  0.00    -0.248 OA
ATOM     24  H   UNL d   1      26.584 -10.832   1.092  0.00  0.00     0.160 HD
ATOM     25  H   UNL d   1      25.845  -9.329   0.963  0.00  0.00     0.160 HD
ATOM     26  H   UNL d   1      27.528 -10.083   4.428  0.00  0.00     0.165 HD
ENDBRANCH  19  20
BRANCH  19  27
ATOM     27  C   UNL d   1      28.100 -12.533   4.743  0.00  0.00     0.035 C 
BRANCH  27  28
ATOM     28  C   UNL d   1      27.421 -13.892   4.714  0.00  0.00     0.002 C 
BRANCH  28  29
ATOM     29  C   UNL d   1      28.156 -15.085   5.267  0.00  0.00    -0.004 C 
ATOM     30  C   UNL d   1      29.651 -14.840   5.057  0.00  0.00     0.005 C 
ENDBRANCH  28  29
ENDBRANCH  27  28
ENDBRANCH  19  27
ENDBRANCH   1  19
TORSDOF 8
ENDMDL
