MODEL 1
REMARK VINA RESULT:    -8.627      0.000      0.000
REMARK INTER + INTRA:         -14.188
REMARK INTER:                 -12.505
REMARK INTRA:                  -1.683
REMARK CONF_INDEPENDENT:        3.878
REMARK UNBOUND:                -1.683
REMARK  13 active torsions:
REMARK  status: ('A' for Active; 'I' for Inactive)
REMARK    1  A    between atoms: O_2  and  C_3 
REMARK    2  A    between atoms: C_3  and  C_4 
REMARK    3  A    between atoms: C_4  and  O_5 
REMARK    4  A    between atoms: O_5  and  C_6 
REMARK    5  A    between atoms: C_9  and  C_10 
REMARK       I    between atoms: C_10  and  N_12 
REMARK    6  A    between atoms: N_12  and  C_13 
REMARK    7  A    between atoms: C_13  and  N_15 
REMARK    8  A    between atoms: N_15  and  C_16 
REMARK    9  A    between atoms: C_21  and  C_22 
REMARK       I    between atoms: C_22  and  N_24 
REMARK   10  A    between atoms: N_24  and  C_25 
REMARK   11  A    between atoms: C_25  and  C_26 
REMARK   12  A    between atoms: C_26  and  C_27 
REMARK   13  A    between atoms: C_27  and  O_28 
ROOT
ATOM      1  C   UNL d   1      32.052 -16.923   0.611  0.00  0.00     0.179 C 
ATOM      2  S   UNL d   1      32.693 -15.403   0.952  0.00  0.00    -0.040 SA
ENDROOT
BRANCH   1   3
ATOM      3  N   UNL d   1      30.682 -17.171   0.324  0.00  0.00    -0.299 N 
ATOM      4  C   UNL d   1      29.886 -16.454  -0.613  0.00  0.00     0.257 C 
ATOM      5  O   UNL d   1      30.284 -15.486  -1.259  0.00  0.00    -0.267 OA
ATOM      6  H   UNL d   1      30.208 -17.817   0.937  0.00  0.00     0.171 HD
BRANCH   4   7
ATOM      7  C   UNL d   1      28.426 -16.725  -0.773  0.00  0.00     0.033 C 
ATOM      8  C   UNL d   1      27.804 -17.650   0.098  0.00  0.00     0.020 C 
ATOM      9  C   UNL d   1      26.420 -17.859   0.067  0.00  0.00     0.039 C 
ATOM     10  C   UNL d   1      25.618 -17.119  -0.812  0.00  0.00     0.086 C 
ATOM     11  C   UNL d   1      26.247 -16.218  -1.692  0.00  0.00     0.045 C 
ATOM     12  C   UNL d   1      27.643 -16.080  -1.711  0.00  0.00     0.039 C 
ATOM     13 BR   UNL d   1      25.393 -14.923  -2.798  0.00  0.00    -0.048 Br
BRANCH  10  14
ATOM     14  O   UNL d   1      24.273 -17.284  -0.612  0.00  0.00    -0.348 OA
BRANCH  14  15
ATOM     15  C   UNL d   1      23.746 -18.574  -0.916  0.00  0.00     0.201 C 
BRANCH  15  16
ATOM     16  C   UNL d   1      22.394 -18.747  -0.247  0.00  0.00     0.193 C 
BRANCH  16  17
ATOM     17  O   UNL d   1      21.487 -19.314  -1.194  0.00  0.00    -0.394 OA
ATOM     18  C   UNL d   1      20.150 -18.946  -0.894  0.00  0.00     0.201 C 
ENDBRANCH  16  17
ENDBRANCH  15  16
ENDBRANCH  14  15
ENDBRANCH  10  14
ENDBRANCH   4   7
ENDBRANCH   1   3
BRANCH   1  19
ATOM     19  N   UNL d   1      32.823 -18.122   0.682  0.00  0.00    -0.332 N 
ATOM     20  H   UNL d   1      33.722 -18.083   1.153  0.00  0.00     0.168 HD
BRANCH  19  21
ATOM     21  C   UNL d   1      32.212 -19.435   0.672  0.00  0.00     0.050 A 
ATOM     22  C   UNL d   1      31.411 -19.808  -0.432  0.00  0.00     0.030 A 
ATOM     23  C   UNL d   1      30.832 -21.089  -0.512  0.00  0.00     0.002 A 
ATOM     24  C   UNL d   1      31.077 -22.027   0.485  0.00  0.00     0.001 A 
ATOM     25  C   UNL d   1      31.845 -21.664   1.593  0.00  0.00     0.019 A 
ATOM     26  C   UNL d   1      32.398 -20.368   1.723  0.00  0.00     0.058 A 
BRANCH  26  27
ATOM     27  C   UNL d   1      33.147 -20.092   3.002  0.00  0.00     0.253 C 
ATOM     28  O   UNL d   1      33.600 -18.960   3.221  0.00  0.00    -0.268 OA
ATOM     29  N   UNL d   1      33.313 -21.123   3.904  0.00  0.00    -0.357 N 
ATOM     30  H   UNL d   1      32.904 -22.012   3.659  0.00  0.00     0.162 HD
BRANCH  29  31
ATOM     31  C   UNL d   1      33.643 -20.866   5.299  0.00  0.00     0.125 C 
BRANCH  31  32
ATOM     32  C   UNL d   1      32.691 -21.545   6.265  0.00  0.00     0.046 C 
BRANCH  32  33
ATOM     33  C   UNL d   1      31.242 -21.555   5.834  0.00  0.00     0.165 C 
BRANCH  33  34
ATOM     34  O   UNL d   1      30.406 -21.565   6.985  0.00  0.00    -0.401 OA
ATOM     35  H   UNL d   1      29.826 -22.337   6.892  0.00  0.00     0.209 HD
ENDBRANCH  33  34
ENDBRANCH  32  33
ENDBRANCH  31  32
ENDBRANCH  29  31
ENDBRANCH  26  27
ENDBRANCH  19  21
ENDBRANCH   1  19
TORSDOF 13
ENDMDL
MODEL 2
REMARK VINA RESULT:    -7.770      5.718      9.807
REMARK INTER + INTRA:         -13.959
REMARK INTER:                 -11.648
REMARK INTRA:                  -2.311
REMARK CONF_INDEPENDENT:        3.878
REMARK UNBOUND:                -2.311
REMARK  13 active torsions:
REMARK  status: ('A' for Active; 'I' for Inactive)
REMARK    1  A    between atoms: O_2  and  C_3 
REMARK    2  A    between atoms: C_3  and  C_4 
REMARK    3  A    between atoms: C_4  and  O_5 
REMARK    4  A    between atoms: O_5  and  C_6 
REMARK    5  A    between atoms: C_9  and  C_10 
REMARK       I    between atoms: C_10  and  N_12 
REMARK    6  A    between atoms: N_12  and  C_13 
REMARK    7  A    between atoms: C_13  and  N_15 
REMARK    8  A    between atoms: N_15  and  C_16 
REMARK    9  A    between atoms: C_21  and  C_22 
REMARK       I    between atoms: C_22  and  N_24 
REMARK   10  A    between atoms: N_24  and  C_25 
REMARK   11  A    between atoms: C_25  and  C_26 
REMARK   12  A    between atoms: C_26  and  C_27 
REMARK   13  A    between atoms: C_27  and  O_28 
ROOT
ATOM      1  C   UNL d   1      27.994 -14.959   0.634  0.00  0.00     0.179 C 
ATOM      2  S   UNL d   1      29.099 -15.643  -0.437  0.00  0.00    -0.040 SA
ENDROOT
BRANCH   1   3
ATOM      3  N   UNL d   1      28.206 -14.831   2.034  0.00  0.00    -0.299 N 
ATOM      4  C   UNL d   1      27.664 -13.812   2.867  0.00  0.00     0.257 C 
ATOM      5  O   UNL d   1      26.977 -12.878   2.457  0.00  0.00    -0.267 OA
ATOM      6  H   UNL d   1      28.910 -15.434   2.435  0.00  0.00     0.171 HD
BRANCH   4   7
ATOM      7  C   UNL d   1      28.026 -13.705   4.313  0.00  0.00     0.033 C 
ATOM      8  C   UNL d   1      28.388 -14.878   5.014  0.00  0.00     0.020 C 
ATOM      9  C   UNL d   1      28.843 -14.822   6.337  0.00  0.00     0.039 C 
ATOM     10  C   UNL d   1      28.983 -13.585   6.979  0.00  0.00     0.086 C 
ATOM     11  C   UNL d   1      28.597 -12.424   6.282  0.00  0.00     0.045 C 
ATOM     12  C   UNL d   1      28.061 -12.500   4.988  0.00  0.00     0.039 C 
ATOM     13 BR   UNL d   1      28.910 -10.621   6.813  0.00  0.00    -0.048 Br
BRANCH  10  14
ATOM     14  O   UNL d   1      29.609 -13.656   8.195  0.00  0.00    -0.348 OA
BRANCH  14  15
ATOM     15  C   UNL d   1      28.893 -14.323   9.232  0.00  0.00     0.201 C 
BRANCH  15  16
ATOM     16  C   UNL d   1      29.737 -14.363  10.494  0.00  0.00     0.193 C 
BRANCH  16  17
ATOM     17  O   UNL d   1      28.905 -14.039  11.609  0.00  0.00    -0.394 OA
ATOM     18  C   UNL d   1      27.856 -13.167  11.221  0.00  0.00     0.201 C 
ENDBRANCH  16  17
ENDBRANCH  15  16
ENDBRANCH  14  15
ENDBRANCH  10  14
ENDBRANCH   4   7
ENDBRANCH   1   3
BRANCH   1  19
ATOM     19  N   UNL d   1      26.690 -14.537   0.237  0.00  0.00    -0.332 N 
ATOM     20  H   UNL d   1      26.247 -13.792   0.766  0.00  0.00     0.168 HD
BRANCH  19  21
ATOM     21  C   UNL d   1      26.222 -14.654  -1.130  0.00  0.00     0.050 A 
ATOM     22  C   UNL d   1      26.492 -13.605  -2.037  0.00  0.00     0.030 A 
ATOM     23  C   UNL d   1      26.099 -13.689  -3.386  0.00  0.00     0.002 A 
ATOM     24  C   UNL d   1      25.471 -14.836  -3.858  0.00  0.00     0.001 A 
ATOM     25  C   UNL d   1      25.176 -15.871  -2.966  0.00  0.00     0.019 A 
ATOM     26  C   UNL d   1      25.514 -15.791  -1.596  0.00  0.00     0.058 A 
BRANCH  26  27
ATOM     27  C   UNL d   1      25.074 -16.948  -0.735  0.00  0.00     0.253 C 
ATOM     28  O   UNL d   1      25.882 -17.493   0.029  0.00  0.00    -0.268 OA
ATOM     29  N   UNL d   1      23.766 -17.378  -0.828  0.00  0.00    -0.357 N 
ATOM     30  H   UNL d   1      23.167 -16.875  -1.466  0.00  0.00     0.162 HD
BRANCH  29  31
ATOM     31  C   UNL d   1      23.155 -18.184   0.220  0.00  0.00     0.125 C 
BRANCH  31  32
ATOM     32  C   UNL d   1      22.239 -19.263  -0.325  0.00  0.00     0.046 C 
BRANCH  32  33
ATOM     33  C   UNL d   1      21.102 -18.763  -1.186  0.00  0.00     0.165 C 
BRANCH  33  34
ATOM     34  O   UNL d   1      21.039 -17.344  -1.108  0.00  0.00    -0.401 OA
ATOM     35  H   UNL d   1      20.280 -17.076  -1.651  0.00  0.00     0.209 HD
ENDBRANCH  33  34
ENDBRANCH  32  33
ENDBRANCH  31  32
ENDBRANCH  29  31
ENDBRANCH  26  27
ENDBRANCH  19  21
ENDBRANCH   1  19
TORSDOF 13
ENDMDL
MODEL 3
REMARK VINA RESULT:    -7.590      5.526      9.472
REMARK INTER + INTRA:         -14.494
REMARK INTER:                 -11.468
REMARK INTRA:                  -3.025
REMARK CONF_INDEPENDENT:        3.878
REMARK UNBOUND:                -3.025
REMARK  13 active torsions:
REMARK  status: ('A' for Active; 'I' for Inactive)
REMARK    1  A    between atoms: O_2  and  C_3 
REMARK    2  A    between atoms: C_3  and  C_4 
REMARK    3  A    between atoms: C_4  and  O_5 
REMARK    4  A    between atoms: O_5  and  C_6 
REMARK    5  A    between atoms: C_9  and  C_10 
REMARK       I    between atoms: C_10  and  N_12 
REMARK    6  A    between atoms: N_12  and  C_13 
REMARK    7  A    between atoms: C_13  and  N_15 
REMARK    8  A    between atoms: N_15  and  C_16 
REMARK    9  A    between atoms: C_21  and  C_22 
REMARK       I    between atoms: C_22  and  N_24 
REMARK   10  A    between atoms: N_24  and  C_25 
REMARK   11  A    between atoms: C_25  and  C_26 
REMARK   12  A    between atoms: C_26  and  C_27 
REMARK   13  A    between atoms: C_27  and  O_28 
ROOT
ATOM      1  C   UNL d   1      28.195 -16.023  -0.429  0.00  0.00     0.179 C 
ATOM      2  S   UNL d   1      29.092 -15.309  -1.663  0.00  0.00    -0.040 SA
ENDROOT
BRANCH   1   3
ATOM      3  N   UNL d   1      28.164 -15.558   0.914  0.00  0.00    -0.299 N 
ATOM      4  C   UNL d   1      27.563 -14.348   1.361  0.00  0.00     0.257 C 
ATOM      5  O   UNL d   1      27.033 -13.524   0.617  0.00  0.00    -0.267 OA
ATOM      6  H   UNL d   1      28.737 -16.063   1.574  0.00  0.00     0.171 HD
BRANCH   4   7
ATOM      7  C   UNL d   1      27.668 -13.896   2.781  0.00  0.00     0.033 C 
ATOM      8  C   UNL d   1      28.019 -14.841   3.773  0.00  0.00     0.020 C 
ATOM      9  C   UNL d   1      28.241 -14.452   5.100  0.00  0.00     0.039 C 
ATOM     10  C   UNL d   1      28.156 -13.100   5.458  0.00  0.00     0.086 C 
ATOM     11  C   UNL d   1      27.783 -12.170   4.470  0.00  0.00     0.045 C 
ATOM     12  C   UNL d   1      27.478 -12.582   3.164  0.00  0.00     0.039 C 
ATOM     13 BR   UNL d   1      27.833 -10.271   4.618  0.00  0.00    -0.048 Br
BRANCH  10  14
ATOM     14  O   UNL d   1      28.576 -12.835   6.735  0.00  0.00    -0.348 OA
BRANCH  14  15
ATOM     15  C   UNL d   1      29.273 -13.887   7.398  0.00  0.00     0.201 C 
BRANCH  15  16
ATOM     16  C   UNL d   1      29.439 -13.546   8.868  0.00  0.00     0.193 C 
BRANCH  16  17
ATOM     17  O   UNL d   1      28.268 -12.858   9.312  0.00  0.00    -0.394 OA
ATOM     18  C   UNL d   1      28.116 -12.973  10.717  0.00  0.00     0.201 C 
ENDBRANCH  16  17
ENDBRANCH  15  16
ENDBRANCH  14  15
ENDBRANCH  10  14
ENDBRANCH   4   7
ENDBRANCH   1   3
BRANCH   1  19
ATOM     19  N   UNL d   1      27.460 -17.233  -0.607  0.00  0.00    -0.332 N 
ATOM     20  H   UNL d   1      27.923 -18.109  -0.384  0.00  0.00     0.168 HD
BRANCH  19  21
ATOM     21  C   UNL d   1      26.016 -17.282  -0.511  0.00  0.00     0.050 A 
ATOM     22  C   UNL d   1      25.422 -18.154   0.430  0.00  0.00     0.030 A 
ATOM     23  C   UNL d   1      24.025 -18.207   0.595  0.00  0.00     0.002 A 
ATOM     24  C   UNL d   1      23.205 -17.362  -0.145  0.00  0.00     0.001 A 
ATOM     25  C   UNL d   1      23.776 -16.513  -1.096  0.00  0.00     0.019 A 
ATOM     26  C   UNL d   1      25.172 -16.477  -1.317  0.00  0.00     0.058 A 
BRANCH  26  27
ATOM     27  C   UNL d   1      25.645 -15.566  -2.422  0.00  0.00     0.253 C 
ATOM     28  O   UNL d   1      25.533 -15.917  -3.604  0.00  0.00    -0.268 OA
ATOM     29  N   UNL d   1      26.203 -14.350  -2.080  0.00  0.00    -0.357 N 
ATOM     30  H   UNL d   1      26.249 -14.132  -1.096  0.00  0.00     0.162 HD
BRANCH  29  31
ATOM     31  C   UNL d   1      26.305 -13.264  -3.044  0.00  0.00     0.125 C 
BRANCH  31  32
ATOM     32  C   UNL d   1      27.468 -13.434  -4.003  0.00  0.00     0.046 C 
BRANCH  32  33
ATOM     33  C   UNL d   1      27.088 -13.876  -5.398  0.00  0.00     0.165 C 
BRANCH  33  34
ATOM     34  O   UNL d   1      27.394 -15.257  -5.556  0.00  0.00    -0.401 OA
ATOM     35  H   UNL d   1      27.120 -15.691  -4.732  0.00  0.00     0.209 HD
ENDBRANCH  33  34
ENDBRANCH  32  33
ENDBRANCH  31  32
ENDBRANCH  29  31
ENDBRANCH  26  27
ENDBRANCH  19  21
ENDBRANCH   1  19
TORSDOF 13
ENDMDL
MODEL 4
REMARK VINA RESULT:    -7.488      6.733      9.431
REMARK INTER + INTRA:         -14.657
REMARK INTER:                 -11.365
REMARK INTRA:                  -3.292
REMARK CONF_INDEPENDENT:        3.878
REMARK UNBOUND:                -3.292
REMARK  13 active torsions:
REMARK  status: ('A' for Active; 'I' for Inactive)
REMARK    1  A    between atoms: O_2  and  C_3 
REMARK    2  A    between atoms: C_3  and  C_4 
REMARK    3  A    between atoms: C_4  and  O_5 
REMARK    4  A    between atoms: O_5  and  C_6 
REMARK    5  A    between atoms: C_9  and  C_10 
REMARK       I    between atoms: C_10  and  N_12 
REMARK    6  A    between atoms: N_12  and  C_13 
REMARK    7  A    between atoms: C_13  and  N_15 
REMARK    8  A    between atoms: N_15  and  C_16 
REMARK    9  A    between atoms: C_21  and  C_22 
REMARK       I    between atoms: C_22  and  N_24 
REMARK   10  A    between atoms: N_24  and  C_25 
REMARK   11  A    between atoms: C_25  and  C_26 
REMARK   12  A    between atoms: C_26  and  C_27 
REMARK   13  A    between atoms: C_27  and  O_28 
ROOT
ATOM      1  C   UNL d   1      26.452 -11.938  -3.327  0.00  0.00     0.179 C 
ATOM      2  S   UNL d   1      27.599 -10.770  -2.931  0.00  0.00    -0.040 SA
ENDROOT
BRANCH   1   3
ATOM      3  N   UNL d   1      26.084 -13.021  -2.484  0.00  0.00    -0.299 N 
ATOM      4  C   UNL d   1      25.479 -14.237  -2.909  0.00  0.00     0.257 C 
ATOM      5  O   UNL d   1      25.154 -14.477  -4.071  0.00  0.00    -0.267 OA
ATOM      6  H   UNL d   1      26.132 -12.849  -1.490  0.00  0.00     0.171 HD
BRANCH   4   7
ATOM      7  C   UNL d   1      25.038 -15.279  -1.932  0.00  0.00     0.033 C 
ATOM      8  C   UNL d   1      23.659 -15.571  -1.824  0.00  0.00     0.020 C 
ATOM      9  C   UNL d   1      23.200 -16.613  -1.008  0.00  0.00     0.039 C 
ATOM     10  C   UNL d   1      24.114 -17.414  -0.311  0.00  0.00     0.086 C 
ATOM     11  C   UNL d   1      25.484 -17.100  -0.406  0.00  0.00     0.045 C 
ATOM     12  C   UNL d   1      25.925 -16.000  -1.157  0.00  0.00     0.039 C 
ATOM     13 BR   UNL d   1      26.939 -18.156   0.225  0.00  0.00    -0.048 Br
BRANCH  10  14
ATOM     14  O   UNL d   1      23.550 -18.504   0.295  0.00  0.00    -0.348 OA
BRANCH  14  15
ATOM     15  C   UNL d   1      22.751 -19.342  -0.536  0.00  0.00     0.201 C 
BRANCH  15  16
ATOM     16  C   UNL d   1      21.357 -19.470   0.052  0.00  0.00     0.193 C 
BRANCH  16  17
ATOM     17  O   UNL d   1      20.421 -19.608  -1.018  0.00  0.00    -0.394 OA
ATOM     18  C   UNL d   1      19.133 -19.940  -0.523  0.00  0.00     0.201 C 
ENDBRANCH  16  17
ENDBRANCH  15  16
ENDBRANCH  14  15
ENDBRANCH  10  14
ENDBRANCH   4   7
ENDBRANCH   1   3
BRANCH   1  19
ATOM     19  N   UNL d   1      25.818 -11.998  -4.605  0.00  0.00    -0.332 N 
ATOM     20  H   UNL d   1      24.823 -12.198  -4.634  0.00  0.00     0.168 HD
BRANCH  19  21
ATOM     21  C   UNL d   1      26.310 -11.256  -5.747  0.00  0.00     0.050 A 
ATOM     22  C   UNL d   1      25.637 -10.075  -6.137  0.00  0.00     0.030 A 
ATOM     23  C   UNL d   1      26.101  -9.294  -7.213  0.00  0.00     0.002 A 
ATOM     24  C   UNL d   1      27.263  -9.655  -7.885  0.00  0.00     0.001 A 
ATOM     25  C   UNL d   1      27.924 -10.832  -7.526  0.00  0.00     0.019 A 
ATOM     26  C   UNL d   1      27.452 -11.662  -6.483  0.00  0.00     0.058 A 
BRANCH  26  27
ATOM     27  C   UNL d   1      28.223 -12.937  -6.249  0.00  0.00     0.253 C 
ATOM     28  O   UNL d   1      28.096 -13.888  -7.032  0.00  0.00    -0.268 OA
ATOM     29  N   UNL d   1      29.055 -13.011  -5.151  0.00  0.00    -0.357 N 
ATOM     30  H   UNL d   1      29.112 -12.189  -4.568  0.00  0.00     0.162 HD
BRANCH  29  31
ATOM     31  C   UNL d   1      30.118 -14.003  -5.070  0.00  0.00     0.125 C 
BRANCH  31  32
ATOM     32  C   UNL d   1      29.598 -15.404  -4.806  0.00  0.00     0.046 C 
BRANCH  32  33
ATOM     33  C   UNL d   1      28.178 -15.473  -4.291  0.00  0.00     0.165 C 
BRANCH  33  34
ATOM     34  O   UNL d   1      27.282 -15.588  -5.391  0.00  0.00    -0.401 OA
ATOM     35  H   UNL d   1      26.813 -14.741  -5.448  0.00  0.00     0.209 HD
ENDBRANCH  33  34
ENDBRANCH  32  33
ENDBRANCH  31  32
ENDBRANCH  29  31
ENDBRANCH  26  27
ENDBRANCH  19  21
ENDBRANCH   1  19
TORSDOF 13
ENDMDL
MODEL 5
REMARK VINA RESULT:    -7.048      7.101      9.547
REMARK INTER + INTRA:         -14.595
REMARK INTER:                 -10.926
REMARK INTRA:                  -3.669
REMARK CONF_INDEPENDENT:        3.878
REMARK UNBOUND:                -3.669
REMARK  13 active torsions:
REMARK  status: ('A' for Active; 'I' for Inactive)
REMARK    1  A    between atoms: O_2  and  C_3 
REMARK    2  A    between atoms: C_3  and  C_4 
REMARK    3  A    between atoms: C_4  and  O_5 
REMARK    4  A    between atoms: O_5  and  C_6 
REMARK    5  A    between atoms: C_9  and  C_10 
REMARK       I    between atoms: C_10  and  N_12 
REMARK    6  A    between atoms: N_12  and  C_13 
REMARK    7  A    between atoms: C_13  and  N_15 
REMARK    8  A    between atoms: N_15  and  C_16 
REMARK    9  A    between atoms: C_21  and  C_22 
REMARK       I    between atoms: C_22  and  N_24 
REMARK   10  A    between atoms: N_24  and  C_25 
REMARK   11  A    between atoms: C_25  and  C_26 
REMARK   12  A    between atoms: C_26  and  C_27 
REMARK   13  A    between atoms: C_27  and  O_28 
ROOT
ATOM      1  C   UNL d   1      26.014 -11.089  -5.150  0.00  0.00     0.179 C 
ATOM      2  S   UNL d   1      25.159  -9.672  -5.464  0.00  0.00    -0.040 SA
ENDROOT
BRANCH   1   3
ATOM      3  N   UNL d   1      25.620 -12.072  -4.203  0.00  0.00    -0.299 N 
ATOM      4  C   UNL d   1      26.485 -13.004  -3.563  0.00  0.00     0.257 C 
ATOM      5  O   UNL d   1      27.689 -13.101  -3.797  0.00  0.00    -0.267 OA
ATOM      6  H   UNL d   1      24.626 -12.204  -4.084  0.00  0.00     0.171 HD
BRANCH   4   7
ATOM      7  C   UNL d   1      25.960 -14.066  -2.653  0.00  0.00     0.033 C 
ATOM      8  C   UNL d   1      24.607 -14.458  -2.771  0.00  0.00     0.020 C 
ATOM      9  C   UNL d   1      24.092 -15.524  -2.023  0.00  0.00     0.039 C 
ATOM     10  C   UNL d   1      24.930 -16.249  -1.166  0.00  0.00     0.086 C 
ATOM     11  C   UNL d   1      26.270 -15.837  -1.036  0.00  0.00     0.045 C 
ATOM     12  C   UNL d   1      26.753 -14.715  -1.725  0.00  0.00     0.039 C 
ATOM     13 BR   UNL d   1      27.669 -16.778  -0.149  0.00  0.00    -0.048 Br
BRANCH  10  14
ATOM     14  O   UNL d   1      24.350 -17.373  -0.640  0.00  0.00    -0.348 OA
BRANCH  14  15
ATOM     15  C   UNL d   1      23.278 -17.937  -1.392  0.00  0.00     0.201 C 
BRANCH  15  16
ATOM     16  C   UNL d   1      22.234 -18.507  -0.448  0.00  0.00     0.193 C 
BRANCH  16  17
ATOM     17  O   UNL d   1      20.937 -18.190  -0.957  0.00  0.00    -0.394 OA
ATOM     18  C   UNL d   1      20.016 -19.231  -0.677  0.00  0.00     0.201 C 
ENDBRANCH  16  17
ENDBRANCH  15  16
ENDBRANCH  14  15
ENDBRANCH  10  14
ENDBRANCH   4   7
ENDBRANCH   1   3
BRANCH   1  19
ATOM     19  N   UNL d   1      27.280 -11.376  -5.745  0.00  0.00    -0.332 N 
ATOM     20  H   UNL d   1      27.994 -11.803  -5.163  0.00  0.00     0.168 HD
BRANCH  19  21
ATOM     21  C   UNL d   1      27.425 -11.647  -7.160  0.00  0.00     0.050 A 
ATOM     22  C   UNL d   1      26.595 -10.960  -8.076  0.00  0.00     0.030 A 
ATOM     23  C   UNL d   1      26.727 -11.153  -9.465  0.00  0.00     0.002 A 
ATOM     24  C   UNL d   1      27.712 -12.000  -9.959  0.00  0.00     0.001 A 
ATOM     25  C   UNL d   1      28.522 -12.704  -9.065  0.00  0.00     0.019 A 
ATOM     26  C   UNL d   1      28.378 -12.567  -7.665  0.00  0.00     0.058 A 
BRANCH  26  27
ATOM     27  C   UNL d   1      29.270 -13.438  -6.818  0.00  0.00     0.253 C 
ATOM     28  O   UNL d   1      29.722 -13.006  -5.748  0.00  0.00    -0.268 OA
ATOM     29  N   UNL d   1      29.568 -14.709  -7.266  0.00  0.00    -0.357 N 
ATOM     30  H   UNL d   1      29.152 -14.991  -8.141  0.00  0.00     0.162 HD
BRANCH  29  31
ATOM     31  C   UNL d   1      30.060 -15.738  -6.361  0.00  0.00     0.125 C 
BRANCH  31  32
ATOM     32  C   UNL d   1      29.624 -15.517  -4.925  0.00  0.00     0.046 C 
BRANCH  32  33
ATOM     33  C   UNL d   1      28.165 -15.796  -4.649  0.00  0.00     0.165 C 
BRANCH  33  34
ATOM     34  O   UNL d   1      27.369 -15.201  -5.668  0.00  0.00    -0.401 OA
ATOM     35  H   UNL d   1      27.521 -14.245  -5.607  0.00  0.00     0.209 HD
ENDBRANCH  33  34
ENDBRANCH  32  33
ENDBRANCH  31  32
ENDBRANCH  29  31
ENDBRANCH  26  27
ENDBRANCH  19  21
ENDBRANCH   1  19
TORSDOF 13
ENDMDL
MODEL 6
REMARK VINA RESULT:    -6.882      5.098      7.652
REMARK INTER + INTRA:         -13.969
REMARK INTER:                 -10.760
REMARK INTRA:                  -3.208
REMARK CONF_INDEPENDENT:        3.878
REMARK UNBOUND:                -3.208
REMARK  13 active torsions:
REMARK  status: ('A' for Active; 'I' for Inactive)
REMARK    1  A    between atoms: O_2  and  C_3 
REMARK    2  A    between atoms: C_3  and  C_4 
REMARK    3  A    between atoms: C_4  and  O_5 
REMARK    4  A    between atoms: O_5  and  C_6 
REMARK    5  A    between atoms: C_9  and  C_10 
REMARK       I    between atoms: C_10  and  N_12 
REMARK    6  A    between atoms: N_12  and  C_13 
REMARK    7  A    between atoms: C_13  and  N_15 
REMARK    8  A    between atoms: N_15  and  C_16 
REMARK    9  A    between atoms: C_21  and  C_22 
REMARK       I    between atoms: C_22  and  N_24 
REMARK   10  A    between atoms: N_24  and  C_25 
REMARK   11  A    between atoms: C_25  and  C_26 
REMARK   12  A    between atoms: C_26  and  C_27 
REMARK   13  A    between atoms: C_27  and  O_28 
ROOT
ATOM      1  C   UNL d   1      30.548 -14.166   2.305  0.00  0.00     0.179 C 
ATOM      2  S   UNL d   1      32.204 -14.434   2.450  0.00  0.00    -0.040 SA
ENDROOT
BRANCH   1   3
ATOM      3  N   UNL d   1      29.674 -14.953   1.506  0.00  0.00    -0.299 N 
ATOM      4  C   UNL d   1      28.589 -14.460   0.729  0.00  0.00     0.257 C 
ATOM      5  O   UNL d   1      28.243 -13.280   0.696  0.00  0.00    -0.267 OA
ATOM      6  H   UNL d   1      29.751 -15.954   1.614  0.00  0.00     0.171 HD
BRANCH   4   7
ATOM      7  C   UNL d   1      27.664 -15.379  -0.001  0.00  0.00     0.033 C 
ATOM      8  C   UNL d   1      27.167 -16.520   0.669  0.00  0.00     0.020 C 
ATOM      9  C   UNL d   1      26.212 -17.354   0.073  0.00  0.00     0.039 C 
ATOM     10  C   UNL d   1      25.703 -17.043  -1.195  0.00  0.00     0.086 C 
ATOM     11  C   UNL d   1      26.221 -15.919  -1.865  0.00  0.00     0.045 C 
ATOM     12  C   UNL d   1      27.240 -15.140  -1.295  0.00  0.00     0.039 C 
ATOM     13 BR   UNL d   1      25.544 -15.134  -3.464  0.00  0.00    -0.048 Br
BRANCH  10  14
ATOM     14  O   UNL d   1      24.648 -17.828  -1.579  0.00  0.00    -0.348 OA
BRANCH  14  15
ATOM     15  C   UNL d   1      23.366 -17.441  -1.092  0.00  0.00     0.201 C 
BRANCH  15  16
ATOM     16  C   UNL d   1      22.600 -18.669  -0.631  0.00  0.00     0.193 C 
BRANCH  16  17
ATOM     17  O   UNL d   1      21.576 -18.952  -1.585  0.00  0.00    -0.394 OA
ATOM     18  C   UNL d   1      20.347 -19.242  -0.937  0.00  0.00     0.201 C 
ENDBRANCH  16  17
ENDBRANCH  15  16
ENDBRANCH  14  15
ENDBRANCH  10  14
ENDBRANCH   4   7
ENDBRANCH   1   3
BRANCH   1  19
ATOM     19  N   UNL d   1      29.889 -13.048   2.899  0.00  0.00    -0.332 N 
ATOM     20  H   UNL d   1      29.439 -12.377   2.284  0.00  0.00     0.168 HD
BRANCH  19  21
ATOM     21  C   UNL d   1      29.328 -13.101   4.234  0.00  0.00     0.050 A 
ATOM     22  C   UNL d   1      29.807 -14.076   5.139  0.00  0.00     0.030 A 
ATOM     23  C   UNL d   1      29.327 -14.142   6.461  0.00  0.00     0.002 A 
ATOM     24  C   UNL d   1      28.397 -13.212   6.910  0.00  0.00     0.001 A 
ATOM     25  C   UNL d   1      27.896 -12.259   6.020  0.00  0.00     0.019 A 
ATOM     26  C   UNL d   1      28.324 -12.203   4.673  0.00  0.00     0.058 A 
BRANCH  26  27
ATOM     27  C   UNL d   1      27.649 -11.169   3.806  0.00  0.00     0.253 C 
ATOM     28  O   UNL d   1      27.548 -10.000   4.202  0.00  0.00    -0.268 OA
ATOM     29  N   UNL d   1      27.151 -11.561   2.580  0.00  0.00    -0.357 N 
ATOM     30  H   UNL d   1      27.283 -12.529   2.324  0.00  0.00     0.162 HD
BRANCH  29  31
ATOM     31  C   UNL d   1      26.866 -10.593   1.531  0.00  0.00     0.125 C 
BRANCH  31  32
ATOM     32  C   UNL d   1      27.798  -9.396   1.564  0.00  0.00     0.046 C 
BRANCH  32  33
ATOM     33  C   UNL d   1      27.112  -8.054   1.675  0.00  0.00     0.165 C 
BRANCH  33  34
ATOM     34  O   UNL d   1      26.303  -8.030   2.845  0.00  0.00    -0.401 OA
ATOM     35  H   UNL d   1      26.507  -8.845   3.331  0.00  0.00     0.209 HD
ENDBRANCH  33  34
ENDBRANCH  32  33
ENDBRANCH  31  32
ENDBRANCH  29  31
ENDBRANCH  26  27
ENDBRANCH  19  21
ENDBRANCH   1  19
TORSDOF 13
ENDMDL
MODEL 7
REMARK VINA RESULT:    -6.262      4.539      5.916
REMARK INTER + INTRA:         -14.215
REMARK INTER:                 -10.140
REMARK INTRA:                  -4.076
REMARK CONF_INDEPENDENT:        3.878
REMARK UNBOUND:                -4.076
REMARK  13 active torsions:
REMARK  status: ('A' for Active; 'I' for Inactive)
REMARK    1  A    between atoms: O_2  and  C_3 
REMARK    2  A    between atoms: C_3  and  C_4 
REMARK    3  A    between atoms: C_4  and  O_5 
REMARK    4  A    between atoms: O_5  and  C_6 
REMARK    5  A    between atoms: C_9  and  C_10 
REMARK       I    between atoms: C_10  and  N_12 
REMARK    6  A    between atoms: N_12  and  C_13 
REMARK    7  A    between atoms: C_13  and  N_15 
REMARK    8  A    between atoms: N_15  and  C_16 
REMARK    9  A    between atoms: C_21  and  C_22 
REMARK       I    between atoms: C_22  and  N_24 
REMARK   10  A    between atoms: N_24  and  C_25 
REMARK   11  A    between atoms: C_25  and  C_26 
REMARK   12  A    between atoms: C_26  and  C_27 
REMARK   13  A    between atoms: C_27  and  O_28 
ROOT
ATOM      1  C   UNL d   1      29.623 -15.206  -5.760  0.00  0.00     0.179 C 
ATOM      2  S   UNL d   1      29.387 -14.032  -6.945  0.00  0.00    -0.040 SA
ENDROOT
BRANCH   1   3
ATOM      3  N   UNL d   1      28.758 -15.414  -4.652  0.00  0.00    -0.299 N 
ATOM      4  C   UNL d   1      27.336 -15.452  -4.703  0.00  0.00     0.257 C 
ATOM      5  O   UNL d   1      26.676 -15.257  -5.723  0.00  0.00    -0.267 OA
ATOM      6  H   UNL d   1      29.189 -15.393  -3.740  0.00  0.00     0.171 HD
BRANCH   4   7
ATOM      7  C   UNL d   1      26.508 -15.578  -3.465  0.00  0.00     0.033 C 
ATOM      8  C   UNL d   1      25.238 -14.959  -3.428  0.00  0.00     0.020 C 
ATOM      9  C   UNL d   1      24.375 -15.137  -2.339  0.00  0.00     0.039 C 
ATOM     10  C   UNL d   1      24.748 -15.972  -1.278  0.00  0.00     0.086 C 
ATOM     11  C   UNL d   1      26.024 -16.565  -1.312  0.00  0.00     0.045 C 
ATOM     12  C   UNL d   1      26.914 -16.311  -2.366  0.00  0.00     0.039 C 
ATOM     13 BR   UNL d   1      26.680 -17.921  -0.145  0.00  0.00    -0.048 Br
BRANCH  10  14
ATOM     14  O   UNL d   1      23.745 -16.206  -0.375  0.00  0.00    -0.348 OA
BRANCH  14  15
ATOM     15  C   UNL d   1      23.333 -17.563  -0.231  0.00  0.00     0.201 C 
BRANCH  15  16
ATOM     16  C   UNL d   1      23.294 -18.235  -1.592  0.00  0.00     0.193 C 
BRANCH  16  17
ATOM     17  O   UNL d   1      22.150 -19.088  -1.647  0.00  0.00    -0.394 OA
ATOM     18  C   UNL d   1      21.315 -18.888  -0.517  0.00  0.00     0.201 C 
ENDBRANCH  16  17
ENDBRANCH  15  16
ENDBRANCH  14  15
ENDBRANCH  10  14
ENDBRANCH   4   7
ENDBRANCH   1   3
BRANCH   1  19
ATOM     19  N   UNL d   1      30.783 -16.036  -5.714  0.00  0.00    -0.332 N 
ATOM     20  H   UNL d   1      31.648 -15.627  -5.372  0.00  0.00     0.168 HD
BRANCH  19  21
ATOM     21  C   UNL d   1      30.700 -17.473  -5.553  0.00  0.00     0.050 A 
ATOM     22  C   UNL d   1      30.472 -18.276  -6.693  0.00  0.00     0.030 A 
ATOM     23  C   UNL d   1      30.427 -19.680  -6.598  0.00  0.00     0.002 A 
ATOM     24  C   UNL d   1      30.649 -20.303  -5.375  0.00  0.00     0.001 A 
ATOM     25  C   UNL d   1      30.850 -19.520  -4.236  0.00  0.00     0.019 A 
ATOM     26  C   UNL d   1      30.850 -18.107  -4.294  0.00  0.00     0.058 A 
BRANCH  26  27
ATOM     27  C   UNL d   1      31.009 -17.389  -2.977  0.00  0.00     0.253 C 
ATOM     28  O   UNL d   1      31.070 -16.152  -2.951  0.00  0.00    -0.268 OA
ATOM     29  N   UNL d   1      31.089 -18.140  -1.823  0.00  0.00    -0.357 N 
ATOM     30  H   UNL d   1      31.019 -19.142  -1.926  0.00  0.00     0.162 HD
BRANCH  29  31
ATOM     31  C   UNL d   1      30.833 -17.553  -0.515  0.00  0.00     0.125 C 
BRANCH  31  32
ATOM     32  C   UNL d   1      29.654 -16.598  -0.518  0.00  0.00     0.046 C 
BRANCH  32  33
ATOM     33  C   UNL d   1      30.016 -15.134  -0.606  0.00  0.00     0.165 C 
BRANCH  33  34
ATOM     34  O   UNL d   1      29.372 -14.555  -1.735  0.00  0.00    -0.401 OA
ATOM     35  H   UNL d   1      30.022 -14.573  -2.456  0.00  0.00     0.209 HD
ENDBRANCH  33  34
ENDBRANCH  32  33
ENDBRANCH  31  32
ENDBRANCH  29  31
ENDBRANCH  26  27
ENDBRANCH  19  21
ENDBRANCH   1  19
TORSDOF 13
ENDMDL
MODEL 8
REMARK VINA RESULT:    -6.037      5.436      9.420
REMARK INTER + INTRA:         -13.992
REMARK INTER:                  -9.915
REMARK INTRA:                  -4.077
REMARK CONF_INDEPENDENT:        3.878
REMARK UNBOUND:                -4.077
REMARK  13 active torsions:
REMARK  status: ('A' for Active; 'I' for Inactive)
REMARK    1  A    between atoms: O_2  and  C_3 
REMARK    2  A    between atoms: C_3  and  C_4 
REMARK    3  A    between atoms: C_4  and  O_5 
REMARK    4  A    between atoms: O_5  and  C_6 
REMARK    5  A    between atoms: C_9  and  C_10 
REMARK       I    between atoms: C_10  and  N_12 
REMARK    6  A    between atoms: N_12  and  C_13 
REMARK    7  A    between atoms: C_13  and  N_15 
REMARK    8  A    between atoms: N_15  and  C_16 
REMARK    9  A    between atoms: C_21  and  C_22 
REMARK       I    between atoms: C_22  and  N_24 
REMARK   10  A    between atoms: N_24  and  C_25 
REMARK   11  A    between atoms: C_25  and  C_26 
REMARK   12  A    between atoms: C_26  and  C_27 
REMARK   13  A    between atoms: C_27  and  O_28 
ROOT
ATOM      1  C   UNL d   1      28.512 -16.546  -0.651  0.00  0.00     0.179 C 
ATOM      2  S   UNL d   1      29.672 -17.724  -0.973  0.00  0.00    -0.040 SA
ENDROOT
BRANCH   1   3
ATOM      3  N   UNL d   1      28.438 -15.801   0.557  0.00  0.00    -0.299 N 
ATOM      4  C   UNL d   1      27.922 -14.481   0.688  0.00  0.00     0.257 C 
ATOM      5  O   UNL d   1      27.518 -13.801  -0.253  0.00  0.00    -0.267 OA
ATOM      6  H   UNL d   1      28.918 -16.193   1.353  0.00  0.00     0.171 HD
BRANCH   4   7
ATOM      7  C   UNL d   1      27.977 -13.742   1.986  0.00  0.00     0.033 C 
ATOM      8  C   UNL d   1      27.531 -12.401   2.026  0.00  0.00     0.020 C 
ATOM      9  C   UNL d   1      27.455 -11.697   3.235  0.00  0.00     0.039 C 
ATOM     10  C   UNL d   1      27.788 -12.332   4.438  0.00  0.00     0.086 C 
ATOM     11  C   UNL d   1      28.255 -13.659   4.386  0.00  0.00     0.045 C 
ATOM     12  C   UNL d   1      28.409 -14.326   3.161  0.00  0.00     0.039 C 
ATOM     13 BR   UNL d   1      28.535 -14.826   5.866  0.00  0.00    -0.048 Br
BRANCH  10  14
ATOM     14  O   UNL d   1      27.494 -11.596   5.556  0.00  0.00    -0.348 OA
BRANCH  14  15
ATOM     15  C   UNL d   1      28.529 -10.741   6.035  0.00  0.00     0.201 C 
BRANCH  15  16
ATOM     16  C   UNL d   1      29.411 -11.500   7.011  0.00  0.00     0.193 C 
BRANCH  16  17
ATOM     17  O   UNL d   1      28.581 -12.325   7.830  0.00  0.00    -0.394 OA
ATOM     18  C   UNL d   1      28.516 -11.820   9.154  0.00  0.00     0.201 C 
ENDBRANCH  16  17
ENDBRANCH  15  16
ENDBRANCH  14  15
ENDBRANCH  10  14
ENDBRANCH   4   7
ENDBRANCH   1   3
BRANCH   1  19
ATOM     19  N   UNL d   1      27.427 -16.267  -1.536  0.00  0.00    -0.332 N 
ATOM     20  H   UNL d   1      27.630 -16.181  -2.527  0.00  0.00     0.168 HD
BRANCH  19  21
ATOM     21  C   UNL d   1      26.066 -16.664  -1.239  0.00  0.00     0.050 A 
ATOM     22  C   UNL d   1      25.846 -17.828  -0.468  0.00  0.00     0.030 A 
ATOM     23  C   UNL d   1      24.545 -18.233  -0.114  0.00  0.00     0.002 A 
ATOM     24  C   UNL d   1      23.450 -17.460  -0.487  0.00  0.00     0.001 A 
ATOM     25  C   UNL d   1      23.651 -16.321  -1.270  0.00  0.00     0.019 A 
ATOM     26  C   UNL d   1      24.943 -15.920  -1.682  0.00  0.00     0.058 A 
BRANCH  26  27
ATOM     27  C   UNL d   1      25.007 -14.712  -2.582  0.00  0.00     0.253 C 
ATOM     28  O   UNL d   1      24.058 -14.450  -3.333  0.00  0.00    -0.268 OA
ATOM     29  N   UNL d   1      26.139 -13.924  -2.547  0.00  0.00    -0.357 N 
ATOM     30  H   UNL d   1      26.864 -14.197  -1.900  0.00  0.00     0.162 HD
BRANCH  29  31
ATOM     31  C   UNL d   1      26.129 -12.557  -3.050  0.00  0.00     0.125 C 
BRANCH  31  32
ATOM     32  C   UNL d   1      27.346 -12.231  -3.894  0.00  0.00     0.046 C 
BRANCH  32  33
ATOM     33  C   UNL d   1      28.645 -12.828  -3.403  0.00  0.00     0.165 C 
BRANCH  33  34
ATOM     34  O   UNL d   1      28.464 -14.218  -3.160  0.00  0.00    -0.401 OA
ATOM     35  H   UNL d   1      28.278 -14.306  -2.212  0.00  0.00     0.209 HD
ENDBRANCH  33  34
ENDBRANCH  32  33
ENDBRANCH  31  32
ENDBRANCH  29  31
ENDBRANCH  26  27
ENDBRANCH  19  21
ENDBRANCH   1  19
TORSDOF 13
ENDMDL
