MODEL 1
REMARK VINA RESULT:    -9.578      0.000      0.000
REMARK INTER + INTRA:         -12.438
REMARK INTER:                 -11.666
REMARK INTRA:                  -0.772
REMARK CONF_INDEPENDENT:        2.088
REMARK UNBOUND:                -0.772
REMARK  7 active torsions:
REMARK  status: ('A' for Active; 'I' for Inactive)
REMARK    1  A    between atoms: O_2  and  C_3 
REMARK    2  A    between atoms: C_6  and  S_7 
REMARK    3  A    between atoms: S_7  and  N_10 
REMARK    4  A    between atoms: C_13  and  N_14 
REMARK    5  A    between atoms: N_14  and  N_15 
REMARK       I    between atoms: N_15  and  C_16 
REMARK    6  A    between atoms: C_16  and  C_18 
REMARK    7  A    between atoms: C_23  and  O_24 
ROOT
ATOM      1  N   UNL d   1      26.859 -16.428   0.819  0.00  0.00    -0.160 NA
ATOM      2  C   UNL d   1      26.874 -15.244   0.258  0.00  0.00     0.079 A 
ATOM      3  C   UNL d   1      27.443 -14.109   1.060  0.00  0.00     0.068 A 
ATOM      4  C   UNL d   1      27.515 -12.822   0.664  0.00  0.00     0.101 A 
ATOM      5  C   UNL d   1      26.998 -12.441  -0.695  0.00  0.00     0.207 A 
ATOM      6  O   UNL d   1      27.030 -11.272  -1.084  0.00  0.00    -0.285 OA
ATOM      7  C   UNL d   1      26.458 -13.516  -1.548  0.00  0.00     0.007 A 
ATOM      8  C   UNL d   1      26.413 -14.784  -1.105  0.00  0.00    -0.015 A 
ATOM      9  C   UNL d   1      25.896 -15.822  -2.018  0.00  0.00     0.068 C 
ATOM     10  C   UNL d   1      25.798 -15.537  -3.450  0.00  0.00    -0.026 C 
ATOM     11  C   UNL d   1      25.839 -14.286  -3.892  0.00  0.00    -0.026 C 
ATOM     12  C   UNL d   1      25.980 -13.127  -2.937  0.00  0.00     0.070 C 
ENDROOT
BRANCH   4  13
ATOM     13  N   UNL d   1      28.048 -11.779   1.404  0.00  0.00    -0.294 N 
ATOM     14  H   UNL d   1      28.144 -10.868   0.930  0.00  0.00     0.187 HD
BRANCH  13  15
ATOM     15  N   UNL d   1      28.248 -11.811   2.775  0.00  0.00    -0.265 N 
ATOM     16  C   UNL d   1      29.001 -12.808   3.347  0.00  0.00     0.272 C 
ATOM     17  O   UNL d   1      29.699 -13.614   2.724  0.00  0.00    -0.266 OA
ATOM     18  H   UNL d   1      27.583 -11.313   3.357  0.00  0.00     0.190 HD
BRANCH  16  19
ATOM     19  C   UNL d   1      28.948 -12.844   4.833  0.00  0.00     0.066 A 
ATOM     20  C   UNL d   1      29.050 -11.638   5.536  0.00  0.00     0.020 A 
ATOM     21  C   UNL d   1      29.130 -11.645   6.930  0.00  0.00     0.001 A 
ATOM     22  C   UNL d   1      29.048 -12.849   7.630  0.00  0.00     0.003 A 
ATOM     23  C   UNL d   1      28.911 -14.054   6.940  0.00  0.00     0.037 A 
ATOM     24  C   UNL d   1      28.852 -14.050   5.545  0.00  0.00     0.081 A 
BRANCH  24  25
ATOM     25  O   UNL d   1      28.686 -15.231   4.871  0.00  0.00    -0.360 OA
ATOM     26  H   UNL d   1      29.280 -15.250   4.101  0.00  0.00     0.217 HD
ENDBRANCH  24  25
ENDBRANCH  16  19
ENDBRANCH  13  15
ENDBRANCH   4  13
BRANCH   1  27
ATOM     27  S   UNL d   1      26.295 -17.782   0.085  0.00  0.00     0.283 S 
ATOM     28  O   UNL d   1      26.406 -18.901   0.999  0.00  0.00    -0.198 OA
ATOM     29  O   UNL d   1      26.816 -17.829  -1.269  0.00  0.00    -0.198 OA
BRANCH  27  30
ATOM     30  C   UNL d   1      24.581 -17.733  -0.219  0.00  0.00     0.081 A 
ATOM     31  C   UNL d   1      23.980 -18.947  -0.599  0.00  0.00     0.028 A 
ATOM     32  C   UNL d   1      22.652 -18.945  -0.980  0.00  0.00     0.038 A 
ATOM     33  C   UNL d   1      21.923 -17.760  -0.898  0.00  0.00     0.068 A 
ATOM     34  C   UNL d   1      22.544 -16.565  -0.500  0.00  0.00     0.038 A 
ATOM     35  C   UNL d   1      23.889 -16.545  -0.161  0.00  0.00     0.028 A 
BRANCH  33  36
ATOM     36  O   UNL d   1      20.584 -17.905  -1.120  0.00  0.00    -0.356 OA
ATOM     37  C   UNL d   1      20.030 -19.168  -0.791  0.00  0.00     0.210 C 
ENDBRANCH  33  36
ENDBRANCH  27  30
ENDBRANCH   1  27
TORSDOF 7
ENDMDL
MODEL 2
REMARK VINA RESULT:    -9.142      2.893      4.379
REMARK INTER + INTRA:         -12.516
REMARK INTER:                 -11.230
REMARK INTRA:                  -1.286
REMARK CONF_INDEPENDENT:        2.088
REMARK UNBOUND:                -1.286
REMARK  7 active torsions:
REMARK  status: ('A' for Active; 'I' for Inactive)
REMARK    1  A    between atoms: O_2  and  C_3 
REMARK    2  A    between atoms: C_6  and  S_7 
REMARK    3  A    between atoms: S_7  and  N_10 
REMARK    4  A    between atoms: C_13  and  N_14 
REMARK    5  A    between atoms: N_14  and  N_15 
REMARK       I    between atoms: N_15  and  C_16 
REMARK    6  A    between atoms: C_16  and  C_18 
REMARK    7  A    between atoms: C_23  and  O_24 
ROOT
ATOM      1  N   UNL d   1      26.861 -16.153   0.733  0.00  0.00    -0.160 NA
ATOM      2  C   UNL d   1      26.863 -15.047   0.030  0.00  0.00     0.079 A 
ATOM      3  C   UNL d   1      27.436 -13.820   0.678  0.00  0.00     0.068 A 
ATOM      4  C   UNL d   1      27.496 -12.591   0.124  0.00  0.00     0.101 A 
ATOM      5  C   UNL d   1      26.960 -12.383  -1.264  0.00  0.00     0.207 A 
ATOM      6  O   UNL d   1      26.981 -11.271  -1.796  0.00  0.00    -0.285 OA
ATOM      7  C   UNL d   1      26.415 -13.557  -1.970  0.00  0.00     0.007 A 
ATOM      8  C   UNL d   1      26.382 -14.761  -1.374  0.00  0.00    -0.015 A 
ATOM      9  C   UNL d   1      25.859 -15.906  -2.145  0.00  0.00     0.068 C 
ATOM     10  C   UNL d   1      25.742 -15.801  -3.599  0.00  0.00    -0.026 C 
ATOM     11  C   UNL d   1      25.771 -14.614  -4.193  0.00  0.00    -0.026 C 
ATOM     12  C   UNL d   1      25.918 -13.345  -3.390  0.00  0.00     0.070 C 
ENDROOT
BRANCH   4  13
ATOM     13  N   UNL d   1      28.032 -11.463   0.723  0.00  0.00    -0.294 N 
ATOM     14  H   UNL d   1      28.898 -11.588   1.270  0.00  0.00     0.187 HD
BRANCH  13  15
ATOM     15  N   UNL d   1      27.624 -10.165   0.461  0.00  0.00    -0.265 N 
ATOM     16  C   UNL d   1      26.644  -9.574   1.223  0.00  0.00     0.272 C 
ATOM     17  O   UNL d   1      26.195 -10.033   2.278  0.00  0.00    -0.266 OA
ATOM     18  H   UNL d   1      27.801  -9.796  -0.467  0.00  0.00     0.190 HD
BRANCH  16  19
ATOM     19  C   UNL d   1      26.154  -8.273   0.695  0.00  0.00     0.066 A 
ATOM     20  C   UNL d   1      25.844  -8.177  -0.667  0.00  0.00     0.020 A 
ATOM     21  C   UNL d   1      25.502  -6.942  -1.221  0.00  0.00     0.001 A 
ATOM     22  C   UNL d   1      25.408  -5.812  -0.409  0.00  0.00     0.003 A 
ATOM     23  C   UNL d   1      25.680  -5.904   0.957  0.00  0.00     0.037 A 
ATOM     24  C   UNL d   1      26.043  -7.135   1.509  0.00  0.00     0.081 A 
BRANCH  24  25
ATOM     25  O   UNL d   1      26.279  -7.230   2.855  0.00  0.00    -0.360 OA
ATOM     26  H   UNL d   1      26.529  -8.144   3.075  0.00  0.00     0.217 HD
ENDBRANCH  24  25
ENDBRANCH  16  19
ENDBRANCH  13  15
ENDBRANCH   4  13
BRANCH   1  27
ATOM     27  S   UNL d   1      26.294 -17.589   0.179  0.00  0.00     0.283 S 
ATOM     28  O   UNL d   1      26.377 -18.574   1.240  0.00  0.00    -0.198 OA
ATOM     29  O   UNL d   1      26.838 -17.824  -1.145  0.00  0.00    -0.198 OA
BRANCH  27  30
ATOM     30  C   UNL d   1      24.587 -17.567  -0.161  0.00  0.00     0.081 A 
ATOM     31  C   UNL d   1      24.008 -18.797  -0.523  0.00  0.00     0.028 A 
ATOM     32  C   UNL d   1      22.687 -18.820  -0.931  0.00  0.00     0.038 A 
ATOM     33  C   UNL d   1      21.944 -17.641  -0.893  0.00  0.00     0.068 A 
ATOM     34  C   UNL d   1      22.543 -16.430  -0.511  0.00  0.00     0.038 A 
ATOM     35  C   UNL d   1      23.881 -16.386  -0.144  0.00  0.00     0.028 A 
BRANCH  33  36
ATOM     36  O   UNL d   1      20.611 -17.807  -1.138  0.00  0.00    -0.356 OA
ATOM     37  C   UNL d   1      20.061 -19.062  -0.774  0.00  0.00     0.210 C 
ENDBRANCH  33  36
ENDBRANCH  27  30
ENDBRANCH   1  27
TORSDOF 7
ENDMDL
MODEL 3
REMARK VINA RESULT:    -9.139      2.144      3.049
REMARK INTER + INTRA:         -12.940
REMARK INTER:                 -11.227
REMARK INTRA:                  -1.713
REMARK CONF_INDEPENDENT:        2.088
REMARK UNBOUND:                -1.713
REMARK  7 active torsions:
REMARK  status: ('A' for Active; 'I' for Inactive)
REMARK    1  A    between atoms: O_2  and  C_3 
REMARK    2  A    between atoms: C_6  and  S_7 
REMARK    3  A    between atoms: S_7  and  N_10 
REMARK    4  A    between atoms: C_13  and  N_14 
REMARK    5  A    between atoms: N_14  and  N_15 
REMARK       I    between atoms: N_15  and  C_16 
REMARK    6  A    between atoms: C_16  and  C_18 
REMARK    7  A    between atoms: C_23  and  O_24 
ROOT
ATOM      1  N   UNL d   1      26.452 -16.116   0.552  0.00  0.00    -0.160 NA
ATOM      2  C   UNL d   1      27.655 -15.659   0.800  0.00  0.00     0.079 A 
ATOM      3  C   UNL d   1      27.781 -14.572   1.828  0.00  0.00     0.068 A 
ATOM      4  C   UNL d   1      28.927 -13.962   2.193  0.00  0.00     0.101 A 
ATOM      5  C   UNL d   1      30.218 -14.375   1.546  0.00  0.00     0.207 A 
ATOM      6  O   UNL d   1      31.283 -13.827   1.841  0.00  0.00    -0.285 OA
ATOM      7  C   UNL d   1      30.169 -15.463   0.553  0.00  0.00     0.007 A 
ATOM      8  C   UNL d   1      29.000 -16.041   0.228  0.00  0.00    -0.015 A 
ATOM      9  C   UNL d   1      29.019 -17.150  -0.747  0.00  0.00     0.068 C 
ATOM     10  C   UNL d   1      30.282 -17.825  -1.045  0.00  0.00    -0.026 C 
ATOM     11  C   UNL d   1      31.440 -17.256  -0.729  0.00  0.00    -0.026 C 
ATOM     12  C   UNL d   1      31.487 -15.904  -0.062  0.00  0.00     0.070 C 
ENDROOT
BRANCH   4  13
ATOM     13  N   UNL d   1      29.040 -12.964   3.147  0.00  0.00    -0.294 N 
ATOM     14  H   UNL d   1      29.000 -11.988   2.814  0.00  0.00     0.187 HD
BRANCH  13  15
ATOM     15  N   UNL d   1      28.978 -13.175   4.516  0.00  0.00    -0.265 N 
ATOM     16  C   UNL d   1      28.398 -12.240   5.340  0.00  0.00     0.272 C 
ATOM     17  O   UNL d   1      27.735 -11.272   4.956  0.00  0.00    -0.266 OA
ATOM     18  H   UNL d   1      29.639 -13.830   4.919  0.00  0.00     0.190 HD
BRANCH  16  19
ATOM     19  C   UNL d   1      28.600 -12.490   6.792  0.00  0.00     0.066 A 
ATOM     20  C   UNL d   1      28.531 -11.405   7.675  0.00  0.00     0.020 A 
ATOM     21  C   UNL d   1      28.838 -11.581   9.026  0.00  0.00     0.001 A 
ATOM     22  C   UNL d   1      29.156 -12.850   9.511  0.00  0.00     0.003 A 
ATOM     23  C   UNL d   1      29.193 -13.945   8.646  0.00  0.00     0.037 A 
ATOM     24  C   UNL d   1      28.906 -13.766   7.291  0.00  0.00     0.081 A 
BRANCH  24  25
ATOM     25  O   UNL d   1      28.912 -14.847   6.450  0.00  0.00    -0.360 OA
ATOM     26  H   UNL d   1      28.521 -15.613   6.906  0.00  0.00     0.217 HD
ENDBRANCH  24  25
ENDBRANCH  16  19
ENDBRANCH  13  15
ENDBRANCH   4  13
BRANCH   1  27
ATOM     27  S   UNL d   1      26.130 -17.312  -0.522  0.00  0.00     0.283 S 
ATOM     28  O   UNL d   1      26.643 -18.566  -0.007  0.00  0.00    -0.198 OA
ATOM     29  O   UNL d   1      26.440 -16.835  -1.858  0.00  0.00    -0.198 OA
BRANCH  27  30
ATOM     30  C   UNL d   1      24.430 -17.654  -0.678  0.00  0.00     0.081 A 
ATOM     31  C   UNL d   1      23.589 -16.547  -0.894  0.00  0.00     0.028 A 
ATOM     32  C   UNL d   1      22.220 -16.738  -0.895  0.00  0.00     0.038 A 
ATOM     33  C   UNL d   1      21.714 -18.030  -0.765  0.00  0.00     0.068 A 
ATOM     34  C   UNL d   1      22.577 -19.119  -0.568  0.00  0.00     0.038 A 
ATOM     35  C   UNL d   1      23.951 -18.934  -0.517  0.00  0.00     0.028 A 
BRANCH  33  36
ATOM     36  O   UNL d   1      20.366 -18.131  -0.962  0.00  0.00    -0.356 OA
ATOM     37  C   UNL d   1      19.764 -19.344  -0.545  0.00  0.00     0.210 C 
ENDBRANCH  33  36
ENDBRANCH  27  30
ENDBRANCH   1  27
TORSDOF 7
ENDMDL
MODEL 4
REMARK VINA RESULT:    -9.113      1.926      2.381
REMARK INTER + INTRA:         -12.972
REMARK INTER:                 -11.201
REMARK INTRA:                  -1.771
REMARK CONF_INDEPENDENT:        2.088
REMARK UNBOUND:                -1.771
REMARK  7 active torsions:
REMARK  status: ('A' for Active; 'I' for Inactive)
REMARK    1  A    between atoms: O_2  and  C_3 
REMARK    2  A    between atoms: C_6  and  S_7 
REMARK    3  A    between atoms: S_7  and  N_10 
REMARK    4  A    between atoms: C_13  and  N_14 
REMARK    5  A    between atoms: N_14  and  N_15 
REMARK       I    between atoms: N_15  and  C_16 
REMARK    6  A    between atoms: C_16  and  C_18 
REMARK    7  A    between atoms: C_23  and  O_24 
ROOT
ATOM      1  N   UNL d   1      24.655 -16.987  -0.139  0.00  0.00    -0.160 NA
ATOM      2  C   UNL d   1      25.686 -16.235  -0.436  0.00  0.00     0.079 A 
ATOM      3  C   UNL d   1      26.739 -16.061   0.620  0.00  0.00     0.068 A 
ATOM      4  C   UNL d   1      27.851 -15.304   0.507  0.00  0.00     0.101 A 
ATOM      5  C   UNL d   1      28.104 -14.555  -0.770  0.00  0.00     0.207 A 
ATOM      6  O   UNL d   1      29.098 -13.839  -0.903  0.00  0.00    -0.285 OA
ATOM      7  C   UNL d   1      27.124 -14.711  -1.861  0.00  0.00     0.007 A 
ATOM      8  C   UNL d   1      26.035 -15.481  -1.699  0.00  0.00    -0.015 A 
ATOM      9  C   UNL d   1      25.109 -15.628  -2.839  0.00  0.00     0.068 C 
ATOM     10  C   UNL d   1      25.559 -15.263  -4.183  0.00  0.00    -0.026 C 
ATOM     11  C   UNL d   1      26.633 -14.500  -4.349  0.00  0.00    -0.026 C 
ATOM     12  C   UNL d   1      27.413 -13.986  -3.164  0.00  0.00     0.070 C 
ENDROOT
BRANCH   4  13
ATOM     13  N   UNL d   1      28.824 -15.152   1.481  0.00  0.00    -0.294 N 
ATOM     14  H   UNL d   1      29.805 -15.117   1.163  0.00  0.00     0.187 HD
BRANCH  13  15
ATOM     15  N   UNL d   1      28.569 -14.825   2.803  0.00  0.00    -0.265 N 
ATOM     16  C   UNL d   1      28.891 -13.580   3.289  0.00  0.00     0.272 C 
ATOM     17  O   UNL d   1      29.234 -12.617   2.596  0.00  0.00    -0.266 OA
ATOM     18  H   UNL d   1      28.464 -15.588   3.463  0.00  0.00     0.190 HD
BRANCH  16  19
ATOM     19  C   UNL d   1      28.768 -13.444   4.765  0.00  0.00     0.066 A 
ATOM     20  C   UNL d   1      28.154 -12.298   5.283  0.00  0.00     0.020 A 
ATOM     21  C   UNL d   1      28.133 -12.077   6.662  0.00  0.00     0.001 A 
ATOM     22  C   UNL d   1      28.671 -13.027   7.530  0.00  0.00     0.003 A 
ATOM     23  C   UNL d   1      29.254 -14.191   7.025  0.00  0.00     0.037 A 
ATOM     24  C   UNL d   1      29.294 -14.402   5.646  0.00  0.00     0.081 A 
BRANCH  24  25
ATOM     25  O   UNL d   1      29.838 -15.559   5.154  0.00  0.00    -0.360 OA
ATOM     26  H   UNL d   1      29.781 -15.555   4.182  0.00  0.00     0.217 HD
ENDBRANCH  24  25
ENDBRANCH  16  19
ENDBRANCH  13  15
ENDBRANCH   4  13
BRANCH   1  27
ATOM     27  S   UNL d   1      23.423 -17.303  -1.174  0.00  0.00     0.283 S 
ATOM     28  O   UNL d   1      23.916 -18.117  -2.267  0.00  0.00    -0.198 OA
ATOM     29  O   UNL d   1      22.673 -16.080  -1.392  0.00  0.00    -0.198 OA
BRANCH  27  30
ATOM     30  C   UNL d   1      22.196 -18.328  -0.485  0.00  0.00     0.081 A 
ATOM     31  C   UNL d   1      21.296 -18.919  -1.392  0.00  0.00     0.028 A 
ATOM     32  C   UNL d   1      20.223 -19.636  -0.897  0.00  0.00     0.038 A 
ATOM     33  C   UNL d   1      20.108 -19.824   0.479  0.00  0.00     0.068 A 
ATOM     34  C   UNL d   1      21.030 -19.237   1.361  0.00  0.00     0.038 A 
ATOM     35  C   UNL d   1      22.085 -18.476   0.879  0.00  0.00     0.028 A 
BRANCH  33  36
ATOM     36  O   UNL d   1      19.123 -20.695   0.849  0.00  0.00    -0.356 OA
ATOM     37  C   UNL d   1      18.035 -20.825  -0.050  0.00  0.00     0.210 C 
ENDBRANCH  33  36
ENDBRANCH  27  30
ENDBRANCH   1  27
TORSDOF 7
ENDMDL
MODEL 5
REMARK VINA RESULT:    -8.730      5.341      8.302
REMARK INTER + INTRA:         -12.427
REMARK INTER:                 -10.818
REMARK INTRA:                  -1.610
REMARK CONF_INDEPENDENT:        2.088
REMARK UNBOUND:                -1.610
REMARK  7 active torsions:
REMARK  status: ('A' for Active; 'I' for Inactive)
REMARK    1  A    between atoms: O_2  and  C_3 
REMARK    2  A    between atoms: C_6  and  S_7 
REMARK    3  A    between atoms: S_7  and  N_10 
REMARK    4  A    between atoms: C_13  and  N_14 
REMARK    5  A    between atoms: N_14  and  N_15 
REMARK       I    between atoms: N_15  and  C_16 
REMARK    6  A    between atoms: C_16  and  C_18 
REMARK    7  A    between atoms: C_23  and  O_24 
ROOT
ATOM      1  N   UNL d   1      25.622 -13.603  -2.924  0.00  0.00    -0.160 NA
ATOM      2  C   UNL d   1      26.120 -12.730  -3.765  0.00  0.00     0.079 A 
ATOM      3  C   UNL d   1      25.885 -11.277  -3.469  0.00  0.00     0.068 A 
ATOM      4  C   UNL d   1      26.294 -10.242  -4.232  0.00  0.00     0.101 A 
ATOM      5  C   UNL d   1      27.060 -10.516  -5.495  0.00  0.00     0.207 A 
ATOM      6  O   UNL d   1      27.433  -9.597  -6.226  0.00  0.00    -0.285 OA
ATOM      7  C   UNL d   1      27.355 -11.923  -5.825  0.00  0.00     0.007 A 
ATOM      8  C   UNL d   1      26.928 -12.917  -5.028  0.00  0.00    -0.015 A 
ATOM      9  C   UNL d   1      27.286 -14.303  -5.391  0.00  0.00     0.068 C 
ATOM     10  C   UNL d   1      28.364 -14.539  -6.352  0.00  0.00    -0.026 C 
ATOM     11  C   UNL d   1      28.787 -13.561  -7.144  0.00  0.00    -0.026 C 
ATOM     12  C   UNL d   1      28.169 -12.186  -7.080  0.00  0.00     0.070 C 
ENDROOT
BRANCH   4  13
ATOM     13  N   UNL d   1      26.082  -8.902  -3.952  0.00  0.00    -0.294 N 
ATOM     14  H   UNL d   1      26.910  -8.335  -3.714  0.00  0.00     0.187 HD
BRANCH  13  15
ATOM     15  N   UNL d   1      24.892  -8.230  -4.182  0.00  0.00    -0.265 N 
ATOM     16  C   UNL d   1      24.622  -7.692  -5.418  0.00  0.00     0.272 C 
ATOM     17  O   UNL d   1      25.277  -7.909  -6.443  0.00  0.00    -0.266 OA
ATOM     18  H   UNL d   1      24.400  -7.859  -3.377  0.00  0.00     0.190 HD
BRANCH  16  19
ATOM     19  C   UNL d   1      23.422  -6.815  -5.460  0.00  0.00     0.066 A 
ATOM     20  C   UNL d   1      22.530  -6.950  -6.531  0.00  0.00     0.020 A 
ATOM     21  C   UNL d   1      21.462  -6.061  -6.669  0.00  0.00     0.001 A 
ATOM     22  C   UNL d   1      21.244  -5.074  -5.707  0.00  0.00     0.003 A 
ATOM     23  C   UNL d   1      22.107  -4.954  -4.616  0.00  0.00     0.037 A 
ATOM     24  C   UNL d   1      23.187  -5.829  -4.488  0.00  0.00     0.081 A 
BRANCH  24  25
ATOM     25  O   UNL d   1      24.014  -5.729  -3.401  0.00  0.00    -0.360 OA
ATOM     26  H   UNL d   1      23.655  -6.265  -2.672  0.00  0.00     0.217 HD
ENDBRANCH  24  25
ENDBRANCH  16  19
ENDBRANCH  13  15
ENDBRANCH   4  13
BRANCH   1  27
ATOM     27  S   UNL d   1      25.798 -15.227  -3.077  0.00  0.00     0.283 S 
ATOM     28  O   UNL d   1      27.139 -15.601  -2.675  0.00  0.00    -0.198 OA
ATOM     29  O   UNL d   1      25.222 -15.639  -4.345  0.00  0.00    -0.198 OA
BRANCH  27  30
ATOM     30  C   UNL d   1      24.819 -16.130  -1.957  0.00  0.00     0.081 A 
ATOM     31  C   UNL d   1      25.377 -17.325  -1.465  0.00  0.00     0.028 A 
ATOM     32  C   UNL d   1      24.598 -18.150  -0.675  0.00  0.00     0.038 A 
ATOM     33  C   UNL d   1      23.315 -17.739  -0.321  0.00  0.00     0.068 A 
ATOM     34  C   UNL d   1      22.789 -16.534  -0.813  0.00  0.00     0.038 A 
ATOM     35  C   UNL d   1      23.543 -15.719  -1.645  0.00  0.00     0.028 A 
BRANCH  33  36
ATOM     36  O   UNL d   1      22.702 -18.535   0.604  0.00  0.00    -0.356 OA
ATOM     37  C   UNL d   1      21.410 -19.006   0.264  0.00  0.00     0.210 C 
ENDBRANCH  33  36
ENDBRANCH  27  30
ENDBRANCH   1  27
TORSDOF 7
ENDMDL
MODEL 6
REMARK VINA RESULT:    -8.574      4.729      7.517
REMARK INTER + INTRA:         -13.157
REMARK INTER:                 -10.663
REMARK INTRA:                  -2.494
REMARK CONF_INDEPENDENT:        2.088
REMARK UNBOUND:                -2.494
REMARK  7 active torsions:
REMARK  status: ('A' for Active; 'I' for Inactive)
REMARK    1  A    between atoms: O_2  and  C_3 
REMARK    2  A    between atoms: C_6  and  S_7 
REMARK    3  A    between atoms: S_7  and  N_10 
REMARK    4  A    between atoms: C_13  and  N_14 
REMARK    5  A    between atoms: N_14  and  N_15 
REMARK       I    between atoms: N_15  and  C_16 
REMARK    6  A    between atoms: C_16  and  C_18 
REMARK    7  A    between atoms: C_23  and  O_24 
ROOT
ATOM      1  N   UNL d   1      23.316 -16.765  -1.392  0.00  0.00    -0.160 NA
ATOM      2  C   UNL d   1      24.411 -16.154  -1.773  0.00  0.00     0.079 A 
ATOM      3  C   UNL d   1      24.255 -14.899  -2.580  0.00  0.00     0.068 A 
ATOM      4  C   UNL d   1      25.262 -14.154  -3.083  0.00  0.00     0.101 A 
ATOM      5  C   UNL d   1      26.682 -14.576  -2.834  0.00  0.00     0.207 A 
ATOM      6  O   UNL d   1      27.628 -13.932  -3.293  0.00  0.00    -0.285 OA
ATOM      7  C   UNL d   1      26.906 -15.782  -2.017  0.00  0.00     0.007 A 
ATOM      8  C   UNL d   1      25.866 -16.486  -1.536  0.00  0.00    -0.015 A 
ATOM      9  C   UNL d   1      26.153 -17.664  -0.694  0.00  0.00     0.068 C 
ATOM     10  C   UNL d   1      27.484 -17.823  -0.108  0.00  0.00    -0.026 C 
ATOM     11  C   UNL d   1      28.515 -17.133  -0.581  0.00  0.00    -0.026 C 
ATOM     12  C   UNL d   1      28.346 -16.174  -1.734  0.00  0.00     0.070 C 
ENDROOT
BRANCH   4  13
ATOM     13  N   UNL d   1      25.114 -12.993  -3.822  0.00  0.00    -0.294 N 
ATOM     14  H   UNL d   1      24.402 -12.318  -3.499  0.00  0.00     0.187 HD
BRANCH  13  15
ATOM     15  N   UNL d   1      25.988 -12.574  -4.812  0.00  0.00    -0.265 N 
ATOM     16  C   UNL d   1      25.997 -11.263  -5.226  0.00  0.00     0.272 C 
ATOM     17  O   UNL d   1      25.409 -10.337  -4.658  0.00  0.00    -0.266 OA
ATOM     18  H   UNL d   1      26.360 -13.280  -5.438  0.00  0.00     0.190 HD
BRANCH  16  19
ATOM     19  C   UNL d   1      26.820 -11.006  -6.438  0.00  0.00     0.066 A 
ATOM     20  C   UNL d   1      26.538  -9.873  -7.211  0.00  0.00     0.020 A 
ATOM     21  C   UNL d   1      27.205  -9.667  -8.421  0.00  0.00     0.001 A 
ATOM     22  C   UNL d   1      28.196 -10.558  -8.834  0.00  0.00     0.003 A 
ATOM     23  C   UNL d   1      28.510 -11.672  -8.053  0.00  0.00     0.037 A 
ATOM     24  C   UNL d   1      27.829 -11.890  -6.853  0.00  0.00     0.081 A 
BRANCH  24  25
ATOM     25  O   UNL d   1      28.159 -12.966  -6.073  0.00  0.00    -0.360 OA
ATOM     26  H   UNL d   1      28.122 -12.708  -5.135  0.00  0.00     0.217 HD
ENDBRANCH  24  25
ENDBRANCH  16  19
ENDBRANCH  13  15
ENDBRANCH   4  13
BRANCH   1  27
ATOM     27  S   UNL d   1      23.296 -18.134  -0.489  0.00  0.00     0.283 S 
ATOM     28  O   UNL d   1      23.749 -17.825   0.853  0.00  0.00    -0.198 OA
ATOM     29  O   UNL d   1      23.864 -19.216  -1.272  0.00  0.00    -0.198 OA
BRANCH  27  30
ATOM     30  C   UNL d   1      21.691 -18.740  -0.199  0.00  0.00     0.081 A 
ATOM     31  C   UNL d   1      21.336 -18.947   1.147  0.00  0.00     0.028 A 
ATOM     32  C   UNL d   1      20.125 -19.549   1.435  0.00  0.00     0.038 A 
ATOM     33  C   UNL d   1      19.255 -19.857   0.391  0.00  0.00     0.068 A 
ATOM     34  C   UNL d   1      19.627 -19.623  -0.942  0.00  0.00     0.038 A 
ATOM     35  C   UNL d   1      20.860 -19.063  -1.247  0.00  0.00     0.028 A 
BRANCH  33  36
ATOM     36  O   UNL d   1      18.019 -20.275   0.793  0.00  0.00    -0.356 OA
ATOM     37  C   UNL d   1      17.953 -21.573   1.359  0.00  0.00     0.210 C 
ENDBRANCH  33  36
ENDBRANCH  27  30
ENDBRANCH   1  27
TORSDOF 7
ENDMDL
MODEL 7
REMARK VINA RESULT:    -8.416      5.364      8.660
REMARK INTER + INTRA:         -12.696
REMARK INTER:                 -10.504
REMARK INTRA:                  -2.193
REMARK CONF_INDEPENDENT:        2.088
REMARK UNBOUND:                -2.193
REMARK  7 active torsions:
REMARK  status: ('A' for Active; 'I' for Inactive)
REMARK    1  A    between atoms: O_2  and  C_3 
REMARK    2  A    between atoms: C_6  and  S_7 
REMARK    3  A    between atoms: S_7  and  N_10 
REMARK    4  A    between atoms: C_13  and  N_14 
REMARK    5  A    between atoms: N_14  and  N_15 
REMARK       I    between atoms: N_15  and  C_16 
REMARK    6  A    between atoms: C_16  and  C_18 
REMARK    7  A    between atoms: C_23  and  O_24 
ROOT
ATOM      1  N   UNL d   1      26.373 -15.507  -3.550  0.00  0.00    -0.160 NA
ATOM      2  C   UNL d   1      27.038 -14.751  -4.388  0.00  0.00     0.079 A 
ATOM      3  C   UNL d   1      28.035 -15.427  -5.284  0.00  0.00     0.068 A 
ATOM      4  C   UNL d   1      28.829 -14.812  -6.185  0.00  0.00     0.101 A 
ATOM      5  C   UNL d   1      28.741 -13.321  -6.345  0.00  0.00     0.207 A 
ATOM      6  O   UNL d   1      29.464 -12.722  -7.145  0.00  0.00    -0.285 OA
ATOM      7  C   UNL d   1      27.756 -12.600  -5.519  0.00  0.00     0.007 A 
ATOM      8  C   UNL d   1      26.985 -13.262  -4.639  0.00  0.00    -0.015 A 
ATOM      9  C   UNL d   1      25.991 -12.491  -3.866  0.00  0.00     0.068 C 
ATOM     10  C   UNL d   1      25.613 -11.150  -4.315  0.00  0.00    -0.026 C 
ATOM     11  C   UNL d   1      26.373 -10.491  -5.182  0.00  0.00    -0.026 C 
ATOM     12  C   UNL d   1      27.644 -11.098  -5.722  0.00  0.00     0.070 C 
ENDROOT
BRANCH   4  13
ATOM     13  N   UNL d   1      29.742 -15.440  -7.015  0.00  0.00    -0.294 N 
ATOM     14  H   UNL d   1      30.264 -14.844  -7.677  0.00  0.00     0.187 HD
BRANCH  13  15
ATOM     15  N   UNL d   1      30.162 -16.753  -6.872  0.00  0.00    -0.265 N 
ATOM     16  C   UNL d   1      31.186 -17.247  -7.645  0.00  0.00     0.272 C 
ATOM     17  O   UNL d   1      31.926 -16.565  -8.359  0.00  0.00    -0.266 OA
ATOM     18  H   UNL d   1      29.510 -17.411  -6.456  0.00  0.00     0.190 HD
BRANCH  16  19
ATOM     19  C   UNL d   1      31.379 -18.719  -7.544  0.00  0.00     0.066 A 
ATOM     20  C   UNL d   1      31.843 -19.412  -8.668  0.00  0.00     0.020 A 
ATOM     21  C   UNL d   1      31.917 -20.806  -8.649  0.00  0.00     0.001 A 
ATOM     22  C   UNL d   1      31.585 -21.509  -7.490  0.00  0.00     0.003 A 
ATOM     23  C   UNL d   1      31.155 -20.825  -6.352  0.00  0.00     0.037 A 
ATOM     24  C   UNL d   1      31.061 -19.432  -6.377  0.00  0.00     0.081 A 
BRANCH  24  25
ATOM     25  O   UNL d   1      30.669 -18.760  -5.249  0.00  0.00    -0.360 OA
ATOM     26  H   UNL d   1      31.403 -18.204  -4.933  0.00  0.00     0.217 HD
ENDBRANCH  24  25
ENDBRANCH  16  19
ENDBRANCH  13  15
ENDBRANCH   4  13
BRANCH   1  27
ATOM     27  S   UNL d   1      25.234 -14.944  -2.513  0.00  0.00     0.283 S 
ATOM     28  O   UNL d   1      24.149 -14.353  -3.273  0.00  0.00    -0.198 OA
ATOM     29  O   UNL d   1      25.897 -14.242  -1.429  0.00  0.00    -0.198 OA
BRANCH  27  30
ATOM     30  C   UNL d   1      24.416 -16.209  -1.641  0.00  0.00     0.081 A 
ATOM     31  C   UNL d   1      23.084 -15.950  -1.270  0.00  0.00     0.028 A 
ATOM     32  C   UNL d   1      22.425 -16.860  -0.464  0.00  0.00     0.038 A 
ATOM     33  C   UNL d   1      23.068 -18.044  -0.110  0.00  0.00     0.068 A 
ATOM     34  C   UNL d   1      24.393 -18.285  -0.508  0.00  0.00     0.038 A 
ATOM     35  C   UNL d   1      25.081 -17.358  -1.278  0.00  0.00     0.028 A 
BRANCH  33  36
ATOM     36  O   UNL d   1      22.271 -18.950   0.529  0.00  0.00    -0.356 OA
ATOM     37  C   UNL d   1      21.084 -19.325  -0.150  0.00  0.00     0.210 C 
ENDBRANCH  33  36
ENDBRANCH  27  30
ENDBRANCH   1  27
TORSDOF 7
ENDMDL
MODEL 8
REMARK VINA RESULT:    -8.342      4.547      6.126
REMARK INTER + INTRA:         -12.299
REMARK INTER:                 -10.430
REMARK INTRA:                  -1.869
REMARK CONF_INDEPENDENT:        2.088
REMARK UNBOUND:                -1.869
REMARK  7 active torsions:
REMARK  status: ('A' for Active; 'I' for Inactive)
REMARK    1  A    between atoms: O_2  and  C_3 
REMARK    2  A    between atoms: C_6  and  S_7 
REMARK    3  A    between atoms: S_7  and  N_10 
REMARK    4  A    between atoms: C_13  and  N_14 
REMARK    5  A    between atoms: N_14  and  N_15 
REMARK       I    between atoms: N_15  and  C_16 
REMARK    6  A    between atoms: C_16  and  C_18 
REMARK    7  A    between atoms: C_23  and  O_24 
ROOT
ATOM      1  N   UNL d   1      23.097 -16.909  -1.311  0.00  0.00    -0.160 NA
ATOM      2  C   UNL d   1      24.209 -16.290  -1.620  0.00  0.00     0.079 A 
ATOM      3  C   UNL d   1      24.092 -15.010  -2.396  0.00  0.00     0.068 A 
ATOM      4  C   UNL d   1      25.122 -14.253  -2.828  0.00  0.00     0.101 A 
ATOM      5  C   UNL d   1      26.529 -14.685  -2.525  0.00  0.00     0.207 A 
ATOM      6  O   UNL d   1      27.496 -14.029  -2.918  0.00  0.00    -0.285 OA
ATOM      7  C   UNL d   1      26.713 -15.916  -1.734  0.00  0.00     0.007 A 
ATOM      8  C   UNL d   1      25.651 -16.632  -1.325  0.00  0.00    -0.015 A 
ATOM      9  C   UNL d   1      25.897 -17.835  -0.506  0.00  0.00     0.068 C 
ATOM     10  C   UNL d   1      27.199 -18.014   0.137  0.00  0.00    -0.026 C 
ATOM     11  C   UNL d   1      28.251 -17.312  -0.265  0.00  0.00    -0.026 C 
ATOM     12  C   UNL d   1      28.138 -16.318  -1.395  0.00  0.00     0.070 C 
ENDROOT
BRANCH   4  13
ATOM     13  N   UNL d   1      25.010 -13.069  -3.537  0.00  0.00    -0.294 N 
ATOM     14  H   UNL d   1      24.361 -13.062  -4.340  0.00  0.00     0.187 HD
BRANCH  13  15
ATOM     15  N   UNL d   1      25.525 -11.852  -3.121  0.00  0.00    -0.265 N 
ATOM     16  C   UNL d   1      25.896 -10.900  -4.041  0.00  0.00     0.272 C 
ATOM     17  O   UNL d   1      25.641 -10.946  -5.249  0.00  0.00    -0.266 OA
ATOM     18  H   UNL d   1      25.926 -11.806  -2.191  0.00  0.00     0.190 HD
BRANCH  16  19
ATOM     19  C   UNL d   1      26.632  -9.743  -3.467  0.00  0.00     0.066 A 
ATOM     20  C   UNL d   1      26.515  -8.496  -4.094  0.00  0.00     0.020 A 
ATOM     21  C   UNL d   1      27.288  -7.418  -3.658  0.00  0.00     0.001 A 
ATOM     22  C   UNL d   1      28.135  -7.563  -2.559  0.00  0.00     0.003 A 
ATOM     23  C   UNL d   1      28.233  -8.792  -1.905  0.00  0.00     0.037 A 
ATOM     24  C   UNL d   1      27.475  -9.876  -2.352  0.00  0.00     0.081 A 
BRANCH  24  25
ATOM     25  O   UNL d   1      27.549 -11.073  -1.690  0.00  0.00    -0.360 OA
ATOM     26  H   UNL d   1      27.672 -10.908  -0.738  0.00  0.00     0.217 HD
ENDBRANCH  24  25
ENDBRANCH  16  19
ENDBRANCH  13  15
ENDBRANCH   4  13
BRANCH   1  27
ATOM     27  S   UNL d   1      23.033 -18.305  -0.451  0.00  0.00     0.283 S 
ATOM     28  O   UNL d   1      23.388 -18.032   0.928  0.00  0.00    -0.198 OA
ATOM     29  O   UNL d   1      23.669 -19.357  -1.224  0.00  0.00    -0.198 OA
BRANCH  27  30
ATOM     30  C   UNL d   1      21.420 -18.938  -0.291  0.00  0.00     0.081 A 
ATOM     31  C   UNL d   1      21.029 -19.328   1.004  0.00  0.00     0.028 A 
ATOM     32  C   UNL d   1      19.811 -19.958   1.173  0.00  0.00     0.038 A 
ATOM     33  C   UNL d   1      18.968 -20.114   0.074  0.00  0.00     0.068 A 
ATOM     34  C   UNL d   1      19.376 -19.700  -1.204  0.00  0.00     0.038 A 
ATOM     35  C   UNL d   1      20.617 -19.110  -1.395  0.00  0.00     0.028 A 
BRANCH  33  36
ATOM     36  O   UNL d   1      17.721 -20.579   0.381  0.00  0.00    -0.356 OA
ATOM     37  C   UNL d   1      17.660 -21.608   1.354  0.00  0.00     0.210 C 
ENDBRANCH  33  36
ENDBRANCH  27  30
ENDBRANCH   1  27
TORSDOF 7
ENDMDL
MODEL 9
REMARK VINA RESULT:    -7.486      6.374      9.454
REMARK INTER + INTRA:         -12.305
REMARK INTER:                  -9.574
REMARK INTRA:                  -2.731
REMARK CONF_INDEPENDENT:        2.088
REMARK UNBOUND:                -2.731
REMARK  7 active torsions:
REMARK  status: ('A' for Active; 'I' for Inactive)
REMARK    1  A    between atoms: O_2  and  C_3 
REMARK    2  A    between atoms: C_6  and  S_7 
REMARK    3  A    between atoms: S_7  and  N_10 
REMARK    4  A    between atoms: C_13  and  N_14 
REMARK    5  A    between atoms: N_14  and  N_15 
REMARK       I    between atoms: N_15  and  C_16 
REMARK    6  A    between atoms: C_16  and  C_18 
REMARK    7  A    between atoms: C_23  and  O_24 
ROOT
ATOM      1  N   UNL d   1      26.808 -15.415  -3.901  0.00  0.00    -0.160 NA
ATOM      2  C   UNL d   1      27.506 -14.824  -4.839  0.00  0.00     0.079 A 
ATOM      3  C   UNL d   1      28.630 -15.606  -5.456  0.00  0.00     0.068 A 
ATOM      4  C   UNL d   1      29.472 -15.156  -6.409  0.00  0.00     0.101 A 
ATOM      5  C   UNL d   1      29.308 -13.758  -6.935  0.00  0.00     0.207 A 
ATOM      6  O   UNL d   1      30.070 -13.306  -7.792  0.00  0.00    -0.285 OA
ATOM      7  C   UNL d   1      28.200 -12.949  -6.395  0.00  0.00     0.007 A 
ATOM      8  C   UNL d   1      27.386 -13.447  -5.448  0.00  0.00    -0.015 A 
ATOM      9  C   UNL d   1      26.273 -12.603  -4.973  0.00  0.00     0.068 C 
ATOM     10  C   UNL d   1      25.859 -11.444  -5.764  0.00  0.00    -0.026 C 
ATOM     11  C   UNL d   1      26.661 -10.946  -6.699  0.00  0.00    -0.026 C 
ATOM     12  C   UNL d   1      28.016 -11.553  -6.966  0.00  0.00     0.070 C 
ENDROOT
BRANCH   4  13
ATOM     13  N   UNL d   1      30.503 -15.882  -6.982  0.00  0.00    -0.294 N 
ATOM     14  H   UNL d   1      30.445 -16.911  -6.918  0.00  0.00     0.187 HD
BRANCH  13  15
ATOM     15  N   UNL d   1      31.475 -15.348  -7.812  0.00  0.00    -0.265 N 
ATOM     16  C   UNL d   1      32.389 -16.165  -8.432  0.00  0.00     0.272 C 
ATOM     17  O   UNL d   1      32.324 -17.397  -8.473  0.00  0.00    -0.266 OA
ATOM     18  H   UNL d   1      31.707 -14.368  -7.692  0.00  0.00     0.190 HD
BRANCH  16  19
ATOM     19  C   UNL d   1      33.500 -15.444  -9.110  0.00  0.00     0.066 A 
ATOM     20  C   UNL d   1      34.699 -16.129  -9.343  0.00  0.00     0.020 A 
ATOM     21  C   UNL d   1      35.803 -15.449  -9.862  0.00  0.00     0.001 A 
ATOM     22  C   UNL d   1      35.698 -14.101 -10.204  0.00  0.00     0.003 A 
ATOM     23  C   UNL d   1      34.496 -13.418 -10.008  0.00  0.00     0.037 A 
ATOM     24  C   UNL d   1      33.398 -14.091  -9.470  0.00  0.00     0.081 A 
BRANCH  24  25
ATOM     25  O   UNL d   1      32.211 -13.428  -9.308  0.00  0.00    -0.360 OA
ATOM     26  H   UNL d   1      31.473 -14.055  -9.412  0.00  0.00     0.217 HD
ENDBRANCH  24  25
ENDBRANCH  16  19
ENDBRANCH  13  15
ENDBRANCH   4  13
BRANCH   1  27
ATOM     27  S   UNL d   1      25.535 -14.722  -3.132  0.00  0.00     0.283 S 
ATOM     28  O   UNL d   1      24.487 -14.450  -4.096  0.00  0.00    -0.198 OA
ATOM     29  O   UNL d   1      26.037 -13.708  -2.222  0.00  0.00    -0.198 OA
BRANCH  27  30
ATOM     30  C   UNL d   1      24.736 -15.798  -2.022  0.00  0.00     0.081 A 
ATOM     31  C   UNL d   1      25.471 -16.925  -1.608  0.00  0.00     0.028 A 
ATOM     32  C   UNL d   1      24.845 -17.883  -0.832  0.00  0.00     0.038 A 
ATOM     33  C   UNL d   1      23.534 -17.668  -0.414  0.00  0.00     0.068 A 
ATOM     34  C   UNL d   1      22.829 -16.527  -0.829  0.00  0.00     0.038 A 
ATOM     35  C   UNL d   1      23.430 -15.581  -1.646  0.00  0.00     0.028 A 
BRANCH  33  36
ATOM     36  O   UNL d   1      23.074 -18.579   0.493  0.00  0.00    -0.356 OA
ATOM     37  C   UNL d   1      21.712 -18.951   0.369  0.00  0.00     0.210 C 
ENDBRANCH  33  36
ENDBRANCH  27  30
ENDBRANCH   1  27
TORSDOF 7
ENDMDL
