MODEL 1
REMARK VINA RESULT:    -8.020      0.000      0.000
REMARK INTER + INTRA:         -11.049
REMARK INTER:                  -9.809
REMARK INTRA:                  -1.240
REMARK CONF_INDEPENDENT:        1.790
REMARK UNBOUND:                -1.240
REMARK  6 active torsions:
REMARK  status: ('A' for Active; 'I' for Inactive)
REMARK    1  A    between atoms: C_2  and  C_16 
REMARK    2  A    between atoms: N_3  and  N_4 
REMARK       I    between atoms: N_4  and  C_5 
REMARK    3  A    between atoms: C_5  and  C_7 
REMARK    4  A    between atoms: C_7  and  O_8 
REMARK    5  A    between atoms: O_8  and  C_9 
REMARK    6  A    between atoms: C_20  and  O_21 
ROOT
ATOM      1  N   UNL d   1      24.645 -16.447  -0.456  0.00  0.00    -0.245 N 
ATOM      2  C   UNL d   1      24.805 -17.821  -0.633  0.00  0.00     0.261 C 
ATOM      3  O   UNL d   1      25.813 -18.436  -0.272  0.00  0.00    -0.269 OA
ATOM      4  H   UNL d   1      23.827 -15.981  -0.829  0.00  0.00     0.192 HD
ENDROOT
BRANCH   1   5
ATOM      5  N   UNL d   1      25.620 -15.703   0.188  0.00  0.00    -0.176 NA
ATOM      6  C   UNL d   1      26.472 -14.974  -0.483  0.00  0.00     0.061 C 
ATOM      7  C   UNL d   1      27.548 -14.223   0.292  0.00  0.00     0.073 C 
BRANCH   6   8
ATOM      8  C   UNL d   1      26.465 -14.779  -1.958  0.00  0.00    -0.008 A 
ATOM      9  C   UNL d   1      27.537 -15.168  -2.768  0.00  0.00     0.013 A 
ATOM     10  C   UNL d   1      27.408 -15.086  -4.161  0.00  0.00     0.004 A 
ATOM     11  C   UNL d   1      26.210 -14.644  -4.736  0.00  0.00     0.036 A 
ATOM     12  C   UNL d   1      25.167 -14.239  -3.913  0.00  0.00     0.066 A 
ATOM     13  C   UNL d   1      25.312 -14.249  -2.539  0.00  0.00     0.050 A 
BRANCH  12  14
ATOM     14  O   UNL d   1      23.952 -13.858  -4.391  0.00  0.00    -0.361 OA
ATOM     15  H   UNL d   1      24.066 -13.168  -5.063  0.00  0.00     0.217 HD
ENDBRANCH  12  14
ENDBRANCH   6   8
ENDBRANCH   1   5
BRANCH   2  16
ATOM     16  C   UNL d   1      23.608 -18.529  -1.320  0.00  0.00     0.280 C 
BRANCH  16  17
ATOM     17  O   UNL d   1      22.392 -17.881  -0.918  0.00  0.00    -0.342 OA
BRANCH  17  18
ATOM     18  C   UNL d   1      21.404 -18.673  -0.404  0.00  0.00     0.069 A 
ATOM     19  C   UNL d   1      21.339 -19.070   0.930  0.00  0.00     0.038 A 
ATOM     20  C   UNL d   1      20.256 -19.842   1.379  0.00  0.00     0.026 A 
ATOM     21  C   UNL d   1      19.238 -20.201   0.493  0.00  0.00     0.034 A 
ATOM     22 CL   UNL d   1      17.938 -21.190   1.036  0.00  0.00    -0.084 Cl
ATOM     23  C   UNL d   1      19.272 -19.762  -0.826  0.00  0.00     0.026 A 
ATOM     24  C   UNL d   1      20.349 -18.987  -1.268  0.00  0.00     0.038 A 
ENDBRANCH  17  18
ENDBRANCH  16  17
ENDBRANCH   2  16
TORSDOF 6
ENDMDL
MODEL 2
REMARK VINA RESULT:    -7.139      3.153      4.442
REMARK INTER + INTRA:         -10.809
REMARK INTER:                  -8.929
REMARK INTRA:                  -1.880
REMARK CONF_INDEPENDENT:        1.790
REMARK UNBOUND:                -1.880
REMARK  6 active torsions:
REMARK  status: ('A' for Active; 'I' for Inactive)
REMARK    1  A    between atoms: C_2  and  C_16 
REMARK    2  A    between atoms: N_3  and  N_4 
REMARK       I    between atoms: N_4  and  C_5 
REMARK    3  A    between atoms: C_5  and  C_7 
REMARK    4  A    between atoms: C_7  and  O_8 
REMARK    5  A    between atoms: O_8  and  C_9 
REMARK    6  A    between atoms: C_20  and  O_21 
ROOT
ATOM      1  N   UNL d   1      28.459 -16.366  -2.543  0.00  0.00    -0.245 N 
ATOM      2  C   UNL d   1      29.200 -17.050  -1.579  0.00  0.00     0.261 C 
ATOM      3  O   UNL d   1      30.268 -17.617  -1.823  0.00  0.00    -0.269 OA
ATOM      4  H   UNL d   1      27.558 -15.974  -2.304  0.00  0.00     0.192 HD
ENDROOT
BRANCH   1   5
ATOM      5  N   UNL d   1      28.930 -16.256  -3.842  0.00  0.00    -0.176 NA
ATOM      6  C   UNL d   1      28.472 -15.343  -4.657  0.00  0.00     0.061 C 
ATOM      7  C   UNL d   1      29.002 -15.317  -6.085  0.00  0.00     0.073 C 
BRANCH   6   8
ATOM      8  C   UNL d   1      27.488 -14.286  -4.299  0.00  0.00    -0.008 A 
ATOM      9  C   UNL d   1      27.867 -12.959  -4.072  0.00  0.00     0.013 A 
ATOM     10  C   UNL d   1      26.876 -11.987  -3.879  0.00  0.00     0.004 A 
ATOM     11  C   UNL d   1      25.521 -12.336  -3.937  0.00  0.00     0.036 A 
ATOM     12  C   UNL d   1      25.167 -13.664  -4.138  0.00  0.00     0.066 A 
ATOM     13  C   UNL d   1      26.138 -14.640  -4.258  0.00  0.00     0.050 A 
BRANCH  12  14
ATOM     14  O   UNL d   1      23.877 -14.075  -4.270  0.00  0.00    -0.361 OA
ATOM     15  H   UNL d   1      23.436 -13.552  -4.958  0.00  0.00     0.217 HD
ENDBRANCH  12  14
ENDBRANCH   6   8
ENDBRANCH   1   5
BRANCH   2  16
ATOM     16  C   UNL d   1      28.576 -17.042  -0.159  0.00  0.00     0.280 C 
BRANCH  16  17
ATOM     17  O   UNL d   1      27.408 -16.208  -0.169  0.00  0.00    -0.342 OA
BRANCH  17  18
ATOM     18  C   UNL d   1      26.200 -16.827  -0.319  0.00  0.00     0.069 A 
ATOM     19  C   UNL d   1      25.862 -18.034   0.291  0.00  0.00     0.038 A 
ATOM     20  C   UNL d   1      24.576 -18.569   0.120  0.00  0.00     0.026 A 
ATOM     21  C   UNL d   1      23.630 -17.887  -0.648  0.00  0.00     0.034 A 
ATOM     22 CL   UNL d   1      22.071 -18.571  -0.895  0.00  0.00    -0.084 Cl
ATOM     23  C   UNL d   1      23.945 -16.655  -1.214  0.00  0.00     0.026 A 
ATOM     24  C   UNL d   1      25.226 -16.122  -1.035  0.00  0.00     0.038 A 
ENDBRANCH  17  18
ENDBRANCH  16  17
ENDBRANCH   2  16
TORSDOF 6
ENDMDL
MODEL 3
REMARK VINA RESULT:    -6.791      2.755      4.185
REMARK INTER + INTRA:          -9.978
REMARK INTER:                  -8.581
REMARK INTRA:                  -1.397
REMARK CONF_INDEPENDENT:        1.790
REMARK UNBOUND:                -1.397
REMARK  6 active torsions:
REMARK  status: ('A' for Active; 'I' for Inactive)
REMARK    1  A    between atoms: C_2  and  C_16 
REMARK    2  A    between atoms: N_3  and  N_4 
REMARK       I    between atoms: N_4  and  C_5 
REMARK    3  A    between atoms: C_5  and  C_7 
REMARK    4  A    between atoms: C_7  and  O_8 
REMARK    5  A    between atoms: O_8  and  C_9 
REMARK    6  A    between atoms: C_20  and  O_21 
ROOT
ATOM      1  N   UNL d   1      25.648 -13.795  -2.766  0.00  0.00    -0.245 N 
ATOM      2  C   UNL d   1      25.742 -15.004  -3.457  0.00  0.00     0.261 C 
ATOM      3  O   UNL d   1      25.530 -15.109  -4.669  0.00  0.00    -0.269 OA
ATOM      4  H   UNL d   1      25.768 -13.776  -1.762  0.00  0.00     0.192 HD
ENDROOT
BRANCH   1   5
ATOM      5  N   UNL d   1      25.345 -12.624  -3.441  0.00  0.00    -0.176 NA
ATOM      6  C   UNL d   1      26.192 -12.082  -4.277  0.00  0.00     0.061 C 
ATOM      7  C   UNL d   1      25.808 -10.767  -4.944  0.00  0.00     0.073 C 
BRANCH   6   8
ATOM      8  C   UNL d   1      27.504 -12.663  -4.669  0.00  0.00    -0.008 A 
ATOM      9  C   UNL d   1      28.639 -12.556  -3.860  0.00  0.00     0.013 A 
ATOM     10  C   UNL d   1      29.805 -13.244  -4.220  0.00  0.00     0.004 A 
ATOM     11  C   UNL d   1      29.826 -14.052  -5.364  0.00  0.00     0.036 A 
ATOM     12  C   UNL d   1      28.695 -14.124  -6.167  0.00  0.00     0.066 A 
ATOM     13  C   UNL d   1      27.565 -13.391  -5.858  0.00  0.00     0.050 A 
BRANCH  12  14
ATOM     14  O   UNL d   1      28.612 -14.932  -7.259  0.00  0.00    -0.361 OA
ATOM     15  H   UNL d   1      28.909 -14.450  -8.046  0.00  0.00     0.217 HD
ENDBRANCH  12  14
ENDBRANCH   6   8
ENDBRANCH   1   5
BRANCH   2  16
ATOM     16  C   UNL d   1      26.142 -16.219  -2.581  0.00  0.00     0.280 C 
BRANCH  16  17
ATOM     17  O   UNL d   1      25.570 -16.059  -1.274  0.00  0.00    -0.342 OA
BRANCH  17  18
ATOM     18  C   UNL d   1      24.544 -16.895  -0.935  0.00  0.00     0.069 A 
ATOM     19  C   UNL d   1      24.717 -18.214  -0.524  0.00  0.00     0.038 A 
ATOM     20  C   UNL d   1      23.605 -18.982  -0.145  0.00  0.00     0.026 A 
ATOM     21  C   UNL d   1      22.327 -18.420  -0.166  0.00  0.00     0.034 A 
ATOM     22 CL   UNL d   1      20.961 -19.380   0.251  0.00  0.00    -0.084 Cl
ATOM     23  C   UNL d   1      22.155 -17.087  -0.525  0.00  0.00     0.026 A 
ATOM     24  C   UNL d   1      23.267 -16.323  -0.895  0.00  0.00     0.038 A 
ENDBRANCH  17  18
ENDBRANCH  16  17
ENDBRANCH   2  16
TORSDOF 6
ENDMDL
MODEL 4
REMARK VINA RESULT:    -6.768      2.960      4.182
REMARK INTER + INTRA:         -10.357
REMARK INTER:                  -8.558
REMARK INTRA:                  -1.799
REMARK CONF_INDEPENDENT:        1.790
REMARK UNBOUND:                -1.799
REMARK  6 active torsions:
REMARK  status: ('A' for Active; 'I' for Inactive)
REMARK    1  A    between atoms: C_2  and  C_16 
REMARK    2  A    between atoms: N_3  and  N_4 
REMARK       I    between atoms: N_4  and  C_5 
REMARK    3  A    between atoms: C_5  and  C_7 
REMARK    4  A    between atoms: C_7  and  O_8 
REMARK    5  A    between atoms: O_8  and  C_9 
REMARK    6  A    between atoms: C_20  and  O_21 
ROOT
ATOM      1  N   UNL d   1      28.264 -16.271  -2.148  0.00  0.00    -0.245 N 
ATOM      2  C   UNL d   1      28.823 -17.076  -1.155  0.00  0.00     0.261 C 
ATOM      3  O   UNL d   1      29.853 -17.736  -1.320  0.00  0.00    -0.269 OA
ATOM      4  H   UNL d   1      27.383 -15.802  -1.981  0.00  0.00     0.192 HD
ENDROOT
BRANCH   1   5
ATOM      5  N   UNL d   1      28.883 -16.146  -3.381  0.00  0.00    -0.176 NA
ATOM      6  C   UNL d   1      28.321 -15.488  -4.361  0.00  0.00     0.061 C 
ATOM      7  C   UNL d   1      29.041 -15.435  -5.703  0.00  0.00     0.073 C 
BRANCH   6   8
ATOM      8  C   UNL d   1      27.035 -14.745  -4.272  0.00  0.00    -0.008 A 
ATOM      9  C   UNL d   1      25.920 -15.260  -3.603  0.00  0.00     0.013 A 
ATOM     10  C   UNL d   1      24.788 -14.451  -3.435  0.00  0.00     0.004 A 
ATOM     11  C   UNL d   1      24.783 -13.133  -3.909  0.00  0.00     0.036 A 
ATOM     12  C   UNL d   1      25.892 -12.650  -4.591  0.00  0.00     0.066 A 
ATOM     13  C   UNL d   1      26.984 -13.465  -4.824  0.00  0.00     0.050 A 
BRANCH  12  14
ATOM     14  O   UNL d   1      25.992 -11.365  -5.027  0.00  0.00    -0.361 OA
ATOM     15  H   UNL d   1      25.141 -11.076  -5.392  0.00  0.00     0.217 HD
ENDBRANCH  12  14
ENDBRANCH   6   8
ENDBRANCH   1   5
BRANCH   2  16
ATOM     16  C   UNL d   1      28.050 -17.075   0.189  0.00  0.00     0.280 C 
BRANCH  16  17
ATOM     17  O   UNL d   1      26.894 -16.235   0.060  0.00  0.00    -0.342 OA
BRANCH  17  18
ATOM     18  C   UNL d   1      25.696 -16.852  -0.166  0.00  0.00     0.069 A 
ATOM     19  C   UNL d   1      25.451 -18.198   0.099  0.00  0.00     0.038 A 
ATOM     20  C   UNL d   1      24.172 -18.732  -0.117  0.00  0.00     0.026 A 
ATOM     21  C   UNL d   1      23.141 -17.914  -0.584  0.00  0.00     0.034 A 
ATOM     22 CL   UNL d   1      21.587 -18.586  -0.895  0.00  0.00    -0.084 Cl
ATOM     23  C   UNL d   1      23.367 -16.558  -0.798  0.00  0.00     0.026 A 
ATOM     24  C   UNL d   1      24.642 -16.028  -0.575  0.00  0.00     0.038 A 
ENDBRANCH  17  18
ENDBRANCH  16  17
ENDBRANCH   2  16
TORSDOF 6
ENDMDL
MODEL 5
REMARK VINA RESULT:    -6.683      2.948      4.145
REMARK INTER + INTRA:         -10.368
REMARK INTER:                  -8.473
REMARK INTRA:                  -1.895
REMARK CONF_INDEPENDENT:        1.790
REMARK UNBOUND:                -1.895
REMARK  6 active torsions:
REMARK  status: ('A' for Active; 'I' for Inactive)
REMARK    1  A    between atoms: C_2  and  C_16 
REMARK    2  A    between atoms: N_3  and  N_4 
REMARK       I    between atoms: N_4  and  C_5 
REMARK    3  A    between atoms: C_5  and  C_7 
REMARK    4  A    between atoms: C_7  and  O_8 
REMARK    5  A    between atoms: O_8  and  C_9 
REMARK    6  A    between atoms: C_20  and  O_21 
ROOT
ATOM      1  N   UNL d   1      27.829 -13.844  -0.440  0.00  0.00    -0.245 N 
ATOM      2  C   UNL d   1      27.559 -14.292   0.854  0.00  0.00     0.261 C 
ATOM      3  O   UNL d   1      27.285 -13.533   1.788  0.00  0.00    -0.269 OA
ATOM      4  H   UNL d   1      28.111 -14.503  -1.154  0.00  0.00     0.192 HD
ENDROOT
BRANCH   1   5
ATOM      5  N   UNL d   1      27.757 -12.494  -0.744  0.00  0.00    -0.176 NA
ATOM      6  C   UNL d   1      27.373 -12.083  -1.924  0.00  0.00     0.061 C 
ATOM      7  C   UNL d   1      27.367 -10.584  -2.200  0.00  0.00     0.073 C 
BRANCH   6   8
ATOM      8  C   UNL d   1      26.899 -12.959  -3.029  0.00  0.00    -0.008 A 
ATOM      9  C   UNL d   1      27.772 -13.755  -3.777  0.00  0.00     0.013 A 
ATOM     10  C   UNL d   1      27.246 -14.661  -4.707  0.00  0.00     0.004 A 
ATOM     11  C   UNL d   1      25.861 -14.789  -4.867  0.00  0.00     0.036 A 
ATOM     12  C   UNL d   1      25.012 -13.971  -4.131  0.00  0.00     0.066 A 
ATOM     13  C   UNL d   1      25.525 -13.024  -3.264  0.00  0.00     0.050 A 
BRANCH  12  14
ATOM     14  O   UNL d   1      23.656 -14.075  -4.180  0.00  0.00    -0.361 OA
ATOM     15  H   UNL d   1      23.331 -13.707  -5.017  0.00  0.00     0.217 HD
ENDBRANCH  12  14
ENDBRANCH   6   8
ENDBRANCH   1   5
BRANCH   2  16
ATOM     16  C   UNL d   1      27.623 -15.831   1.031  0.00  0.00     0.280 C 
BRANCH  16  17
ATOM     17  O   UNL d   1      27.349 -16.457  -0.230  0.00  0.00    -0.342 OA
BRANCH  17  18
ATOM     18  C   UNL d   1      26.078 -16.915  -0.436  0.00  0.00     0.069 A 
ATOM     19  C   UNL d   1      25.237 -16.450  -1.445  0.00  0.00     0.038 A 
ATOM     20  C   UNL d   1      23.964 -17.017  -1.612  0.00  0.00     0.026 A 
ATOM     21  C   UNL d   1      23.546 -18.057  -0.779  0.00  0.00     0.034 A 
ATOM     22 CL   UNL d   1      21.966 -18.716  -0.956  0.00  0.00    -0.084 Cl
ATOM     23  C   UNL d   1      24.403 -18.561   0.194  0.00  0.00     0.026 A 
ATOM     24  C   UNL d   1      25.674 -17.997   0.354  0.00  0.00     0.038 A 
ENDBRANCH  17  18
ENDBRANCH  16  17
ENDBRANCH   2  16
TORSDOF 6
ENDMDL
MODEL 6
REMARK VINA RESULT:    -6.679      2.198      3.042
REMARK INTER + INTRA:         -10.221
REMARK INTER:                  -8.468
REMARK INTRA:                  -1.752
REMARK CONF_INDEPENDENT:        1.790
REMARK UNBOUND:                -1.752
REMARK  6 active torsions:
REMARK  status: ('A' for Active; 'I' for Inactive)
REMARK    1  A    between atoms: C_2  and  C_16 
REMARK    2  A    between atoms: N_3  and  N_4 
REMARK       I    between atoms: N_4  and  C_5 
REMARK    3  A    between atoms: C_5  and  C_7 
REMARK    4  A    between atoms: C_7  and  O_8 
REMARK    5  A    between atoms: O_8  and  C_9 
REMARK    6  A    between atoms: C_20  and  O_21 
ROOT
ATOM      1  N   UNL d   1      27.533 -14.874  -0.406  0.00  0.00    -0.245 N 
ATOM      2  C   UNL d   1      27.936 -16.200  -0.567  0.00  0.00     0.261 C 
ATOM      3  O   UNL d   1      29.046 -16.521  -1.002  0.00  0.00    -0.269 OA
ATOM      4  H   UNL d   1      26.589 -14.666  -0.107  0.00  0.00     0.192 HD
ENDROOT
BRANCH   1   5
ATOM      5  N   UNL d   1      28.402 -13.836  -0.697  0.00  0.00    -0.176 NA
ATOM      6  C   UNL d   1      28.568 -13.411  -1.922  0.00  0.00     0.061 C 
ATOM      7  C   UNL d   1      29.579 -12.298  -2.171  0.00  0.00     0.073 C 
BRANCH   6   8
ATOM      8  C   UNL d   1      27.819 -13.900  -3.111  0.00  0.00    -0.008 A 
ATOM      9  C   UNL d   1      28.430 -14.652  -4.120  0.00  0.00     0.013 A 
ATOM     10  C   UNL d   1      27.640 -15.201  -5.139  0.00  0.00     0.004 A 
ATOM     11  C   UNL d   1      26.252 -15.020  -5.134  0.00  0.00     0.036 A 
ATOM     12  C   UNL d   1      25.669 -14.249  -4.137  0.00  0.00     0.066 A 
ATOM     13  C   UNL d   1      26.449 -13.644  -3.168  0.00  0.00     0.050 A 
BRANCH  12  14
ATOM     14  O   UNL d   1      24.324 -14.077  -4.024  0.00  0.00    -0.361 OA
ATOM     15  H   UNL d   1      23.898 -14.262  -4.875  0.00  0.00     0.217 HD
ENDBRANCH  12  14
ENDBRANCH   6   8
ENDBRANCH   1   5
BRANCH   2  16
ATOM     16  C   UNL d   1      26.877 -17.253  -0.149  0.00  0.00     0.280 C 
BRANCH  16  17
ATOM     17  O   UNL d   1      25.618 -16.594   0.049  0.00  0.00    -0.342 OA
BRANCH  17  18
ATOM     18  C   UNL d   1      24.490 -17.294  -0.272  0.00  0.00     0.069 A 
ATOM     19  C   UNL d   1      24.392 -18.682  -0.214  0.00  0.00     0.038 A 
ATOM     20  C   UNL d   1      23.173 -19.311  -0.513  0.00  0.00     0.026 A 
ATOM     21  C   UNL d   1      22.056 -18.546  -0.854  0.00  0.00     0.034 A 
ATOM     22 CL   UNL d   1      20.578 -19.324  -1.269  0.00  0.00    -0.084 Cl
ATOM     23  C   UNL d   1      22.134 -17.157  -0.861  0.00  0.00     0.026 A 
ATOM     24  C   UNL d   1      23.349 -16.534  -0.555  0.00  0.00     0.038 A 
ENDBRANCH  17  18
ENDBRANCH  16  17
ENDBRANCH   2  16
TORSDOF 6
ENDMDL
MODEL 7
REMARK VINA RESULT:    -6.492      4.645      7.737
REMARK INTER + INTRA:          -9.755
REMARK INTER:                  -8.281
REMARK INTRA:                  -1.473
REMARK CONF_INDEPENDENT:        1.790
REMARK UNBOUND:                -1.473
REMARK  6 active torsions:
REMARK  status: ('A' for Active; 'I' for Inactive)
REMARK    1  A    between atoms: C_2  and  C_16 
REMARK    2  A    between atoms: N_3  and  N_4 
REMARK       I    between atoms: N_4  and  C_5 
REMARK    3  A    between atoms: C_5  and  C_7 
REMARK    4  A    between atoms: C_7  and  O_8 
REMARK    5  A    between atoms: O_8  and  C_9 
REMARK    6  A    between atoms: C_20  and  O_21 
ROOT
ATOM      1  N   UNL d   1      26.755 -14.167   0.046  0.00  0.00    -0.245 N 
ATOM      2  C   UNL d   1      28.032 -14.690   0.253  0.00  0.00     0.261 C 
ATOM      3  O   UNL d   1      28.784 -15.022  -0.667  0.00  0.00    -0.269 OA
ATOM      4  H   UNL d   1      26.155 -13.971   0.836  0.00  0.00     0.192 HD
ENDROOT
BRANCH   1   5
ATOM      5  N   UNL d   1      26.285 -13.954  -1.240  0.00  0.00    -0.176 NA
ATOM      6  C   UNL d   1      25.593 -14.867  -1.870  0.00  0.00     0.061 C 
ATOM      7  C   UNL d   1      25.152 -14.580  -3.300  0.00  0.00     0.073 C 
BRANCH   6   8
ATOM      8  C   UNL d   1      25.162 -16.169  -1.296  0.00  0.00    -0.008 A 
ATOM      9  C   UNL d   1      26.074 -17.100  -0.787  0.00  0.00     0.013 A 
ATOM     10  C   UNL d   1      25.594 -18.242  -0.133  0.00  0.00     0.004 A 
ATOM     11  C   UNL d   1      24.218 -18.438   0.033  0.00  0.00     0.036 A 
ATOM     12  C   UNL d   1      23.329 -17.514  -0.502  0.00  0.00     0.066 A 
ATOM     13  C   UNL d   1      23.792 -16.421  -1.211  0.00  0.00     0.050 A 
BRANCH  12  14
ATOM     14  O   UNL d   1      21.981 -17.597  -0.331  0.00  0.00    -0.361 OA
ATOM     15  H   UNL d   1      21.780 -17.757   0.605  0.00  0.00     0.217 HD
ENDBRANCH  12  14
ENDBRANCH   6   8
ENDBRANCH   1   5
BRANCH   2  16
ATOM     16  C   UNL d   1      28.443 -14.820   1.743  0.00  0.00     0.280 C 
BRANCH  16  17
ATOM     17  O   UNL d   1      27.448 -14.184   2.557  0.00  0.00    -0.342 OA
BRANCH  17  18
ATOM     18  C   UNL d   1      27.765 -13.958   3.867  0.00  0.00     0.069 A 
ATOM     19  C   UNL d   1      28.179 -14.951   4.751  0.00  0.00     0.038 A 
ATOM     20  C   UNL d   1      28.534 -14.615   6.066  0.00  0.00     0.026 A 
ATOM     21  C   UNL d   1      28.487 -13.284   6.485  0.00  0.00     0.034 A 
ATOM     22 CL   UNL d   1      28.875 -12.883   8.113  0.00  0.00    -0.084 Cl
ATOM     23  C   UNL d   1      28.126 -12.281   5.591  0.00  0.00     0.026 A 
ATOM     24  C   UNL d   1      27.779 -12.620   4.279  0.00  0.00     0.038 A 
ENDBRANCH  17  18
ENDBRANCH  16  17
ENDBRANCH   2  16
TORSDOF 6
ENDMDL
MODEL 8
REMARK VINA RESULT:    -5.752      4.212      6.082
REMARK INTER + INTRA:         -10.098
REMARK INTER:                  -7.542
REMARK INTRA:                  -2.556
REMARK CONF_INDEPENDENT:        1.790
REMARK UNBOUND:                -2.556
REMARK  6 active torsions:
REMARK  status: ('A' for Active; 'I' for Inactive)
REMARK    1  A    between atoms: C_2  and  C_16 
REMARK    2  A    between atoms: N_3  and  N_4 
REMARK       I    between atoms: N_4  and  C_5 
REMARK    3  A    between atoms: C_5  and  C_7 
REMARK    4  A    between atoms: C_7  and  O_8 
REMARK    5  A    between atoms: O_8  and  C_9 
REMARK    6  A    between atoms: C_20  and  O_21 
ROOT
ATOM      1  N   UNL d   1      26.713 -15.089  -4.895  0.00  0.00    -0.245 N 
ATOM      2  C   UNL d   1      26.558 -13.727  -4.635  0.00  0.00     0.261 C 
ATOM      3  O   UNL d   1      27.352 -12.869  -5.030  0.00  0.00    -0.269 OA
ATOM      4  H   UNL d   1      26.067 -15.756  -4.492  0.00  0.00     0.192 HD
ENDROOT
BRANCH   1   5
ATOM      5  N   UNL d   1      27.773 -15.541  -5.664  0.00  0.00    -0.176 NA
ATOM      6  C   UNL d   1      28.933 -15.816  -5.128  0.00  0.00     0.061 C 
ATOM      7  C   UNL d   1      30.066 -16.261  -6.045  0.00  0.00     0.073 C 
BRANCH   6   8
ATOM      8  C   UNL d   1      29.242 -15.767  -3.674  0.00  0.00    -0.008 A 
ATOM      9  C   UNL d   1      29.172 -14.581  -2.935  0.00  0.00     0.013 A 
ATOM     10  C   UNL d   1      29.338 -14.629  -1.545  0.00  0.00     0.004 A 
ATOM     11  C   UNL d   1      29.545 -15.854  -0.898  0.00  0.00     0.036 A 
ATOM     12  C   UNL d   1      29.636 -17.016  -1.653  0.00  0.00     0.066 A 
ATOM     13  C   UNL d   1      29.546 -16.968  -3.032  0.00  0.00     0.050 A 
BRANCH  12  14
ATOM     14  O   UNL d   1      29.774 -18.251  -1.099  0.00  0.00    -0.361 OA
ATOM     15  H   UNL d   1      29.686 -18.188  -0.135  0.00  0.00     0.217 HD
ENDBRANCH  12  14
ENDBRANCH   6   8
ENDBRANCH   1   5
BRANCH   2  16
ATOM     16  C   UNL d   1      25.296 -13.366  -3.809  0.00  0.00     0.280 C 
BRANCH  16  17
ATOM     17  O   UNL d   1      24.619 -14.576  -3.441  0.00  0.00    -0.342 OA
BRANCH  17  18
ATOM     18  C   UNL d   1      25.149 -15.299  -2.410  0.00  0.00     0.069 A 
ATOM     19  C   UNL d   1      25.913 -14.748  -1.384  0.00  0.00     0.038 A 
ATOM     20  C   UNL d   1      26.373 -15.562  -0.338  0.00  0.00     0.026 A 
ATOM     21  C   UNL d   1      26.053 -16.921  -0.317  0.00  0.00     0.034 A 
ATOM     22 CL   UNL d   1      26.661 -17.926   0.941  0.00  0.00    -0.084 Cl
ATOM     23  C   UNL d   1      25.245 -17.465  -1.310  0.00  0.00     0.026 A 
ATOM     24  C   UNL d   1      24.783 -16.648  -2.348  0.00  0.00     0.038 A 
ENDBRANCH  17  18
ENDBRANCH  16  17
ENDBRANCH   2  16
TORSDOF 6
ENDMDL
MODEL 9
REMARK VINA RESULT:    -5.723      4.527      7.906
REMARK INTER + INTRA:          -9.891
REMARK INTER:                  -7.513
REMARK INTRA:                  -2.377
REMARK CONF_INDEPENDENT:        1.790
REMARK UNBOUND:                -2.377
REMARK  6 active torsions:
REMARK  status: ('A' for Active; 'I' for Inactive)
REMARK    1  A    between atoms: C_2  and  C_16 
REMARK    2  A    between atoms: N_3  and  N_4 
REMARK       I    between atoms: N_4  and  C_5 
REMARK    3  A    between atoms: C_5  and  C_7 
REMARK    4  A    between atoms: C_7  and  O_8 
REMARK    5  A    between atoms: O_8  and  C_9 
REMARK    6  A    between atoms: C_20  and  O_21 
ROOT
ATOM      1  N   UNL d   1      25.839 -15.846  -3.627  0.00  0.00    -0.245 N 
ATOM      2  C   UNL d   1      25.531 -14.666  -4.305  0.00  0.00     0.261 C 
ATOM      3  O   UNL d   1      24.455 -14.075  -4.179  0.00  0.00    -0.269 OA
ATOM      4  H   UNL d   1      26.710 -16.325  -3.816  0.00  0.00     0.192 HD
ENDROOT
BRANCH   1   5
ATOM      5  N   UNL d   1      24.939 -16.393  -2.727  0.00  0.00    -0.176 NA
ATOM      6  C   UNL d   1      25.263 -16.592  -1.476  0.00  0.00     0.061 C 
ATOM      7  C   UNL d   1      24.236 -17.244  -0.558  0.00  0.00     0.073 C 
BRANCH   6   8
ATOM      8  C   UNL d   1      26.554 -16.200  -0.849  0.00  0.00    -0.008 A 
ATOM      9  C   UNL d   1      26.666 -15.093  -0.001  0.00  0.00     0.013 A 
ATOM     10  C   UNL d   1      27.875 -14.861   0.667  0.00  0.00     0.004 A 
ATOM     11  C   UNL d   1      28.952 -15.743   0.508  0.00  0.00     0.036 A 
ATOM     12  C   UNL d   1      28.827 -16.822  -0.358  0.00  0.00     0.066 A 
ATOM     13  C   UNL d   1      27.662 -17.016  -1.076  0.00  0.00     0.050 A 
BRANCH  12  14
ATOM     14  O   UNL d   1      29.801 -17.758  -0.520  0.00  0.00    -0.361 OA
ATOM     15  H   UNL d   1      29.974 -18.200   0.326  0.00  0.00     0.217 HD
ENDBRANCH  12  14
ENDBRANCH   6   8
ENDBRANCH   1   5
BRANCH   2  16
ATOM     16  C   UNL d   1      26.656 -14.144  -5.236  0.00  0.00     0.280 C 
BRANCH  16  17
ATOM     17  O   UNL d   1      27.517 -15.237  -5.584  0.00  0.00    -0.342 OA
BRANCH  17  18
ATOM     18  C   UNL d   1      28.597 -15.463  -4.778  0.00  0.00     0.069 A 
ATOM     19  C   UNL d   1      29.584 -16.410  -5.045  0.00  0.00     0.038 A 
ATOM     20  C   UNL d   1      30.685 -16.534  -4.185  0.00  0.00     0.026 A 
ATOM     21  C   UNL d   1      30.801 -15.701  -3.071  0.00  0.00     0.034 A 
ATOM     22 CL   UNL d   1      32.128 -15.891  -1.991  0.00  0.00    -0.084 Cl
ATOM     23  C   UNL d   1      29.847 -14.718  -2.830  0.00  0.00     0.026 A 
ATOM     24  C   UNL d   1      28.754 -14.592  -3.694  0.00  0.00     0.038 A 
ENDBRANCH  17  18
ENDBRANCH  16  17
ENDBRANCH   2  16
TORSDOF 6
ENDMDL
