MODEL 1
REMARK VINA RESULT:    -7.477      0.000      0.000
REMARK INTER + INTRA:         -13.827
REMARK INTER:                 -10.759
REMARK INTRA:                  -3.068
REMARK CONF_INDEPENDENT:        3.281
REMARK UNBOUND:                -3.068
REMARK  11 active torsions:
REMARK  status: ('A' for Active; 'I' for Inactive)
REMARK    1  A    between atoms: C_2  and  C_3 
REMARK       I    between atoms: C_2  and  N_20 
REMARK    2  A    between atoms: C_3  and  C_4 
REMARK    3  A    between atoms: C_4  and  C_5 
REMARK    4  A    between atoms: C_5  and  C_6 
REMARK    5  A    between atoms: C_6  and  C_7 
REMARK       I    between atoms: C_7  and  N_9 
REMARK    6  A    between atoms: N_9  and  N_10 
REMARK    7  A    between atoms: C_11  and  C_12 
REMARK    8  A    between atoms: C_18  and  O_19 
REMARK    9  A    between atoms: N_20  and  N_21 
REMARK   10  A    between atoms: C_22  and  C_23 
REMARK   11  A    between atoms: C_29  and  O_30 
ROOT
ATOM      1  C   UNL d   1      28.072 -12.898  -3.650  0.00  0.00     0.010 C 
ENDROOT
BRANCH   1   2
ATOM      2  C   UNL d   1      26.805 -12.098  -3.289  0.00  0.00     0.105 C 
BRANCH   2   3
ATOM      3  C   UNL d   1      25.771 -12.116  -4.411  0.00  0.00     0.237 C 
ATOM      4  O   UNL d   1      25.521 -11.125  -5.104  0.00  0.00    -0.272 OA
ATOM      5  N   UNL d   1      25.106 -13.304  -4.643  0.00  0.00    -0.247 N 
ATOM      6  H   UNL d   1      24.408 -13.296  -5.378  0.00  0.00     0.192 HD
BRANCH   5   7
ATOM      7  N   UNL d   1      25.326 -14.422  -3.899  0.00  0.00    -0.184 NA
ATOM      8  C   UNL d   1      24.598 -14.579  -2.837  0.00  0.00     0.153 C 
BRANCH   8   9
ATOM      9  C   UNL d   1      24.784 -15.758  -1.953  0.00  0.00     0.018 A 
ATOM     10  C   UNL d   1      23.670 -16.325  -1.319  0.00  0.00     0.039 A 
ATOM     11  C   UNL d   1      23.838 -17.468  -0.531  0.00  0.00     0.035 A 
ATOM     12 CL   UNL d   1      22.477 -18.201   0.229  0.00  0.00    -0.084 Cl
ATOM     13  C   UNL d   1      25.101 -18.038  -0.355  0.00  0.00     0.026 A 
ATOM     14  C   UNL d   1      26.212 -17.457  -0.965  0.00  0.00     0.039 A 
ATOM     15  C   UNL d   1      26.053 -16.317  -1.755  0.00  0.00     0.077 A 
BRANCH  15  16
ATOM     16  O   UNL d   1      27.155 -15.717  -2.292  0.00  0.00    -0.360 OA
ATOM     17  H   UNL d   1      27.032 -15.580  -3.244  0.00  0.00     0.217 HD
ENDBRANCH  15  16
ENDBRANCH   8   9
ENDBRANCH   5   7
ENDBRANCH   2   3
ENDBRANCH   1   2
BRANCH   1  18
ATOM     18  C   UNL d   1      28.660 -12.470  -4.998  0.00  0.00     0.010 C 
BRANCH  18  19
ATOM     19  C   UNL d   1      28.085 -13.247  -6.203  0.00  0.00     0.105 C 
BRANCH  19  20
ATOM     20  C   UNL d   1      28.291 -14.754  -6.023  0.00  0.00     0.237 C 
ATOM     21  O   UNL d   1      27.473 -15.433  -5.394  0.00  0.00    -0.272 OA
ATOM     22  N   UNL d   1      29.447 -15.282  -6.599  0.00  0.00    -0.247 N 
ATOM     23  H   UNL d   1      30.095 -14.714  -7.133  0.00  0.00     0.192 HD
BRANCH  22  24
ATOM     24  N   UNL d   1      29.657 -16.636  -6.478  0.00  0.00    -0.184 NA
ATOM     25  C   UNL d   1      30.756 -17.161  -6.918  0.00  0.00     0.153 C 
BRANCH  25  26
ATOM     26  C   UNL d   1      31.002 -18.629  -6.807  0.00  0.00     0.018 A 
ATOM     27  C   UNL d   1      31.451 -19.334  -7.934  0.00  0.00     0.039 A 
ATOM     28  C   UNL d   1      31.723 -20.705  -7.830  0.00  0.00     0.035 A 
ATOM     29 CL   UNL d   1      32.295 -21.577  -9.201  0.00  0.00    -0.084 Cl
ATOM     30  C   UNL d   1      31.542 -21.383  -6.624  0.00  0.00     0.026 A 
ATOM     31  C   UNL d   1      31.076 -20.689  -5.508  0.00  0.00     0.039 A 
ATOM     32  C   UNL d   1      30.800 -19.321  -5.605  0.00  0.00     0.077 A 
BRANCH  32  33
ATOM     33  O   UNL d   1      30.263 -18.677  -4.527  0.00  0.00    -0.360 OA
ATOM     34  H   UNL d   1      29.853 -17.843  -4.801  0.00  0.00     0.217 HD
ENDBRANCH  32  33
ENDBRANCH  25  26
ENDBRANCH  22  24
ENDBRANCH  19  20
ENDBRANCH  18  19
ENDBRANCH   1  18
TORSDOF 11
ENDMDL
MODEL 2
REMARK VINA RESULT:    -6.566      3.807      6.726
REMARK INTER + INTRA:         -14.243
REMARK INTER:                  -9.847
REMARK INTRA:                  -4.396
REMARK CONF_INDEPENDENT:        3.281
REMARK UNBOUND:                -4.396
REMARK  11 active torsions:
REMARK  status: ('A' for Active; 'I' for Inactive)
REMARK    1  A    between atoms: C_2  and  C_3 
REMARK       I    between atoms: C_2  and  N_20 
REMARK    2  A    between atoms: C_3  and  C_4 
REMARK    3  A    between atoms: C_4  and  C_5 
REMARK    4  A    between atoms: C_5  and  C_6 
REMARK    5  A    between atoms: C_6  and  C_7 
REMARK       I    between atoms: C_7  and  N_9 
REMARK    6  A    between atoms: N_9  and  N_10 
REMARK    7  A    between atoms: C_11  and  C_12 
REMARK    8  A    between atoms: C_18  and  O_19 
REMARK    9  A    between atoms: N_20  and  N_21 
REMARK   10  A    between atoms: C_22  and  C_23 
REMARK   11  A    between atoms: C_29  and  O_30 
ROOT
ATOM      1  C   UNL d   1      28.393 -14.396  -5.308  0.00  0.00     0.010 C 
ENDROOT
BRANCH   1   2
ATOM      2  C   UNL d   1      26.953 -14.747  -4.886  0.00  0.00     0.105 C 
BRANCH   2   3
ATOM      3  C   UNL d   1      26.085 -13.505  -4.703  0.00  0.00     0.237 C 
ATOM      4  O   UNL d   1      26.336 -12.430  -5.255  0.00  0.00    -0.272 OA
ATOM      5  N   UNL d   1      24.978 -13.618  -3.886  0.00  0.00    -0.247 N 
ATOM      6  H   UNL d   1      24.423 -12.780  -3.757  0.00  0.00     0.192 HD
BRANCH   5   7
ATOM      7  N   UNL d   1      24.664 -14.772  -3.237  0.00  0.00    -0.184 NA
ATOM      8  C   UNL d   1      25.178 -14.947  -2.059  0.00  0.00     0.153 C 
BRANCH   8   9
ATOM      9  C   UNL d   1      24.907 -16.187  -1.287  0.00  0.00     0.018 A 
ATOM     10  C   UNL d   1      23.657 -16.810  -1.403  0.00  0.00     0.039 A 
ATOM     11  C   UNL d   1      23.421 -18.007  -0.718  0.00  0.00     0.035 A 
ATOM     12 CL   UNL d   1      21.904 -18.806  -0.873  0.00  0.00    -0.084 Cl
ATOM     13  C   UNL d   1      24.407 -18.576   0.090  0.00  0.00     0.026 A 
ATOM     14  C   UNL d   1      25.642 -17.942   0.225  0.00  0.00     0.039 A 
ATOM     15  C   UNL d   1      25.886 -16.748  -0.456  0.00  0.00     0.077 A 
BRANCH  15  16
ATOM     16  O   UNL d   1      27.072 -16.099  -0.264  0.00  0.00    -0.360 OA
ATOM     17  H   UNL d   1      27.489 -15.905  -1.118  0.00  0.00     0.217 HD
ENDBRANCH  15  16
ENDBRANCH   8   9
ENDBRANCH   5   7
ENDBRANCH   2   3
ENDBRANCH   1   2
BRANCH   1  18
ATOM     18  C   UNL d   1      29.257 -15.645  -5.505  0.00  0.00     0.010 C 
BRANCH  18  19
ATOM     19  C   UNL d   1      30.094 -16.026  -4.263  0.00  0.00     0.105 C 
BRANCH  19  20
ATOM     20  C   UNL d   1      29.268 -15.858  -2.983  0.00  0.00     0.237 C 
ATOM     21  O   UNL d   1      28.396 -16.678  -2.682  0.00  0.00    -0.272 OA
ATOM     22  N   UNL d   1      29.565 -14.733  -2.212  0.00  0.00    -0.247 N 
ATOM     23  H   UNL d   1      30.301 -14.083  -2.462  0.00  0.00     0.192 HD
BRANCH  22  24
ATOM     24  N   UNL d   1      28.861 -14.558  -1.044  0.00  0.00    -0.184 NA
ATOM     25  C   UNL d   1      29.481 -14.212   0.038  0.00  0.00     0.153 C 
BRANCH  25  26
ATOM     26  C   UNL d   1      28.740 -14.027   1.321  0.00  0.00     0.018 A 
ATOM     27  C   UNL d   1      29.367 -14.367   2.529  0.00  0.00     0.039 A 
ATOM     28  C   UNL d   1      28.695 -14.160   3.740  0.00  0.00     0.035 A 
ATOM     29 CL   UNL d   1      29.463 -14.554   5.232  0.00  0.00    -0.084 Cl
ATOM     30  C   UNL d   1      27.405 -13.630   3.764  0.00  0.00     0.026 A 
ATOM     31  C   UNL d   1      26.771 -13.310   2.564  0.00  0.00     0.039 A 
ATOM     32  C   UNL d   1      27.435 -13.517   1.350  0.00  0.00     0.077 A 
BRANCH  32  33
ATOM     33  O   UNL d   1      26.767 -13.280   0.183  0.00  0.00    -0.360 OA
ATOM     34  H   UNL d   1      26.973 -13.966  -0.470  0.00  0.00     0.217 HD
ENDBRANCH  32  33
ENDBRANCH  25  26
ENDBRANCH  22  24
ENDBRANCH  19  20
ENDBRANCH  18  19
ENDBRANCH   1  18
TORSDOF 11
ENDMDL
MODEL 3
REMARK VINA RESULT:    -6.302      1.748      7.350
REMARK INTER + INTRA:         -13.908
REMARK INTER:                  -9.584
REMARK INTRA:                  -4.324
REMARK CONF_INDEPENDENT:        3.281
REMARK UNBOUND:                -4.324
REMARK  11 active torsions:
REMARK  status: ('A' for Active; 'I' for Inactive)
REMARK    1  A    between atoms: C_2  and  C_3 
REMARK       I    between atoms: C_2  and  N_20 
REMARK    2  A    between atoms: C_3  and  C_4 
REMARK    3  A    between atoms: C_4  and  C_5 
REMARK    4  A    between atoms: C_5  and  C_6 
REMARK    5  A    between atoms: C_6  and  C_7 
REMARK       I    between atoms: C_7  and  N_9 
REMARK    6  A    between atoms: N_9  and  N_10 
REMARK    7  A    between atoms: C_11  and  C_12 
REMARK    8  A    between atoms: C_18  and  O_19 
REMARK    9  A    between atoms: N_20  and  N_21 
REMARK   10  A    between atoms: C_22  and  C_23 
REMARK   11  A    between atoms: C_29  and  O_30 
ROOT
ATOM      1  C   UNL d   1      29.193 -12.959  -4.182  0.00  0.00     0.010 C 
ENDROOT
BRANCH   1   2
ATOM      2  C   UNL d   1      30.133 -14.130  -3.835  0.00  0.00     0.105 C 
BRANCH   2   3
ATOM      3  C   UNL d   1      29.582 -15.000  -2.709  0.00  0.00     0.237 C 
ATOM      4  O   UNL d   1      29.313 -14.551  -1.591  0.00  0.00    -0.272 OA
ATOM      5  N   UNL d   1      29.380 -16.339  -2.981  0.00  0.00    -0.247 N 
ATOM      6  H   UNL d   1      29.033 -16.908  -2.218  0.00  0.00     0.192 HD
BRANCH   5   7
ATOM      7  N   UNL d   1      29.678 -16.892  -4.188  0.00  0.00    -0.184 NA
ATOM      8  C   UNL d   1      30.356 -17.997  -4.182  0.00  0.00     0.153 C 
BRANCH   8   9
ATOM      9  C   UNL d   1      30.745 -18.660  -5.454  0.00  0.00     0.018 A 
ATOM     10  C   UNL d   1      31.266 -19.961  -5.420  0.00  0.00     0.039 A 
ATOM     11  C   UNL d   1      31.580 -20.604  -6.622  0.00  0.00     0.035 A 
ATOM     12 CL   UNL d   1      32.189 -22.215  -6.605  0.00  0.00    -0.084 Cl
ATOM     13  C   UNL d   1      31.398 -19.961  -7.848  0.00  0.00     0.026 A 
ATOM     14  C   UNL d   1      30.904 -18.657  -7.878  0.00  0.00     0.039 A 
ATOM     15  C   UNL d   1      30.586 -18.008  -6.684  0.00  0.00     0.077 A 
BRANCH  15  16
ATOM     16  O   UNL d   1      30.169 -16.709  -6.720  0.00  0.00    -0.360 OA
ATOM     17  H   UNL d   1      29.389 -16.592  -6.155  0.00  0.00     0.217 HD
ENDBRANCH  15  16
ENDBRANCH   8   9
ENDBRANCH   5   7
ENDBRANCH   2   3
ENDBRANCH   1   2
BRANCH   1  18
ATOM     18  C   UNL d   1      29.010 -12.795  -5.694  0.00  0.00     0.010 C 
BRANCH  18  19
ATOM     19  C   UNL d   1      27.647 -13.303  -6.215  0.00  0.00     0.105 C 
BRANCH  19  20
ATOM     20  C   UNL d   1      27.125 -14.446  -5.339  0.00  0.00     0.237 C 
ATOM     21  O   UNL d   1      27.638 -15.568  -5.393  0.00  0.00    -0.272 OA
ATOM     22  N   UNL d   1      26.050 -14.131  -4.506  0.00  0.00    -0.247 N 
ATOM     23  H   UNL d   1      25.658 -13.198  -4.457  0.00  0.00     0.192 HD
BRANCH  22  24
ATOM     24  N   UNL d   1      25.568 -15.125  -3.687  0.00  0.00    -0.184 NA
ATOM     25  C   UNL d   1      26.153 -15.373  -2.560  0.00  0.00     0.153 C 
BRANCH  25  26
ATOM     26  C   UNL d   1      25.655 -16.454  -1.659  0.00  0.00     0.018 A 
ATOM     27  C   UNL d   1      24.288 -16.769  -1.659  0.00  0.00     0.039 A 
ATOM     28  C   UNL d   1      23.816 -17.808  -0.846  0.00  0.00     0.035 A 
ATOM     29 CL   UNL d   1      22.142 -18.218  -0.853  0.00  0.00    -0.084 Cl
ATOM     30  C   UNL d   1      24.685 -18.529  -0.026  0.00  0.00     0.026 A 
ATOM     31  C   UNL d   1      26.041 -18.205  -0.009  0.00  0.00     0.039 A 
ATOM     32  C   UNL d   1      26.519 -17.166  -0.815  0.00  0.00     0.077 A 
BRANCH  32  33
ATOM     33  O   UNL d   1      27.833 -16.807  -0.721  0.00  0.00    -0.360 OA
ATOM     34  H   UNL d   1      27.914 -15.846  -0.622  0.00  0.00     0.217 HD
ENDBRANCH  32  33
ENDBRANCH  25  26
ENDBRANCH  22  24
ENDBRANCH  19  20
ENDBRANCH  18  19
ENDBRANCH   1  18
TORSDOF 11
ENDMDL
MODEL 4
REMARK VINA RESULT:    -6.302      1.876      2.516
REMARK INTER + INTRA:         -14.725
REMARK INTER:                  -9.583
REMARK INTRA:                  -5.142
REMARK CONF_INDEPENDENT:        3.281
REMARK UNBOUND:                -5.142
REMARK  11 active torsions:
REMARK  status: ('A' for Active; 'I' for Inactive)
REMARK    1  A    between atoms: C_2  and  C_3 
REMARK       I    between atoms: C_2  and  N_20 
REMARK    2  A    between atoms: C_3  and  C_4 
REMARK    3  A    between atoms: C_4  and  C_5 
REMARK    4  A    between atoms: C_5  and  C_6 
REMARK    5  A    between atoms: C_6  and  C_7 
REMARK       I    between atoms: C_7  and  N_9 
REMARK    6  A    between atoms: N_9  and  N_10 
REMARK    7  A    between atoms: C_11  and  C_12 
REMARK    8  A    between atoms: C_18  and  O_19 
REMARK    9  A    between atoms: N_20  and  N_21 
REMARK   10  A    between atoms: C_22  and  C_23 
REMARK   11  A    between atoms: C_29  and  O_30 
ROOT
ATOM      1  C   UNL d   1      26.280 -12.827  -2.367  0.00  0.00     0.010 C 
ENDROOT
BRANCH   1   2
ATOM      2  C   UNL d   1      27.729 -12.759  -1.848  0.00  0.00     0.105 C 
BRANCH   2   3
ATOM      3  C   UNL d   1      28.717 -13.420  -2.806  0.00  0.00     0.237 C 
ATOM      4  O   UNL d   1      29.363 -12.781  -3.642  0.00  0.00    -0.272 OA
ATOM      5  N   UNL d   1      28.879 -14.788  -2.708  0.00  0.00    -0.247 N 
ATOM      6  H   UNL d   1      29.523 -15.215  -3.364  0.00  0.00     0.192 HD
BRANCH   5   7
ATOM      7  N   UNL d   1      28.179 -15.544  -1.820  0.00  0.00    -0.184 NA
ATOM      8  C   UNL d   1      27.049 -16.037  -2.223  0.00  0.00     0.153 C 
BRANCH   8   9
ATOM      9  C   UNL d   1      26.208 -16.857  -1.314  0.00  0.00     0.018 A 
ATOM     10  C   UNL d   1      24.813 -16.723  -1.359  0.00  0.00     0.039 A 
ATOM     11  C   UNL d   1      24.020 -17.535  -0.541  0.00  0.00     0.035 A 
ATOM     12 CL   UNL d   1      22.303 -17.410  -0.607  0.00  0.00    -0.084 Cl
ATOM     13  C   UNL d   1      24.599 -18.459   0.329  0.00  0.00     0.026 A 
ATOM     14  C   UNL d   1      25.988 -18.573   0.392  0.00  0.00     0.039 A 
ATOM     15  C   UNL d   1      26.788 -17.768  -0.422  0.00  0.00     0.077 A 
BRANCH  15  16
ATOM     16  O   UNL d   1      28.146 -17.838  -0.303  0.00  0.00    -0.360 OA
ATOM     17  H   UNL d   1      28.524 -16.946  -0.260  0.00  0.00     0.217 HD
ENDBRANCH  15  16
ENDBRANCH   8   9
ENDBRANCH   5   7
ENDBRANCH   2   3
ENDBRANCH   1   2
BRANCH   1  18
ATOM     18  C   UNL d   1      26.097 -12.042  -3.671  0.00  0.00     0.010 C 
BRANCH  18  19
ATOM     19  C   UNL d   1      25.530 -12.889  -4.833  0.00  0.00     0.105 C 
BRANCH  19  20
ATOM     20  C   UNL d   1      26.169 -14.280  -4.849  0.00  0.00     0.237 C 
ATOM     21  O   UNL d   1      25.489 -15.291  -4.644  0.00  0.00    -0.272 OA
ATOM     22  N   UNL d   1      27.542 -14.315  -5.098  0.00  0.00    -0.247 N 
ATOM     23  H   UNL d   1      28.080 -13.478  -5.289  0.00  0.00     0.192 HD
BRANCH  22  24
ATOM     24  N   UNL d   1      28.150 -15.548  -5.143  0.00  0.00    -0.184 NA
ATOM     25  C   UNL d   1      29.345 -15.662  -5.627  0.00  0.00     0.153 C 
BRANCH  25  26
ATOM     26  C   UNL d   1      30.021 -16.991  -5.697  0.00  0.00     0.018 A 
ATOM     27  C   UNL d   1      30.486 -17.458  -6.934  0.00  0.00     0.039 A 
ATOM     28  C   UNL d   1      31.156 -18.687  -7.004  0.00  0.00     0.035 A 
ATOM     29 CL   UNL d   1      31.752 -19.261  -8.515  0.00  0.00    -0.084 Cl
ATOM     30  C   UNL d   1      31.359 -19.459  -5.860  0.00  0.00     0.026 A 
ATOM     31  C   UNL d   1      30.880 -19.007  -4.631  0.00  0.00     0.039 A 
ATOM     32  C   UNL d   1      30.206 -17.783  -4.555  0.00  0.00     0.077 A 
BRANCH  32  33
ATOM     33  O   UNL d   1      29.669 -17.398  -3.360  0.00  0.00    -0.360 OA
ATOM     34  H   UNL d   1      29.003 -16.707  -3.496  0.00  0.00     0.217 HD
ENDBRANCH  32  33
ENDBRANCH  25  26
ENDBRANCH  22  24
ENDBRANCH  19  20
ENDBRANCH  18  19
ENDBRANCH   1  18
TORSDOF 11
ENDMDL
MODEL 5
REMARK VINA RESULT:    -6.272      4.324      6.103
REMARK INTER + INTRA:         -14.186
REMARK INTER:                  -9.553
REMARK INTRA:                  -4.633
REMARK CONF_INDEPENDENT:        3.281
REMARK UNBOUND:                -4.633
REMARK  11 active torsions:
REMARK  status: ('A' for Active; 'I' for Inactive)
REMARK    1  A    between atoms: C_2  and  C_3 
REMARK       I    between atoms: C_2  and  N_20 
REMARK    2  A    between atoms: C_3  and  C_4 
REMARK    3  A    between atoms: C_4  and  C_5 
REMARK    4  A    between atoms: C_5  and  C_6 
REMARK    5  A    between atoms: C_6  and  C_7 
REMARK       I    between atoms: C_7  and  N_9 
REMARK    6  A    between atoms: N_9  and  N_10 
REMARK    7  A    between atoms: C_11  and  C_12 
REMARK    8  A    between atoms: C_18  and  O_19 
REMARK    9  A    between atoms: N_20  and  N_21 
REMARK   10  A    between atoms: C_22  and  C_23 
REMARK   11  A    between atoms: C_29  and  O_30 
ROOT
ATOM      1  C   UNL d   1      28.709 -12.761  -4.129  0.00  0.00     0.010 C 
ENDROOT
BRANCH   1   2
ATOM      2  C   UNL d   1      27.899 -11.641  -3.448  0.00  0.00     0.105 C 
BRANCH   2   3
ATOM      3  C   UNL d   1      26.446 -12.041  -3.211  0.00  0.00     0.237 C 
ATOM      4  O   UNL d   1      25.546 -11.793  -4.019  0.00  0.00    -0.272 OA
ATOM      5  N   UNL d   1      26.154 -12.712  -2.040  0.00  0.00    -0.247 N 
ATOM      6  H   UNL d   1      25.181 -12.953  -1.886  0.00  0.00     0.192 HD
BRANCH   5   7
ATOM      7  N   UNL d   1      27.101 -12.993  -1.104  0.00  0.00    -0.184 NA
ATOM      8  C   UNL d   1      26.685 -13.340   0.075  0.00  0.00     0.153 C 
BRANCH   8   9
ATOM      9  C   UNL d   1      27.649 -13.644   1.163  0.00  0.00     0.018 A 
ATOM     10  C   UNL d   1      27.240 -13.518   2.498  0.00  0.00     0.039 A 
ATOM     11  C   UNL d   1      28.131 -13.857   3.522  0.00  0.00     0.035 A 
ATOM     12 CL   UNL d   1      27.638 -13.743   5.168  0.00  0.00    -0.084 Cl
ATOM     13  C   UNL d   1      29.422 -14.301   3.231  0.00  0.00     0.026 A 
ATOM     14  C   UNL d   1      29.836 -14.401   1.903  0.00  0.00     0.039 A 
ATOM     15  C   UNL d   1      28.953 -14.066   0.875  0.00  0.00     0.077 A 
BRANCH  15  16
ATOM     16  O   UNL d   1      29.389 -14.101  -0.418  0.00  0.00    -0.360 OA
ATOM     17  H   UNL d   1      28.703 -14.477  -0.993  0.00  0.00     0.217 HD
ENDBRANCH  15  16
ENDBRANCH   8   9
ENDBRANCH   5   7
ENDBRANCH   2   3
ENDBRANCH   1   2
BRANCH   1  18
ATOM     18  C   UNL d   1      28.670 -12.654  -5.657  0.00  0.00     0.010 C 
BRANCH  18  19
ATOM     19  C   UNL d   1      27.733 -13.682  -6.330  0.00  0.00     0.105 C 
BRANCH  19  20
ATOM     20  C   UNL d   1      27.258 -14.726  -5.314  0.00  0.00     0.237 C 
ATOM     21  O   UNL d   1      27.976 -15.683  -5.009  0.00  0.00    -0.272 OA
ATOM     22  N   UNL d   1      25.984 -14.520  -4.782  0.00  0.00    -0.247 N 
ATOM     23  H   UNL d   1      25.419 -13.714  -5.025  0.00  0.00     0.192 HD
BRANCH  22  24
ATOM     24  N   UNL d   1      25.530 -15.422  -3.849  0.00  0.00    -0.184 NA
ATOM     25  C   UNL d   1      26.064 -15.457  -2.671  0.00  0.00     0.153 C 
BRANCH  25  26
ATOM     26  C   UNL d   1      25.596 -16.435  -1.645  0.00  0.00     0.018 A 
ATOM     27  C   UNL d   1      24.290 -16.941  -1.727  0.00  0.00     0.039 A 
ATOM     28  C   UNL d   1      23.854 -17.889  -0.792  0.00  0.00     0.035 A 
ATOM     29 CL   UNL d   1      22.260 -18.534  -0.895  0.00  0.00    -0.084 Cl
ATOM     30  C   UNL d   1      24.698 -18.331   0.228  0.00  0.00     0.026 A 
ATOM     31  C   UNL d   1      25.989 -17.815   0.325  0.00  0.00     0.039 A 
ATOM     32  C   UNL d   1      26.430 -16.865  -0.603  0.00  0.00     0.077 A 
BRANCH  32  33
ATOM     33  O   UNL d   1      27.666 -16.308  -0.442  0.00  0.00    -0.360 OA
ATOM     34  H   UNL d   1      27.650 -15.372  -0.693  0.00  0.00     0.217 HD
ENDBRANCH  32  33
ENDBRANCH  25  26
ENDBRANCH  22  24
ENDBRANCH  19  20
ENDBRANCH  18  19
ENDBRANCH   1  18
TORSDOF 11
ENDMDL
MODEL 6
REMARK VINA RESULT:    -5.829      2.074      6.638
REMARK INTER + INTRA:         -14.219
REMARK INTER:                  -9.110
REMARK INTRA:                  -5.109
REMARK CONF_INDEPENDENT:        3.281
REMARK UNBOUND:                -5.109
REMARK  11 active torsions:
REMARK  status: ('A' for Active; 'I' for Inactive)
REMARK    1  A    between atoms: C_2  and  C_3 
REMARK       I    between atoms: C_2  and  N_20 
REMARK    2  A    between atoms: C_3  and  C_4 
REMARK    3  A    between atoms: C_4  and  C_5 
REMARK    4  A    between atoms: C_5  and  C_6 
REMARK    5  A    between atoms: C_6  and  C_7 
REMARK       I    between atoms: C_7  and  N_9 
REMARK    6  A    between atoms: N_9  and  N_10 
REMARK    7  A    between atoms: C_11  and  C_12 
REMARK    8  A    between atoms: C_18  and  O_19 
REMARK    9  A    between atoms: N_20  and  N_21 
REMARK   10  A    between atoms: C_22  and  C_23 
REMARK   11  A    between atoms: C_29  and  O_30 
ROOT
ATOM      1  C   UNL d   1      28.309 -10.921  -5.874  0.00  0.00     0.010 C 
ENDROOT
BRANCH   1   2
ATOM      2  C   UNL d   1      28.910 -12.336  -5.987  0.00  0.00     0.105 C 
BRANCH   2   3
ATOM      3  C   UNL d   1      28.561 -13.008  -7.311  0.00  0.00     0.237 C 
ATOM      4  O   UNL d   1      28.315 -12.370  -8.339  0.00  0.00    -0.272 OA
ATOM      5  N   UNL d   1      28.529 -14.388  -7.334  0.00  0.00    -0.247 N 
ATOM      6  H   UNL d   1      28.274 -14.821  -8.215  0.00  0.00     0.192 HD
BRANCH   5   7
ATOM      7  N   UNL d   1      28.769 -15.143  -6.228  0.00  0.00    -0.184 NA
ATOM      8  C   UNL d   1      29.761 -15.978  -6.284  0.00  0.00     0.153 C 
BRANCH   8   9
ATOM      9  C   UNL d   1      30.083 -16.857  -5.131  0.00  0.00     0.018 A 
ATOM     10  C   UNL d   1      30.669 -18.108  -5.363  0.00  0.00     0.039 A 
ATOM     11  C   UNL d   1      31.022 -18.912  -4.274  0.00  0.00     0.035 A 
ATOM     12 CL   UNL d   1      31.775 -20.439  -4.536  0.00  0.00    -0.084 Cl
ATOM     13  C   UNL d   1      30.782 -18.491  -2.964  0.00  0.00     0.026 A 
ATOM     14  C   UNL d   1      30.174 -17.257  -2.736  0.00  0.00     0.039 A 
ATOM     15  C   UNL d   1      29.820 -16.448  -3.817  0.00  0.00     0.077 A 
BRANCH  15  16
ATOM     16  O   UNL d   1      29.164 -15.273  -3.585  0.00  0.00    -0.360 OA
ATOM     17  H   UNL d   1      28.350 -15.235  -4.112  0.00  0.00     0.217 HD
ENDBRANCH  15  16
ENDBRANCH   8   9
ENDBRANCH   5   7
ENDBRANCH   2   3
ENDBRANCH   1   2
BRANCH   1  18
ATOM     18  C   UNL d   1      26.927 -10.933  -5.213  0.00  0.00     0.010 C 
BRANCH  18  19
ATOM     19  C   UNL d   1      26.059 -12.150  -5.605  0.00  0.00     0.105 C 
BRANCH  19  20
ATOM     20  C   UNL d   1      25.818 -13.055  -4.392  0.00  0.00     0.237 C 
ATOM     21  O   UNL d   1      24.788 -12.948  -3.719  0.00  0.00    -0.272 OA
ATOM     22  N   UNL d   1      26.828 -13.976  -4.112  0.00  0.00    -0.247 N 
ATOM     23  H   UNL d   1      27.655 -14.067  -4.690  0.00  0.00     0.192 HD
BRANCH  22  24
ATOM     24  N   UNL d   1      26.639 -14.822  -3.044  0.00  0.00    -0.184 NA
ATOM     25  C   UNL d   1      25.670 -15.680  -3.064  0.00  0.00     0.153 C 
BRANCH  25  26
ATOM     26  C   UNL d   1      25.438 -16.602  -1.913  0.00  0.00     0.018 A 
ATOM     27  C   UNL d   1      24.133 -17.031  -1.631  0.00  0.00     0.039 A 
ATOM     28  C   UNL d   1      23.910 -17.926  -0.577  0.00  0.00     0.035 A 
ATOM     29 CL   UNL d   1      22.313 -18.477  -0.236  0.00  0.00    -0.084 Cl
ATOM     30  C   UNL d   1      24.967 -18.391   0.206  0.00  0.00     0.026 A 
ATOM     31  C   UNL d   1      26.264 -17.951  -0.059  0.00  0.00     0.039 A 
ATOM     32  C   UNL d   1      26.493 -17.053  -1.107  0.00  0.00     0.077 A 
BRANCH  32  33
ATOM     33  O   UNL d   1      27.755 -16.567  -1.296  0.00  0.00    -0.360 OA
ATOM     34  H   UNL d   1      27.753 -15.877  -1.976  0.00  0.00     0.217 HD
ENDBRANCH  32  33
ENDBRANCH  25  26
ENDBRANCH  22  24
ENDBRANCH  19  20
ENDBRANCH  18  19
ENDBRANCH   1  18
TORSDOF 11
ENDMDL
MODEL 7
REMARK VINA RESULT:    -5.644      4.156      6.840
REMARK INTER + INTRA:         -14.758
REMARK INTER:                  -8.925
REMARK INTRA:                  -5.833
REMARK CONF_INDEPENDENT:        3.281
REMARK UNBOUND:                -5.833
REMARK  11 active torsions:
REMARK  status: ('A' for Active; 'I' for Inactive)
REMARK    1  A    between atoms: C_2  and  C_3 
REMARK       I    between atoms: C_2  and  N_20 
REMARK    2  A    between atoms: C_3  and  C_4 
REMARK    3  A    between atoms: C_4  and  C_5 
REMARK    4  A    between atoms: C_5  and  C_6 
REMARK    5  A    between atoms: C_6  and  C_7 
REMARK       I    between atoms: C_7  and  N_9 
REMARK    6  A    between atoms: N_9  and  N_10 
REMARK    7  A    between atoms: C_11  and  C_12 
REMARK    8  A    between atoms: C_18  and  O_19 
REMARK    9  A    between atoms: N_20  and  N_21 
REMARK   10  A    between atoms: C_22  and  C_23 
REMARK   11  A    between atoms: C_29  and  O_30 
ROOT
ATOM      1  C   UNL d   1      27.521 -12.216  -5.853  0.00  0.00     0.010 C 
ENDROOT
BRANCH   1   2
ATOM      2  C   UNL d   1      28.456 -13.225  -5.159  0.00  0.00     0.105 C 
BRANCH   2   3
ATOM      3  C   UNL d   1      27.928 -14.654  -5.243  0.00  0.00     0.237 C 
ATOM      4  O   UNL d   1      27.660 -15.204  -6.316  0.00  0.00    -0.272 OA
ATOM      5  N   UNL d   1      27.755 -15.339  -4.057  0.00  0.00    -0.247 N 
ATOM      6  H   UNL d   1      27.384 -16.280  -4.126  0.00  0.00     0.192 HD
BRANCH   5   7
ATOM      7  N   UNL d   1      28.014 -14.776  -2.845  0.00  0.00    -0.184 NA
ATOM      8  C   UNL d   1      28.857 -15.391  -2.074  0.00  0.00     0.153 C 
BRANCH   8   9
ATOM      9  C   UNL d   1      29.182 -14.860  -0.725  0.00  0.00     0.018 A 
ATOM     10  C   UNL d   1      30.487 -14.993  -0.230  0.00  0.00     0.039 A 
ATOM     11  C   UNL d   1      30.806 -14.445   1.017  0.00  0.00     0.035 A 
ATOM     12 CL   UNL d   1      32.411 -14.567   1.628  0.00  0.00    -0.084 Cl
ATOM     13  C   UNL d   1      29.839 -13.785   1.778  0.00  0.00     0.026 A 
ATOM     14  C   UNL d   1      28.535 -13.677   1.296  0.00  0.00     0.039 A 
ATOM     15  C   UNL d   1      28.208 -14.219   0.052  0.00  0.00     0.077 A 
BRANCH  15  16
ATOM     16  O   UNL d   1      26.915 -14.168  -0.381  0.00  0.00    -0.360 OA
ATOM     17  H   UNL d   1      26.868 -14.392  -1.323  0.00  0.00     0.217 HD
ENDBRANCH  15  16
ENDBRANCH   8   9
ENDBRANCH   5   7
ENDBRANCH   2   3
ENDBRANCH   1   2
BRANCH   1  18
ATOM     18  C   UNL d   1      26.976 -11.168  -4.876  0.00  0.00     0.010 C 
BRANCH  18  19
ATOM     19  C   UNL d   1      25.565 -11.494  -4.336  0.00  0.00     0.105 C 
BRANCH  19  20
ATOM     20  C   UNL d   1      25.586 -12.788  -3.516  0.00  0.00     0.237 C 
ATOM     21  O   UNL d   1      26.113 -12.819  -2.399  0.00  0.00    -0.272 OA
ATOM     22  N   UNL d   1      24.990 -13.898  -4.116  0.00  0.00    -0.247 N 
ATOM     23  H   UNL d   1      24.541 -13.847  -5.023  0.00  0.00     0.192 HD
BRANCH  22  24
ATOM     24  N   UNL d   1      24.968 -15.073  -3.402  0.00  0.00    -0.184 NA
ATOM     25  C   UNL d   1      24.176 -15.196  -2.385  0.00  0.00     0.153 C 
BRANCH  25  26
ATOM     26  C   UNL d   1      24.143 -16.457  -1.588  0.00  0.00     0.018 A 
ATOM     27  C   UNL d   1      22.904 -17.026  -1.258  0.00  0.00     0.039 A 
ATOM     28  C   UNL d   1      22.863 -18.230  -0.544  0.00  0.00     0.035 A 
ATOM     29 CL   UNL d   1      21.347 -18.950  -0.151  0.00  0.00    -0.084 Cl
ATOM     30  C   UNL d   1      24.038 -18.869  -0.145  0.00  0.00     0.026 A 
ATOM     31  C   UNL d   1      25.271 -18.296  -0.454  0.00  0.00     0.039 A 
ATOM     32  C   UNL d   1      25.319 -17.091  -1.164  0.00  0.00     0.077 A 
BRANCH  32  33
ATOM     33  O   UNL d   1      26.531 -16.502  -1.382  0.00  0.00    -0.360 OA
ATOM     34  H   UNL d   1      26.420 -15.671  -1.869  0.00  0.00     0.217 HD
ENDBRANCH  32  33
ENDBRANCH  25  26
ENDBRANCH  22  24
ENDBRANCH  19  20
ENDBRANCH  18  19
ENDBRANCH   1  18
TORSDOF 11
ENDMDL
MODEL 8
REMARK VINA RESULT:    -5.189      3.668      7.085
REMARK INTER + INTRA:         -14.127
REMARK INTER:                  -8.470
REMARK INTRA:                  -5.657
REMARK CONF_INDEPENDENT:        3.281
REMARK UNBOUND:                -5.657
REMARK  11 active torsions:
REMARK  status: ('A' for Active; 'I' for Inactive)
REMARK    1  A    between atoms: C_2  and  C_3 
REMARK       I    between atoms: C_2  and  N_20 
REMARK    2  A    between atoms: C_3  and  C_4 
REMARK    3  A    between atoms: C_4  and  C_5 
REMARK    4  A    between atoms: C_5  and  C_6 
REMARK    5  A    between atoms: C_6  and  C_7 
REMARK       I    between atoms: C_7  and  N_9 
REMARK    6  A    between atoms: N_9  and  N_10 
REMARK    7  A    between atoms: C_11  and  C_12 
REMARK    8  A    between atoms: C_18  and  O_19 
REMARK    9  A    between atoms: N_20  and  N_21 
REMARK   10  A    between atoms: C_22  and  C_23 
REMARK   11  A    between atoms: C_29  and  O_30 
ROOT
ATOM      1  C   UNL d   1      31.095 -14.619  -5.895  0.00  0.00     0.010 C 
ENDROOT
BRANCH   1   2
ATOM      2  C   UNL d   1      31.706 -16.003  -5.598  0.00  0.00     0.105 C 
BRANCH   2   3
ATOM      3  C   UNL d   1      30.657 -17.111  -5.604  0.00  0.00     0.237 C 
ATOM      4  O   UNL d   1      30.352 -17.734  -6.625  0.00  0.00    -0.272 OA
ATOM      5  N   UNL d   1      30.043 -17.412  -4.404  0.00  0.00    -0.247 N 
ATOM      6  H   UNL d   1      29.333 -18.135  -4.427  0.00  0.00     0.192 HD
BRANCH   5   7
ATOM      7  N   UNL d   1      30.324 -16.744  -3.252  0.00  0.00    -0.184 NA
ATOM      8  C   UNL d   1      30.721 -17.451  -2.240  0.00  0.00     0.153 C 
BRANCH   8   9
ATOM      9  C   UNL d   1      31.029 -16.809  -0.936  0.00  0.00     0.018 A 
ATOM     10  C   UNL d   1      31.938 -17.424  -0.064  0.00  0.00     0.039 A 
ATOM     11  C   UNL d   1      32.269 -16.791   1.139  0.00  0.00     0.035 A 
ATOM     12 CL   UNL d   1      33.409 -17.513   2.208  0.00  0.00    -0.084 Cl
ATOM     13  C   UNL d   1      31.694 -15.567   1.487  0.00  0.00     0.026 A 
ATOM     14  C   UNL d   1      30.770 -14.969   0.630  0.00  0.00     0.039 A 
ATOM     15  C   UNL d   1      30.435 -15.593  -0.573  0.00  0.00     0.077 A 
BRANCH  15  16
ATOM     16  O   UNL d   1      29.479 -15.034  -1.372  0.00  0.00    -0.360 OA
ATOM     17  H   UNL d   1      28.977 -15.727  -1.828  0.00  0.00     0.217 HD
ENDBRANCH  15  16
ENDBRANCH   8   9
ENDBRANCH   5   7
ENDBRANCH   2   3
ENDBRANCH   1   2
BRANCH   1  18
ATOM     18  C   UNL d   1      29.811 -14.722  -6.726  0.00  0.00     0.010 C 
BRANCH  18  19
ATOM     19  C   UNL d   1      28.597 -14.012  -6.086  0.00  0.00     0.105 C 
BRANCH  19  20
ATOM     20  C   UNL d   1      27.841 -14.966  -5.157  0.00  0.00     0.237 C 
ATOM     21  O   UNL d   1      26.842 -15.574  -5.552  0.00  0.00    -0.272 OA
ATOM     22  N   UNL d   1      28.351 -15.084  -3.862  0.00  0.00    -0.247 N 
ATOM     23  H   UNL d   1      29.187 -14.597  -3.562  0.00  0.00     0.192 HD
BRANCH  22  24
ATOM     24  N   UNL d   1      27.713 -15.949  -3.004  0.00  0.00    -0.184 NA
ATOM     25  C   UNL d   1      26.588 -15.608  -2.462  0.00  0.00     0.153 C 
BRANCH  25  26
ATOM     26  C   UNL d   1      25.883 -16.525  -1.519  0.00  0.00     0.018 A 
ATOM     27  C   UNL d   1      24.491 -16.674  -1.620  0.00  0.00     0.039 A 
ATOM     28  C   UNL d   1      23.825 -17.562  -0.765  0.00  0.00     0.035 A 
ATOM     29 CL   UNL d   1      22.119 -17.769  -0.894  0.00  0.00    -0.084 Cl
ATOM     30  C   UNL d   1      24.524 -18.294   0.195  0.00  0.00     0.026 A 
ATOM     31  C   UNL d   1      25.905 -18.134   0.311  0.00  0.00     0.039 A 
ATOM     32  C   UNL d   1      26.576 -17.246  -0.536  0.00  0.00     0.077 A 
BRANCH  32  33
ATOM     33  O   UNL d   1      27.913 -17.038  -0.350  0.00  0.00    -0.360 OA
ATOM     34  H   UNL d   1      28.353 -16.890  -1.201  0.00  0.00     0.217 HD
ENDBRANCH  32  33
ENDBRANCH  25  26
ENDBRANCH  22  24
ENDBRANCH  19  20
ENDBRANCH  18  19
ENDBRANCH   1  18
TORSDOF 11
ENDMDL
MODEL 9
REMARK VINA RESULT:    -5.155      4.073      7.415
REMARK INTER + INTRA:         -13.916
REMARK INTER:                  -8.436
REMARK INTRA:                  -5.479
REMARK CONF_INDEPENDENT:        3.281
REMARK UNBOUND:                -5.479
REMARK  11 active torsions:
REMARK  status: ('A' for Active; 'I' for Inactive)
REMARK    1  A    between atoms: C_2  and  C_3 
REMARK       I    between atoms: C_2  and  N_20 
REMARK    2  A    between atoms: C_3  and  C_4 
REMARK    3  A    between atoms: C_4  and  C_5 
REMARK    4  A    between atoms: C_5  and  C_6 
REMARK    5  A    between atoms: C_6  and  C_7 
REMARK       I    between atoms: C_7  and  N_9 
REMARK    6  A    between atoms: N_9  and  N_10 
REMARK    7  A    between atoms: C_11  and  C_12 
REMARK    8  A    between atoms: C_18  and  O_19 
REMARK    9  A    between atoms: N_20  and  N_21 
REMARK   10  A    between atoms: C_22  and  C_23 
REMARK   11  A    between atoms: C_29  and  O_30 
ROOT
ATOM      1  C   UNL d   1      31.404 -17.016  -3.419  0.00  0.00     0.010 C 
ENDROOT
BRANCH   1   2
ATOM      2  C   UNL d   1      30.376 -17.828  -2.608  0.00  0.00     0.105 C 
BRANCH   2   3
ATOM      3  C   UNL d   1      30.642 -17.760  -1.107  0.00  0.00     0.237 C 
ATOM      4  O   UNL d   1      31.749 -17.994  -0.615  0.00  0.00    -0.272 OA
ATOM      5  N   UNL d   1      29.584 -17.417  -0.289  0.00  0.00    -0.247 N 
ATOM      6  H   UNL d   1      29.769 -17.396   0.707  0.00  0.00     0.192 HD
BRANCH   5   7
ATOM      7  N   UNL d   1      28.337 -17.168  -0.773  0.00  0.00    -0.184 NA
ATOM      8  C   UNL d   1      27.333 -17.457  -0.003  0.00  0.00     0.153 C 
BRANCH   8   9
ATOM      9  C   UNL d   1      25.937 -17.239  -0.459  0.00  0.00     0.018 A 
ATOM     10  C   UNL d   1      24.958 -18.195  -0.155  0.00  0.00     0.039 A 
ATOM     11  C   UNL d   1      23.632 -17.963  -0.537  0.00  0.00     0.035 A 
ATOM     12 CL   UNL d   1      22.408 -19.109  -0.144  0.00  0.00    -0.084 Cl
ATOM     13  C   UNL d   1      23.278 -16.804  -1.229  0.00  0.00     0.026 A 
ATOM     14  C   UNL d   1      24.257 -15.866  -1.554  0.00  0.00     0.039 A 
ATOM     15  C   UNL d   1      25.583 -16.088  -1.175  0.00  0.00     0.077 A 
BRANCH  15  16
ATOM     16  O   UNL d   1      26.545 -15.198  -1.556  0.00  0.00    -0.360 OA
ATOM     17  H   UNL d   1      27.420 -15.616  -1.522  0.00  0.00     0.217 HD
ENDBRANCH  15  16
ENDBRANCH   8   9
ENDBRANCH   5   7
ENDBRANCH   2   3
ENDBRANCH   1   2
BRANCH   1  18
ATOM     18  C   UNL d   1      30.859 -16.600  -4.790  0.00  0.00     0.010 C 
BRANCH  18  19
ATOM     19  C   UNL d   1      30.179 -15.213  -4.795  0.00  0.00     0.105 C 
BRANCH  19  20
ATOM     20  C   UNL d   1      29.247 -15.064  -3.589  0.00  0.00     0.237 C 
ATOM     21  O   UNL d   1      28.183 -15.688  -3.531  0.00  0.00    -0.272 OA
ATOM     22  N   UNL d   1      29.678 -14.186  -2.593  0.00  0.00    -0.247 N 
ATOM     23  H   UNL d   1      30.566 -13.701  -2.645  0.00  0.00     0.192 HD
BRANCH  22  24
ATOM     24  N   UNL d   1      28.880 -14.042  -1.482  0.00  0.00    -0.184 NA
ATOM     25  C   UNL d   1      29.412 -14.026  -0.303  0.00  0.00     0.153 C 
BRANCH  25  26
ATOM     26  C   UNL d   1      28.565 -13.882   0.918  0.00  0.00     0.018 A 
ATOM     27  C   UNL d   1      29.032 -14.389   2.140  0.00  0.00     0.039 A 
ATOM     28  C   UNL d   1      28.262 -14.224   3.298  0.00  0.00     0.035 A 
ATOM     29 CL   UNL d   1      28.835 -14.825   4.809  0.00  0.00    -0.084 Cl
ATOM     30  C   UNL d   1      27.030 -13.570   3.255  0.00  0.00     0.026 A 
ATOM     31  C   UNL d   1      26.554 -13.082   2.039  0.00  0.00     0.039 A 
ATOM     32  C   UNL d   1      27.315 -13.247   0.876  0.00  0.00     0.077 A 
BRANCH  32  33
ATOM     33  O   UNL d   1      26.794 -12.839  -0.318  0.00  0.00    -0.360 OA
ATOM     34  H   UNL d   1      26.857 -13.550  -0.974  0.00  0.00     0.217 HD
ENDBRANCH  32  33
ENDBRANCH  25  26
ENDBRANCH  22  24
ENDBRANCH  19  20
ENDBRANCH  18  19
ENDBRANCH   1  18
TORSDOF 11
ENDMDL
