MODEL 1
REMARK VINA RESULT:    -7.985      0.000      0.000
REMARK INTER + INTRA:         -10.706
REMARK INTER:                  -9.476
REMARK INTRA:                  -1.230
REMARK CONF_INDEPENDENT:        1.492
REMARK UNBOUND:                -1.230
REMARK  5 active torsions:
REMARK  status: ('A' for Active; 'I' for Inactive)
REMARK    1  A    between atoms: C_2  and  O_3 
REMARK    2  A    between atoms: O_3  and  C_4 
REMARK    3  A    between atoms: C_7  and  C_8 
REMARK       I    between atoms: C_8  and  N_10 
REMARK    4  A    between atoms: N_10  and  C_11 
REMARK    5  A    between atoms: C_17  and  O_18 
ROOT
ATOM      1  C   UNL d   1      23.158 -18.598  -0.517  0.00  0.00     0.256 C 
ATOM      2  O   UNL d   1      23.159 -19.582  -1.266  0.00  0.00    -0.267 OA
ATOM      3  N   UNL d   1      22.093 -18.237   0.298  0.00  0.00    -0.321 N 
ATOM      4  H   UNL d   1      22.036 -17.311   0.688  0.00  0.00     0.169 HD
ENDROOT
BRANCH   1   5
ATOM      5  C   UNL d   1      24.367 -17.709  -0.546  0.00  0.00     0.032 A 
ATOM      6  C   UNL d   1      25.534 -18.169   0.089  0.00  0.00     0.020 A 
ATOM      7  C   UNL d   1      26.672 -17.358   0.186  0.00  0.00     0.038 A 
ATOM      8  C   UNL d   1      26.686 -16.094  -0.403  0.00  0.00     0.068 A 
ATOM      9  C   UNL d   1      25.548 -15.648  -1.074  0.00  0.00     0.038 A 
ATOM     10  C   UNL d   1      24.392 -16.443  -1.139  0.00  0.00     0.020 A 
BRANCH   8  11
ATOM     11  O   UNL d   1      27.878 -15.425  -0.362  0.00  0.00    -0.352 OA
BRANCH  11  12
ATOM     12  C   UNL d   1      28.297 -14.972   0.928  0.00  0.00     0.171 C 
ATOM     13  C   UNL d   1      27.385 -13.836   1.363  0.00  0.00     0.034 C 
ENDBRANCH  11  12
ENDBRANCH   8  11
ENDBRANCH   1   5
BRANCH   3  14
ATOM     14  C   UNL d   1      20.977 -19.076   0.537  0.00  0.00     0.068 A 
ATOM     15  C   UNL d   1      20.655 -19.422   1.853  0.00  0.00     0.033 A 
ATOM     16  C   UNL d   1      19.578 -20.280   2.119  0.00  0.00     0.009 A 
ATOM     17  C   UNL d   1      18.779 -20.763   1.074  0.00  0.00    -0.059 A 
ATOM     18  C   UNL d   1      17.549 -21.575   1.355  0.00  0.00     0.048 C 
ATOM     19  C   UNL d   1      19.125 -20.449  -0.246  0.00  0.00     0.045 A 
ATOM     20  C   UNL d   1      20.227 -19.632  -0.507  0.00  0.00     0.092 A 
BRANCH  20  21
ATOM     21  O   UNL d   1      20.648 -19.484  -1.802  0.00  0.00    -0.358 OA
ATOM     22  H   UNL d   1      21.291 -18.760  -1.838  0.00  0.00     0.217 HD
ENDBRANCH  20  21
ENDBRANCH   3  14
TORSDOF 5
ENDMDL
MODEL 2
REMARK VINA RESULT:    -7.886      0.305      1.114
REMARK INTER + INTRA:         -10.639
REMARK INTER:                  -9.377
REMARK INTRA:                  -1.262
REMARK CONF_INDEPENDENT:        1.492
REMARK UNBOUND:                -1.262
REMARK  5 active torsions:
REMARK  status: ('A' for Active; 'I' for Inactive)
REMARK    1  A    between atoms: C_2  and  O_3 
REMARK    2  A    between atoms: O_3  and  C_4 
REMARK    3  A    between atoms: C_7  and  C_8 
REMARK       I    between atoms: C_8  and  N_10 
REMARK    4  A    between atoms: N_10  and  C_11 
REMARK    5  A    between atoms: C_17  and  O_18 
ROOT
ATOM      1  C   UNL d   1      23.176 -18.596  -0.525  0.00  0.00     0.256 C 
ATOM      2  O   UNL d   1      23.202 -19.607  -1.237  0.00  0.00    -0.267 OA
ATOM      3  N   UNL d   1      22.090 -18.217   0.255  0.00  0.00    -0.321 N 
ATOM      4  H   UNL d   1      22.016 -17.278   0.609  0.00  0.00     0.169 HD
ENDROOT
BRANCH   1   5
ATOM      5  C   UNL d   1      24.376 -17.696  -0.562  0.00  0.00     0.032 A 
ATOM      6  C   UNL d   1      24.256 -16.470  -1.239  0.00  0.00     0.020 A 
ATOM      7  C   UNL d   1      25.358 -15.619  -1.397  0.00  0.00     0.038 A 
ATOM      8  C   UNL d   1      26.586 -15.950  -0.828  0.00  0.00     0.068 A 
ATOM      9  C   UNL d   1      26.703 -17.142  -0.114  0.00  0.00     0.038 A 
ATOM     10  C   UNL d   1      25.611 -18.016   0.012  0.00  0.00     0.020 A 
BRANCH   8  11
ATOM     11  O   UNL d   1      27.570 -15.004  -0.929  0.00  0.00    -0.352 OA
BRANCH  11  12
ATOM     12  C   UNL d   1      28.167 -14.590   0.302  0.00  0.00     0.171 C 
ATOM     13  C   UNL d   1      27.089 -13.977   1.182  0.00  0.00     0.034 C 
ENDBRANCH  11  12
ENDBRANCH   8  11
ENDBRANCH   1   5
BRANCH   3  14
ATOM     14  C   UNL d   1      20.978 -19.059   0.501  0.00  0.00     0.068 A 
ATOM     15  C   UNL d   1      20.657 -19.393   1.821  0.00  0.00     0.033 A 
ATOM     16  C   UNL d   1      19.583 -20.254   2.094  0.00  0.00     0.009 A 
ATOM     17  C   UNL d   1      18.788 -20.751   1.054  0.00  0.00    -0.059 A 
ATOM     18  C   UNL d   1      17.562 -21.566   1.343  0.00  0.00     0.048 C 
ATOM     19  C   UNL d   1      19.134 -20.450  -0.268  0.00  0.00     0.045 A 
ATOM     20  C   UNL d   1      20.232 -19.630  -0.538  0.00  0.00     0.092 A 
BRANCH  20  21
ATOM     21  O   UNL d   1      20.653 -19.494  -1.833  0.00  0.00    -0.358 OA
ATOM     22  H   UNL d   1      21.310 -18.782  -1.873  0.00  0.00     0.217 HD
ENDBRANCH  20  21
ENDBRANCH   3  14
TORSDOF 5
ENDMDL
MODEL 3
REMARK VINA RESULT:    -6.805      3.762      8.531
REMARK INTER + INTRA:          -9.087
REMARK INTER:                  -8.297
REMARK INTRA:                  -0.790
REMARK CONF_INDEPENDENT:        1.492
REMARK UNBOUND:                -0.790
REMARK  5 active torsions:
REMARK  status: ('A' for Active; 'I' for Inactive)
REMARK    1  A    between atoms: C_2  and  O_3 
REMARK    2  A    between atoms: O_3  and  C_4 
REMARK    3  A    between atoms: C_7  and  C_8 
REMARK       I    between atoms: C_8  and  N_10 
REMARK    4  A    between atoms: N_10  and  C_11 
REMARK    5  A    between atoms: C_17  and  O_18 
ROOT
ATOM      1  C   UNL d   1      25.543 -15.968  -2.358  0.00  0.00     0.256 C 
ATOM      2  O   UNL d   1      26.707 -16.354  -2.197  0.00  0.00    -0.267 OA
ATOM      3  N   UNL d   1      25.171 -14.949  -3.225  0.00  0.00    -0.321 N 
ATOM      4  H   UNL d   1      24.272 -14.505  -3.138  0.00  0.00     0.169 HD
ENDROOT
BRANCH   1   5
ATOM      5  C   UNL d   1      24.482 -16.607  -1.511  0.00  0.00     0.032 A 
ATOM      6  C   UNL d   1      24.759 -17.867  -0.953  0.00  0.00     0.020 A 
ATOM      7  C   UNL d   1      23.785 -18.569  -0.230  0.00  0.00     0.038 A 
ATOM      8  C   UNL d   1      22.535 -17.997  -0.000  0.00  0.00     0.068 A 
ATOM      9  C   UNL d   1      22.266 -16.727  -0.512  0.00  0.00     0.038 A 
ATOM     10  C   UNL d   1      23.227 -16.038  -1.270  0.00  0.00     0.020 A 
BRANCH   8  11
ATOM     11  O   UNL d   1      21.692 -18.700   0.816  0.00  0.00    -0.352 OA
BRANCH  11  12
ATOM     12  C   UNL d   1      20.894 -19.700   0.178  0.00  0.00     0.171 C 
ATOM     13  C   UNL d   1      20.048 -19.034  -0.895  0.00  0.00     0.034 C 
ENDBRANCH  11  12
ENDBRANCH   8  11
ENDBRANCH   1   5
BRANCH   3  14
ATOM     14  C   UNL d   1      26.045 -14.390  -4.189  0.00  0.00     0.068 A 
ATOM     15  C   UNL d   1      27.029 -15.200  -4.767  0.00  0.00     0.033 A 
ATOM     16  C   UNL d   1      27.932 -14.665  -5.697  0.00  0.00     0.009 A 
ATOM     17  C   UNL d   1      27.831 -13.327  -6.098  0.00  0.00    -0.059 A 
ATOM     18  C   UNL d   1      28.708 -12.780  -7.186  0.00  0.00     0.048 C 
ATOM     19  C   UNL d   1      26.873 -12.507  -5.491  0.00  0.00     0.045 A 
ATOM     20  C   UNL d   1      26.006 -13.032  -4.530  0.00  0.00     0.092 A 
BRANCH  20  21
ATOM     21  O   UNL d   1      25.201 -12.176  -3.828  0.00  0.00    -0.358 OA
ATOM     22  H   UNL d   1      24.535 -11.812  -4.430  0.00  0.00     0.217 HD
ENDBRANCH  20  21
ENDBRANCH   3  14
TORSDOF 5
ENDMDL
MODEL 4
REMARK VINA RESULT:    -6.565      2.144      8.337
REMARK INTER + INTRA:          -9.236
REMARK INTER:                  -8.057
REMARK INTRA:                  -1.179
REMARK CONF_INDEPENDENT:        1.492
REMARK UNBOUND:                -1.179
REMARK  5 active torsions:
REMARK  status: ('A' for Active; 'I' for Inactive)
REMARK    1  A    between atoms: C_2  and  O_3 
REMARK    2  A    between atoms: O_3  and  C_4 
REMARK    3  A    between atoms: C_7  and  C_8 
REMARK       I    between atoms: C_8  and  N_10 
REMARK    4  A    between atoms: N_10  and  C_11 
REMARK    5  A    between atoms: C_17  and  O_18 
ROOT
ATOM      1  C   UNL d   1      25.961 -17.336   0.230  0.00  0.00     0.256 C 
ATOM      2  O   UNL d   1      26.540 -18.139   0.970  0.00  0.00    -0.267 OA
ATOM      3  N   UNL d   1      26.512 -16.137  -0.205  0.00  0.00    -0.321 N 
ATOM      4  H   UNL d   1      25.926 -15.412  -0.586  0.00  0.00     0.169 HD
ENDROOT
BRANCH   1   5
ATOM      5  C   UNL d   1      24.550 -17.657  -0.166  0.00  0.00     0.032 A 
ATOM      6  C   UNL d   1      23.708 -16.589  -0.520  0.00  0.00     0.020 A 
ATOM      7  C   UNL d   1      22.354 -16.799  -0.811  0.00  0.00     0.038 A 
ATOM      8  C   UNL d   1      21.830 -18.091  -0.812  0.00  0.00     0.068 A 
ATOM      9  C   UNL d   1      22.668 -19.163  -0.506  0.00  0.00     0.038 A 
ATOM     10  C   UNL d   1      24.017 -18.951  -0.176  0.00  0.00     0.020 A 
BRANCH   8  11
ATOM     11  O   UNL d   1      20.531 -18.212  -1.225  0.00  0.00    -0.352 OA
BRANCH  11  12
ATOM     12  C   UNL d   1      19.883 -19.443  -0.894  0.00  0.00     0.171 C 
ATOM     13  C   UNL d   1      19.527 -19.422   0.584  0.00  0.00     0.034 C 
ENDBRANCH  11  12
ENDBRANCH   8  11
ENDBRANCH   1   5
BRANCH   3  14
ATOM     14  C   UNL d   1      27.878 -15.803  -0.039  0.00  0.00     0.068 A 
ATOM     15  C   UNL d   1      28.232 -14.465   0.167  0.00  0.00     0.033 A 
ATOM     16  C   UNL d   1      29.579 -14.098   0.299  0.00  0.00     0.009 A 
ATOM     17  C   UNL d   1      30.586 -15.072   0.277  0.00  0.00    -0.059 A 
ATOM     18  C   UNL d   1      32.017 -14.708   0.546  0.00  0.00     0.048 C 
ATOM     19  C   UNL d   1      30.236 -16.405   0.031  0.00  0.00     0.045 A 
ATOM     20  C   UNL d   1      28.897 -16.758  -0.147  0.00  0.00     0.092 A 
BRANCH  20  21
ATOM     21  O   UNL d   1      28.597 -18.029  -0.558  0.00  0.00    -0.358 OA
ATOM     22  H   UNL d   1      28.531 -18.600   0.222  0.00  0.00     0.217 HD
ENDBRANCH  20  21
ENDBRANCH   3  14
TORSDOF 5
ENDMDL
MODEL 5
REMARK VINA RESULT:    -6.534      3.758      8.631
REMARK INTER + INTRA:          -9.327
REMARK INTER:                  -8.026
REMARK INTRA:                  -1.301
REMARK CONF_INDEPENDENT:        1.492
REMARK UNBOUND:                -1.301
REMARK  5 active torsions:
REMARK  status: ('A' for Active; 'I' for Inactive)
REMARK    1  A    between atoms: C_2  and  O_3 
REMARK    2  A    between atoms: O_3  and  C_4 
REMARK    3  A    between atoms: C_7  and  C_8 
REMARK       I    between atoms: C_8  and  N_10 
REMARK    4  A    between atoms: N_10  and  C_11 
REMARK    5  A    between atoms: C_17  and  O_18 
ROOT
ATOM      1  C   UNL d   1      25.533 -15.576  -2.348  0.00  0.00     0.256 C 
ATOM      2  O   UNL d   1      26.749 -15.748  -2.201  0.00  0.00    -0.267 OA
ATOM      3  N   UNL d   1      24.974 -14.545  -3.093  0.00  0.00    -0.321 N 
ATOM      4  H   UNL d   1      24.005 -14.297  -2.978  0.00  0.00     0.169 HD
ENDROOT
BRANCH   1   5
ATOM      5  C   UNL d   1      24.613 -16.511  -1.621  0.00  0.00     0.032 A 
ATOM      6  C   UNL d   1      23.337 -16.035  -1.270  0.00  0.00     0.020 A 
ATOM      7  C   UNL d   1      22.457 -16.815  -0.509  0.00  0.00     0.038 A 
ATOM      8  C   UNL d   1      22.812 -18.111  -0.135  0.00  0.00     0.068 A 
ATOM      9  C   UNL d   1      24.058 -18.609  -0.517  0.00  0.00     0.038 A 
ATOM     10  C   UNL d   1      24.957 -17.815  -1.247  0.00  0.00     0.020 A 
BRANCH   8  11
ATOM     11  O   UNL d   1      21.845 -18.840   0.500  0.00  0.00    -0.352 OA
BRANCH  11  12
ATOM     12  C   UNL d   1      20.783 -19.324  -0.326  0.00  0.00     0.171 C 
ATOM     13  C   UNL d   1      19.785 -20.064   0.549  0.00  0.00     0.034 C 
ENDBRANCH  11  12
ENDBRANCH   8  11
ENDBRANCH   1   5
BRANCH   3  14
ATOM     14  C   UNL d   1      25.727 -13.709  -3.952  0.00  0.00     0.068 A 
ATOM     15  C   UNL d   1      25.535 -12.324  -3.894  0.00  0.00     0.033 A 
ATOM     16  C   UNL d   1      26.240 -11.472  -4.757  0.00  0.00     0.009 A 
ATOM     17  C   UNL d   1      27.182 -11.991  -5.654  0.00  0.00    -0.059 A 
ATOM     18  C   UNL d   1      28.034 -11.081  -6.490  0.00  0.00     0.048 C 
ATOM     19  C   UNL d   1      27.346 -13.379  -5.740  0.00  0.00     0.045 A 
ATOM     20  C   UNL d   1      26.607 -14.226  -4.911  0.00  0.00     0.092 A 
BRANCH  20  21
ATOM     21  O   UNL d   1      26.655 -15.576  -5.133  0.00  0.00    -0.358 OA
ATOM     22  H   UNL d   1      26.930 -16.016  -4.315  0.00  0.00     0.217 HD
ENDBRANCH  20  21
ENDBRANCH   3  14
TORSDOF 5
ENDMDL
MODEL 6
REMARK VINA RESULT:    -6.431      2.448      8.460
REMARK INTER + INTRA:          -9.214
REMARK INTER:                  -7.923
REMARK INTRA:                  -1.291
REMARK CONF_INDEPENDENT:        1.492
REMARK UNBOUND:                -1.291
REMARK  5 active torsions:
REMARK  status: ('A' for Active; 'I' for Inactive)
REMARK    1  A    between atoms: C_2  and  O_3 
REMARK    2  A    between atoms: O_3  and  C_4 
REMARK    3  A    between atoms: C_7  and  C_8 
REMARK       I    between atoms: C_8  and  N_10 
REMARK    4  A    between atoms: N_10  and  C_11 
REMARK    5  A    between atoms: C_17  and  O_18 
ROOT
ATOM      1  C   UNL d   1      26.054 -17.420  -0.177  0.00  0.00     0.256 C 
ATOM      2  O   UNL d   1      26.589 -17.980   0.788  0.00  0.00    -0.267 OA
ATOM      3  N   UNL d   1      26.708 -16.540  -1.031  0.00  0.00    -0.321 N 
ATOM      4  H   UNL d   1      26.185 -15.924  -1.631  0.00  0.00     0.169 HD
ENDROOT
BRANCH   1   5
ATOM      5  C   UNL d   1      24.590 -17.665  -0.391  0.00  0.00     0.032 A 
ATOM      6  C   UNL d   1      23.749 -16.546  -0.521  0.00  0.00     0.020 A 
ATOM      7  C   UNL d   1      22.361 -16.692  -0.629  0.00  0.00     0.038 A 
ATOM      8  C   UNL d   1      21.790 -17.963  -0.671  0.00  0.00     0.068 A 
ATOM      9  C   UNL d   1      22.620 -19.081  -0.589  0.00  0.00     0.038 A 
ATOM     10  C   UNL d   1      24.009 -18.937  -0.441  0.00  0.00     0.020 A 
BRANCH   8  11
ATOM     11  O   UNL d   1      20.442 -18.011  -0.900  0.00  0.00    -0.352 OA
BRANCH  11  12
ATOM     12  C   UNL d   1      19.853 -19.313  -0.891  0.00  0.00     0.171 C 
ATOM     13  C   UNL d   1      19.572 -19.709   0.550  0.00  0.00     0.034 C 
ENDBRANCH  11  12
ENDBRANCH   8  11
ENDBRANCH   1   5
BRANCH   3  14
ATOM     14  C   UNL d   1      28.113 -16.359  -1.034  0.00  0.00     0.068 A 
ATOM     15  C   UNL d   1      28.842 -16.712  -2.175  0.00  0.00     0.033 A 
ATOM     16  C   UNL d   1      30.238 -16.579  -2.195  0.00  0.00     0.009 A 
ATOM     17  C   UNL d   1      30.917 -16.043  -1.093  0.00  0.00    -0.059 A 
ATOM     18  C   UNL d   1      32.392 -15.775  -1.151  0.00  0.00     0.048 C 
ATOM     19  C   UNL d   1      30.193 -15.727   0.063  0.00  0.00     0.045 A 
ATOM     20  C   UNL d   1      28.808 -15.906   0.095  0.00  0.00     0.092 A 
BRANCH  20  21
ATOM     21  O   UNL d   1      28.149 -15.758   1.286  0.00  0.00    -0.358 OA
ATOM     22  H   UNL d   1      28.050 -16.630   1.696  0.00  0.00     0.217 HD
ENDBRANCH  20  21
ENDBRANCH   3  14
TORSDOF 5
ENDMDL
MODEL 7
REMARK VINA RESULT:    -6.382      1.893      8.325
REMARK INTER + INTRA:          -8.614
REMARK INTER:                  -7.873
REMARK INTRA:                  -0.741
REMARK CONF_INDEPENDENT:        1.492
REMARK UNBOUND:                -0.741
REMARK  5 active torsions:
REMARK  status: ('A' for Active; 'I' for Inactive)
REMARK    1  A    between atoms: C_2  and  O_3 
REMARK    2  A    between atoms: O_3  and  C_4 
REMARK    3  A    between atoms: C_7  and  C_8 
REMARK       I    between atoms: C_8  and  N_10 
REMARK    4  A    between atoms: N_10  and  C_11 
REMARK    5  A    between atoms: C_17  and  O_18 
ROOT
ATOM      1  C   UNL d   1      25.600 -16.279  -0.453  0.00  0.00     0.256 C 
ATOM      2  O   UNL d   1      25.637 -15.232  -1.110  0.00  0.00    -0.267 OA
ATOM      3  N   UNL d   1      26.660 -16.765   0.302  0.00  0.00    -0.321 N 
ATOM      4  H   UNL d   1      26.675 -17.725   0.606  0.00  0.00     0.169 HD
ENDROOT
BRANCH   1   5
ATOM      5  C   UNL d   1      24.346 -17.099  -0.533  0.00  0.00     0.032 A 
ATOM      6  C   UNL d   1      24.463 -18.491  -0.381  0.00  0.00     0.020 A 
ATOM      7  C   UNL d   1      23.353 -19.332  -0.537  0.00  0.00     0.038 A 
ATOM      8  C   UNL d   1      22.093 -18.791  -0.786  0.00  0.00     0.068 A 
ATOM      9  C   UNL d   1      21.959 -17.407  -0.893  0.00  0.00     0.038 A 
ATOM     10  C   UNL d   1      23.077 -16.564  -0.777  0.00  0.00     0.020 A 
BRANCH   8  11
ATOM     11  O   UNL d   1      21.050 -19.676  -0.802  0.00  0.00    -0.352 OA
BRANCH  11  12
ATOM     12  C   UNL d   1      19.742 -19.102  -0.736  0.00  0.00     0.171 C 
ATOM     13  C   UNL d   1      18.795 -20.122  -0.125  0.00  0.00     0.034 C 
ENDBRANCH  11  12
ENDBRANCH   8  11
ENDBRANCH   1   5
BRANCH   3  14
ATOM     14  C   UNL d   1      27.823 -16.009   0.589  0.00  0.00     0.068 A 
ATOM     15  C   UNL d   1      27.686 -14.750   1.184  0.00  0.00     0.033 A 
ATOM     16  C   UNL d   1      28.816 -13.962   1.446  0.00  0.00     0.009 A 
ATOM     17  C   UNL d   1      30.100 -14.444   1.163  0.00  0.00    -0.059 A 
ATOM     18  C   UNL d   1      31.321 -13.666   1.558  0.00  0.00     0.048 C 
ATOM     19  C   UNL d   1      30.235 -15.686   0.532  0.00  0.00     0.045 A 
ATOM     20  C   UNL d   1      29.103 -16.446   0.229  0.00  0.00     0.092 A 
BRANCH  20  21
ATOM     21  O   UNL d   1      29.248 -17.569  -0.541  0.00  0.00    -0.358 OA
ATOM     22  H   UNL d   1      29.168 -18.349   0.028  0.00  0.00     0.217 HD
ENDBRANCH  20  21
ENDBRANCH   3  14
TORSDOF 5
ENDMDL
MODEL 8
REMARK VINA RESULT:    -6.095      3.358      8.505
REMARK INTER + INTRA:          -8.312
REMARK INTER:                  -7.586
REMARK INTRA:                  -0.726
REMARK CONF_INDEPENDENT:        1.492
REMARK UNBOUND:                -0.726
REMARK  5 active torsions:
REMARK  status: ('A' for Active; 'I' for Inactive)
REMARK    1  A    between atoms: C_2  and  O_3 
REMARK    2  A    between atoms: O_3  and  C_4 
REMARK    3  A    between atoms: C_7  and  C_8 
REMARK       I    between atoms: C_8  and  N_10 
REMARK    4  A    between atoms: N_10  and  C_11 
REMARK    5  A    between atoms: C_17  and  O_18 
ROOT
ATOM      1  C   UNL d   1      26.015 -16.788  -1.577  0.00  0.00     0.256 C 
ATOM      2  O   UNL d   1      27.006 -17.293  -1.038  0.00  0.00    -0.267 OA
ATOM      3  N   UNL d   1      26.075 -15.816  -2.569  0.00  0.00    -0.321 N 
ATOM      4  H   UNL d   1      25.266 -15.261  -2.792  0.00  0.00     0.169 HD
ENDROOT
BRANCH   1   5
ATOM      5  C   UNL d   1      24.666 -17.213  -1.078  0.00  0.00     0.032 A 
ATOM      6  C   UNL d   1      24.533 -18.521  -0.579  0.00  0.00     0.020 A 
ATOM      7  C   UNL d   1      23.287 -19.022  -0.183  0.00  0.00     0.038 A 
ATOM      8  C   UNL d   1      22.158 -18.205  -0.221  0.00  0.00     0.068 A 
ATOM      9  C   UNL d   1      22.288 -16.891  -0.671  0.00  0.00     0.038 A 
ATOM     10  C   UNL d   1      23.529 -16.398  -1.106  0.00  0.00     0.020 A 
BRANCH   8  11
ATOM     11  O   UNL d   1      21.011 -18.739   0.299  0.00  0.00    -0.352 OA
BRANCH  11  12
ATOM     12  C   UNL d   1      20.261 -19.582  -0.580  0.00  0.00     0.171 C 
ATOM     13  C   UNL d   1      19.167 -20.268   0.222  0.00  0.00     0.034 C 
ENDBRANCH  11  12
ENDBRANCH   8  11
ENDBRANCH   1   5
BRANCH   3  14
ATOM     14  C   UNL d   1      27.273 -15.458  -3.234  0.00  0.00     0.068 A 
ATOM     15  C   UNL d   1      28.383 -15.069  -2.476  0.00  0.00     0.033 A 
ATOM     16  C   UNL d   1      29.571 -14.674  -3.108  0.00  0.00     0.009 A 
ATOM     17  C   UNL d   1      29.681 -14.710  -4.503  0.00  0.00    -0.059 A 
ATOM     18  C   UNL d   1      30.985 -14.414  -5.183  0.00  0.00     0.048 C 
ATOM     19  C   UNL d   1      28.559 -15.061  -5.264  0.00  0.00     0.045 A 
ATOM     20  C   UNL d   1      27.363 -15.408  -4.631  0.00  0.00     0.092 A 
BRANCH  20  21
ATOM     21  O   UNL d   1      26.237 -15.575  -5.392  0.00  0.00    -0.358 OA
ATOM     22  H   UNL d   1      26.123 -14.794  -5.954  0.00  0.00     0.217 HD
ENDBRANCH  20  21
ENDBRANCH   3  14
TORSDOF 5
ENDMDL
MODEL 9
REMARK VINA RESULT:    -5.845      4.306      8.939
REMARK INTER + INTRA:          -8.607
REMARK INTER:                  -7.336
REMARK INTRA:                  -1.271
REMARK CONF_INDEPENDENT:        1.492
REMARK UNBOUND:                -1.271
REMARK  5 active torsions:
REMARK  status: ('A' for Active; 'I' for Inactive)
REMARK    1  A    between atoms: C_2  and  O_3 
REMARK    2  A    between atoms: O_3  and  C_4 
REMARK    3  A    between atoms: C_7  and  C_8 
REMARK       I    between atoms: C_8  and  N_10 
REMARK    4  A    between atoms: N_10  and  C_11 
REMARK    5  A    between atoms: C_17  and  O_18 
ROOT
ATOM      1  C   UNL d   1      26.717 -15.321  -2.861  0.00  0.00     0.256 C 
ATOM      2  O   UNL d   1      27.952 -15.370  -2.816  0.00  0.00    -0.267 OA
ATOM      3  N   UNL d   1      25.999 -14.442  -3.661  0.00  0.00    -0.321 N 
ATOM      4  H   UNL d   1      25.025 -14.263  -3.481  0.00  0.00     0.169 HD
ENDROOT
BRANCH   1   5
ATOM      5  C   UNL d   1      25.958 -16.231  -1.942  0.00  0.00     0.032 A 
ATOM      6  C   UNL d   1      24.553 -16.174  -1.975  0.00  0.00     0.020 A 
ATOM      7  C   UNL d   1      23.777 -16.924  -1.083  0.00  0.00     0.038 A 
ATOM      8  C   UNL d   1      24.388 -17.792  -0.179  0.00  0.00     0.068 A 
ATOM      9  C   UNL d   1      25.779 -17.890  -0.169  0.00  0.00     0.038 A 
ATOM     10  C   UNL d   1      26.562 -17.110  -1.037  0.00  0.00     0.020 A 
BRANCH   8  11
ATOM     11  O   UNL d   1      23.548 -18.572   0.568  0.00  0.00    -0.352 OA
BRANCH  11  12
ATOM     12  C   UNL d   1      22.152 -18.297   0.429  0.00  0.00     0.171 C 
ATOM     13  C   UNL d   1      21.548 -19.323  -0.516  0.00  0.00     0.034 C 
ENDBRANCH  11  12
ENDBRANCH   8  11
ENDBRANCH   1   5
BRANCH   3  14
ATOM     14  C   UNL d   1      26.591 -13.659  -4.683  0.00  0.00     0.068 A 
ATOM     15  C   UNL d   1      26.188 -12.328  -4.840  0.00  0.00     0.033 A 
ATOM     16  C   UNL d   1      26.729 -11.539  -5.865  0.00  0.00     0.009 A 
ATOM     17  C   UNL d   1      27.716 -12.055  -6.714  0.00  0.00    -0.059 A 
ATOM     18  C   UNL d   1      28.395 -11.183  -7.729  0.00  0.00     0.048 C 
ATOM     19  C   UNL d   1      28.091 -13.398  -6.583  0.00  0.00     0.045 A 
ATOM     20  C   UNL d   1      27.514 -14.193  -5.590  0.00  0.00     0.092 A 
BRANCH  20  21
ATOM     21  O   UNL d   1      27.764 -15.539  -5.594  0.00  0.00    -0.358 OA
ATOM     22  H   UNL d   1      28.416 -15.736  -4.905  0.00  0.00     0.217 HD
ENDBRANCH  20  21
ENDBRANCH   3  14
TORSDOF 5
ENDMDL
