MODEL 1
REMARK VINA RESULT:   -22.700      0.000      0.000
REMARK INTER + INTRA:         -25.186
REMARK INTER:                 -24.490
REMARK INTRA:                  -0.696
REMARK CONF_INDEPENDENT:        1.790
REMARK UNBOUND:                -0.696
REMARK  6 active torsions:
REMARK  status: ('A' for Active; 'I' for Inactive)
REMARK       I    between atoms: N_1  and  C_2 
REMARK       I    between atoms: C_2  and  N_4 
REMARK    1  A    between atoms: N_4  and  C_5 
REMARK    2  A    between atoms: C_8  and  C_9 
REMARK    3  A    between atoms: C_9  and  N_10 
REMARK       I    between atoms: N_10  and  C_11 
REMARK    4  A    between atoms: C_11  and  C_13 
REMARK    5  A    between atoms: C_18  and  S_19 
REMARK    6  A    between atoms: S_19  and  C_20 
ROOT
ATOM      1  C   UNL d   1      25.485 -18.646  -0.536  0.00  0.00     0.161 C 
ENDROOT
BRANCH   1   2
ATOM      2  C   UNL d   1      25.736 -17.327  -1.236  0.00  0.00    -0.040 A 
ATOM      3  C   UNL d   1      26.462 -16.303  -0.598  0.00  0.00     0.011 A 
ATOM      4  C   UNL d   1      26.612 -15.037  -1.201  0.00  0.00     0.030 A 
ATOM      5  C   UNL d   1      26.044 -14.786  -2.452  0.00  0.00     0.036 A 
ATOM      6  C   UNL d   1      25.354 -15.805  -3.095  0.00  0.00     0.030 A 
ATOM      7  C   UNL d   1      25.220 -17.056  -2.509  0.00  0.00     0.011 A 
BRANCH   5   8
ATOM      8  N   UNL d   1      26.204 -13.544  -3.102  0.00  0.00    -0.309 N 
ATOM      9  C   UNL d   1      25.277 -13.050  -3.988  0.00  0.00     0.318 C 
ATOM     10  N   UNL d   1      25.630 -11.881  -4.573  0.00  0.00    -0.352 N 
ATOM     11  O   UNL d   1      24.188 -13.541  -4.265  0.00  0.00    -0.247 OA
ATOM     12  H   UNL d   1      24.948 -11.496  -5.216  0.00  0.00     0.160 HD
ATOM     13  H   UNL d   1      26.512 -11.415  -4.457  0.00  0.00     0.160 HD
ATOM     14  H   UNL d   1      26.942 -12.936  -2.789  0.00  0.00     0.170 HD
ENDBRANCH   5   8
ENDBRANCH   1   2
BRANCH   1  15
ATOM     15  N   UNL d   1      24.108 -19.111  -0.630  0.00  0.00    -0.353 N 
ATOM     16  C   UNL d   1      23.150 -18.745   0.278  0.00  0.00     0.254 C 
ATOM     17  O   UNL d   1      23.388 -18.206   1.354  0.00  0.00    -0.268 OA
ATOM     18  H   UNL d   1      23.787 -19.499  -1.504  0.00  0.00     0.163 HD
BRANCH  16  19
ATOM     19  C   UNL d   1      21.765 -19.077  -0.099  0.00  0.00     0.067 A 
ATOM     20  C   UNL d   1      21.368 -20.386   0.229  0.00  0.00     0.021 A 
ATOM     21  C   UNL d   1      20.076 -20.815  -0.032  0.00  0.00     0.020 A 
ATOM     22  C   UNL d   1      19.214 -19.915  -0.616  0.00  0.00     0.118 A 
ATOM     23  N   UNL d   1      19.569 -18.651  -0.944  0.00  0.00    -0.253 NA
ATOM     24  C   UNL d   1      20.843 -18.209  -0.690  0.00  0.00     0.113 A 
BRANCH  24  25
ATOM     25  S   UNL d   1      21.012 -16.530  -1.270  0.00  0.00    -0.040 SA
BRANCH  25  26
ATOM     26  C   UNL d   1      22.741 -16.100  -1.043  0.00  0.00     0.422 C 
ATOM     27  F   UNL d   1      23.081 -15.070  -1.859  0.00  0.00    -0.202 F 
ATOM     28  F   UNL d   1      22.947 -15.639   0.221  0.00  0.00    -0.202 F 
ENDBRANCH  25  26
ENDBRANCH  24  25
ENDBRANCH  16  19
ENDBRANCH   1  15
TORSDOF 6
ENDMDL
MODEL 2
REMARK VINA RESULT:   -20.529      1.642      2.006
REMARK INTER + INTRA:         -22.927
REMARK INTER:                 -22.319
REMARK INTRA:                  -0.609
REMARK CONF_INDEPENDENT:        1.790
REMARK UNBOUND:                -0.609
REMARK  6 active torsions:
REMARK  status: ('A' for Active; 'I' for Inactive)
REMARK       I    between atoms: N_1  and  C_2 
REMARK       I    between atoms: C_2  and  N_4 
REMARK    1  A    between atoms: N_4  and  C_5 
REMARK    2  A    between atoms: C_8  and  C_9 
REMARK    3  A    between atoms: C_9  and  N_10 
REMARK       I    between atoms: N_10  and  C_11 
REMARK    4  A    between atoms: C_11  and  C_13 
REMARK    5  A    between atoms: C_18  and  S_19 
REMARK    6  A    between atoms: S_19  and  C_20 
ROOT
ATOM      1  C   UNL d   1      25.600 -18.938  -0.361  0.00  0.00     0.161 C 
ENDROOT
BRANCH   1   2
ATOM      2  C   UNL d   1      25.844 -17.481  -0.695  0.00  0.00    -0.040 A 
ATOM      3  C   UNL d   1      25.667 -17.008  -2.009  0.00  0.00     0.011 A 
ATOM      4  C   UNL d   1      25.990 -15.679  -2.350  0.00  0.00     0.030 A 
ATOM      5  C   UNL d   1      26.486 -14.807  -1.377  0.00  0.00     0.036 A 
ATOM      6  C   UNL d   1      26.632 -15.266  -0.075  0.00  0.00     0.030 A 
ATOM      7  C   UNL d   1      26.299 -16.570   0.264  0.00  0.00     0.011 A 
BRANCH   5   8
ATOM      8  N   UNL d   1      26.785 -13.461  -1.673  0.00  0.00    -0.309 N 
ATOM      9  C   UNL d   1      27.662 -12.717  -0.920  0.00  0.00     0.318 C 
ATOM     10  N   UNL d   1      27.771 -11.423  -1.304  0.00  0.00    -0.352 N 
ATOM     11  O   UNL d   1      28.348 -13.113   0.016  0.00  0.00    -0.247 OA
ATOM     12  H   UNL d   1      28.427 -10.867  -0.768  0.00  0.00     0.160 HD
ATOM     13  H   UNL d   1      27.226 -10.981  -2.022  0.00  0.00     0.160 HD
ATOM     14  H   UNL d   1      26.465 -13.084  -2.550  0.00  0.00     0.170 HD
ENDBRANCH   5   8
ENDBRANCH   1   2
BRANCH   1  15
ATOM     15  N   UNL d   1      24.202 -19.338  -0.448  0.00  0.00    -0.353 N 
ATOM     16  C   UNL d   1      23.224 -18.739   0.301  0.00  0.00     0.254 C 
ATOM     17  O   UNL d   1      23.439 -18.000   1.255  0.00  0.00    -0.268 OA
ATOM     18  H   UNL d   1      23.903 -19.883  -1.242  0.00  0.00     0.163 HD
BRANCH  16  19
ATOM     19  C   UNL d   1      21.842 -19.067  -0.091  0.00  0.00     0.067 A 
ATOM     20  C   UNL d   1      21.439 -20.376   0.233  0.00  0.00     0.021 A 
ATOM     21  C   UNL d   1      20.148 -20.802  -0.040  0.00  0.00     0.020 A 
ATOM     22  C   UNL d   1      19.294 -19.901  -0.633  0.00  0.00     0.118 A 
ATOM     23  N   UNL d   1      19.655 -18.637  -0.957  0.00  0.00    -0.253 NA
ATOM     24  C   UNL d   1      20.927 -18.198  -0.690  0.00  0.00     0.113 A 
BRANCH  24  25
ATOM     25  S   UNL d   1      21.106 -16.519  -1.269  0.00  0.00    -0.040 SA
BRANCH  25  26
ATOM     26  C   UNL d   1      22.870 -16.179  -1.263  0.00  0.00     0.422 C 
ATOM     27  F   UNL d   1      23.131 -15.037  -1.948  0.00  0.00    -0.202 F 
ATOM     28  F   UNL d   1      23.296 -15.940   0.008  0.00  0.00    -0.202 F 
ENDBRANCH  25  26
ENDBRANCH  24  25
ENDBRANCH  16  19
ENDBRANCH   1  15
TORSDOF 6
ENDMDL
