MODEL 1
REMARK VINA RESULT:    -6.618      0.000      0.000
REMARK INTER + INTRA:         -16.098
REMARK INTER:                 -11.391
REMARK INTRA:                  -4.707
REMARK CONF_INDEPENDENT:        4.773
REMARK UNBOUND:                -4.707
REMARK  16 active torsions:
REMARK  status: ('A' for Active; 'I' for Inactive)
REMARK    1  A    between atoms: N_5  and  C_6 
REMARK    2  A    between atoms: N_5  and  C_9 
REMARK    3  A    between atoms: C_6  and  C_7 
REMARK    4  A    between atoms: C_7  and  O_8 
REMARK    5  A    between atoms: C_9  and  C_10 
REMARK    6  A    between atoms: C_10  and  O_11 
REMARK    7  A    between atoms: C_15  and  C_16 
REMARK    8  A    between atoms: C_15  and  C_25 
REMARK    9  A    between atoms: C_19  and  N_20 
REMARK   10  A    between atoms: C_28  and  N_29 
REMARK   11  A    between atoms: N_29  and  C_30 
REMARK   12  A    between atoms: N_29  and  C_33 
REMARK   13  A    between atoms: C_30  and  C_31 
REMARK   14  A    between atoms: C_31  and  O_32 
REMARK   15  A    between atoms: C_33  and  C_34 
REMARK   16  A    between atoms: C_34  and  O_35 
ROOT
ATOM      1  C   UNL d   1      25.530 -15.643  -3.954  0.00  0.00     0.049 C 
ATOM      2  C   UNL d   1      26.417 -14.542  -3.487  0.00  0.00    -0.049 C 
ATOM      3  C   UNL d   1      26.760 -13.645  -4.426  0.00  0.00     0.037 C 
ATOM      4  C   UNL d   1      27.670 -12.503  -4.130  0.00  0.00     0.030 C 
ATOM      5  N   UNL d   1      27.697 -11.445  -4.895  0.00  0.00    -0.377 N 
ATOM      6  C   UNL d   1      28.504 -12.751  -2.923  0.00  0.00     0.030 C 
ATOM      7  C   UNL d   1      28.160 -13.632  -1.997  0.00  0.00     0.015 C 
ATOM      8  C   UNL d   1      26.940 -14.405  -2.112  0.00  0.00    -0.018 C 
ATOM      9  C   UNL d   1      26.453 -14.947  -0.964  0.00  0.00    -0.004 C 
ENDROOT
BRANCH   9  10
ATOM     10  C   UNL d   1      25.395 -15.982  -0.962  0.00  0.00    -0.024 C 
ATOM     11  C   UNL d   1      25.666 -17.295  -0.572  0.00  0.00     0.015 C 
ATOM     12  C   UNL d   1      24.636 -18.234  -0.568  0.00  0.00     0.037 C 
ATOM     13  C   UNL d   1      23.322 -17.820  -0.828  0.00  0.00     0.102 C 
ATOM     14  C   UNL d   1      23.052 -16.514  -1.244  0.00  0.00     0.037 C 
ATOM     15  C   UNL d   1      24.115 -15.638  -1.420  0.00  0.00     0.015 C 
BRANCH  13  16
ATOM     16  N   UNL d   1      22.203 -18.743  -0.634  0.00  0.00    -0.116 N 
ATOM     17  O   UNL d   1      21.764 -19.324  -1.647  0.00  0.00    -0.532 OA
ATOM     18  O   UNL d   1      21.784 -18.910   0.511  0.00  0.00    -0.532 OA
ENDBRANCH  13  16
ENDBRANCH   9  10
BRANCH   9  19
ATOM     19  C   UNL d   1      27.034 -14.562   0.352  0.00  0.00    -0.018 C 
ATOM     20  C   UNL d   1      26.332 -13.600   1.028  0.00  0.00     0.015 C 
ATOM     21  C   UNL d   1      26.911 -13.008   2.131  0.00  0.00     0.030 C 
ATOM     22  C   UNL d   1      28.068 -13.434   2.795  0.00  0.00     0.030 C 
ATOM     23  C   UNL d   1      28.733 -14.463   2.112  0.00  0.00     0.037 C 
ATOM     24  C   UNL d   1      28.250 -15.015   0.897  0.00  0.00    -0.049 C 
ATOM     25  C   UNL d   1      29.046 -16.095   0.229  0.00  0.00     0.049 C 
BRANCH  22  26
ATOM     26  N   UNL d   1      28.528 -12.896   3.999  0.00  0.00    -0.377 N 
BRANCH  26  27
ATOM     27  C   UNL d   1      29.312 -11.635   4.152  0.00  0.00     0.149 C 
BRANCH  27  28
ATOM     28  C   UNL d   1      30.793 -11.728   4.458  0.00  0.00     0.183 C 
BRANCH  28  29
ATOM     29  O   UNL d   1      31.431 -12.891   3.969  0.00  0.00    -0.399 OA
ATOM     30  H   UNL d   1      31.839 -13.324   4.735  0.00  0.00     0.209 HD
ENDBRANCH  28  29
ENDBRANCH  27  28
ENDBRANCH  26  27
BRANCH  26  31
ATOM     31  C   UNL d   1      28.099 -13.534   5.284  0.00  0.00     0.149 C 
BRANCH  31  32
ATOM     32  C   UNL d   1      29.024 -14.648   5.818  0.00  0.00     0.183 C 
BRANCH  32  33
ATOM     33  O   UNL d   1      30.348 -14.175   6.040  0.00  0.00    -0.399 OA
ATOM     34  H   UNL d   1      30.902 -14.481   5.304  0.00  0.00     0.209 HD
ENDBRANCH  32  33
ENDBRANCH  31  32
ENDBRANCH  26  31
ENDBRANCH  22  26
ENDBRANCH   9  19
BRANCH   5  35
ATOM     35  C   UNL d   1      28.500 -10.180  -4.664  0.00  0.00     0.149 C 
BRANCH  35  36
ATOM     36  C   UNL d   1      28.242  -9.455  -3.371  0.00  0.00     0.183 C 
BRANCH  36  37
ATOM     37  O   UNL d   1      26.872  -9.293  -3.102  0.00  0.00    -0.399 OA
ATOM     38  H   UNL d   1      26.391  -9.974  -3.607  0.00  0.00     0.209 HD
ENDBRANCH  36  37
ENDBRANCH  35  36
ENDBRANCH   5  35
BRANCH   5  39
ATOM     39  C   UNL d   1      26.816 -11.424  -6.150  0.00  0.00     0.149 C 
BRANCH  39  40
ATOM     40  C   UNL d   1      25.931 -10.195  -6.287  0.00  0.00     0.183 C 
BRANCH  40  41
ATOM     41  O   UNL d   1      25.270  -9.933  -5.062  0.00  0.00    -0.399 OA
ATOM     42  H   UNL d   1      24.767 -10.718  -4.782  0.00  0.00     0.209 HD
ENDBRANCH  40  41
ENDBRANCH  39  40
ENDBRANCH   5  39
TORSDOF 16
ENDMDL
MODEL 2
REMARK VINA RESULT:    -6.532      1.472      1.927
REMARK INTER + INTRA:         -16.173
REMARK INTER:                 -11.305
REMARK INTRA:                  -4.868
REMARK CONF_INDEPENDENT:        4.773
REMARK UNBOUND:                -4.868
REMARK  16 active torsions:
REMARK  status: ('A' for Active; 'I' for Inactive)
REMARK    1  A    between atoms: N_5  and  C_6 
REMARK    2  A    between atoms: N_5  and  C_9 
REMARK    3  A    between atoms: C_6  and  C_7 
REMARK    4  A    between atoms: C_7  and  O_8 
REMARK    5  A    between atoms: C_9  and  C_10 
REMARK    6  A    between atoms: C_10  and  O_11 
REMARK    7  A    between atoms: C_15  and  C_16 
REMARK    8  A    between atoms: C_15  and  C_25 
REMARK    9  A    between atoms: C_19  and  N_20 
REMARK   10  A    between atoms: C_28  and  N_29 
REMARK   11  A    between atoms: N_29  and  C_30 
REMARK   12  A    between atoms: N_29  and  C_33 
REMARK   13  A    between atoms: C_30  and  C_31 
REMARK   14  A    between atoms: C_31  and  O_32 
REMARK   15  A    between atoms: C_33  and  C_34 
REMARK   16  A    between atoms: C_34  and  O_35 
ROOT
ATOM      1  C   UNL d   1      25.497 -14.911  -3.789  0.00  0.00     0.049 C 
ATOM      2  C   UNL d   1      26.182 -13.738  -3.181  0.00  0.00    -0.049 C 
ATOM      3  C   UNL d   1      26.282 -12.659  -3.974  0.00  0.00     0.037 C 
ATOM      4  C   UNL d   1      26.971 -11.414  -3.529  0.00  0.00     0.030 C 
ATOM      5  N   UNL d   1      26.741 -10.269  -4.114  0.00  0.00    -0.377 N 
ATOM      6  C   UNL d   1      27.914 -11.668  -2.407  0.00  0.00     0.030 C 
ATOM      7  C   UNL d   1      27.809 -12.731  -1.624  0.00  0.00     0.015 C 
ATOM      8  C   UNL d   1      26.758 -13.707  -1.820  0.00  0.00    -0.018 C 
ATOM      9  C   UNL d   1      26.461 -14.504  -0.759  0.00  0.00    -0.004 C 
ENDROOT
BRANCH   9  10
ATOM     10  C   UNL d   1      25.627 -15.719  -0.888  0.00  0.00    -0.024 C 
ATOM     11  C   UNL d   1      26.158 -16.990  -0.660  0.00  0.00     0.015 C 
ATOM     12  C   UNL d   1      25.331 -18.108  -0.775  0.00  0.00     0.037 C 
ATOM     13  C   UNL d   1      23.957 -17.932  -0.988  0.00  0.00     0.102 C 
ATOM     14  C   UNL d   1      23.428 -16.664  -1.243  0.00  0.00     0.037 C 
ATOM     15  C   UNL d   1      24.295 -15.582  -1.306  0.00  0.00     0.015 C 
BRANCH  13  16
ATOM     16  N   UNL d   1      23.044 -19.074  -0.913  0.00  0.00    -0.116 N 
ATOM     17  O   UNL d   1      22.036 -19.044  -1.645  0.00  0.00    -0.532 OA
ATOM     18  O   UNL d   1      23.340 -20.000  -0.159  0.00  0.00    -0.532 OA
ENDBRANCH  13  16
ENDBRANCH   9  10
BRANCH   9  19
ATOM     19  C   UNL d   1      27.042 -14.213   0.581  0.00  0.00    -0.018 C 
ATOM     20  C   UNL d   1      26.324 -13.323   1.335  0.00  0.00     0.015 C 
ATOM     21  C   UNL d   1      26.897 -12.809   2.479  0.00  0.00     0.030 C 
ATOM     22  C   UNL d   1      28.067 -13.262   3.103  0.00  0.00     0.030 C 
ATOM     23  C   UNL d   1      28.748 -14.219   2.337  0.00  0.00     0.037 C 
ATOM     24  C   UNL d   1      28.270 -14.683   1.084  0.00  0.00    -0.049 C 
ATOM     25  C   UNL d   1      29.084 -15.690   0.328  0.00  0.00     0.049 C 
BRANCH  22  26
ATOM     26  N   UNL d   1      28.522 -12.812   4.344  0.00  0.00    -0.377 N 
BRANCH  26  27
ATOM     27  C   UNL d   1      28.398 -13.543   5.640  0.00  0.00     0.149 C 
BRANCH  27  28
ATOM     28  C   UNL d   1      28.227 -12.744   6.915  0.00  0.00     0.183 C 
BRANCH  28  29
ATOM     29  O   UNL d   1      27.405 -11.600   6.795  0.00  0.00    -0.399 OA
ATOM     30  H   UNL d   1      27.975 -10.885   6.470  0.00  0.00     0.209 HD
ENDBRANCH  28  29
ENDBRANCH  27  28
ENDBRANCH  26  27
BRANCH  26  31
ATOM     31  C   UNL d   1      29.337 -11.557   4.401  0.00  0.00     0.149 C 
BRANCH  31  32
ATOM     32  C   UNL d   1      28.536 -10.239   4.357  0.00  0.00     0.183 C 
BRANCH  32  33
ATOM     33  O   UNL d   1      27.140 -10.462   4.523  0.00  0.00    -0.399 OA
ATOM     34  H   UNL d   1      26.925 -10.328   5.461  0.00  0.00     0.209 HD
ENDBRANCH  32  33
ENDBRANCH  31  32
ENDBRANCH  26  31
ENDBRANCH  22  26
ENDBRANCH   9  19
BRANCH   5  35
ATOM     35  C   UNL d   1      27.297  -8.918  -3.710  0.00  0.00     0.149 C 
BRANCH  35  36
ATOM     36  C   UNL d   1      26.644  -8.257  -2.526  0.00  0.00     0.183 C 
BRANCH  36  37
ATOM     37  O   UNL d   1      25.397  -8.824  -2.206  0.00  0.00    -0.399 OA
ATOM     38  H   UNL d   1      24.708  -8.251  -2.589  0.00  0.00     0.209 HD
ENDBRANCH  36  37
ENDBRANCH  35  36
ENDBRANCH   5  35
BRANCH   5  39
ATOM     39  C   UNL d   1      25.792 -10.237  -5.318  0.00  0.00     0.149 C 
BRANCH  39  40
ATOM     40  C   UNL d   1      25.023  -8.937  -5.489  0.00  0.00     0.183 C 
BRANCH  40  41
ATOM     41  O   UNL d   1      24.030  -8.825  -4.485  0.00  0.00    -0.399 OA
ATOM     42  H   UNL d   1      24.239  -8.080  -3.893  0.00  0.00     0.209 HD
ENDBRANCH  40  41
ENDBRANCH  39  40
ENDBRANCH   5  39
TORSDOF 16
ENDMDL
MODEL 3
REMARK VINA RESULT:    -6.472      3.719      7.421
REMARK INTER + INTRA:         -14.781
REMARK INTER:                 -11.245
REMARK INTRA:                  -3.536
REMARK CONF_INDEPENDENT:        4.773
REMARK UNBOUND:                -3.536
REMARK  16 active torsions:
REMARK  status: ('A' for Active; 'I' for Inactive)
REMARK    1  A    between atoms: N_5  and  C_6 
REMARK    2  A    between atoms: N_5  and  C_9 
REMARK    3  A    between atoms: C_6  and  C_7 
REMARK    4  A    between atoms: C_7  and  O_8 
REMARK    5  A    between atoms: C_9  and  C_10 
REMARK    6  A    between atoms: C_10  and  O_11 
REMARK    7  A    between atoms: C_15  and  C_16 
REMARK    8  A    between atoms: C_15  and  C_25 
REMARK    9  A    between atoms: C_19  and  N_20 
REMARK   10  A    between atoms: C_28  and  N_29 
REMARK   11  A    between atoms: N_29  and  C_30 
REMARK   12  A    between atoms: N_29  and  C_33 
REMARK   13  A    between atoms: C_30  and  C_31 
REMARK   14  A    between atoms: C_31  and  O_32 
REMARK   15  A    between atoms: C_33  and  C_34 
REMARK   16  A    between atoms: C_34  and  O_35 
ROOT
ATOM      1  C   UNL d   1      28.599 -10.602  -4.860  0.00  0.00     0.049 C 
ATOM      2  C   UNL d   1      28.586 -12.081  -5.029  0.00  0.00    -0.049 C 
ATOM      3  C   UNL d   1      29.476 -12.564  -5.912  0.00  0.00     0.037 C 
ATOM      4  C   UNL d   1      29.567 -14.019  -6.222  0.00  0.00     0.030 C 
ATOM      5  N   UNL d   1      30.643 -14.529  -6.759  0.00  0.00    -0.377 N 
ATOM      6  C   UNL d   1      28.316 -14.745  -5.872  0.00  0.00     0.030 C 
ATOM      7  C   UNL d   1      27.445 -14.268  -4.997  0.00  0.00     0.015 C 
ATOM      8  C   UNL d   1      27.669 -13.004  -4.327  0.00  0.00    -0.018 C 
ATOM      9  C   UNL d   1      26.983 -12.796  -3.173  0.00  0.00    -0.004 C 
ENDROOT
BRANCH   9  10
ATOM     10  C   UNL d   1      26.886 -11.465  -2.535  0.00  0.00    -0.024 C 
ATOM     11  C   UNL d   1      26.059 -10.468  -3.058  0.00  0.00     0.015 C 
ATOM     12  C   UNL d   1      25.985  -9.233  -2.415  0.00  0.00     0.037 C 
ATOM     13  C   UNL d   1      26.635  -9.054  -1.186  0.00  0.00     0.102 C 
ATOM     14  C   UNL d   1      27.485 -10.038  -0.675  0.00  0.00     0.037 C 
ATOM     15  C   UNL d   1      27.691 -11.191  -1.419  0.00  0.00     0.015 C 
BRANCH  13  16
ATOM     16  N   UNL d   1      26.409  -7.840  -0.399  0.00  0.00    -0.116 N 
ATOM     17  O   UNL d   1      27.157  -6.868  -0.627  0.00  0.00    -0.532 OA
ATOM     18  O   UNL d   1      25.485  -7.843   0.413  0.00  0.00    -0.532 OA
ENDBRANCH  13  16
ENDBRANCH   9  10
BRANCH   9  19
ATOM     19  C   UNL d   1      26.226 -13.913  -2.540  0.00  0.00    -0.018 C 
ATOM     20  C   UNL d   1      26.899 -14.566  -1.542  0.00  0.00     0.015 C 
ATOM     21  C   UNL d   1      26.386 -15.754  -1.064  0.00  0.00     0.030 C 
ATOM     22  C   UNL d   1      25.114 -16.279  -1.325  0.00  0.00     0.030 C 
ATOM     23  C   UNL d   1      24.423 -15.552  -2.306  0.00  0.00     0.037 C 
ATOM     24  C   UNL d   1      24.964 -14.398  -2.930  0.00  0.00    -0.049 C 
ATOM     25  C   UNL d   1      24.158 -13.704  -3.986  0.00  0.00     0.049 C 
BRANCH  22  26
ATOM     26  N   UNL d   1      24.582 -17.405  -0.695  0.00  0.00    -0.377 N 
BRANCH  26  27
ATOM     27  C   UNL d   1      25.364 -18.555  -0.149  0.00  0.00     0.149 C 
BRANCH  27  28
ATOM     28  C   UNL d   1      26.626 -18.271   0.639  0.00  0.00     0.183 C 
BRANCH  28  29
ATOM     29  O   UNL d   1      27.802 -18.167  -0.138  0.00  0.00    -0.399 OA
ATOM     30  H   UNL d   1      28.531 -18.471   0.425  0.00  0.00     0.209 HD
ENDBRANCH  28  29
ENDBRANCH  27  28
ENDBRANCH  26  27
BRANCH  26  31
ATOM     31  C   UNL d   1      23.116 -17.438  -0.394  0.00  0.00     0.149 C 
BRANCH  31  32
ATOM     32  C   UNL d   1      22.454 -18.831  -0.446  0.00  0.00     0.183 C 
BRANCH  32  33
ATOM     33  O   UNL d   1      21.707 -19.018  -1.643  0.00  0.00    -0.399 OA
ATOM     34  H   UNL d   1      21.029 -19.691  -1.471  0.00  0.00     0.209 HD
ENDBRANCH  32  33
ENDBRANCH  31  32
ENDBRANCH  26  31
ENDBRANCH  22  26
ENDBRANCH   9  19
BRANCH   5  35
ATOM     35  C   UNL d   1      30.907 -15.994  -7.042  0.00  0.00     0.149 C 
BRANCH  35  36
ATOM     36  C   UNL d   1      32.170 -16.308  -7.798  0.00  0.00     0.183 C 
BRANCH  36  37
ATOM     37  O   UNL d   1      32.284 -15.577  -8.994  0.00  0.00    -0.399 OA
ATOM     38  H   UNL d   1      31.415 -15.175  -9.176  0.00  0.00     0.209 HD
ENDBRANCH  36  37
ENDBRANCH  35  36
ENDBRANCH   5  35
BRANCH   5  39
ATOM     39  C   UNL d   1      31.796 -13.588  -7.127  0.00  0.00     0.149 C 
BRANCH  39  40
ATOM     40  C   UNL d   1      31.471 -12.574  -8.212  0.00  0.00     0.183 C 
BRANCH  40  41
ATOM     41  O   UNL d   1      31.782 -13.110  -9.486  0.00  0.00    -0.399 OA
ATOM     42  H   UNL d   1      31.160 -13.826  -9.705  0.00  0.00     0.209 HD
ENDBRANCH  40  41
ENDBRANCH  39  40
ENDBRANCH   5  39
TORSDOF 16
ENDMDL
MODEL 4
REMARK VINA RESULT:    -6.242      0.668      1.379
REMARK INTER + INTRA:         -15.744
REMARK INTER:                 -11.015
REMARK INTRA:                  -4.729
REMARK CONF_INDEPENDENT:        4.773
REMARK UNBOUND:                -4.729
REMARK  16 active torsions:
REMARK  status: ('A' for Active; 'I' for Inactive)
REMARK    1  A    between atoms: N_5  and  C_6 
REMARK    2  A    between atoms: N_5  and  C_9 
REMARK    3  A    between atoms: C_6  and  C_7 
REMARK    4  A    between atoms: C_7  and  O_8 
REMARK    5  A    between atoms: C_9  and  C_10 
REMARK    6  A    between atoms: C_10  and  O_11 
REMARK    7  A    between atoms: C_15  and  C_16 
REMARK    8  A    between atoms: C_15  and  C_25 
REMARK    9  A    between atoms: C_19  and  N_20 
REMARK   10  A    between atoms: C_28  and  N_29 
REMARK   11  A    between atoms: N_29  and  C_30 
REMARK   12  A    between atoms: N_29  and  C_33 
REMARK   13  A    between atoms: C_30  and  C_31 
REMARK   14  A    between atoms: C_31  and  O_32 
REMARK   15  A    between atoms: C_33  and  C_34 
REMARK   16  A    between atoms: C_34  and  O_35 
ROOT
ATOM      1  C   UNL d   1      25.642 -15.719  -3.989  0.00  0.00     0.049 C 
ATOM      2  C   UNL d   1      26.608 -14.672  -3.553  0.00  0.00    -0.049 C 
ATOM      3  C   UNL d   1      27.001 -13.820  -4.514  0.00  0.00     0.037 C 
ATOM      4  C   UNL d   1      27.990 -12.737  -4.250  0.00  0.00     0.030 C 
ATOM      5  N   UNL d   1      28.082 -11.700  -5.037  0.00  0.00    -0.377 N 
ATOM      6  C   UNL d   1      28.818 -13.018  -3.046  0.00  0.00     0.030 C 
ATOM      7  C   UNL d   1      28.424 -13.854  -2.099  0.00  0.00     0.015 C 
ATOM      8  C   UNL d   1      27.153 -14.544  -2.186  0.00  0.00    -0.018 C 
ATOM      9  C   UNL d   1      26.641 -15.027  -1.023  0.00  0.00    -0.004 C 
ENDROOT
BRANCH   9  10
ATOM     10  C   UNL d   1      25.516 -15.987  -0.990  0.00  0.00    -0.024 C 
ATOM     11  C   UNL d   1      25.694 -17.299  -0.547  0.00  0.00     0.015 C 
ATOM     12  C   UNL d   1      24.602 -18.165  -0.515  0.00  0.00     0.037 C 
ATOM     13  C   UNL d   1      23.321 -17.673  -0.802  0.00  0.00     0.102 C 
ATOM     14  C   UNL d   1      23.143 -16.369  -1.271  0.00  0.00     0.037 C 
ATOM     15  C   UNL d   1      24.264 -15.575  -1.471  0.00  0.00     0.015 C 
BRANCH  13  16
ATOM     16  N   UNL d   1      22.140 -18.510  -0.582  0.00  0.00    -0.116 N 
ATOM     17  O   UNL d   1      21.031 -17.940  -0.589  0.00  0.00    -0.532 OA
ATOM     18  O   UNL d   1      22.310 -19.719  -0.432  0.00  0.00    -0.532 OA
ENDBRANCH  13  16
ENDBRANCH   9  10
BRANCH   9  19
ATOM     19  C   UNL d   1      27.262 -14.657   0.280  0.00  0.00    -0.018 C 
ATOM     20  C   UNL d   1      26.644 -13.625   0.934  0.00  0.00     0.015 C 
ATOM     21  C   UNL d   1      27.276 -13.053   2.018  0.00  0.00     0.030 C 
ATOM     22  C   UNL d   1      28.401 -13.553   2.687  0.00  0.00     0.030 C 
ATOM     23  C   UNL d   1      28.976 -14.649   2.028  0.00  0.00     0.037 C 
ATOM     24  C   UNL d   1      28.442 -15.191   0.830  0.00  0.00    -0.049 C 
ATOM     25  C   UNL d   1      29.144 -16.349   0.186  0.00  0.00     0.049 C 
BRANCH  22  26
ATOM     26  N   UNL d   1      28.911 -13.023   3.874  0.00  0.00    -0.377 N 
BRANCH  26  27
ATOM     27  C   UNL d   1      28.533 -13.443   5.255  0.00  0.00     0.149 C 
BRANCH  27  28
ATOM     28  C   UNL d   1      28.961 -14.811   5.746  0.00  0.00     0.183 C 
BRANCH  28  29
ATOM     29  O   UNL d   1      30.272 -15.192   5.377  0.00  0.00    -0.399 OA
ATOM     30  H   UNL d   1      30.792 -14.375   5.327  0.00  0.00     0.209 HD
ENDBRANCH  28  29
ENDBRANCH  27  28
ENDBRANCH  26  27
BRANCH  26  31
ATOM     31  C   UNL d   1      30.042 -12.044   3.798  0.00  0.00     0.149 C 
BRANCH  31  32
ATOM     32  C   UNL d   1      31.358 -12.589   3.205  0.00  0.00     0.183 C 
BRANCH  32  33
ATOM     33  O   UNL d   1      31.499 -13.989   3.424  0.00  0.00    -0.399 OA
ATOM     34  H   UNL d   1      31.836 -14.117   4.326  0.00  0.00     0.209 HD
ENDBRANCH  32  33
ENDBRANCH  31  32
ENDBRANCH  26  31
ENDBRANCH  22  26
ENDBRANCH   9  19
BRANCH   5  35
ATOM     35  C   UNL d   1      28.971 -10.489  -4.840  0.00  0.00     0.149 C 
BRANCH  35  36
ATOM     36  C   UNL d   1      28.451  -9.424  -3.912  0.00  0.00     0.183 C 
BRANCH  36  37
ATOM     37  O   UNL d   1      27.670  -9.948  -2.867  0.00  0.00    -0.399 OA
ATOM     38  H   UNL d   1      26.734  -9.845  -3.120  0.00  0.00     0.209 HD
ENDBRANCH  36  37
ENDBRANCH  35  36
ENDBRANCH   5  35
BRANCH   5  39
ATOM     39  C   UNL d   1      27.191 -11.644  -6.284  0.00  0.00     0.149 C 
BRANCH  39  40
ATOM     40  C   UNL d   1      25.792 -11.097  -6.045  0.00  0.00     0.183 C 
BRANCH  40  41
ATOM     41  O   UNL d   1      25.678 -10.619  -4.716  0.00  0.00    -0.399 OA
ATOM     42  H   UNL d   1      24.784 -10.798  -4.375  0.00  0.00     0.209 HD
ENDBRANCH  40  41
ENDBRANCH  39  40
ENDBRANCH   5  39
TORSDOF 16
ENDMDL
MODEL 5
REMARK VINA RESULT:    -5.560      4.069      7.903
REMARK INTER + INTRA:         -15.831
REMARK INTER:                 -10.332
REMARK INTRA:                  -5.499
REMARK CONF_INDEPENDENT:        4.773
REMARK UNBOUND:                -5.499
REMARK  16 active torsions:
REMARK  status: ('A' for Active; 'I' for Inactive)
REMARK    1  A    between atoms: N_5  and  C_6 
REMARK    2  A    between atoms: N_5  and  C_9 
REMARK    3  A    between atoms: C_6  and  C_7 
REMARK    4  A    between atoms: C_7  and  O_8 
REMARK    5  A    between atoms: C_9  and  C_10 
REMARK    6  A    between atoms: C_10  and  O_11 
REMARK    7  A    between atoms: C_15  and  C_16 
REMARK    8  A    between atoms: C_15  and  C_25 
REMARK    9  A    between atoms: C_19  and  N_20 
REMARK   10  A    between atoms: C_28  and  N_29 
REMARK   11  A    between atoms: N_29  and  C_30 
REMARK   12  A    between atoms: N_29  and  C_33 
REMARK   13  A    between atoms: C_30  and  C_31 
REMARK   14  A    between atoms: C_31  and  O_32 
REMARK   15  A    between atoms: C_33  and  C_34 
REMARK   16  A    between atoms: C_34  and  O_35 
ROOT
ATOM      1  C   UNL d   1      26.280 -14.075   1.050  0.00  0.00     0.049 C 
ATOM      2  C   UNL d   1      27.744 -14.046   0.782  0.00  0.00    -0.049 C 
ATOM      3  C   UNL d   1      28.482 -13.405   1.702  0.00  0.00     0.037 C 
ATOM      4  C   UNL d   1      29.959 -13.255   1.563  0.00  0.00     0.030 C 
ATOM      5  N   UNL d   1      30.711 -12.991   2.597  0.00  0.00    -0.377 N 
ATOM      6  C   UNL d   1      30.408 -13.419   0.154  0.00  0.00     0.030 C 
ATOM      7  C   UNL d   1      29.679 -14.057  -0.748  0.00  0.00     0.015 C 
ATOM      8  C   UNL d   1      28.397 -14.637  -0.405  0.00  0.00    -0.018 C 
ATOM      9  C   UNL d   1      27.928 -15.610  -1.231  0.00  0.00    -0.004 C 
ENDROOT
BRANCH   9  10
ATOM     10  C   UNL d   1      26.529 -16.088  -1.179  0.00  0.00    -0.024 C 
ATOM     11  C   UNL d   1      25.525 -15.477  -1.932  0.00  0.00     0.015 C 
ATOM     12  C   UNL d   1      24.223 -15.972  -1.866  0.00  0.00     0.037 C 
ATOM     13  C   UNL d   1      23.967 -17.150  -1.152  0.00  0.00     0.102 C 
ATOM     14  C   UNL d   1      24.962 -17.749  -0.377  0.00  0.00     0.037 C 
ATOM     15  C   UNL d   1      26.208 -17.139  -0.307  0.00  0.00     0.015 C 
BRANCH  13  16
ATOM     16  N   UNL d   1      22.654 -17.795  -1.234  0.00  0.00    -0.116 N 
ATOM     17  O   UNL d   1      21.666 -17.115  -0.895  0.00  0.00    -0.532 OA
ATOM     18  O   UNL d   1      22.605 -18.950  -1.654  0.00  0.00    -0.532 OA
ENDBRANCH  13  16
ENDBRANCH   9  10
BRANCH   9  19
ATOM     19  C   UNL d   1      28.807 -16.183  -2.288  0.00  0.00    -0.018 C 
ATOM     20  C   UNL d   1      28.609 -15.664  -3.540  0.00  0.00     0.015 C 
ATOM     21  C   UNL d   1      29.197 -16.291  -4.619  0.00  0.00     0.030 C 
ATOM     22  C   UNL d   1      30.176 -17.291  -4.570  0.00  0.00     0.030 C 
ATOM     23  C   UNL d   1      30.404 -17.759  -3.268  0.00  0.00     0.037 C 
ATOM     24  C   UNL d   1      29.723 -17.241  -2.136  0.00  0.00    -0.049 C 
ATOM     25  C   UNL d   1      30.017 -17.825  -0.787  0.00  0.00     0.049 C 
BRANCH  22  26
ATOM     26  N   UNL d   1      30.853 -17.785  -5.687  0.00  0.00    -0.377 N 
BRANCH  26  27
ATOM     27  C   UNL d   1      31.025 -17.078  -6.991  0.00  0.00     0.149 C 
BRANCH  27  28
ATOM     28  C   UNL d   1      31.898 -17.711  -8.056  0.00  0.00     0.183 C 
BRANCH  28  29
ATOM     29  O   UNL d   1      31.357 -18.870  -8.657  0.00  0.00    -0.399 OA
ATOM     30  H   UNL d   1      30.405 -18.858  -8.471  0.00  0.00     0.209 HD
ENDBRANCH  28  29
ENDBRANCH  27  28
ENDBRANCH  26  27
BRANCH  26  31
ATOM     31  C   UNL d   1      31.607 -19.072  -5.562  0.00  0.00     0.149 C 
BRANCH  31  32
ATOM     32  C   UNL d   1      30.768 -20.357  -5.729  0.00  0.00     0.183 C 
BRANCH  32  33
ATOM     33  O   UNL d   1      30.194 -20.450  -7.028  0.00  0.00    -0.399 OA
ATOM     34  H   UNL d   1      30.885 -20.234  -7.676  0.00  0.00     0.209 HD
ENDBRANCH  32  33
ENDBRANCH  31  32
ENDBRANCH  26  31
ENDBRANCH  22  26
ENDBRANCH   9  19
BRANCH   5  35
ATOM     35  C   UNL d   1      32.224 -12.903   2.619  0.00  0.00     0.149 C 
BRANCH  35  36
ATOM     36  C   UNL d   1      32.967 -14.210   2.536  0.00  0.00     0.183 C 
BRANCH  36  37
ATOM     37  O   UNL d   1      32.220 -15.292   3.033  0.00  0.00    -0.399 OA
ATOM     38  H   UNL d   1      32.060 -15.128   3.980  0.00  0.00     0.209 HD
ENDBRANCH  36  37
ENDBRANCH  35  36
ENDBRANCH   5  35
BRANCH   5  39
ATOM     39  C   UNL d   1      30.038 -12.771   3.957  0.00  0.00     0.149 C 
BRANCH  39  40
ATOM     40  C   UNL d   1      29.410 -14.014   4.567  0.00  0.00     0.183 C 
BRANCH  40  41
ATOM     41  O   UNL d   1      30.382 -15.036   4.695  0.00  0.00    -0.399 OA
ATOM     42  H   UNL d   1      30.302 -15.665   3.957  0.00  0.00     0.209 HD
ENDBRANCH  40  41
ENDBRANCH  39  40
ENDBRANCH   5  39
TORSDOF 16
ENDMDL
MODEL 6
REMARK VINA RESULT:    -5.448      3.966      7.729
REMARK INTER + INTRA:         -15.934
REMARK INTER:                 -10.221
REMARK INTRA:                  -5.713
REMARK CONF_INDEPENDENT:        4.773
REMARK UNBOUND:                -5.713
REMARK  16 active torsions:
REMARK  status: ('A' for Active; 'I' for Inactive)
REMARK    1  A    between atoms: N_5  and  C_6 
REMARK    2  A    between atoms: N_5  and  C_9 
REMARK    3  A    between atoms: C_6  and  C_7 
REMARK    4  A    between atoms: C_7  and  O_8 
REMARK    5  A    between atoms: C_9  and  C_10 
REMARK    6  A    between atoms: C_10  and  O_11 
REMARK    7  A    between atoms: C_15  and  C_16 
REMARK    8  A    between atoms: C_15  and  C_25 
REMARK    9  A    between atoms: C_19  and  N_20 
REMARK   10  A    between atoms: C_28  and  N_29 
REMARK   11  A    between atoms: N_29  and  C_30 
REMARK   12  A    between atoms: N_29  and  C_33 
REMARK   13  A    between atoms: C_30  and  C_31 
REMARK   14  A    between atoms: C_31  and  O_32 
REMARK   15  A    between atoms: C_33  and  C_34 
REMARK   16  A    between atoms: C_34  and  O_35 
ROOT
ATOM      1  C   UNL d   1      26.280 -14.081   0.980  0.00  0.00     0.049 C 
ATOM      2  C   UNL d   1      27.755 -14.177   0.799  0.00  0.00    -0.049 C 
ATOM      3  C   UNL d   1      28.487 -13.486   1.687  0.00  0.00     0.037 C 
ATOM      4  C   UNL d   1      29.976 -13.449   1.623  0.00  0.00     0.030 C 
ATOM      5  N   UNL d   1      30.689 -13.120   2.666  0.00  0.00    -0.377 N 
ATOM      6  C   UNL d   1      30.486 -13.797   0.269  0.00  0.00     0.030 C 
ATOM      7  C   UNL d   1      29.762 -14.484  -0.601  0.00  0.00     0.015 C 
ATOM      8  C   UNL d   1      28.426 -14.937  -0.276  0.00  0.00    -0.018 C 
ATOM      9  C   UNL d   1      27.933 -15.963  -1.019  0.00  0.00    -0.004 C 
ENDROOT
BRANCH   9  10
ATOM     10  C   UNL d   1      26.503 -16.341  -1.001  0.00  0.00    -0.024 C 
ATOM     11  C   UNL d   1      25.552 -15.619  -1.726  0.00  0.00     0.015 C 
ATOM     12  C   UNL d   1      24.217 -16.022  -1.694  0.00  0.00     0.037 C 
ATOM     13  C   UNL d   1      23.871 -17.215  -1.045  0.00  0.00     0.102 C 
ATOM     14  C   UNL d   1      24.814 -17.924  -0.298  0.00  0.00     0.037 C 
ATOM     15  C   UNL d   1      26.099 -17.411  -0.189  0.00  0.00     0.015 C 
BRANCH  13  16
ATOM     16  N   UNL d   1      22.516 -17.758  -1.169  0.00  0.00    -0.116 N 
ATOM     17  O   UNL d   1      22.412 -18.950  -1.518  0.00  0.00    -0.532 OA
ATOM     18  O   UNL d   1      21.572 -17.018  -0.895  0.00  0.00    -0.532 OA
ENDBRANCH  13  16
ENDBRANCH   9  10
BRANCH   9  19
ATOM     19  C   UNL d   1      28.824 -16.706  -1.954  0.00  0.00    -0.018 C 
ATOM     20  C   UNL d   1      29.624 -17.644  -1.358  0.00  0.00     0.015 C 
ATOM     21  C   UNL d   1      30.645 -18.209  -2.093  0.00  0.00     0.030 C 
ATOM     22  C   UNL d   1      30.835 -18.103  -3.477  0.00  0.00     0.030 C 
ATOM     23  C   UNL d   1      29.960 -17.182  -4.071  0.00  0.00     0.037 C 
ATOM     24  C   UNL d   1      28.978 -16.469  -3.333  0.00  0.00    -0.049 C 
ATOM     25  C   UNL d   1      28.106 -15.487  -4.054  0.00  0.00     0.049 C 
BRANCH  22  26
ATOM     26  N   UNL d   1      31.792 -18.820  -4.198  0.00  0.00    -0.377 N 
BRANCH  26  27
ATOM     27  C   UNL d   1      32.423 -20.106  -3.778  0.00  0.00     0.149 C 
BRANCH  27  28
ATOM     28  C   UNL d   1      31.547 -21.330  -3.613  0.00  0.00     0.183 C 
BRANCH  28  29
ATOM     29  O   UNL d   1      30.297 -21.261  -4.270  0.00  0.00    -0.399 OA
ATOM     30  H   UNL d   1      30.425 -21.660  -5.145  0.00  0.00     0.209 HD
ENDBRANCH  28  29
ENDBRANCH  27  28
ENDBRANCH  26  27
BRANCH  26  31
ATOM     31  C   UNL d   1      32.139 -18.367  -5.582  0.00  0.00     0.149 C 
BRANCH  31  32
ATOM     32  C   UNL d   1      31.464 -19.148  -6.729  0.00  0.00     0.183 C 
BRANCH  32  33
ATOM     33  O   UNL d   1      30.284 -19.814  -6.293  0.00  0.00    -0.399 OA
ATOM     34  H   UNL d   1      30.357 -19.955  -5.335  0.00  0.00     0.209 HD
ENDBRANCH  32  33
ENDBRANCH  31  32
ENDBRANCH  26  31
ENDBRANCH  22  26
ENDBRANCH   9  19
BRANCH   5  35
ATOM     35  C   UNL d   1      32.201 -13.130   2.770  0.00  0.00     0.149 C 
BRANCH  35  36
ATOM     36  C   UNL d   1      32.879 -14.442   2.484  0.00  0.00     0.183 C 
BRANCH  36  37
ATOM     37  O   UNL d   1      32.262 -15.526   3.134  0.00  0.00    -0.399 OA
ATOM     38  H   UNL d   1      31.907 -15.197   3.980  0.00  0.00     0.209 HD
ENDBRANCH  36  37
ENDBRANCH  35  36
ENDBRANCH   5  35
BRANCH   5  39
ATOM     39  C   UNL d   1      29.962 -12.707   3.952  0.00  0.00     0.149 C 
BRANCH  39  40
ATOM     40  C   UNL d   1      29.386 -13.861   4.758  0.00  0.00     0.183 C 
BRANCH  40  41
ATOM     41  O   UNL d   1      30.173 -15.024   4.571  0.00  0.00    -0.399 OA
ATOM     42  H   UNL d   1      30.162 -15.284   3.633  0.00  0.00     0.209 HD
ENDBRANCH  40  41
ENDBRANCH  39  40
ENDBRANCH   5  39
TORSDOF 16
ENDMDL
MODEL 7
REMARK VINA RESULT:    -5.404      3.169      7.433
REMARK INTER + INTRA:         -15.154
REMARK INTER:                 -10.177
REMARK INTRA:                  -4.978
REMARK CONF_INDEPENDENT:        4.773
REMARK UNBOUND:                -4.978
REMARK  16 active torsions:
REMARK  status: ('A' for Active; 'I' for Inactive)
REMARK    1  A    between atoms: N_5  and  C_6 
REMARK    2  A    between atoms: N_5  and  C_9 
REMARK    3  A    between atoms: C_6  and  C_7 
REMARK    4  A    between atoms: C_7  and  O_8 
REMARK    5  A    between atoms: C_9  and  C_10 
REMARK    6  A    between atoms: C_10  and  O_11 
REMARK    7  A    between atoms: C_15  and  C_16 
REMARK    8  A    between atoms: C_15  and  C_25 
REMARK    9  A    between atoms: C_19  and  N_20 
REMARK   10  A    between atoms: C_28  and  N_29 
REMARK   11  A    between atoms: N_29  and  C_30 
REMARK   12  A    between atoms: N_29  and  C_33 
REMARK   13  A    between atoms: C_30  and  C_31 
REMARK   14  A    between atoms: C_31  and  O_32 
REMARK   15  A    between atoms: C_33  and  C_34 
REMARK   16  A    between atoms: C_34  and  O_35 
ROOT
ATOM      1  C   UNL d   1      26.443 -18.628   0.055  0.00  0.00     0.049 C 
ATOM      2  C   UNL d   1      27.446 -17.690  -0.520  0.00  0.00    -0.049 C 
ATOM      3  C   UNL d   1      28.720 -18.112  -0.467  0.00  0.00     0.037 C 
ATOM      4  C   UNL d   1      29.848 -17.277  -0.968  0.00  0.00     0.030 C 
ATOM      5  N   UNL d   1      31.000 -17.811  -1.274  0.00  0.00    -0.377 N 
ATOM      6  C   UNL d   1      29.489 -15.834  -1.035  0.00  0.00     0.030 C 
ATOM      7  C   UNL d   1      28.232 -15.423  -1.092  0.00  0.00     0.015 C 
ATOM      8  C   UNL d   1      27.132 -16.365  -1.095  0.00  0.00    -0.018 C 
ATOM      9  C   UNL d   1      25.944 -15.913  -1.574  0.00  0.00    -0.004 C 
ENDROOT
BRANCH   9  10
ATOM     10  C   UNL d   1      24.676 -16.651  -1.379  0.00  0.00    -0.024 C 
ATOM     11  C   UNL d   1      24.405 -17.825  -2.085  0.00  0.00     0.015 C 
ATOM     12  C   UNL d   1      23.205 -18.499  -1.858  0.00  0.00     0.037 C 
ATOM     13  C   UNL d   1      22.352 -18.064  -0.835  0.00  0.00     0.102 C 
ATOM     14  C   UNL d   1      22.607 -16.876  -0.145  0.00  0.00     0.037 C 
ATOM     15  C   UNL d   1      23.713 -16.119  -0.510  0.00  0.00     0.015 C 
BRANCH  13  16
ATOM     16  N   UNL d   1      21.191 -18.868  -0.447  0.00  0.00    -0.116 N 
ATOM     17  O   UNL d   1      20.940 -18.951   0.772  0.00  0.00    -0.532 OA
ATOM     18  O   UNL d   1      20.524 -19.385  -1.341  0.00  0.00    -0.532 OA
ENDBRANCH  13  16
ENDBRANCH   9  10
BRANCH   9  19
ATOM     19  C   UNL d   1      25.866 -14.593  -2.260  0.00  0.00    -0.018 C 
ATOM     20  C   UNL d   1      25.531 -14.656  -3.586  0.00  0.00     0.015 C 
ATOM     21  C   UNL d   1      25.667 -13.522  -4.360  0.00  0.00     0.030 C 
ATOM     22  C   UNL d   1      25.904 -12.221  -3.899  0.00  0.00     0.030 C 
ATOM     23  C   UNL d   1      26.183 -12.179  -2.525  0.00  0.00     0.037 C 
ATOM     24  C   UNL d   1      26.190 -13.340  -1.707  0.00  0.00    -0.049 C 
ATOM     25  C   UNL d   1      26.525 -13.196  -0.253  0.00  0.00     0.049 C 
BRANCH  22  26
ATOM     26  N   UNL d   1      25.880 -11.083  -4.707  0.00  0.00    -0.377 N 
BRANCH  26  27
ATOM     27  C   UNL d   1      25.944  -9.669  -4.231  0.00  0.00     0.149 C 
BRANCH  27  28
ATOM     28  C   UNL d   1      24.779  -8.746  -4.524  0.00  0.00     0.183 C 
BRANCH  28  29
ATOM     29  O   UNL d   1      24.354  -8.733  -5.872  0.00  0.00    -0.399 OA
ATOM     30  H   UNL d   1      25.158  -8.700  -6.413  0.00  0.00     0.209 HD
ENDBRANCH  28  29
ENDBRANCH  27  28
ENDBRANCH  26  27
BRANCH  26  31
ATOM     31  C   UNL d   1      25.936 -11.253  -6.193  0.00  0.00     0.149 C 
BRANCH  31  32
ATOM     32  C   UNL d   1      26.950 -10.354  -6.930  0.00  0.00     0.183 C 
BRANCH  32  33
ATOM     33  O   UNL d   1      26.318  -9.240  -7.551  0.00  0.00    -0.399 OA
ATOM     34  H   UNL d   1      25.373  -9.447  -7.645  0.00  0.00     0.209 HD
ENDBRANCH  32  33
ENDBRANCH  31  32
ENDBRANCH  26  31
ENDBRANCH  22  26
ENDBRANCH   9  19
BRANCH   5  35
ATOM     35  C   UNL d   1      32.196 -17.101  -1.876  0.00  0.00     0.149 C 
BRANCH  35  36
ATOM     36  C   UNL d   1      32.711 -15.906  -1.119  0.00  0.00     0.183 C 
BRANCH  36  37
ATOM     37  O   UNL d   1      32.587 -16.050   0.274  0.00  0.00    -0.399 OA
ATOM     38  H   UNL d   1      32.628 -17.002   0.475  0.00  0.00     0.209 HD
ENDBRANCH  36  37
ENDBRANCH  35  36
ENDBRANCH   5  35
BRANCH   5  39
ATOM     39  C   UNL d   1      31.195 -19.314  -1.047  0.00  0.00     0.149 C 
BRANCH  39  40
ATOM     40  C   UNL d   1      31.918 -19.677   0.241  0.00  0.00     0.183 C 
BRANCH  40  41
ATOM     41  O   UNL d   1      32.246 -18.503   0.961  0.00  0.00    -0.399 OA
ATOM     42  H   UNL d   1      31.481 -17.900   0.979  0.00  0.00     0.209 HD
ENDBRANCH  40  41
ENDBRANCH  39  40
ENDBRANCH   5  39
TORSDOF 16
ENDMDL
MODEL 8
REMARK VINA RESULT:    -5.396      4.047      7.880
REMARK INTER + INTRA:         -15.598
REMARK INTER:                 -10.169
REMARK INTRA:                  -5.429
REMARK CONF_INDEPENDENT:        4.773
REMARK UNBOUND:                -5.429
REMARK  16 active torsions:
REMARK  status: ('A' for Active; 'I' for Inactive)
REMARK    1  A    between atoms: N_5  and  C_6 
REMARK    2  A    between atoms: N_5  and  C_9 
REMARK    3  A    between atoms: C_6  and  C_7 
REMARK    4  A    between atoms: C_7  and  O_8 
REMARK    5  A    between atoms: C_9  and  C_10 
REMARK    6  A    between atoms: C_10  and  O_11 
REMARK    7  A    between atoms: C_15  and  C_16 
REMARK    8  A    between atoms: C_15  and  C_25 
REMARK    9  A    between atoms: C_19  and  N_20 
REMARK   10  A    between atoms: C_28  and  N_29 
REMARK   11  A    between atoms: N_29  and  C_30 
REMARK   12  A    between atoms: N_29  and  C_33 
REMARK   13  A    between atoms: C_30  and  C_31 
REMARK   14  A    between atoms: C_31  and  O_32 
REMARK   15  A    between atoms: C_33  and  C_34 
REMARK   16  A    between atoms: C_34  and  O_35 
ROOT
ATOM      1  C   UNL d   1      26.283 -14.100   0.981  0.00  0.00     0.049 C 
ATOM      2  C   UNL d   1      27.706 -14.012   0.553  0.00  0.00    -0.049 C 
ATOM      3  C   UNL d   1      28.513 -13.335   1.386  0.00  0.00     0.037 C 
ATOM      4  C   UNL d   1      29.958 -13.125   1.085  0.00  0.00     0.030 C 
ATOM      5  N   UNL d   1      30.807 -12.824   2.031  0.00  0.00    -0.377 N 
ATOM      6  C   UNL d   1      30.256 -13.277  -0.364  0.00  0.00     0.030 C 
ATOM      7  C   UNL d   1      29.459 -13.950  -1.180  0.00  0.00     0.015 C 
ATOM      8  C   UNL d   1      28.249 -14.581  -0.698  0.00  0.00    -0.018 C 
ATOM      9  C   UNL d   1      27.733 -15.576  -1.467  0.00  0.00    -0.004 C 
ENDROOT
BRANCH   9  10
ATOM     10  C   UNL d   1      26.369 -16.112  -1.261  0.00  0.00    -0.024 C 
ATOM     11  C   UNL d   1      25.256 -15.510  -1.851  0.00  0.00     0.015 C 
ATOM     12  C   UNL d   1      23.991 -16.059  -1.645  0.00  0.00     0.037 C 
ATOM     13  C   UNL d   1      23.869 -17.276  -0.960  0.00  0.00     0.102 C 
ATOM     14  C   UNL d   1      24.976 -17.867  -0.346  0.00  0.00     0.037 C 
ATOM     15  C   UNL d   1      26.199 -17.211  -0.406  0.00  0.00     0.015 C 
BRANCH  13  16
ATOM     16  N   UNL d   1      22.580 -17.969  -0.905  0.00  0.00    -0.116 N 
ATOM     17  O   UNL d   1      22.573 -19.179  -1.204  0.00  0.00    -0.532 OA
ATOM     18  O   UNL d   1      21.595 -17.326  -0.544  0.00  0.00    -0.532 OA
ENDBRANCH  13  16
ENDBRANCH   9  10
BRANCH   9  19
ATOM     19  C   UNL d   1      28.513 -16.118  -2.614  0.00  0.00    -0.018 C 
ATOM     20  C   UNL d   1      29.474 -17.031  -2.271  0.00  0.00     0.015 C 
ATOM     21  C   UNL d   1      30.402 -17.406  -3.221  0.00  0.00     0.030 C 
ATOM     22  C   UNL d   1      30.350 -17.129  -4.593  0.00  0.00     0.030 C 
ATOM     23  C   UNL d   1      29.317 -16.240  -4.924  0.00  0.00     0.037 C 
ATOM     24  C   UNL d   1      28.417 -15.715  -3.959  0.00  0.00    -0.049 C 
ATOM     25  C   UNL d   1      27.360 -14.751  -4.407  0.00  0.00     0.049 C 
BRANCH  22  26
ATOM     26  N   UNL d   1      31.229 -17.661  -5.538  0.00  0.00    -0.377 N 
BRANCH  26  27
ATOM     27  C   UNL d   1      31.845 -19.021  -5.493  0.00  0.00     0.149 C 
BRANCH  27  28
ATOM     28  C   UNL d   1      30.954 -20.232  -5.678  0.00  0.00     0.183 C 
BRANCH  28  29
ATOM     29  O   UNL d   1      29.925 -20.075  -6.634  0.00  0.00    -0.399 OA
ATOM     30  H   UNL d   1      30.329 -20.233  -7.501  0.00  0.00     0.209 HD
ENDBRANCH  28  29
ENDBRANCH  27  28
ENDBRANCH  26  27
BRANCH  26  31
ATOM     31  C   UNL d   1      31.493 -16.888  -6.793  0.00  0.00     0.149 C 
BRANCH  31  32
ATOM     32  C   UNL d   1      32.102 -17.695  -7.958  0.00  0.00     0.183 C 
BRANCH  32  33
ATOM     33  O   UNL d   1      31.153 -18.583  -8.540  0.00  0.00    -0.399 OA
ATOM     34  H   UNL d   1      30.331 -18.520  -8.027  0.00  0.00     0.209 HD
ENDBRANCH  32  33
ENDBRANCH  31  32
ENDBRANCH  26  31
ENDBRANCH  22  26
ENDBRANCH   9  19
BRANCH   5  35
ATOM     35  C   UNL d   1      32.309 -12.674   1.886  0.00  0.00     0.149 C 
BRANCH  35  36
ATOM     36  C   UNL d   1      33.087 -13.945   1.674  0.00  0.00     0.183 C 
BRANCH  36  37
ATOM     37  O   UNL d   1      33.399 -14.598   2.879  0.00  0.00    -0.399 OA
ATOM     38  H   UNL d   1      33.015 -14.074   3.605  0.00  0.00     0.209 HD
ENDBRANCH  36  37
ENDBRANCH  35  36
ENDBRANCH   5  35
BRANCH   5  39
ATOM     39  C   UNL d   1      30.279 -12.625   3.456  0.00  0.00     0.149 C 
BRANCH  39  40
ATOM     40  C   UNL d   1      30.380 -13.850   4.351  0.00  0.00     0.183 C 
BRANCH  40  41
ATOM     41  O   UNL d   1      31.024 -14.905   3.659  0.00  0.00    -0.399 OA
ATOM     42  H   UNL d   1      31.905 -15.065   4.042  0.00  0.00     0.209 HD
ENDBRANCH  40  41
ENDBRANCH  39  40
ENDBRANCH   5  39
TORSDOF 16
ENDMDL
MODEL 9
REMARK VINA RESULT:    -4.640      5.778      7.853
REMARK INTER + INTRA:         -14.840
REMARK INTER:                  -9.413
REMARK INTRA:                  -5.427
REMARK CONF_INDEPENDENT:        4.773
REMARK UNBOUND:                -5.427
REMARK  16 active torsions:
REMARK  status: ('A' for Active; 'I' for Inactive)
REMARK    1  A    between atoms: N_5  and  C_6 
REMARK    2  A    between atoms: N_5  and  C_9 
REMARK    3  A    between atoms: C_6  and  C_7 
REMARK    4  A    between atoms: C_7  and  O_8 
REMARK    5  A    between atoms: C_9  and  C_10 
REMARK    6  A    between atoms: C_10  and  O_11 
REMARK    7  A    between atoms: C_15  and  C_16 
REMARK    8  A    between atoms: C_15  and  C_25 
REMARK    9  A    between atoms: C_19  and  N_20 
REMARK   10  A    between atoms: C_28  and  N_29 
REMARK   11  A    between atoms: N_29  and  C_30 
REMARK   12  A    between atoms: N_29  and  C_33 
REMARK   13  A    between atoms: C_30  and  C_31 
REMARK   14  A    between atoms: C_31  and  O_32 
REMARK   15  A    between atoms: C_33  and  C_34 
REMARK   16  A    between atoms: C_34  and  O_35 
ROOT
ATOM      1  C   UNL d   1      29.329 -12.310   0.409  0.00  0.00     0.049 C 
ATOM      2  C   UNL d   1      30.224 -13.101   1.298  0.00  0.00    -0.049 C 
ATOM      3  C   UNL d   1      31.261 -13.694   0.685  0.00  0.00     0.037 C 
ATOM      4  C   UNL d   1      32.230 -14.551   1.426  0.00  0.00     0.030 C 
ATOM      5  N   UNL d   1      33.416 -14.803   0.942  0.00  0.00    -0.377 N 
ATOM      6  C   UNL d   1      31.662 -15.060   2.704  0.00  0.00     0.030 C 
ATOM      7  C   UNL d   1      30.644 -14.468   3.307  0.00  0.00     0.015 C 
ATOM      8  C   UNL d   1      30.026 -13.282   2.751  0.00  0.00    -0.018 C 
ATOM      9  C   UNL d   1      29.305 -12.512   3.608  0.00  0.00    -0.004 C 
ENDROOT
BRANCH   9  10
ATOM     10  C   UNL d   1      28.393 -11.445   3.140  0.00  0.00    -0.024 C 
ATOM     11  C   UNL d   1      27.119 -11.743   2.651  0.00  0.00     0.015 C 
ATOM     12  C   UNL d   1      26.285 -10.705   2.237  0.00  0.00     0.037 C 
ATOM     13  C   UNL d   1      26.683  -9.376   2.439  0.00  0.00     0.102 C 
ATOM     14  C   UNL d   1      27.966  -9.075   2.902  0.00  0.00     0.037 C 
ATOM     15  C   UNL d   1      28.850 -10.119   3.137  0.00  0.00     0.015 C 
BRANCH  13  16
ATOM     16  N   UNL d   1      25.746  -8.278   2.198  0.00  0.00    -0.116 N 
ATOM     17  O   UNL d   1      25.915  -7.232   2.855  0.00  0.00    -0.532 OA
ATOM     18  O   UNL d   1      24.871  -8.442   1.348  0.00  0.00    -0.532 OA
ENDBRANCH  13  16
ENDBRANCH   9  10
BRANCH   9  19
ATOM     19  C   UNL d   1      29.355 -12.774   5.073  0.00  0.00    -0.018 C 
ATOM     20  C   UNL d   1      30.162 -11.923   5.779  0.00  0.00     0.015 C 
ATOM     21  C   UNL d   1      30.462 -12.227   7.091  0.00  0.00     0.030 C 
ATOM     22  C   UNL d   1      29.851 -13.210   7.879  0.00  0.00     0.030 C 
ATOM     23  C   UNL d   1      28.982 -14.028   7.143  0.00  0.00     0.037 C 
ATOM     24  C   UNL d   1      28.742 -13.841   5.756  0.00  0.00    -0.049 C 
ATOM     25  C   UNL d   1      27.814 -14.783   5.051  0.00  0.00     0.049 C 
BRANCH  22  26
ATOM     26  N   UNL d   1      30.080 -13.377   9.247  0.00  0.00    -0.377 N 
BRANCH  26  27
ATOM     27  C   UNL d   1      31.413 -13.550   9.898  0.00  0.00     0.149 C 
BRANCH  27  28
ATOM     28  C   UNL d   1      32.049 -14.924   9.907  0.00  0.00     0.183 C 
BRANCH  28  29
ATOM     29  O   UNL d   1      31.158 -15.995   9.665  0.00  0.00    -0.399 OA
ATOM     30  H   UNL d   1      30.498 -15.666   9.035  0.00  0.00     0.209 HD
ENDBRANCH  28  29
ENDBRANCH  27  28
ENDBRANCH  26  27
BRANCH  26  31
ATOM     31  C   UNL d   1      28.928 -13.236  10.193  0.00  0.00     0.149 C 
BRANCH  31  32
ATOM     32  C   UNL d   1      28.263 -14.556  10.637  0.00  0.00     0.183 C 
BRANCH  32  33
ATOM     33  O   UNL d   1      28.398 -15.575   9.652  0.00  0.00    -0.399 OA
ATOM     34  H   UNL d   1      29.234 -15.426   9.180  0.00  0.00     0.209 HD
ENDBRANCH  32  33
ENDBRANCH  31  32
ENDBRANCH  26  31
ENDBRANCH  22  26
ENDBRANCH   9  19
BRANCH   5  35
ATOM     35  C   UNL d   1      34.527 -15.576   1.623  0.00  0.00     0.149 C 
BRANCH  35  36
ATOM     36  C   UNL d   1      34.449 -17.076   1.529  0.00  0.00     0.183 C 
BRANCH  36  37
ATOM     37  O   UNL d   1      33.669 -17.513   0.444  0.00  0.00    -0.399 OA
ATOM     38  H   UNL d   1      33.948 -17.006  -0.340  0.00  0.00     0.209 HD
ENDBRANCH  36  37
ENDBRANCH  35  36
ENDBRANCH   5  35
BRANCH   5  39
ATOM     39  C   UNL d   1      33.776 -14.252  -0.443  0.00  0.00     0.149 C 
BRANCH  39  40
ATOM     40  C   UNL d   1      32.972 -14.838  -1.593  0.00  0.00     0.183 C 
BRANCH  40  41
ATOM     41  O   UNL d   1      32.331 -16.031  -1.178  0.00  0.00    -0.399 OA
ATOM     42  H   UNL d   1      32.608 -16.259  -0.272  0.00  0.00     0.209 HD
ENDBRANCH  40  41
ENDBRANCH  39  40
ENDBRANCH   5  39
TORSDOF 16
ENDMDL
