MODEL 1
REMARK VINA RESULT:    -8.588      0.000      0.000
REMARK INTER + INTRA:         -14.675
REMARK INTER:                 -12.764
REMARK INTRA:                  -1.911
REMARK CONF_INDEPENDENT:        4.176
REMARK UNBOUND:                -1.911
REMARK  14 active torsions:
REMARK  status: ('A' for Active; 'I' for Inactive)
REMARK    1  A    between atoms: C_2  and  C_3 
REMARK    2  A    between atoms: C_3  and  C_4 
REMARK    3  A    between atoms: C_4  and  C_5 
REMARK    4  A    between atoms: C_5  and  C_6 
REMARK    5  A    between atoms: C_6  and  O_7 
REMARK    6  A    between atoms: O_7  and  C_8 
REMARK    7  A    between atoms: C_11  and  C_12 
REMARK       I    between atoms: C_12  and  N_14 
REMARK    8  A    between atoms: N_14  and  C_15 
REMARK    9  A    between atoms: C_15  and  N_17 
REMARK   10  A    between atoms: C_23  and  C_24 
REMARK   11  A    between atoms: C_24  and  C_25 
REMARK   12  A    between atoms: C_25  and  O_27 
REMARK   13  A    between atoms: O_27  and  C_28 
REMARK   14  A    between atoms: C_28  and  C_30 
ROOT
ATOM      1  C   UNL d   1      28.187 -15.121   0.243  0.00  0.00     0.177 C 
ATOM      2  S   UNL d   1      28.914 -14.576   1.670  0.00  0.00    -0.041 SA
ENDROOT
BRANCH   1   3
ATOM      3  N   UNL d   1      26.857 -15.610   0.216  0.00  0.00    -0.299 N 
ATOM      4  C   UNL d   1      26.475 -16.964   0.014  0.00  0.00     0.257 C 
ATOM      5  O   UNL d   1      27.254 -17.917   0.025  0.00  0.00    -0.267 OA
ATOM      6  H   UNL d   1      26.147 -14.905   0.118  0.00  0.00     0.171 HD
BRANCH   4   7
ATOM      7  C   UNL d   1      25.051 -17.347  -0.250  0.00  0.00     0.032 A 
ATOM      8  C   UNL d   1      24.132 -16.308  -0.537  0.00  0.00     0.020 A 
ATOM      9  C   UNL d   1      22.762 -16.558  -0.683  0.00  0.00     0.038 A 
ATOM     10  C   UNL d   1      22.291 -17.863  -0.619  0.00  0.00     0.068 A 
ATOM     11  C   UNL d   1      23.196 -18.902  -0.387  0.00  0.00     0.038 A 
ATOM     12  C   UNL d   1      24.566 -18.650  -0.195  0.00  0.00     0.020 A 
BRANCH  10  13
ATOM     13  O   UNL d   1      20.963 -18.039  -0.903  0.00  0.00    -0.351 OA
BRANCH  13  14
ATOM     14  C   UNL d   1      20.611 -19.317  -1.435  0.00  0.00     0.175 C 
BRANCH  14  15
ATOM     15  C   UNL d   1      19.242 -19.714  -0.892  0.00  0.00     0.027 C 
BRANCH  15  16
ATOM     16  C   UNL d   1      19.373 -20.841   0.128  0.00  0.00     0.002 C 
BRANCH  16  17
ATOM     17  C   UNL d   1      18.432 -20.624   1.305  0.00  0.00    -0.000 C 
BRANCH  17  18
ATOM     18  C   UNL d   1      19.215 -20.303   2.575  0.00  0.00    -0.005 C 
ATOM     19  C   UNL d   1      20.390 -19.396   2.263  0.00  0.00     0.005 C 
ENDBRANCH  17  18
ENDBRANCH  16  17
ENDBRANCH  15  16
ENDBRANCH  14  15
ENDBRANCH  13  14
ENDBRANCH  10  13
ENDBRANCH   4   7
ENDBRANCH   1   3
BRANCH   1  20
ATOM     20  N   UNL d   1      28.885 -15.250  -1.003  0.00  0.00    -0.343 N 
ATOM     21  C   UNL d   1      30.112 -14.442  -1.283  0.00  0.00     0.146 C 
ATOM     22  C   UNL d   1      31.141 -15.334  -1.932  0.00  0.00     0.142 C 
ATOM     23  N   UNL d   1      30.595 -15.910  -3.150  0.00  0.00    -0.358 N 
ATOM     24  C   UNL d   1      29.267 -16.249  -3.294  0.00  0.00     0.241 C 
ATOM     25  H   UNL d   1      31.222 -16.254  -3.868  0.00  0.00     0.162 HD
ATOM     26  O   UNL d   1      28.916 -16.882  -4.290  0.00  0.00    -0.271 OA
ATOM     27  C   UNL d   1      28.226 -15.653  -2.279  0.00  0.00     0.188 C 
BRANCH  27  28
ATOM     28  C   UNL d   1      27.426 -14.520  -3.040  0.00  0.00     0.146 C 
BRANCH  28  29
ATOM     29  C   UNL d   1      26.579 -14.941  -4.222  0.00  0.00     0.261 C 
ATOM     30  O   UNL d   1      25.360 -15.050  -4.192  0.00  0.00    -0.265 OA
BRANCH  29  31
ATOM     31  O   UNL d   1      27.213 -15.193  -5.390  0.00  0.00    -0.316 OA
BRANCH  31  32
ATOM     32  C   UNL d   1      28.179 -14.129  -5.674  0.00  0.00     0.127 C 
ATOM     33  C   UNL d   1      29.215 -14.612  -6.706  0.00  0.00     0.040 C 
BRANCH  32  34
ATOM     34  C   UNL d   1      27.421 -12.908  -6.173  0.00  0.00     0.027 C 
ATOM     35  C   UNL d   1      27.070 -11.943  -5.050  0.00  0.00     0.007 C 
ENDBRANCH  32  34
ENDBRANCH  31  32
ENDBRANCH  29  31
ENDBRANCH  28  29
ENDBRANCH  27  28
ENDBRANCH   1  20
TORSDOF 14
ENDMDL
MODEL 2
REMARK VINA RESULT:    -8.586      1.565      2.199
REMARK INTER + INTRA:         -14.684
REMARK INTER:                 -12.762
REMARK INTRA:                  -1.921
REMARK CONF_INDEPENDENT:        4.176
REMARK UNBOUND:                -1.921
REMARK  14 active torsions:
REMARK  status: ('A' for Active; 'I' for Inactive)
REMARK    1  A    between atoms: C_2  and  C_3 
REMARK    2  A    between atoms: C_3  and  C_4 
REMARK    3  A    between atoms: C_4  and  C_5 
REMARK    4  A    between atoms: C_5  and  C_6 
REMARK    5  A    between atoms: C_6  and  O_7 
REMARK    6  A    between atoms: O_7  and  C_8 
REMARK    7  A    between atoms: C_11  and  C_12 
REMARK       I    between atoms: C_12  and  N_14 
REMARK    8  A    between atoms: N_14  and  C_15 
REMARK    9  A    between atoms: C_15  and  N_17 
REMARK   10  A    between atoms: C_23  and  C_24 
REMARK   11  A    between atoms: C_24  and  C_25 
REMARK   12  A    between atoms: C_25  and  O_27 
REMARK   13  A    between atoms: O_27  and  C_28 
REMARK   14  A    between atoms: C_28  and  C_30 
ROOT
ATOM      1  C   UNL d   1      29.764 -16.367  -1.273  0.00  0.00     0.177 C 
ATOM      2  S   UNL d   1      30.903 -16.877  -0.130  0.00  0.00    -0.041 SA
ENDROOT
BRANCH   1   3
ATOM      3  N   UNL d   1      28.421 -16.819  -1.249  0.00  0.00    -0.299 N 
ATOM      4  C   UNL d   1      27.287 -16.030  -0.919  0.00  0.00     0.257 C 
ATOM      5  O   UNL d   1      27.302 -14.805  -0.796  0.00  0.00    -0.267 OA
ATOM      6  H   UNL d   1      28.310 -17.818  -1.256  0.00  0.00     0.171 HD
BRANCH   4   7
ATOM      7  C   UNL d   1      25.945 -16.647  -0.673  0.00  0.00     0.032 A 
ATOM      8  C   UNL d   1      24.804 -15.946  -1.136  0.00  0.00     0.020 A 
ATOM      9  C   UNL d   1      23.506 -16.387  -0.851  0.00  0.00     0.038 A 
ATOM     10  C   UNL d   1      23.319 -17.578  -0.162  0.00  0.00     0.068 A 
ATOM     11  C   UNL d   1      24.437 -18.304   0.255  0.00  0.00     0.038 A 
ATOM     12  C   UNL d   1      25.743 -17.842   0.011  0.00  0.00     0.020 A 
BRANCH  10  13
ATOM     13  O   UNL d   1      22.025 -18.008  -0.039  0.00  0.00    -0.351 OA
BRANCH  13  14
ATOM     14  C   UNL d   1      21.767 -19.328  -0.516  0.00  0.00     0.175 C 
BRANCH  14  15
ATOM     15  C   UNL d   1      20.455 -19.320  -1.296  0.00  0.00     0.027 C 
BRANCH  15  16
ATOM     16  C   UNL d   1      19.264 -19.371  -0.345  0.00  0.00     0.002 C 
BRANCH  16  17
ATOM     17  C   UNL d   1      19.723 -19.526   1.099  0.00  0.00    -0.000 C 
BRANCH  17  18
ATOM     18  C   UNL d   1      19.020 -20.702   1.770  0.00  0.00    -0.005 C 
ATOM     19  C   UNL d   1      18.003 -21.323   0.832  0.00  0.00     0.005 C 
ENDBRANCH  17  18
ENDBRANCH  16  17
ENDBRANCH  15  16
ENDBRANCH  14  15
ENDBRANCH  13  14
ENDBRANCH  10  13
ENDBRANCH   4   7
ENDBRANCH   1   3
BRANCH   1  20
ATOM     20  N   UNL d   1      30.092 -15.557  -2.410  0.00  0.00    -0.343 N 
ATOM     21  C   UNL d   1      30.831 -14.267  -2.246  0.00  0.00     0.146 C 
ATOM     22  C   UNL d   1      31.885 -14.174  -3.322  0.00  0.00     0.142 C 
ATOM     23  N   UNL d   1      31.261 -14.266  -4.631  0.00  0.00    -0.358 N 
ATOM     24  C   UNL d   1      30.150 -15.041  -4.884  0.00  0.00     0.241 C 
ATOM     25  H   UNL d   1      31.744 -13.903  -5.445  0.00  0.00     0.162 HD
ATOM     26  O   UNL d   1      29.783 -15.196  -6.049  0.00  0.00    -0.271 OA
ATOM     27  C   UNL d   1      29.290 -15.540  -3.668  0.00  0.00     0.188 C 
BRANCH  27  28
ATOM     28  C   UNL d   1      27.968 -14.671  -3.642  0.00  0.00     0.146 C 
BRANCH  28  29
ATOM     29  C   UNL d   1      26.840 -15.094  -4.559  0.00  0.00     0.261 C 
ATOM     30  O   UNL d   1      26.994 -15.454  -5.719  0.00  0.00    -0.265 OA
BRANCH  29  31
ATOM     31  O   UNL d   1      25.585 -15.092  -4.053  0.00  0.00    -0.316 OA
BRANCH  31  32
ATOM     32  C   UNL d   1      25.123 -13.715  -3.869  0.00  0.00     0.127 C 
ATOM     33  C   UNL d   1      25.596 -13.173  -2.506  0.00  0.00     0.040 C 
BRANCH  32  34
ATOM     34  C   UNL d   1      25.650 -12.870  -5.018  0.00  0.00     0.027 C 
ATOM     35  C   UNL d   1      26.587 -11.768  -4.547  0.00  0.00     0.007 C 
ENDBRANCH  32  34
ENDBRANCH  31  32
ENDBRANCH  29  31
ENDBRANCH  28  29
ENDBRANCH  27  28
ENDBRANCH   1  20
TORSDOF 14
ENDMDL
MODEL 3
REMARK VINA RESULT:    -8.231      5.512      8.326
REMARK INTER + INTRA:         -14.068
REMARK INTER:                 -12.407
REMARK INTRA:                  -1.661
REMARK CONF_INDEPENDENT:        4.176
REMARK UNBOUND:                -1.661
REMARK  14 active torsions:
REMARK  status: ('A' for Active; 'I' for Inactive)
REMARK    1  A    between atoms: C_2  and  C_3 
REMARK    2  A    between atoms: C_3  and  C_4 
REMARK    3  A    between atoms: C_4  and  C_5 
REMARK    4  A    between atoms: C_5  and  C_6 
REMARK    5  A    between atoms: C_6  and  O_7 
REMARK    6  A    between atoms: O_7  and  C_8 
REMARK    7  A    between atoms: C_11  and  C_12 
REMARK       I    between atoms: C_12  and  N_14 
REMARK    8  A    between atoms: N_14  and  C_15 
REMARK    9  A    between atoms: C_15  and  N_17 
REMARK   10  A    between atoms: C_23  and  C_24 
REMARK   11  A    between atoms: C_24  and  C_25 
REMARK   12  A    between atoms: C_25  and  O_27 
REMARK   13  A    between atoms: O_27  and  C_28 
REMARK   14  A    between atoms: C_28  and  C_30 
ROOT
ATOM      1  C   UNL d   1      27.539 -14.992   0.634  0.00  0.00     0.177 C 
ATOM      2  S   UNL d   1      28.253 -13.910  -0.454  0.00  0.00    -0.041 SA
ENDROOT
BRANCH   1   3
ATOM      3  N   UNL d   1      27.773 -14.919   2.029  0.00  0.00    -0.299 N 
ATOM      4  C   UNL d   1      27.397 -13.843   2.878  0.00  0.00     0.257 C 
ATOM      5  O   UNL d   1      26.650 -12.922   2.546  0.00  0.00    -0.267 OA
ATOM      6  H   UNL d   1      28.444 -15.580   2.382  0.00  0.00     0.171 HD
BRANCH   4   7
ATOM      7  C   UNL d   1      27.906 -13.735   4.283  0.00  0.00     0.032 A 
ATOM      8  C   UNL d   1      27.789 -12.480   4.929  0.00  0.00     0.020 A 
ATOM      9  C   UNL d   1      28.339 -12.253   6.197  0.00  0.00     0.038 A 
ATOM     10  C   UNL d   1      28.954 -13.296   6.877  0.00  0.00     0.068 A 
ATOM     11  C   UNL d   1      29.030 -14.552   6.269  0.00  0.00     0.038 A 
ATOM     12  C   UNL d   1      28.518 -14.772   4.977  0.00  0.00     0.020 A 
BRANCH  10  13
ATOM     13  O   UNL d   1      29.348 -13.030   8.161  0.00  0.00    -0.351 OA
BRANCH  13  14
ATOM     14  C   UNL d   1      28.534 -12.099   8.874  0.00  0.00     0.175 C 
BRANCH  14  15
ATOM     15  C   UNL d   1      28.093 -12.738  10.188  0.00  0.00     0.027 C 
BRANCH  15  16
ATOM     16  C   UNL d   1      28.351 -14.242  10.167  0.00  0.00     0.002 C 
BRANCH  16  17
ATOM     17  C   UNL d   1      29.500 -14.612  11.096  0.00  0.00    -0.000 C 
BRANCH  17  18
ATOM     18  C   UNL d   1      30.408 -15.653  10.449  0.00  0.00    -0.005 C 
ATOM     19  C   UNL d   1      31.449 -14.984   9.572  0.00  0.00     0.005 C 
ENDBRANCH  17  18
ENDBRANCH  16  17
ENDBRANCH  15  16
ENDBRANCH  14  15
ENDBRANCH  13  14
ENDBRANCH  10  13
ENDBRANCH   4   7
ENDBRANCH   1   3
BRANCH   1  20
ATOM     20  N   UNL d   1      26.759 -16.124   0.228  0.00  0.00    -0.343 N 
ATOM     21  C   UNL d   1      27.346 -17.500   0.218  0.00  0.00     0.146 C 
ATOM     22  C   UNL d   1      26.337 -18.461   0.794  0.00  0.00     0.142 C 
ATOM     23  N   UNL d   1      25.106 -18.404   0.022  0.00  0.00    -0.358 N 
ATOM     24  C   UNL d   1      24.635 -17.248  -0.560  0.00  0.00     0.241 C 
ATOM     25  H   UNL d   1      24.460 -19.184   0.048  0.00  0.00     0.162 HD
ATOM     26  O   UNL d   1      23.507 -17.245  -1.055  0.00  0.00    -0.271 OA
ATOM     27  C   UNL d   1      25.623 -16.038  -0.736  0.00  0.00     0.188 C 
BRANCH  27  28
ATOM     28  C   UNL d   1      26.010 -15.970  -2.268  0.00  0.00     0.146 C 
BRANCH  28  29
ATOM     29  C   UNL d   1      25.158 -15.094  -3.162  0.00  0.00     0.261 C 
ATOM     30  O   UNL d   1      24.188 -14.454  -2.777  0.00  0.00    -0.265 OA
BRANCH  29  31
ATOM     31  O   UNL d   1      25.508 -14.999  -4.465  0.00  0.00    -0.316 OA
BRANCH  31  32
ATOM     32  C   UNL d   1      26.584 -14.017  -4.623  0.00  0.00     0.127 C 
ATOM     33  C   UNL d   1      27.528 -14.442  -5.765  0.00  0.00     0.040 C 
BRANCH  32  34
ATOM     34  C   UNL d   1      25.961 -12.656  -4.892  0.00  0.00     0.027 C 
ATOM     35  C   UNL d   1      25.939 -11.773  -3.653  0.00  0.00     0.007 C 
ENDBRANCH  32  34
ENDBRANCH  31  32
ENDBRANCH  29  31
ENDBRANCH  28  29
ENDBRANCH  27  28
ENDBRANCH   1  20
TORSDOF 14
ENDMDL
MODEL 4
REMARK VINA RESULT:    -8.063      1.546      2.531
REMARK INTER + INTRA:         -14.864
REMARK INTER:                 -12.239
REMARK INTRA:                  -2.625
REMARK CONF_INDEPENDENT:        4.176
REMARK UNBOUND:                -2.625
REMARK  14 active torsions:
REMARK  status: ('A' for Active; 'I' for Inactive)
REMARK    1  A    between atoms: C_2  and  C_3 
REMARK    2  A    between atoms: C_3  and  C_4 
REMARK    3  A    between atoms: C_4  and  C_5 
REMARK    4  A    between atoms: C_5  and  C_6 
REMARK    5  A    between atoms: C_6  and  O_7 
REMARK    6  A    between atoms: O_7  and  C_8 
REMARK    7  A    between atoms: C_11  and  C_12 
REMARK       I    between atoms: C_12  and  N_14 
REMARK    8  A    between atoms: N_14  and  C_15 
REMARK    9  A    between atoms: C_15  and  N_17 
REMARK   10  A    between atoms: C_23  and  C_24 
REMARK   11  A    between atoms: C_24  and  C_25 
REMARK   12  A    between atoms: C_25  and  O_27 
REMARK   13  A    between atoms: O_27  and  C_28 
REMARK   14  A    between atoms: C_28  and  C_30 
ROOT
ATOM      1  C   UNL d   1      28.717 -15.558  -1.310  0.00  0.00     0.177 C 
ATOM      2  S   UNL d   1      29.910 -15.694  -0.117  0.00  0.00    -0.041 SA
ENDROOT
BRANCH   1   3
ATOM      3  N   UNL d   1      27.356 -15.854  -1.049  0.00  0.00    -0.299 N 
ATOM      4  C   UNL d   1      26.840 -17.124  -0.677  0.00  0.00     0.257 C 
ATOM      5  O   UNL d   1      27.532 -18.088  -0.349  0.00  0.00    -0.267 OA
ATOM      6  H   UNL d   1      26.703 -15.159  -1.367  0.00  0.00     0.171 HD
BRANCH   4   7
ATOM      7  C   UNL d   1      25.369 -17.404  -0.669  0.00  0.00     0.032 A 
ATOM      8  C   UNL d   1      24.506 -16.398  -1.170  0.00  0.00     0.020 A 
ATOM      9  C   UNL d   1      23.113 -16.521  -1.096  0.00  0.00     0.038 A 
ATOM     10  C   UNL d   1      22.551 -17.685  -0.588  0.00  0.00     0.068 A 
ATOM     11  C   UNL d   1      23.394 -18.705  -0.137  0.00  0.00     0.038 A 
ATOM     12  C   UNL d   1      24.793 -18.566  -0.168  0.00  0.00     0.020 A 
BRANCH  10  13
ATOM     13  O   UNL d   1      21.188 -17.785  -0.671  0.00  0.00    -0.351 OA
BRANCH  13  14
ATOM     14  C   UNL d   1      20.668 -19.114  -0.701  0.00  0.00     0.175 C 
BRANCH  14  15
ATOM     15  C   UNL d   1      19.149 -19.049  -0.578  0.00  0.00     0.027 C 
BRANCH  15  16
ATOM     16  C   UNL d   1      18.567 -20.442  -0.355  0.00  0.00     0.002 C 
BRANCH  16  17
ATOM     17  C   UNL d   1      19.156 -21.086   0.894  0.00  0.00    -0.000 C 
BRANCH  17  18
ATOM     18  C   UNL d   1      18.946 -20.195   2.115  0.00  0.00    -0.005 C 
ATOM     19  C   UNL d   1      20.277 -19.708   2.657  0.00  0.00     0.005 C 
ENDBRANCH  17  18
ENDBRANCH  16  17
ENDBRANCH  15  16
ENDBRANCH  14  15
ENDBRANCH  13  14
ENDBRANCH  10  13
ENDBRANCH   4   7
ENDBRANCH   1   3
BRANCH   1  20
ATOM     20  N   UNL d   1      29.002 -15.264  -2.684  0.00  0.00    -0.343 N 
ATOM     21  C   UNL d   1      30.221 -14.487  -3.068  0.00  0.00     0.146 C 
ATOM     22  C   UNL d   1      30.852 -15.140  -4.272  0.00  0.00     0.142 C 
ATOM     23  N   UNL d   1      29.893 -15.195  -5.362  0.00  0.00    -0.358 N 
ATOM     24  C   UNL d   1      28.541 -15.374  -5.168  0.00  0.00     0.241 C 
ATOM     25  H   UNL d   1      30.221 -15.290  -6.316  0.00  0.00     0.162 HD
ATOM     26  O   UNL d   1      27.818 -15.575  -6.145  0.00  0.00    -0.271 OA
ATOM     27  C   UNL d   1      27.949 -15.130  -3.733  0.00  0.00     0.188 C 
BRANCH  27  28
ATOM     28  C   UNL d   1      27.177 -13.749  -3.775  0.00  0.00     0.146 C 
BRANCH  28  29
ATOM     29  C   UNL d   1      25.768 -13.724  -3.224  0.00  0.00     0.261 C 
ATOM     30  O   UNL d   1      24.814 -14.287  -3.746  0.00  0.00    -0.265 OA
BRANCH  29  31
ATOM     31  O   UNL d   1      25.557 -13.051  -2.069  0.00  0.00    -0.316 OA
BRANCH  31  32
ATOM     32  C   UNL d   1      26.828 -12.845  -1.372  0.00  0.00     0.127 C 
ATOM     33  C   UNL d   1      27.289 -11.383  -1.530  0.00  0.00     0.040 C 
BRANCH  32  34
ATOM     34  C   UNL d   1      26.644 -13.217   0.091  0.00  0.00     0.027 C 
ATOM     35  C   UNL d   1      27.834 -12.811   0.948  0.00  0.00     0.007 C 
ENDBRANCH  32  34
ENDBRANCH  31  32
ENDBRANCH  29  31
ENDBRANCH  28  29
ENDBRANCH  27  28
ENDBRANCH   1  20
TORSDOF 14
ENDMDL
MODEL 5
REMARK VINA RESULT:    -7.875      3.975      6.514
REMARK INTER + INTRA:         -14.463
REMARK INTER:                 -12.051
REMARK INTRA:                  -2.412
REMARK CONF_INDEPENDENT:        4.176
REMARK UNBOUND:                -2.412
REMARK  14 active torsions:
REMARK  status: ('A' for Active; 'I' for Inactive)
REMARK    1  A    between atoms: C_2  and  C_3 
REMARK    2  A    between atoms: C_3  and  C_4 
REMARK    3  A    between atoms: C_4  and  C_5 
REMARK    4  A    between atoms: C_5  and  C_6 
REMARK    5  A    between atoms: C_6  and  O_7 
REMARK    6  A    between atoms: O_7  and  C_8 
REMARK    7  A    between atoms: C_11  and  C_12 
REMARK       I    between atoms: C_12  and  N_14 
REMARK    8  A    between atoms: N_14  and  C_15 
REMARK    9  A    between atoms: C_15  and  N_17 
REMARK   10  A    between atoms: C_23  and  C_24 
REMARK   11  A    between atoms: C_24  and  C_25 
REMARK   12  A    between atoms: C_25  and  O_27 
REMARK   13  A    between atoms: O_27  and  C_28 
REMARK   14  A    between atoms: C_28  and  C_30 
ROOT
ATOM      1  C   UNL d   1      29.891 -14.103   1.773  0.00  0.00     0.177 C 
ATOM      2  S   UNL d   1      31.550 -14.431   1.841  0.00  0.00    -0.041 SA
ENDROOT
BRANCH   1   3
ATOM      3  N   UNL d   1      28.948 -15.078   1.361  0.00  0.00    -0.299 N 
ATOM      4  C   UNL d   1      27.998 -14.923   0.317  0.00  0.00     0.257 C 
ATOM      5  O   UNL d   1      27.995 -13.994  -0.491  0.00  0.00    -0.267 OA
ATOM      6  H   UNL d   1      28.815 -15.837   2.006  0.00  0.00     0.171 HD
BRANCH   4   7
ATOM      7  C   UNL d   1      26.881 -15.901   0.119  0.00  0.00     0.032 A 
ATOM      8  C   UNL d   1      27.068 -17.219   0.603  0.00  0.00     0.020 A 
ATOM      9  C   UNL d   1      26.129 -18.230   0.363  0.00  0.00     0.038 A 
ATOM     10  C   UNL d   1      24.948 -17.928  -0.304  0.00  0.00     0.068 A 
ATOM     11  C   UNL d   1      24.731 -16.619  -0.742  0.00  0.00     0.038 A 
ATOM     12  C   UNL d   1      25.691 -15.611  -0.541  0.00  0.00     0.020 A 
BRANCH  10  13
ATOM     13  O   UNL d   1      24.025 -18.936  -0.383  0.00  0.00    -0.351 OA
BRANCH  13  14
ATOM     14  C   UNL d   1      22.938 -18.707  -1.279  0.00  0.00     0.175 C 
BRANCH  14  15
ATOM     15  C   UNL d   1      21.647 -18.612  -0.471  0.00  0.00     0.027 C 
BRANCH  15  16
ATOM     16  C   UNL d   1      20.508 -19.325  -1.192  0.00  0.00     0.002 C 
BRANCH  16  17
ATOM     17  C   UNL d   1      19.311 -19.515  -0.269  0.00  0.00    -0.000 C 
BRANCH  17  18
ATOM     18  C   UNL d   1      19.439 -20.810   0.527  0.00  0.00    -0.005 C 
ATOM     19  C   UNL d   1      18.086 -21.254   1.049  0.00  0.00     0.005 C 
ENDBRANCH  17  18
ENDBRANCH  16  17
ENDBRANCH  15  16
ENDBRANCH  14  15
ENDBRANCH  13  14
ENDBRANCH  10  13
ENDBRANCH   4   7
ENDBRANCH   1   3
BRANCH   1  20
ATOM     20  N   UNL d   1      29.331 -12.802   1.998  0.00  0.00    -0.343 N 
ATOM     21  C   UNL d   1      30.192 -11.659   2.432  0.00  0.00     0.146 C 
ATOM     22  C   UNL d   1      29.797 -10.431   1.649  0.00  0.00     0.142 C 
ATOM     23  N   UNL d   1      28.387 -10.145   1.863  0.00  0.00    -0.358 N 
ATOM     24  C   UNL d   1      27.438 -11.127   2.043  0.00  0.00     0.241 C 
ATOM     25  H   UNL d   1      28.034  -9.210   1.696  0.00  0.00     0.162 HD
ATOM     26  O   UNL d   1      26.247 -10.812   2.051  0.00  0.00    -0.271 OA
ATOM     27  C   UNL d   1      27.917 -12.576   2.418  0.00  0.00     0.188 C 
BRANCH  27  28
ATOM     28  C   UNL d   1      27.601 -12.790   3.953  0.00  0.00     0.146 C 
BRANCH  28  29
ATOM     29  C   UNL d   1      27.718 -14.198   4.497  0.00  0.00     0.261 C 
ATOM     30  O   UNL d   1      27.781 -15.202   3.800  0.00  0.00    -0.265 OA
BRANCH  29  31
ATOM     31  O   UNL d   1      27.777 -14.349   5.840  0.00  0.00    -0.316 OA
BRANCH  31  32
ATOM     32  C   UNL d   1      29.168 -14.265   6.291  0.00  0.00     0.127 C 
ATOM     33  C   UNL d   1      30.110 -14.851   5.222  0.00  0.00     0.040 C 
BRANCH  32  34
ATOM     34  C   UNL d   1      29.494 -12.809   6.585  0.00  0.00     0.027 C 
ATOM     35  C   UNL d   1      28.474 -12.162   7.511  0.00  0.00     0.007 C 
ENDBRANCH  32  34
ENDBRANCH  31  32
ENDBRANCH  29  31
ENDBRANCH  28  29
ENDBRANCH  27  28
ENDBRANCH   1  20
TORSDOF 14
ENDMDL
MODEL 6
REMARK VINA RESULT:    -7.676      1.920      2.979
REMARK INTER + INTRA:         -14.575
REMARK INTER:                 -11.852
REMARK INTRA:                  -2.723
REMARK CONF_INDEPENDENT:        4.176
REMARK UNBOUND:                -2.723
REMARK  14 active torsions:
REMARK  status: ('A' for Active; 'I' for Inactive)
REMARK    1  A    between atoms: C_2  and  C_3 
REMARK    2  A    between atoms: C_3  and  C_4 
REMARK    3  A    between atoms: C_4  and  C_5 
REMARK    4  A    between atoms: C_5  and  C_6 
REMARK    5  A    between atoms: C_6  and  O_7 
REMARK    6  A    between atoms: O_7  and  C_8 
REMARK    7  A    between atoms: C_11  and  C_12 
REMARK       I    between atoms: C_12  and  N_14 
REMARK    8  A    between atoms: N_14  and  C_15 
REMARK    9  A    between atoms: C_15  and  N_17 
REMARK   10  A    between atoms: C_23  and  C_24 
REMARK   11  A    between atoms: C_24  and  C_25 
REMARK   12  A    between atoms: C_25  and  O_27 
REMARK   13  A    between atoms: O_27  and  C_28 
REMARK   14  A    between atoms: C_28  and  C_30 
ROOT
ATOM      1  C   UNL d   1      30.258 -14.582  -2.613  0.00  0.00     0.177 C 
ATOM      2  S   UNL d   1      31.189 -13.389  -1.855  0.00  0.00    -0.041 SA
ENDROOT
BRANCH   1   3
ATOM      3  N   UNL d   1      29.035 -15.041  -2.065  0.00  0.00    -0.299 N 
ATOM      4  C   UNL d   1      28.874 -16.185  -1.237  0.00  0.00     0.257 C 
ATOM      5  O   UNL d   1      29.803 -16.816  -0.733  0.00  0.00    -0.267 OA
ATOM      6  H   UNL d   1      28.209 -14.645  -2.479  0.00  0.00     0.171 HD
BRANCH   4   7
ATOM      7  C   UNL d   1      27.520 -16.738  -0.914  0.00  0.00     0.032 A 
ATOM      8  C   UNL d   1      27.403 -17.563   0.232  0.00  0.00     0.020 A 
ATOM      9  C   UNL d   1      26.206 -18.216   0.547  0.00  0.00     0.038 A 
ATOM     10  C   UNL d   1      25.078 -18.001  -0.235  0.00  0.00     0.068 A 
ATOM     11  C   UNL d   1      25.169 -17.149  -1.339  0.00  0.00     0.038 A 
ATOM     12  C   UNL d   1      26.382 -16.526  -1.685  0.00  0.00     0.020 A 
BRANCH  10  13
ATOM     13  O   UNL d   1      23.915 -18.568   0.214  0.00  0.00    -0.351 OA
BRANCH  13  14
ATOM     14  C   UNL d   1      22.712 -17.975  -0.275  0.00  0.00     0.175 C 
BRANCH  14  15
ATOM     15  C   UNL d   1      21.529 -18.836   0.160  0.00  0.00     0.027 C 
BRANCH  15  16
ATOM     16  C   UNL d   1      20.611 -19.124  -1.023  0.00  0.00     0.002 C 
BRANCH  16  17
ATOM     17  C   UNL d   1      19.274 -19.682  -0.553  0.00  0.00    -0.000 C 
BRANCH  17  18
ATOM     18  C   UNL d   1      19.471 -20.681   0.583  0.00  0.00    -0.005 C 
ATOM     19  C   UNL d   1      18.154 -21.338   0.953  0.00  0.00     0.005 C 
ENDBRANCH  17  18
ENDBRANCH  16  17
ENDBRANCH  15  16
ENDBRANCH  14  15
ENDBRANCH  13  14
ENDBRANCH  10  13
ENDBRANCH   4   7
ENDBRANCH   1   3
BRANCH   1  20
ATOM     20  N   UNL d   1      30.686 -15.299  -3.778  0.00  0.00    -0.343 N 
ATOM     21  C   UNL d   1      31.809 -14.790  -4.625  0.00  0.00     0.146 C 
ATOM     22  C   UNL d   1      32.702 -15.949  -4.992  0.00  0.00     0.142 C 
ATOM     23  N   UNL d   1      31.929 -16.964  -5.689  0.00  0.00    -0.358 N 
ATOM     24  C   UNL d   1      30.609 -17.235  -5.403  0.00  0.00     0.241 C 
ATOM     25  H   UNL d   1      32.402 -17.635  -6.283  0.00  0.00     0.162 HD
ATOM     26  O   UNL d   1      30.075 -18.217  -5.919  0.00  0.00    -0.271 OA
ATOM     27  C   UNL d   1      29.787 -16.178  -4.581  0.00  0.00     0.188 C 
BRANCH  27  28
ATOM     28  C   UNL d   1      28.820 -15.445  -5.597  0.00  0.00     0.146 C 
BRANCH  28  29
ATOM     29  C   UNL d   1      27.397 -15.196  -5.145  0.00  0.00     0.261 C 
ATOM     30  O   UNL d   1      26.405 -15.570  -5.756  0.00  0.00    -0.265 OA
BRANCH  29  31
ATOM     31  O   UNL d   1      27.215 -14.534  -3.979  0.00  0.00    -0.316 OA
BRANCH  31  32
ATOM     32  C   UNL d   1      26.663 -13.203  -4.240  0.00  0.00     0.127 C 
ATOM     33  C   UNL d   1      27.256 -12.628  -5.541  0.00  0.00     0.040 C 
BRANCH  32  34
ATOM     34  C   UNL d   1      25.148 -13.315  -4.319  0.00  0.00     0.027 C 
ATOM     35  C   UNL d   1      24.566 -14.122  -3.168  0.00  0.00     0.007 C 
ENDBRANCH  32  34
ENDBRANCH  31  32
ENDBRANCH  29  31
ENDBRANCH  28  29
ENDBRANCH  27  28
ENDBRANCH   1  20
TORSDOF 14
ENDMDL
MODEL 7
REMARK VINA RESULT:    -7.651      2.200      3.249
REMARK INTER + INTRA:         -14.407
REMARK INTER:                 -11.827
REMARK INTRA:                  -2.580
REMARK CONF_INDEPENDENT:        4.176
REMARK UNBOUND:                -2.580
REMARK  14 active torsions:
REMARK  status: ('A' for Active; 'I' for Inactive)
REMARK    1  A    between atoms: C_2  and  C_3 
REMARK    2  A    between atoms: C_3  and  C_4 
REMARK    3  A    between atoms: C_4  and  C_5 
REMARK    4  A    between atoms: C_5  and  C_6 
REMARK    5  A    between atoms: C_6  and  O_7 
REMARK    6  A    between atoms: O_7  and  C_8 
REMARK    7  A    between atoms: C_11  and  C_12 
REMARK       I    between atoms: C_12  and  N_14 
REMARK    8  A    between atoms: N_14  and  C_15 
REMARK    9  A    between atoms: C_15  and  N_17 
REMARK   10  A    between atoms: C_23  and  C_24 
REMARK   11  A    between atoms: C_24  and  C_25 
REMARK   12  A    between atoms: C_25  and  O_27 
REMARK   13  A    between atoms: O_27  and  C_28 
REMARK   14  A    between atoms: C_28  and  C_30 
ROOT
ATOM      1  C   UNL d   1      30.540 -16.159  -2.849  0.00  0.00     0.177 C 
ATOM      2  S   UNL d   1      31.542 -15.024  -2.093  0.00  0.00    -0.041 SA
ENDROOT
BRANCH   1   3
ATOM      3  N   UNL d   1      29.180 -16.322  -2.484  0.00  0.00    -0.299 N 
ATOM      4  C   UNL d   1      28.692 -16.492  -1.161  0.00  0.00     0.257 C 
ATOM      5  O   UNL d   1      29.365 -16.330  -0.143  0.00  0.00    -0.267 OA
ATOM      6  H   UNL d   1      28.562 -16.548  -3.244  0.00  0.00     0.171 HD
BRANCH   4   7
ATOM      7  C   UNL d   1      27.278 -16.908  -0.893  0.00  0.00     0.032 A 
ATOM      8  C   UNL d   1      27.028 -17.669   0.276  0.00  0.00     0.020 A 
ATOM      9  C   UNL d   1      25.761 -18.200   0.549  0.00  0.00     0.038 A 
ATOM     10  C   UNL d   1      24.700 -17.920  -0.302  0.00  0.00     0.068 A 
ATOM     11  C   UNL d   1      24.925 -17.127  -1.431  0.00  0.00     0.038 A 
ATOM     12  C   UNL d   1      26.205 -16.630  -1.733  0.00  0.00     0.020 A 
BRANCH  10  13
ATOM     13  O   UNL d   1      23.469 -18.362   0.103  0.00  0.00    -0.351 OA
BRANCH  13  14
ATOM     14  C   UNL d   1      22.354 -17.807  -0.596  0.00  0.00     0.175 C 
BRANCH  14  15
ATOM     15  C   UNL d   1      21.508 -18.948  -1.153  0.00  0.00     0.027 C 
BRANCH  15  16
ATOM     16  C   UNL d   1      20.169 -19.028  -0.427  0.00  0.00     0.002 C 
BRANCH  16  17
ATOM     17  C   UNL d   1      19.784 -20.475  -0.147  0.00  0.00    -0.000 C 
BRANCH  17  18
ATOM     18  C   UNL d   1      18.469 -20.548   0.623  0.00  0.00    -0.005 C 
ATOM     19  C   UNL d   1      18.716 -20.448   2.116  0.00  0.00     0.005 C 
ENDBRANCH  17  18
ENDBRANCH  16  17
ENDBRANCH  15  16
ENDBRANCH  14  15
ENDBRANCH  13  14
ENDBRANCH  10  13
ENDBRANCH   4   7
ENDBRANCH   1   3
BRANCH   1  20
ATOM     20  N   UNL d   1      31.009 -17.114  -3.810  0.00  0.00    -0.343 N 
ATOM     21  C   UNL d   1      32.461 -17.203  -4.159  0.00  0.00     0.146 C 
ATOM     22  C   UNL d   1      32.853 -18.658  -4.231  0.00  0.00     0.142 C 
ATOM     23  N   UNL d   1      32.027 -19.342  -5.212  0.00  0.00    -0.358 N 
ATOM     24  C   UNL d   1      30.708 -19.019  -5.445  0.00  0.00     0.241 C 
ATOM     25  H   UNL d   1      32.352 -20.210  -5.624  0.00  0.00     0.162 HD
ATOM     26  O   UNL d   1      30.033 -19.750  -6.170  0.00  0.00    -0.271 OA
ATOM     27  C   UNL d   1      30.173 -17.634  -4.930  0.00  0.00     0.188 C 
BRANCH  27  28
ATOM     28  C   UNL d   1      30.029 -16.690  -6.192  0.00  0.00     0.146 C 
BRANCH  28  29
ATOM     29  C   UNL d   1      29.010 -15.575  -6.113  0.00  0.00     0.261 C 
ATOM     30  O   UNL d   1      28.854 -14.722  -6.978  0.00  0.00    -0.265 OA
BRANCH  29  31
ATOM     31  O   UNL d   1      28.206 -15.534  -5.025  0.00  0.00    -0.316 OA
BRANCH  31  32
ATOM     32  C   UNL d   1      27.007 -14.747  -5.319  0.00  0.00     0.127 C 
ATOM     33  C   UNL d   1      25.742 -15.574  -5.020  0.00  0.00     0.040 C 
BRANCH  32  34
ATOM     34  C   UNL d   1      27.050 -13.473  -4.490  0.00  0.00     0.027 C 
ATOM     35  C   UNL d   1      25.984 -13.451  -3.404  0.00  0.00     0.007 C 
ENDBRANCH  32  34
ENDBRANCH  31  32
ENDBRANCH  29  31
ENDBRANCH  28  29
ENDBRANCH  27  28
ENDBRANCH   1  20
TORSDOF 14
ENDMDL
MODEL 8
REMARK VINA RESULT:    -7.575      2.447      3.936
REMARK INTER + INTRA:         -14.512
REMARK INTER:                 -11.752
REMARK INTRA:                  -2.761
REMARK CONF_INDEPENDENT:        4.176
REMARK UNBOUND:                -2.761
REMARK  14 active torsions:
REMARK  status: ('A' for Active; 'I' for Inactive)
REMARK    1  A    between atoms: C_2  and  C_3 
REMARK    2  A    between atoms: C_3  and  C_4 
REMARK    3  A    between atoms: C_4  and  C_5 
REMARK    4  A    between atoms: C_5  and  C_6 
REMARK    5  A    between atoms: C_6  and  O_7 
REMARK    6  A    between atoms: O_7  and  C_8 
REMARK    7  A    between atoms: C_11  and  C_12 
REMARK       I    between atoms: C_12  and  N_14 
REMARK    8  A    between atoms: N_14  and  C_15 
REMARK    9  A    between atoms: C_15  and  N_17 
REMARK   10  A    between atoms: C_23  and  C_24 
REMARK   11  A    between atoms: C_24  and  C_25 
REMARK   12  A    between atoms: C_25  and  O_27 
REMARK   13  A    between atoms: O_27  and  C_28 
REMARK   14  A    between atoms: C_28  and  C_30 
ROOT
ATOM      1  C   UNL d   1      27.596 -12.584  -2.921  0.00  0.00     0.177 C 
ATOM      2  S   UNL d   1      29.054 -12.264  -2.123  0.00  0.00    -0.041 SA
ENDROOT
BRANCH   1   3
ATOM      3  N   UNL d   1      26.664 -13.533  -2.432  0.00  0.00    -0.299 N 
ATOM      4  C   UNL d   1      26.929 -14.524  -1.448  0.00  0.00     0.257 C 
ATOM      5  O   UNL d   1      27.946 -14.565  -0.756  0.00  0.00    -0.267 OA
ATOM      6  H   UNL d   1      25.832 -13.636  -2.987  0.00  0.00     0.171 HD
BRANCH   4   7
ATOM      7  C   UNL d   1      25.966 -15.639  -1.177  0.00  0.00     0.032 A 
ATOM      8  C   UNL d   1      26.325 -16.593  -0.193  0.00  0.00     0.020 A 
ATOM      9  C   UNL d   1      25.545 -17.730   0.046  0.00  0.00     0.038 A 
ATOM     10  C   UNL d   1      24.350 -17.902  -0.641  0.00  0.00     0.068 A 
ATOM     11  C   UNL d   1      23.961 -16.941  -1.578  0.00  0.00     0.038 A 
ATOM     12  C   UNL d   1      24.764 -15.820  -1.853  0.00  0.00     0.020 A 
BRANCH  10  13
ATOM     13  O   UNL d   1      23.581 -18.968  -0.257  0.00  0.00    -0.351 OA
BRANCH  13  14
ATOM     14  C   UNL d   1      22.279 -18.643   0.232  0.00  0.00     0.175 C 
BRANCH  14  15
ATOM     15  C   UNL d   1      21.313 -18.581  -0.948  0.00  0.00     0.027 C 
BRANCH  15  16
ATOM     16  C   UNL d   1      20.275 -19.694  -0.851  0.00  0.00     0.002 C 
BRANCH  16  17
ATOM     17  C   UNL d   1      19.325 -19.456   0.316  0.00  0.00    -0.000 C 
BRANCH  17  18
ATOM     18  C   UNL d   1      19.283 -20.670   1.239  0.00  0.00    -0.005 C 
ATOM     19  C   UNL d   1      18.037 -21.496   0.980  0.00  0.00     0.005 C 
ENDBRANCH  17  18
ENDBRANCH  16  17
ENDBRANCH  15  16
ENDBRANCH  14  15
ENDBRANCH  13  14
ENDBRANCH  10  13
ENDBRANCH   4   7
ENDBRANCH   1   3
BRANCH   1  20
ATOM     20  N   UNL d   1      27.253 -12.028  -4.197  0.00  0.00    -0.343 N 
ATOM     21  C   UNL d   1      25.879 -11.500  -4.462  0.00  0.00     0.146 C 
ATOM     22  C   UNL d   1      25.998 -10.196  -5.212  0.00  0.00     0.142 C 
ATOM     23  N   UNL d   1      26.734 -10.406  -6.449  0.00  0.00    -0.358 N 
ATOM     24  C   UNL d   1      27.763 -11.314  -6.569  0.00  0.00     0.241 C 
ATOM     25  H   UNL d   1      26.630  -9.748  -7.212  0.00  0.00     0.162 HD
ATOM     26  O   UNL d   1      28.442 -11.314  -7.596  0.00  0.00    -0.271 OA
ATOM     27  C   UNL d   1      27.909 -12.432  -5.475  0.00  0.00     0.188 C 
BRANCH  27  28
ATOM     28  C   UNL d   1      27.405 -13.786  -6.121  0.00  0.00     0.146 C 
BRANCH  28  29
ATOM     29  C   UNL d   1      26.704 -14.772  -5.211  0.00  0.00     0.261 C 
ATOM     30  O   UNL d   1      25.573 -14.616  -4.768  0.00  0.00    -0.265 OA
BRANCH  29  31
ATOM     31  O   UNL d   1      27.365 -15.906  -4.886  0.00  0.00    -0.316 OA
BRANCH  31  32
ATOM     32  C   UNL d   1      28.736 -15.587  -4.481  0.00  0.00     0.127 C 
ATOM     33  C   UNL d   1      29.091 -16.326  -3.176  0.00  0.00     0.040 C 
BRANCH  32  34
ATOM     34  C   UNL d   1      29.676 -15.969  -5.613  0.00  0.00     0.027 C 
ATOM     35  C   UNL d   1      30.975 -16.582  -5.107  0.00  0.00     0.007 C 
ENDBRANCH  32  34
ENDBRANCH  31  32
ENDBRANCH  29  31
ENDBRANCH  28  29
ENDBRANCH  27  28
ENDBRANCH   1  20
TORSDOF 14
ENDMDL
MODEL 9
REMARK VINA RESULT:    -7.165      2.296      3.458
REMARK INTER + INTRA:         -14.638
REMARK INTER:                 -11.341
REMARK INTRA:                  -3.297
REMARK CONF_INDEPENDENT:        4.176
REMARK UNBOUND:                -3.297
REMARK  14 active torsions:
REMARK  status: ('A' for Active; 'I' for Inactive)
REMARK    1  A    between atoms: C_2  and  C_3 
REMARK    2  A    between atoms: C_3  and  C_4 
REMARK    3  A    between atoms: C_4  and  C_5 
REMARK    4  A    between atoms: C_5  and  C_6 
REMARK    5  A    between atoms: C_6  and  O_7 
REMARK    6  A    between atoms: O_7  and  C_8 
REMARK    7  A    between atoms: C_11  and  C_12 
REMARK       I    between atoms: C_12  and  N_14 
REMARK    8  A    between atoms: N_14  and  C_15 
REMARK    9  A    between atoms: C_15  and  N_17 
REMARK   10  A    between atoms: C_23  and  C_24 
REMARK   11  A    between atoms: C_24  and  C_25 
REMARK   12  A    between atoms: C_25  and  O_27 
REMARK   13  A    between atoms: O_27  and  C_28 
REMARK   14  A    between atoms: C_28  and  C_30 
ROOT
ATOM      1  C   UNL d   1      29.781 -15.912  -4.082  0.00  0.00     0.177 C 
ATOM      2  S   UNL d   1      30.752 -17.277  -4.323  0.00  0.00    -0.041 SA
ENDROOT
BRANCH   1   3
ATOM      3  N   UNL d   1      28.536 -15.985  -3.411  0.00  0.00    -0.299 N 
ATOM      4  C   UNL d   1      28.341 -16.402  -2.067  0.00  0.00     0.257 C 
ATOM      5  O   UNL d   1      29.248 -16.572  -1.252  0.00  0.00    -0.267 OA
ATOM      6  H   UNL d   1      27.728 -15.945  -4.009  0.00  0.00     0.171 HD
BRANCH   4   7
ATOM      7  C   UNL d   1      26.976 -16.689  -1.522  0.00  0.00     0.032 A 
ATOM      8  C   UNL d   1      26.882 -17.558  -0.407  0.00  0.00     0.020 A 
ATOM      9  C   UNL d   1      25.644 -17.975   0.097  0.00  0.00     0.038 A 
ATOM     10  C   UNL d   1      24.472 -17.476  -0.456  0.00  0.00     0.068 A 
ATOM     11  C   UNL d   1      24.554 -16.579  -1.525  0.00  0.00     0.038 A 
ATOM     12  C   UNL d   1      25.795 -16.192  -2.063  0.00  0.00     0.020 A 
BRANCH  10  13
ATOM     13  O   UNL d   1      23.309 -17.826   0.175  0.00  0.00    -0.351 OA
BRANCH  13  14
ATOM     14  C   UNL d   1      22.188 -18.053  -0.680  0.00  0.00     0.175 C 
BRANCH  14  15
ATOM     15  C   UNL d   1      21.426 -19.275  -0.176  0.00  0.00     0.027 C 
BRANCH  15  16
ATOM     16  C   UNL d   1      19.943 -19.161  -0.514  0.00  0.00     0.002 C 
BRANCH  16  17
ATOM     17  C   UNL d   1      19.081 -19.674   0.632  0.00  0.00    -0.000 C 
BRANCH  17  18
ATOM     18  C   UNL d   1      19.100 -21.198   0.687  0.00  0.00    -0.005 C 
ATOM     19  C   UNL d   1      17.714 -21.741   0.980  0.00  0.00     0.005 C 
ENDBRANCH  17  18
ENDBRANCH  16  17
ENDBRANCH  15  16
ENDBRANCH  14  15
ENDBRANCH  13  14
ENDBRANCH  10  13
ENDBRANCH   4   7
ENDBRANCH   1   3
BRANCH   1  20
ATOM     20  N   UNL d   1      30.074 -14.623  -4.639  0.00  0.00    -0.343 N 
ATOM     21  C   UNL d   1      30.336 -13.445  -3.755  0.00  0.00     0.146 C 
ATOM     22  C   UNL d   1      31.510 -12.677  -4.308  0.00  0.00     0.142 C 
ATOM     23  N   UNL d   1      31.229 -12.264  -5.674  0.00  0.00    -0.358 N 
ATOM     24  C   UNL d   1      30.485 -13.021  -6.552  0.00  0.00     0.241 C 
ATOM     25  H   UNL d   1      31.738 -11.486  -6.078  0.00  0.00     0.162 HD
ATOM     26  O   UNL d   1      30.432 -12.684  -7.735  0.00  0.00    -0.271 OA
ATOM     27  C   UNL d   1      29.585 -14.173  -5.974  0.00  0.00     0.188 C 
BRANCH  27  28
ATOM     28  C   UNL d   1      28.086 -13.669  -6.035  0.00  0.00     0.146 C 
BRANCH  28  29
ATOM     29  C   UNL d   1      27.036 -14.528  -5.364  0.00  0.00     0.261 C 
ATOM     30  O   UNL d   1      26.603 -15.575  -5.829  0.00  0.00    -0.265 OA
BRANCH  29  31
ATOM     31  O   UNL d   1      26.563 -14.120  -4.164  0.00  0.00    -0.316 OA
BRANCH  31  32
ATOM     32  C   UNL d   1      26.792 -12.683  -3.999  0.00  0.00     0.127 C 
ATOM     33  C   UNL d   1      25.829 -11.885  -4.899  0.00  0.00     0.040 C 
BRANCH  32  34
ATOM     34  C   UNL d   1      26.608 -12.330  -2.531  0.00  0.00     0.027 C 
ATOM     35  C   UNL d   1      27.436 -13.217  -1.613  0.00  0.00     0.007 C 
ENDBRANCH  32  34
ENDBRANCH  31  32
ENDBRANCH  29  31
ENDBRANCH  28  29
ENDBRANCH  27  28
ENDBRANCH   1  20
TORSDOF 14
ENDMDL
