MODEL 1
REMARK VINA RESULT:   -10.009      0.000      0.000
REMARK INTER + INTRA:         -15.174
REMARK INTER:                 -12.992
REMARK INTRA:                  -2.182
REMARK CONF_INDEPENDENT:        2.983
REMARK UNBOUND:                -2.182
REMARK  10 active torsions:
REMARK  status: ('A' for Active; 'I' for Inactive)
REMARK    1  A    between atoms: C_2  and  C_3 
REMARK       I    between atoms: C_3  and  N_5 
REMARK    2  A    between atoms: N_5  and  C_6 
REMARK    3  A    between atoms: C_9  and  C_10 
REMARK       I    between atoms: C_10  and  N_12 
REMARK    4  A    between atoms: N_12  and  N_13 
REMARK    5  A    between atoms: N_13  and  C_14 
REMARK    6  A    between atoms: C_14  and  N_16 
REMARK       I    between atoms: N_16  and  C_17 
REMARK    7  A    between atoms: C_17  and  C_19 
REMARK    8  A    between atoms: C_19  and  O_20 
REMARK    9  A    between atoms: O_20  and  C_21 
REMARK   10  A    between atoms: C_24  and  C_25 
ROOT
ATOM      1  N   UNL d   1      28.245 -15.792  -1.426  0.00  0.00    -0.273 N 
ATOM      2  H   UNL d   1      28.271 -15.431  -2.378  0.00  0.00     0.189 HD
ENDROOT
BRANCH   1   3
ATOM      3  N   UNL d   1      27.038 -16.545  -1.092  0.00  0.00    -0.264 N 
ATOM      4  C   UNL d   1      25.772 -16.218  -1.560  0.00  0.00     0.270 C 
ATOM      5  O   UNL d   1      25.589 -15.253  -2.314  0.00  0.00    -0.266 OA
ATOM      6  H   UNL d   1      27.207 -17.318  -0.449  0.00  0.00     0.190 HD
BRANCH   4   7
ATOM      7  C   UNL d   1      24.588 -17.066  -1.097  0.00  0.00     0.033 A 
ATOM      8  C   UNL d   1      23.290 -16.510  -1.057  0.00  0.00     0.019 A 
ATOM      9  C   UNL d   1      22.181 -17.226  -0.532  0.00  0.00     0.030 A 
ATOM     10  C   UNL d   1      22.345 -18.531  -0.062  0.00  0.00     0.034 A 
ATOM     11  C   UNL d   1      23.620 -19.096  -0.140  0.00  0.00     0.030 A 
ATOM     12  C   UNL d   1      24.721 -18.387  -0.656  0.00  0.00     0.019 A 
BRANCH  10  13
ATOM     13  N   UNL d   1      21.250 -19.287   0.444  0.00  0.00    -0.327 N 
ATOM     14  C   UNL d   1      20.247 -19.775  -0.388  0.00  0.00     0.221 C 
ATOM     15  O   UNL d   1      20.272 -19.668  -1.614  0.00  0.00    -0.273 OA
ATOM     16  H   UNL d   1      21.288 -19.597   1.408  0.00  0.00     0.169 HD
BRANCH  14  17
ATOM     17  C   UNL d   1      19.099 -20.503   0.304  0.00  0.00     0.098 C 
ATOM     18  C   UNL d   1      18.819 -19.856   1.662  0.00  0.00     0.014 C 
ENDBRANCH  14  17
ENDBRANCH  10  13
ENDBRANCH   4   7
ENDBRANCH   1   3
BRANCH   1  19
ATOM     19  C   UNL d   1      29.225 -15.634  -0.424  0.00  0.00     0.193 C 
ATOM     20  S   UNL d   1      30.834 -16.012  -0.795  0.00  0.00    -0.039 SA
BRANCH  19  21
ATOM     21  N   UNL d   1      28.769 -15.156   0.832  0.00  0.00    -0.301 N 
ATOM     22  C   UNL d   1      27.803 -14.135   1.027  0.00  0.00     0.248 C 
ATOM     23  O   UNL d   1      27.274 -13.532   0.092  0.00  0.00    -0.271 OA
ATOM     24  H   UNL d   1      29.159 -15.582   1.661  0.00  0.00     0.171 HD
BRANCH  22  25
ATOM     25  C   UNL d   1      27.400 -13.739   2.471  0.00  0.00     0.278 C 
BRANCH  25  26
ATOM     26  O   UNL d   1      28.260 -14.487   3.360  0.00  0.00    -0.342 OA
BRANCH  26  27
ATOM     27  C   UNL d   1      28.454 -14.046   4.636  0.00  0.00     0.069 A 
ATOM     28  C   UNL d   1      29.349 -14.776   5.423  0.00  0.00     0.037 A 
ATOM     29  C   UNL d   1      29.559 -14.444   6.768  0.00  0.00     0.011 A 
ATOM     30  C   UNL d   1      28.923 -13.331   7.340  0.00  0.00    -0.050 A 
ATOM     31  C   UNL d   1      27.989 -12.646   6.545  0.00  0.00     0.011 A 
ATOM     32  C   UNL d   1      27.751 -13.001   5.214  0.00  0.00     0.037 A 
BRANCH  30  33
ATOM     33  C   UNL d   1      29.290 -12.858   8.754  0.00  0.00    -0.024 C 
ATOM     34  C   UNL d   1      30.744 -13.229   9.096  0.00  0.00     0.019 C 
ATOM     35  C   UNL d   1      29.131 -11.324   8.832  0.00  0.00     0.019 C 
ATOM     36  C   UNL d   1      28.371 -13.474   9.832  0.00  0.00     0.019 C 
ENDBRANCH  30  33
ENDBRANCH  26  27
ENDBRANCH  25  26
ENDBRANCH  22  25
ENDBRANCH  19  21
ENDBRANCH   1  19
TORSDOF 10
ENDMDL
MODEL 2
REMARK VINA RESULT:    -9.670      0.719      1.359
REMARK INTER + INTRA:         -14.880
REMARK INTER:                 -12.653
REMARK INTRA:                  -2.227
REMARK CONF_INDEPENDENT:        2.983
REMARK UNBOUND:                -2.227
REMARK  10 active torsions:
REMARK  status: ('A' for Active; 'I' for Inactive)
REMARK    1  A    between atoms: C_2  and  C_3 
REMARK       I    between atoms: C_3  and  N_5 
REMARK    2  A    between atoms: N_5  and  C_6 
REMARK    3  A    between atoms: C_9  and  C_10 
REMARK       I    between atoms: C_10  and  N_12 
REMARK    4  A    between atoms: N_12  and  N_13 
REMARK    5  A    between atoms: N_13  and  C_14 
REMARK    6  A    between atoms: C_14  and  N_16 
REMARK       I    between atoms: N_16  and  C_17 
REMARK    7  A    between atoms: C_17  and  C_19 
REMARK    8  A    between atoms: C_19  and  O_20 
REMARK    9  A    between atoms: O_20  and  C_21 
REMARK   10  A    between atoms: C_24  and  C_25 
ROOT
ATOM      1  N   UNL d   1      27.765 -14.825  -1.574  0.00  0.00    -0.273 N 
ATOM      2  H   UNL d   1      27.728 -14.600  -2.567  0.00  0.00     0.189 HD
ENDROOT
BRANCH   1   3
ATOM      3  N   UNL d   1      26.657 -15.645  -1.091  0.00  0.00    -0.264 N 
ATOM      4  C   UNL d   1      25.583 -16.032  -1.883  0.00  0.00     0.270 C 
ATOM      5  O   UNL d   1      25.507 -15.707  -3.075  0.00  0.00    -0.266 OA
ATOM      6  H   UNL d   1      26.726 -15.878  -0.101  0.00  0.00     0.190 HD
BRANCH   4   7
ATOM      7  C   UNL d   1      24.469 -16.855  -1.239  0.00  0.00     0.033 A 
ATOM      8  C   UNL d   1      24.700 -18.200  -0.874  0.00  0.00     0.019 A 
ATOM      9  C   UNL d   1      23.663 -19.032  -0.374  0.00  0.00     0.030 A 
ATOM     10  C   UNL d   1      22.375 -18.523  -0.199  0.00  0.00     0.034 A 
ATOM     11  C   UNL d   1      22.155 -17.181  -0.520  0.00  0.00     0.030 A 
ATOM     12  C   UNL d   1      23.180 -16.356  -1.020  0.00  0.00     0.019 A 
BRANCH  10  13
ATOM     13  N   UNL d   1      21.319 -19.321   0.326  0.00  0.00    -0.327 N 
ATOM     14  C   UNL d   1      20.301 -19.818  -0.483  0.00  0.00     0.221 C 
ATOM     15  O   UNL d   1      20.281 -19.683  -1.706  0.00  0.00    -0.273 OA
ATOM     16  H   UNL d   1      21.399 -19.652   1.280  0.00  0.00     0.169 HD
BRANCH  14  17
ATOM     17  C   UNL d   1      19.199 -20.594   0.230  0.00  0.00     0.098 C 
ATOM     18  C   UNL d   1      19.223 -20.273   1.726  0.00  0.00     0.014 C 
ENDBRANCH  14  17
ENDBRANCH  10  13
ENDBRANCH   4   7
ENDBRANCH   1   3
BRANCH   1  19
ATOM     19  C   UNL d   1      28.748 -14.427  -0.644  0.00  0.00     0.193 C 
ATOM     20  S   UNL d   1      30.359 -14.329  -1.156  0.00  0.00    -0.039 SA
BRANCH  19  21
ATOM     21  N   UNL d   1      28.290 -14.130   0.667  0.00  0.00    -0.301 N 
ATOM     22  C   UNL d   1      27.301 -13.169   0.999  0.00  0.00     0.248 C 
ATOM     23  O   UNL d   1      26.749 -12.463   0.154  0.00  0.00    -0.271 OA
ATOM     24  H   UNL d   1      28.698 -14.652   1.430  0.00  0.00     0.171 HD
BRANCH  22  25
ATOM     25  C   UNL d   1      26.900 -12.978   2.485  0.00  0.00     0.278 C 
BRANCH  25  26
ATOM     26  O   UNL d   1      27.685 -13.920   3.250  0.00  0.00    -0.342 OA
BRANCH  26  27
ATOM     27  C   UNL d   1      28.040 -13.614   4.530  0.00  0.00     0.069 A 
ATOM     28  C   UNL d   1      28.599 -14.647   5.290  0.00  0.00     0.037 A 
ATOM     29  C   UNL d   1      28.928 -14.450   6.638  0.00  0.00     0.011 A 
ATOM     30  C   UNL d   1      28.763 -13.193   7.240  0.00  0.00    -0.050 A 
ATOM     31  C   UNL d   1      28.151 -12.188   6.473  0.00  0.00     0.011 A 
ATOM     32  C   UNL d   1      27.787 -12.396   5.139  0.00  0.00     0.037 A 
BRANCH  30  33
ATOM     33  C   UNL d   1      29.292 -12.927   8.658  0.00  0.00    -0.024 C 
ATOM     34  C   UNL d   1      29.092 -11.452   9.049  0.00  0.00     0.019 C 
ATOM     35  C   UNL d   1      28.529 -13.822   9.659  0.00  0.00     0.019 C 
ATOM     36  C   UNL d   1      30.794 -13.260   8.791  0.00  0.00     0.019 C 
ENDBRANCH  30  33
ENDBRANCH  26  27
ENDBRANCH  25  26
ENDBRANCH  22  25
ENDBRANCH  19  21
ENDBRANCH   1  19
TORSDOF 10
ENDMDL
MODEL 3
REMARK VINA RESULT:    -9.646      5.857      8.924
REMARK INTER + INTRA:         -14.528
REMARK INTER:                 -12.629
REMARK INTRA:                  -1.899
REMARK CONF_INDEPENDENT:        2.983
REMARK UNBOUND:                -1.899
REMARK  10 active torsions:
REMARK  status: ('A' for Active; 'I' for Inactive)
REMARK    1  A    between atoms: C_2  and  C_3 
REMARK       I    between atoms: C_3  and  N_5 
REMARK    2  A    between atoms: N_5  and  C_6 
REMARK    3  A    between atoms: C_9  and  C_10 
REMARK       I    between atoms: C_10  and  N_12 
REMARK    4  A    between atoms: N_12  and  N_13 
REMARK    5  A    between atoms: N_13  and  C_14 
REMARK    6  A    between atoms: C_14  and  N_16 
REMARK       I    between atoms: N_16  and  C_17 
REMARK    7  A    between atoms: C_17  and  C_19 
REMARK    8  A    between atoms: C_19  and  O_20 
REMARK    9  A    between atoms: O_20  and  C_21 
REMARK   10  A    between atoms: C_24  and  C_25 
ROOT
ATOM      1  N   UNL d   1      27.156 -14.798  -2.692  0.00  0.00    -0.273 N 
ATOM      2  H   UNL d   1      28.029 -15.061  -2.237  0.00  0.00     0.189 HD
ENDROOT
BRANCH   1   3
ATOM      3  N   UNL d   1      25.989 -15.566  -2.263  0.00  0.00    -0.264 N 
ATOM      4  C   UNL d   1      26.000 -16.450  -1.192  0.00  0.00     0.270 C 
ATOM      5  O   UNL d   1      27.020 -16.636  -0.516  0.00  0.00    -0.266 OA
ATOM      6  H   UNL d   1      25.169 -15.418  -2.850  0.00  0.00     0.190 HD
BRANCH   4   7
ATOM      7  C   UNL d   1      24.719 -17.221  -0.878  0.00  0.00     0.033 A 
ATOM      8  C   UNL d   1      23.471 -16.559  -0.888  0.00  0.00     0.019 A 
ATOM      9  C   UNL d   1      22.271 -17.210  -0.496  0.00  0.00     0.030 A 
ATOM     10  C   UNL d   1      22.291 -18.552  -0.114  0.00  0.00     0.034 A 
ATOM     11  C   UNL d   1      23.518 -19.220  -0.144  0.00  0.00     0.030 A 
ATOM     12  C   UNL d   1      24.710 -18.576  -0.528  0.00  0.00     0.019 A 
BRANCH  10  13
ATOM     13  N   UNL d   1      21.103 -19.243   0.257  0.00  0.00    -0.327 N 
ATOM     14  C   UNL d   1      20.192 -19.699  -0.691  0.00  0.00     0.221 C 
ATOM     15  O   UNL d   1      20.381 -19.621  -1.905  0.00  0.00    -0.273 OA
ATOM     16  H   UNL d   1      20.999 -19.533   1.222  0.00  0.00     0.169 HD
BRANCH  14  17
ATOM     17  C   UNL d   1      18.929 -20.355  -0.144  0.00  0.00     0.098 C 
ATOM     18  C   UNL d   1      18.933 -20.292   1.385  0.00  0.00     0.014 C 
ENDBRANCH  14  17
ENDBRANCH  10  13
ENDBRANCH   4   7
ENDBRANCH   1   3
BRANCH   1  19
ATOM     19  C   UNL d   1      26.970 -13.803  -3.674  0.00  0.00     0.193 C 
ATOM     20  S   UNL d   1      25.686 -12.714  -3.492  0.00  0.00    -0.039 SA
BRANCH  19  21
ATOM     21  N   UNL d   1      27.898 -13.798  -4.748  0.00  0.00    -0.301 N 
ATOM     22  C   UNL d   1      27.789 -14.561  -5.939  0.00  0.00     0.248 C 
ATOM     23  O   UNL d   1      26.860 -15.344  -6.145  0.00  0.00    -0.271 OA
ATOM     24  H   UNL d   1      28.704 -13.194  -4.661  0.00  0.00     0.171 HD
BRANCH  22  25
ATOM     25  C   UNL d   1      28.885 -14.427  -7.027  0.00  0.00     0.278 C 
BRANCH  25  26
ATOM     26  O   UNL d   1      30.136 -14.792  -6.401  0.00  0.00    -0.342 OA
BRANCH  26  27
ATOM     27  C   UNL d   1      30.401 -16.105  -6.147  0.00  0.00     0.069 A 
ATOM     28  C   UNL d   1      30.830 -16.879  -7.229  0.00  0.00     0.037 A 
ATOM     29  C   UNL d   1      31.058 -18.254  -7.084  0.00  0.00     0.011 A 
ATOM     30  C   UNL d   1      30.921 -18.876  -5.833  0.00  0.00    -0.050 A 
ATOM     31  C   UNL d   1      30.437 -18.089  -4.774  0.00  0.00     0.011 A 
ATOM     32  C   UNL d   1      30.174 -16.725  -4.929  0.00  0.00     0.037 A 
BRANCH  30  33
ATOM     33  C   UNL d   1      31.345 -20.338  -5.633  0.00  0.00    -0.024 C 
ATOM     34  C   UNL d   1      30.405 -21.051  -4.645  0.00  0.00     0.019 C 
ATOM     35  C   UNL d   1      31.297 -21.071  -6.992  0.00  0.00     0.019 C 
ATOM     36  C   UNL d   1      32.788 -20.458  -5.094  0.00  0.00     0.019 C 
ENDBRANCH  30  33
ENDBRANCH  26  27
ENDBRANCH  25  26
ENDBRANCH  22  25
ENDBRANCH  19  21
ENDBRANCH   1  19
TORSDOF 10
ENDMDL
MODEL 4
REMARK VINA RESULT:    -9.467      5.854      9.034
REMARK INTER + INTRA:         -14.769
REMARK INTER:                 -12.450
REMARK INTRA:                  -2.319
REMARK CONF_INDEPENDENT:        2.983
REMARK UNBOUND:                -2.319
REMARK  10 active torsions:
REMARK  status: ('A' for Active; 'I' for Inactive)
REMARK    1  A    between atoms: C_2  and  C_3 
REMARK       I    between atoms: C_3  and  N_5 
REMARK    2  A    between atoms: N_5  and  C_6 
REMARK    3  A    between atoms: C_9  and  C_10 
REMARK       I    between atoms: C_10  and  N_12 
REMARK    4  A    between atoms: N_12  and  N_13 
REMARK    5  A    between atoms: N_13  and  C_14 
REMARK    6  A    between atoms: C_14  and  N_16 
REMARK       I    between atoms: N_16  and  C_17 
REMARK    7  A    between atoms: C_17  and  C_19 
REMARK    8  A    between atoms: C_19  and  O_20 
REMARK    9  A    between atoms: O_20  and  C_21 
REMARK   10  A    between atoms: C_24  and  C_25 
ROOT
ATOM      1  N   UNL d   1      26.992 -13.819  -0.932  0.00  0.00    -0.273 N 
ATOM      2  H   UNL d   1      27.694 -13.739  -0.198  0.00  0.00     0.189 HD
ENDROOT
BRANCH   1   3
ATOM      3  N   UNL d   1      25.921 -14.772  -0.652  0.00  0.00    -0.264 N 
ATOM      4  C   UNL d   1      25.790 -15.996  -1.295  0.00  0.00     0.270 C 
ATOM      5  O   UNL d   1      26.600 -16.364  -2.157  0.00  0.00    -0.266 OA
ATOM      6  H   UNL d   1      25.251 -14.437   0.040  0.00  0.00     0.190 HD
BRANCH   4   7
ATOM      7  C   UNL d   1      24.597 -16.879  -0.936  0.00  0.00     0.033 A 
ATOM      8  C   UNL d   1      23.288 -16.345  -0.952  0.00  0.00     0.019 A 
ATOM      9  C   UNL d   1      22.164 -17.098  -0.520  0.00  0.00     0.030 A 
ATOM     10  C   UNL d   1      22.323 -18.417  -0.090  0.00  0.00     0.034 A 
ATOM     11  C   UNL d   1      23.610 -18.959  -0.114  0.00  0.00     0.030 A 
ATOM     12  C   UNL d   1      24.727 -18.213  -0.537  0.00  0.00     0.019 A 
BRANCH  10  13
ATOM     13  N   UNL d   1      21.214 -19.209   0.322  0.00  0.00    -0.327 N 
ATOM     14  C   UNL d   1      20.281 -19.696  -0.588  0.00  0.00     0.221 C 
ATOM     15  O   UNL d   1      20.386 -19.558  -1.806  0.00  0.00    -0.273 OA
ATOM     16  H   UNL d   1      21.193 -19.542   1.278  0.00  0.00     0.169 HD
BRANCH  14  17
ATOM     17  C   UNL d   1      19.106 -20.466   0.006  0.00  0.00     0.098 C 
ATOM     18  C   UNL d   1      19.202 -20.459   1.533  0.00  0.00     0.014 C 
ENDBRANCH  14  17
ENDBRANCH  10  13
ENDBRANCH   4   7
ENDBRANCH   1   3
BRANCH   1  19
ATOM     19  C   UNL d   1      26.958 -13.128  -2.161  0.00  0.00     0.193 C 
ATOM     20  S   UNL d   1      26.828 -11.440  -2.141  0.00  0.00    -0.039 SA
BRANCH  19  21
ATOM     21  N   UNL d   1      27.045 -13.925  -3.333  0.00  0.00    -0.301 N 
ATOM     22  C   UNL d   1      25.949 -14.347  -4.129  0.00  0.00     0.248 C 
ATOM     23  O   UNL d   1      24.780 -14.072  -3.851  0.00  0.00    -0.271 OA
ATOM     24  H   UNL d   1      27.966 -14.212  -3.631  0.00  0.00     0.171 HD
BRANCH  22  25
ATOM     25  C   UNL d   1      26.216 -15.204  -5.393  0.00  0.00     0.278 C 
BRANCH  25  26
ATOM     26  O   UNL d   1      27.602 -15.608  -5.333  0.00  0.00    -0.342 OA
BRANCH  26  27
ATOM     27  C   UNL d   1      28.532 -14.927  -6.061  0.00  0.00     0.069 A 
ATOM     28  C   UNL d   1      28.165 -13.656  -6.515  0.00  0.00     0.037 A 
ATOM     29  C   UNL d   1      29.025 -12.909  -7.331  0.00  0.00     0.011 A 
ATOM     30  C   UNL d   1      30.301 -13.392  -7.661  0.00  0.00    -0.050 A 
ATOM     31  C   UNL d   1      30.624 -14.692  -7.238  0.00  0.00     0.011 A 
ATOM     32  C   UNL d   1      29.751 -15.453  -6.456  0.00  0.00     0.037 A 
BRANCH  30  33
ATOM     33  C   UNL d   1      31.311 -12.501  -8.399  0.00  0.00    -0.024 C 
ATOM     34  C   UNL d   1      30.588 -11.492  -9.310  0.00  0.00     0.019 C 
ATOM     35  C   UNL d   1      32.156 -11.728  -7.363  0.00  0.00     0.019 C 
ATOM     36  C   UNL d   1      32.285 -13.323  -9.271  0.00  0.00     0.019 C 
ENDBRANCH  30  33
ENDBRANCH  26  27
ENDBRANCH  25  26
ENDBRANCH  22  25
ENDBRANCH  19  21
ENDBRANCH   1  19
TORSDOF 10
ENDMDL
MODEL 5
REMARK VINA RESULT:    -9.182      5.820      8.266
REMARK INTER + INTRA:         -14.744
REMARK INTER:                 -12.165
REMARK INTRA:                  -2.579
REMARK CONF_INDEPENDENT:        2.983
REMARK UNBOUND:                -2.579
REMARK  10 active torsions:
REMARK  status: ('A' for Active; 'I' for Inactive)
REMARK    1  A    between atoms: C_2  and  C_3 
REMARK       I    between atoms: C_3  and  N_5 
REMARK    2  A    between atoms: N_5  and  C_6 
REMARK    3  A    between atoms: C_9  and  C_10 
REMARK       I    between atoms: C_10  and  N_12 
REMARK    4  A    between atoms: N_12  and  N_13 
REMARK    5  A    between atoms: N_13  and  C_14 
REMARK    6  A    between atoms: C_14  and  N_16 
REMARK       I    between atoms: N_16  and  C_17 
REMARK    7  A    between atoms: C_17  and  C_19 
REMARK    8  A    between atoms: C_19  and  O_20 
REMARK    9  A    between atoms: O_20  and  C_21 
REMARK   10  A    between atoms: C_24  and  C_25 
ROOT
ATOM      1  N   UNL d   1      28.667 -16.153  -1.770  0.00  0.00    -0.273 N 
ATOM      2  H   UNL d   1      29.280 -15.867  -1.009  0.00  0.00     0.189 HD
ENDROOT
BRANCH   1   3
ATOM      3  N   UNL d   1      27.406 -16.758  -1.345  0.00  0.00    -0.264 N 
ATOM      4  C   UNL d   1      26.165 -16.161  -1.530  0.00  0.00     0.270 C 
ATOM      5  O   UNL d   1      26.052 -15.062  -2.088  0.00  0.00    -0.266 OA
ATOM      6  H   UNL d   1      27.525 -17.648  -0.865  0.00  0.00     0.190 HD
BRANCH   4   7
ATOM      7  C   UNL d   1      24.929 -16.884  -0.999  0.00  0.00     0.033 A 
ATOM      8  C   UNL d   1      25.037 -18.201  -0.498  0.00  0.00     0.019 A 
ATOM      9  C   UNL d   1      23.898 -18.949  -0.097  0.00  0.00     0.030 A 
ATOM     10  C   UNL d   1      22.625 -18.380  -0.160  0.00  0.00     0.034 A 
ATOM     11  C   UNL d   1      22.521 -17.063  -0.615  0.00  0.00     0.030 A 
ATOM     12  C   UNL d   1      23.649 -16.321  -1.018  0.00  0.00     0.019 A 
BRANCH  10  13
ATOM     13  N   UNL d   1      21.466 -19.092   0.261  0.00  0.00    -0.327 N 
ATOM     14  C   UNL d   1      20.504 -19.530  -0.644  0.00  0.00     0.221 C 
ATOM     15  O   UNL d   1      20.621 -19.417  -1.865  0.00  0.00    -0.273 OA
ATOM     16  H   UNL d   1      21.421 -19.409   1.222  0.00  0.00     0.169 HD
BRANCH  14  17
ATOM     17  C   UNL d   1      19.280 -20.213  -0.043  0.00  0.00     0.098 C 
ATOM     18  C   UNL d   1      19.457 -20.352   1.471  0.00  0.00     0.014 C 
ENDBRANCH  14  17
ENDBRANCH  10  13
ENDBRANCH   4   7
ENDBRANCH   1   3
BRANCH   1  19
ATOM     19  C   UNL d   1      28.912 -16.037  -3.154  0.00  0.00     0.193 C 
ATOM     20  S   UNL d   1      29.999 -17.115  -3.880  0.00  0.00    -0.039 SA
BRANCH  19  21
ATOM     21  N   UNL d   1      28.206 -15.010  -3.834  0.00  0.00    -0.301 N 
ATOM     22  C   UNL d   1      28.149 -14.837  -5.241  0.00  0.00     0.248 C 
ATOM     23  O   UNL d   1      28.747 -15.574  -6.026  0.00  0.00    -0.271 OA
ATOM     24  H   UNL d   1      27.695 -14.346  -3.269  0.00  0.00     0.171 HD
BRANCH  22  25
ATOM     25  C   UNL d   1      27.316 -13.668  -5.827  0.00  0.00     0.278 C 
BRANCH  25  26
ATOM     26  O   UNL d   1      26.503 -13.157  -4.747  0.00  0.00    -0.342 OA
BRANCH  26  27
ATOM     27  C   UNL d   1      26.082 -11.860  -4.780  0.00  0.00     0.069 A 
ATOM     28  C   UNL d   1      25.898 -11.293  -6.045  0.00  0.00     0.037 A 
ATOM     29  C   UNL d   1      25.537  -9.946  -6.183  0.00  0.00     0.011 A 
ATOM     30  C   UNL d   1      25.290  -9.151  -5.053  0.00  0.00    -0.050 A 
ATOM     31  C   UNL d   1      25.534  -9.728  -3.795  0.00  0.00     0.011 A 
ATOM     32  C   UNL d   1      25.931 -11.061  -3.659  0.00  0.00     0.037 A 
BRANCH  30  33
ATOM     33  C   UNL d   1      24.719  -7.732  -5.201  0.00  0.00    -0.024 C 
ATOM     34  C   UNL d   1      25.340  -7.015  -6.412  0.00  0.00     0.019 C 
ATOM     35  C   UNL d   1      23.189  -7.821  -5.397  0.00  0.00     0.019 C 
ATOM     36  C   UNL d   1      24.975  -6.868  -3.947  0.00  0.00     0.019 C 
ENDBRANCH  30  33
ENDBRANCH  26  27
ENDBRANCH  25  26
ENDBRANCH  22  25
ENDBRANCH  19  21
ENDBRANCH   1  19
TORSDOF 10
ENDMDL
MODEL 6
REMARK VINA RESULT:    -8.954      5.711      7.822
REMARK INTER + INTRA:         -14.876
REMARK INTER:                 -11.937
REMARK INTRA:                  -2.939
REMARK CONF_INDEPENDENT:        2.983
REMARK UNBOUND:                -2.939
REMARK  10 active torsions:
REMARK  status: ('A' for Active; 'I' for Inactive)
REMARK    1  A    between atoms: C_2  and  C_3 
REMARK       I    between atoms: C_3  and  N_5 
REMARK    2  A    between atoms: N_5  and  C_6 
REMARK    3  A    between atoms: C_9  and  C_10 
REMARK       I    between atoms: C_10  and  N_12 
REMARK    4  A    between atoms: N_12  and  N_13 
REMARK    5  A    between atoms: N_13  and  C_14 
REMARK    6  A    between atoms: C_14  and  N_16 
REMARK       I    between atoms: N_16  and  C_17 
REMARK    7  A    between atoms: C_17  and  C_19 
REMARK    8  A    between atoms: C_19  and  O_20 
REMARK    9  A    between atoms: O_20  and  C_21 
REMARK   10  A    between atoms: C_24  and  C_25 
ROOT
ATOM      1  N   UNL d   1      28.698 -15.800  -1.042  0.00  0.00    -0.273 N 
ATOM      2  H   UNL d   1      28.923 -15.069  -0.370  0.00  0.00     0.189 HD
ENDROOT
BRANCH   1   3
ATOM      3  N   UNL d   1      27.444 -16.504  -0.782  0.00  0.00    -0.264 N 
ATOM      4  C   UNL d   1      26.245 -16.200  -1.414  0.00  0.00     0.270 C 
ATOM      5  O   UNL d   1      26.169 -15.301  -2.261  0.00  0.00    -0.266 OA
ATOM      6  H   UNL d   1      27.523 -17.221  -0.062  0.00  0.00     0.190 HD
BRANCH   4   7
ATOM      7  C   UNL d   1      24.998 -16.987  -1.016  0.00  0.00     0.033 A 
ATOM      8  C   UNL d   1      23.718 -16.401  -1.137  0.00  0.00     0.019 A 
ATOM      9  C   UNL d   1      22.544 -17.055  -0.678  0.00  0.00     0.030 A 
ATOM     10  C   UNL d   1      22.624 -18.329  -0.113  0.00  0.00     0.034 A 
ATOM     11  C   UNL d   1      23.883 -18.928  -0.031  0.00  0.00     0.030 A 
ATOM     12  C   UNL d   1      25.049 -18.279  -0.482  0.00  0.00     0.019 A 
BRANCH  10  13
ATOM     13  N   UNL d   1      21.463 -19.024   0.331  0.00  0.00    -0.327 N 
ATOM     14  C   UNL d   1      20.476 -19.446  -0.554  0.00  0.00     0.221 C 
ATOM     15  O   UNL d   1      20.567 -19.332  -1.776  0.00  0.00    -0.273 OA
ATOM     16  H   UNL d   1      21.436 -19.344   1.292  0.00  0.00     0.169 HD
BRANCH  14  17
ATOM     17  C   UNL d   1      19.256 -20.113   0.072  0.00  0.00     0.098 C 
ATOM     18  C   UNL d   1      19.239 -19.850   1.580  0.00  0.00     0.014 C 
ENDBRANCH  14  17
ENDBRANCH  10  13
ENDBRANCH   4   7
ENDBRANCH   1   3
BRANCH   1  19
ATOM     19  C   UNL d   1      29.459 -16.196  -2.162  0.00  0.00     0.193 C 
ATOM     20  S   UNL d   1      30.922 -17.008  -1.903  0.00  0.00    -0.039 SA
BRANCH  19  21
ATOM     21  N   UNL d   1      28.917 -15.878  -3.435  0.00  0.00    -0.301 N 
ATOM     22  C   UNL d   1      29.618 -15.924  -4.667  0.00  0.00     0.248 C 
ATOM     23  O   UNL d   1      30.810 -16.229  -4.744  0.00  0.00    -0.271 OA
ATOM     24  H   UNL d   1      27.946 -15.601  -3.470  0.00  0.00     0.171 HD
BRANCH  22  25
ATOM     25  C   UNL d   1      28.873 -15.560  -5.977  0.00  0.00     0.278 C 
BRANCH  25  26
ATOM     26  O   UNL d   1      27.499 -15.301  -5.613  0.00  0.00    -0.342 OA
BRANCH  26  27
ATOM     27  C   UNL d   1      27.091 -14.016  -5.403  0.00  0.00     0.069 A 
ATOM     28  C   UNL d   1      27.881 -13.009  -5.965  0.00  0.00     0.037 A 
ATOM     29  C   UNL d   1      27.585 -11.657  -5.744  0.00  0.00     0.011 A 
ATOM     30  C   UNL d   1      26.452 -11.282  -5.005  0.00  0.00    -0.050 A 
ATOM     31  C   UNL d   1      25.706 -12.311  -4.407  0.00  0.00     0.011 A 
ATOM     32  C   UNL d   1      26.024 -13.659  -4.596  0.00  0.00     0.037 A 
BRANCH  30  33
ATOM     33  C   UNL d   1      26.025  -9.809  -4.916  0.00  0.00    -0.024 C 
ATOM     34  C   UNL d   1      25.208  -9.400  -6.155  0.00  0.00     0.019 C 
ATOM     35  C   UNL d   1      25.159  -9.608  -3.653  0.00  0.00     0.019 C 
ATOM     36  C   UNL d   1      27.235  -8.857  -4.804  0.00  0.00     0.019 C 
ENDBRANCH  30  33
ENDBRANCH  26  27
ENDBRANCH  25  26
ENDBRANCH  22  25
ENDBRANCH  19  21
ENDBRANCH   1  19
TORSDOF 10
ENDMDL
MODEL 7
REMARK VINA RESULT:    -8.629      5.387      8.233
REMARK INTER + INTRA:         -14.545
REMARK INTER:                 -11.612
REMARK INTRA:                  -2.933
REMARK CONF_INDEPENDENT:        2.983
REMARK UNBOUND:                -2.933
REMARK  10 active torsions:
REMARK  status: ('A' for Active; 'I' for Inactive)
REMARK    1  A    between atoms: C_2  and  C_3 
REMARK       I    between atoms: C_3  and  N_5 
REMARK    2  A    between atoms: N_5  and  C_6 
REMARK    3  A    between atoms: C_9  and  C_10 
REMARK       I    between atoms: C_10  and  N_12 
REMARK    4  A    between atoms: N_12  and  N_13 
REMARK    5  A    between atoms: N_13  and  C_14 
REMARK    6  A    between atoms: C_14  and  N_16 
REMARK       I    between atoms: N_16  and  C_17 
REMARK    7  A    between atoms: C_17  and  C_19 
REMARK    8  A    between atoms: C_19  and  O_20 
REMARK    9  A    between atoms: O_20  and  C_21 
REMARK   10  A    between atoms: C_24  and  C_25 
ROOT
ATOM      1  N   UNL d   1      27.750 -14.645  -0.854  0.00  0.00    -0.273 N 
ATOM      2  H   UNL d   1      28.659 -15.080  -0.708  0.00  0.00     0.189 HD
ENDROOT
BRANCH   1   3
ATOM      3  N   UNL d   1      26.607 -15.486  -0.506  0.00  0.00    -0.264 N 
ATOM      4  C   UNL d   1      25.721 -16.007  -1.440  0.00  0.00     0.270 C 
ATOM      5  O   UNL d   1      25.858 -15.794  -2.652  0.00  0.00    -0.266 OA
ATOM      6  H   UNL d   1      26.498 -15.626   0.497  0.00  0.00     0.190 HD
BRANCH   4   7
ATOM      7  C   UNL d   1      24.543 -16.837  -0.935  0.00  0.00     0.033 A 
ATOM      8  C   UNL d   1      24.741 -18.173  -0.521  0.00  0.00     0.019 A 
ATOM      9  C   UNL d   1      23.658 -19.013  -0.148  0.00  0.00     0.030 A 
ATOM     10  C   UNL d   1      22.352 -18.521  -0.153  0.00  0.00     0.034 A 
ATOM     11  C   UNL d   1      22.159 -17.188  -0.521  0.00  0.00     0.030 A 
ATOM     12  C   UNL d   1      23.230 -16.354  -0.896  0.00  0.00     0.019 A 
BRANCH  10  13
ATOM     13  N   UNL d   1      21.247 -19.328   0.242  0.00  0.00    -0.327 N 
ATOM     14  C   UNL d   1      20.265 -19.723  -0.662  0.00  0.00     0.221 C 
ATOM     15  O   UNL d   1      20.320 -19.484  -1.869  0.00  0.00    -0.273 OA
ATOM     16  H   UNL d   1      21.261 -19.740   1.167  0.00  0.00     0.169 HD
BRANCH  14  17
ATOM     17  C   UNL d   1      19.103 -20.522  -0.082  0.00  0.00     0.098 C 
ATOM     18  C   UNL d   1      19.005 -20.272   1.424  0.00  0.00     0.014 C 
ENDBRANCH  14  17
ENDBRANCH  10  13
ENDBRANCH   4   7
ENDBRANCH   1   3
BRANCH   1  19
ATOM     19  C   UNL d   1      27.492 -13.352  -1.355  0.00  0.00     0.193 C 
ATOM     20  S   UNL d   1      27.886 -12.015  -0.393  0.00  0.00    -0.039 SA
BRANCH  19  21
ATOM     21  N   UNL d   1      26.919 -13.282  -2.652  0.00  0.00    -0.301 N 
ATOM     22  C   UNL d   1      26.612 -12.090  -3.358  0.00  0.00     0.248 C 
ATOM     23  O   UNL d   1      26.799 -10.969  -2.882  0.00  0.00    -0.271 OA
ATOM     24  H   UNL d   1      26.716 -14.156  -3.117  0.00  0.00     0.171 HD
BRANCH  22  25
ATOM     25  C   UNL d   1      26.001 -12.187  -4.779  0.00  0.00     0.278 C 
BRANCH  25  26
ATOM     26  O   UNL d   1      26.075 -13.578  -5.167  0.00  0.00    -0.342 OA
BRANCH  26  27
ATOM     27  C   UNL d   1      27.280 -14.114  -5.514  0.00  0.00     0.069 A 
ATOM     28  C   UNL d   1      27.663 -15.281  -4.844  0.00  0.00     0.037 A 
ATOM     29  C   UNL d   1      28.914 -15.866  -5.079  0.00  0.00     0.011 A 
ATOM     30  C   UNL d   1      29.788 -15.331  -6.038  0.00  0.00    -0.050 A 
ATOM     31  C   UNL d   1      29.403 -14.130  -6.658  0.00  0.00     0.011 A 
ATOM     32  C   UNL d   1      28.171 -13.525  -6.395  0.00  0.00     0.037 A 
BRANCH  30  33
ATOM     33  C   UNL d   1      31.075 -16.072  -6.428  0.00  0.00    -0.024 C 
ATOM     34  C   UNL d   1      30.778 -17.540  -6.780  0.00  0.00     0.019 C 
ATOM     35  C   UNL d   1      31.708 -15.378  -7.655  0.00  0.00     0.019 C 
ATOM     36  C   UNL d   1      32.124 -16.053  -5.294  0.00  0.00     0.019 C 
ENDBRANCH  30  33
ENDBRANCH  26  27
ENDBRANCH  25  26
ENDBRANCH  22  25
ENDBRANCH  19  21
ENDBRANCH   1  19
TORSDOF 10
ENDMDL
MODEL 8
REMARK VINA RESULT:    -8.050      3.417      6.370
REMARK INTER + INTRA:         -14.794
REMARK INTER:                 -11.033
REMARK INTRA:                  -3.761
REMARK CONF_INDEPENDENT:        2.983
REMARK UNBOUND:                -3.761
REMARK  10 active torsions:
REMARK  status: ('A' for Active; 'I' for Inactive)
REMARK    1  A    between atoms: C_2  and  C_3 
REMARK       I    between atoms: C_3  and  N_5 
REMARK    2  A    between atoms: N_5  and  C_6 
REMARK    3  A    between atoms: C_9  and  C_10 
REMARK       I    between atoms: C_10  and  N_12 
REMARK    4  A    between atoms: N_12  and  N_13 
REMARK    5  A    between atoms: N_13  and  C_14 
REMARK    6  A    between atoms: C_14  and  N_16 
REMARK       I    between atoms: N_16  and  C_17 
REMARK    7  A    between atoms: C_17  and  C_19 
REMARK    8  A    between atoms: C_19  and  O_20 
REMARK    9  A    between atoms: O_20  and  C_21 
REMARK   10  A    between atoms: C_24  and  C_25 
ROOT
ATOM      1  N   UNL d   1      29.945 -16.083   0.119  0.00  0.00    -0.273 N 
ATOM      2  H   UNL d   1      30.496 -16.557  -0.594  0.00  0.00     0.189 HD
ENDROOT
BRANCH   1   3
ATOM      3  N   UNL d   1      28.549 -16.508   0.196  0.00  0.00    -0.264 N 
ATOM      4  C   UNL d   1      27.754 -16.745  -0.918  0.00  0.00     0.270 C 
ATOM      5  O   UNL d   1      28.195 -16.617  -2.067  0.00  0.00    -0.266 OA
ATOM      6  H   UNL d   1      28.199 -16.580   1.150  0.00  0.00     0.190 HD
BRANCH   4   7
ATOM      7  C   UNL d   1      26.296 -17.144  -0.694  0.00  0.00     0.033 A 
ATOM      8  C   UNL d   1      25.288 -16.663  -1.559  0.00  0.00     0.019 A 
ATOM      9  C   UNL d   1      23.911 -16.919  -1.324  0.00  0.00     0.030 A 
ATOM     10  C   UNL d   1      23.515 -17.692  -0.231  0.00  0.00     0.034 A 
ATOM     11  C   UNL d   1      24.514 -18.204   0.600  0.00  0.00     0.030 A 
ATOM     12  C   UNL d   1      25.880 -17.948   0.372  0.00  0.00     0.019 A 
BRANCH  10  13
ATOM     13  N   UNL d   1      22.146 -17.992   0.017  0.00  0.00    -0.327 N 
ATOM     14  C   UNL d   1      21.394 -18.771  -0.858  0.00  0.00     0.221 C 
ATOM     15  O   UNL d   1      21.867 -19.323  -1.851  0.00  0.00    -0.273 OA
ATOM     16  H   UNL d   1      21.760 -17.755   0.923  0.00  0.00     0.169 HD
BRANCH  14  17
ATOM     17  C   UNL d   1      19.922 -18.947  -0.501  0.00  0.00     0.098 C 
ATOM     18  C   UNL d   1      19.718 -20.287   0.210  0.00  0.00     0.014 C 
ENDBRANCH  14  17
ENDBRANCH  10  13
ENDBRANCH   4   7
ENDBRANCH   1   3
BRANCH   1  19
ATOM     19  C   UNL d   1      30.380 -15.078   1.008  0.00  0.00     0.193 C 
ATOM     20  S   UNL d   1      31.899 -15.243   1.740  0.00  0.00    -0.039 SA
BRANCH  19  21
ATOM     21  N   UNL d   1      29.492 -13.989   1.211  0.00  0.00    -0.301 N 
ATOM     22  C   UNL d   1      28.313 -14.020   2.000  0.00  0.00     0.248 C 
ATOM     23  O   UNL d   1      27.927 -15.036   2.581  0.00  0.00    -0.271 OA
ATOM     24  H   UNL d   1      29.719 -13.114   0.760  0.00  0.00     0.171 HD
BRANCH  22  25
ATOM     25  C   UNL d   1      27.457 -12.734   2.133  0.00  0.00     0.278 C 
BRANCH  25  26
ATOM     26  O   UNL d   1      27.845 -11.865   1.045  0.00  0.00    -0.342 OA
BRANCH  26  27
ATOM     27  C   UNL d   1      27.410 -12.137  -0.218  0.00  0.00     0.069 A 
ATOM     28  C   UNL d   1      26.705 -13.331  -0.395  0.00  0.00     0.037 A 
ATOM     29  C   UNL d   1      26.281 -13.733  -1.669  0.00  0.00     0.011 A 
ATOM     30  C   UNL d   1      26.497 -12.915  -2.788  0.00  0.00    -0.050 A 
ATOM     31  C   UNL d   1      27.253 -11.746  -2.593  0.00  0.00     0.011 A 
ATOM     32  C   UNL d   1      27.710 -11.365  -1.329  0.00  0.00     0.037 A 
BRANCH  30  33
ATOM     33  C   UNL d   1      25.874 -13.264  -4.148  0.00  0.00    -0.024 C 
ATOM     34  C   UNL d   1      25.918 -12.054  -5.098  0.00  0.00     0.019 C 
ATOM     35  C   UNL d   1      26.663 -14.430  -4.782  0.00  0.00     0.019 C 
ATOM     36  C   UNL d   1      24.404 -13.718  -4.016  0.00  0.00     0.019 C 
ENDBRANCH  30  33
ENDBRANCH  26  27
ENDBRANCH  25  26
ENDBRANCH  22  25
ENDBRANCH  19  21
ENDBRANCH   1  19
TORSDOF 10
ENDMDL
MODEL 9
REMARK VINA RESULT:    -7.767      3.798      5.521
REMARK INTER + INTRA:         -14.764
REMARK INTER:                 -10.750
REMARK INTRA:                  -4.015
REMARK CONF_INDEPENDENT:        2.983
REMARK UNBOUND:                -4.015
REMARK  10 active torsions:
REMARK  status: ('A' for Active; 'I' for Inactive)
REMARK    1  A    between atoms: C_2  and  C_3 
REMARK       I    between atoms: C_3  and  N_5 
REMARK    2  A    between atoms: N_5  and  C_6 
REMARK    3  A    between atoms: C_9  and  C_10 
REMARK       I    between atoms: C_10  and  N_12 
REMARK    4  A    between atoms: N_12  and  N_13 
REMARK    5  A    between atoms: N_13  and  C_14 
REMARK    6  A    between atoms: C_14  and  N_16 
REMARK       I    between atoms: N_16  and  C_17 
REMARK    7  A    between atoms: C_17  and  C_19 
REMARK    8  A    between atoms: C_19  and  O_20 
REMARK    9  A    between atoms: O_20  and  C_21 
REMARK   10  A    between atoms: C_24  and  C_25 
ROOT
ATOM      1  N   UNL d   1      29.233 -16.093  -3.269  0.00  0.00    -0.273 N 
ATOM      2  H   UNL d   1      29.992 -16.475  -2.707  0.00  0.00     0.189 HD
ENDROOT
BRANCH   1   3
ATOM      3  N   UNL d   1      27.894 -16.366  -2.752  0.00  0.00    -0.264 N 
ATOM      4  C   UNL d   1      27.616 -16.583  -1.409  0.00  0.00     0.270 C 
ATOM      5  O   UNL d   1      28.506 -16.547  -0.549  0.00  0.00    -0.266 OA
ATOM      6  H   UNL d   1      27.182 -16.418  -3.479  0.00  0.00     0.190 HD
BRANCH   4   7
ATOM      7  C   UNL d   1      26.176 -16.901  -1.010  0.00  0.00     0.033 A 
ATOM      8  C   UNL d   1      25.898 -18.004  -0.173  0.00  0.00     0.019 A 
ATOM      9  C   UNL d   1      24.569 -18.400   0.133  0.00  0.00     0.030 A 
ATOM     10  C   UNL d   1      23.486 -17.676  -0.370  0.00  0.00     0.034 A 
ATOM     11  C   UNL d   1      23.760 -16.560  -1.163  0.00  0.00     0.030 A 
ATOM     12  C   UNL d   1      25.077 -16.168  -1.472  0.00  0.00     0.019 A 
BRANCH  10  13
ATOM     13  N   UNL d   1      22.141 -18.028  -0.060  0.00  0.00    -0.327 N 
ATOM     14  C   UNL d   1      21.371 -18.812  -0.914  0.00  0.00     0.221 C 
ATOM     15  O   UNL d   1      21.810 -19.325  -1.943  0.00  0.00    -0.273 OA
ATOM     16  H   UNL d   1      21.796 -17.825   0.870  0.00  0.00     0.169 HD
BRANCH  14  17
ATOM     17  C   UNL d   1      19.926 -19.046  -0.487  0.00  0.00     0.098 C 
ATOM     18  C   UNL d   1      19.892 -19.928   0.763  0.00  0.00     0.014 C 
ENDBRANCH  14  17
ENDBRANCH  10  13
ENDBRANCH   4   7
ENDBRANCH   1   3
BRANCH   1  19
ATOM     19  C   UNL d   1      29.343 -15.356  -4.466  0.00  0.00     0.193 C 
ATOM     20  S   UNL d   1      30.531 -15.801  -5.588  0.00  0.00    -0.039 SA
BRANCH  19  21
ATOM     21  N   UNL d   1      28.424 -14.287  -4.633  0.00  0.00    -0.301 N 
ATOM     22  C   UNL d   1      27.073 -14.414  -5.047  0.00  0.00     0.248 C 
ATOM     23  O   UNL d   1      26.564 -15.500  -5.333  0.00  0.00    -0.271 OA
ATOM     24  H   UNL d   1      28.757 -13.354  -4.435  0.00  0.00     0.171 HD
BRANCH  22  25
ATOM     25  C   UNL d   1      26.194 -13.143  -5.165  0.00  0.00     0.278 C 
BRANCH  25  26
ATOM     26  O   UNL d   1      26.857 -12.109  -4.403  0.00  0.00    -0.342 OA
BRANCH  26  27
ATOM     27  C   UNL d   1      27.115 -12.311  -3.080  0.00  0.00     0.069 A 
ATOM     28  C   UNL d   1      26.205 -13.108  -2.378  0.00  0.00     0.037 A 
ATOM     29  C   UNL d   1      26.344 -13.314  -0.999  0.00  0.00     0.011 A 
ATOM     30  C   UNL d   1      27.437 -12.777  -0.300  0.00  0.00    -0.050 A 
ATOM     31  C   UNL d   1      28.307 -11.937  -1.016  0.00  0.00     0.011 A 
ATOM     32  C   UNL d   1      28.146 -11.701  -2.384  0.00  0.00     0.037 A 
BRANCH  30  33
ATOM     33  C   UNL d   1      27.691 -13.152   1.167  0.00  0.00    -0.024 C 
ATOM     34  C   UNL d   1      29.150 -12.862   1.562  0.00  0.00     0.019 C 
ATOM     35  C   UNL d   1      26.750 -12.325   2.071  0.00  0.00     0.019 C 
ATOM     36  C   UNL d   1      27.405 -14.644   1.445  0.00  0.00     0.019 C 
ENDBRANCH  30  33
ENDBRANCH  26  27
ENDBRANCH  25  26
ENDBRANCH  22  25
ENDBRANCH  19  21
ENDBRANCH   1  19
TORSDOF 10
ENDMDL
