MODEL 1
REMARK VINA RESULT:   -12.471      0.000      0.000
REMARK INTER + INTRA:         -15.706
REMARK INTER:                 -14.559
REMARK INTRA:                  -1.147
REMARK CONF_INDEPENDENT:        2.088
REMARK UNBOUND:                -1.147
REMARK  7 active torsions:
REMARK  status: ('A' for Active; 'I' for Inactive)
REMARK    1  A    between atoms: C_2  and  C_3 
REMARK    2  A    between atoms: C_2  and  O_10 
REMARK    3  A    between atoms: C_4  and  C_5 
REMARK    4  A    between atoms: O_10  and  C_11 
REMARK    5  A    between atoms: C_15  and  C_14 
REMARK    6  A    between atoms: N_26  and  C_27 
REMARK    7  A    between atoms: C_27  and  C_28 
ROOT
ATOM      1  C   UNL d   1      28.101 -14.865  -2.053  0.00  0.00     0.219 C 
ATOM      2  N   UNL d   1      27.963 -13.507  -1.600  0.00  0.00    -0.332 N 
ATOM      3  C   UNL d   1      28.056 -13.258  -0.271  0.00  0.00     0.256 C 
ATOM      4  O   UNL d   1      27.305 -12.478   0.343  0.00  0.00    -0.267 OA
ATOM      5  C   UNL d   1      29.189 -13.913   0.343  0.00  0.00     0.073 A 
ATOM      6  C   UNL d   1      29.820 -14.925  -0.349  0.00  0.00     0.088 A 
ATOM      7  S   UNL d   1      31.063 -15.633   0.580  0.00  0.00    -0.074 SA
ATOM      8  C   UNL d   1      30.818 -14.520   1.876  0.00  0.00     0.018 A 
ATOM      9  C   UNL d   1      29.804 -13.620   1.599  0.00  0.00    -0.023 A 
ATOM     10  C   UNL d   1      29.229 -12.669   2.607  0.00  0.00     0.068 C 
ATOM     11  C   UNL d   1      29.814 -12.736   4.020  0.00  0.00     0.240 C 
ATOM     12  N   UNL d   1      30.737 -13.917   4.361  0.00  0.00    -0.062 N 
ATOM     13  C   UNL d   1      31.423 -14.721   3.230  0.00  0.00     0.282 C 
ATOM     14  N   UNL d   1      29.421 -15.293  -1.594  0.00  0.00    -0.358 N 
ATOM     15  H   UNL d   1      27.647 -12.772  -2.211  0.00  0.00     0.165 HD
ATOM     16  H   UNL d   1      31.524 -13.480   4.854  0.00  0.00     0.280 HD
ATOM     17  H   UNL d   1      29.879 -16.014  -2.144  0.00  0.00     0.162 HD
ENDROOT
BRANCH   1  18
ATOM     18  C   UNL d   1      26.963 -15.728  -1.491  0.00  0.00    -0.016 C 
ATOM     19  C   UNL d   1      27.124 -16.458  -0.290  0.00  0.00     0.014 C 
ATOM     20  C   UNL d   1      26.164 -17.398   0.115  0.00  0.00     0.038 C 
ATOM     21  C   UNL d   1      24.994 -17.530  -0.629  0.00  0.00     0.079 C 
ATOM     22  C   UNL d   1      24.755 -16.708  -1.720  0.00  0.00     0.038 C 
ATOM     23  C   UNL d   1      25.753 -15.867  -2.185  0.00  0.00     0.014 C 
BRANCH  21  24
ATOM     24  O   UNL d   1      24.031 -18.495  -0.224  0.00  0.00    -0.276 OA
BRANCH  24  25
ATOM     25  C   UNL d   1      22.855 -18.952  -0.861  0.00  0.00     0.288 C 
ATOM     26  O   UNL d   1      22.780 -19.011  -2.082  0.00  0.00    -0.260 OA
BRANCH  25  27
ATOM     27  C   UNL d   1      21.714 -19.326   0.019  0.00  0.00     0.085 C 
ATOM     28  C   UNL d   1      20.457 -19.535  -0.424  0.00  0.00     0.043 C 
BRANCH  28  29
ATOM     29  C   UNL d   1      19.403 -19.991   0.449  0.00  0.00     0.075 C 
ATOM     30  C   UNL d   1      18.334 -20.825   0.165  0.00  0.00     0.039 C 
ATOM     31  C   UNL d   1      17.666 -21.202   1.342  0.00  0.00     0.027 C 
ATOM     32  C   UNL d   1      18.228 -20.424   2.309  0.00  0.00     0.142 C 
ATOM     33  O   UNL d   1      19.269 -19.701   1.801  0.00  0.00    -0.323 OA
ENDBRANCH  28  29
ENDBRANCH  25  27
ENDBRANCH  24  25
ENDBRANCH  21  24
ENDBRANCH   1  18
BRANCH  12  34
ATOM     34  C   UNL d   1      30.031 -14.822   5.387  0.00  0.00     0.273 C 
BRANCH  34  35
ATOM     35  C   UNL d   1      29.599 -14.065   6.624  0.00  0.00    -0.033 C 
ATOM     36  C   UNL d   1      30.335 -14.147   7.806  0.00  0.00     0.009 C 
ATOM     37  C   UNL d   1      29.913 -13.813   9.080  0.00  0.00     0.001 C 
ATOM     38  C   UNL d   1      28.830 -12.989   9.137  0.00  0.00     0.000 C 
ATOM     39  C   UNL d   1      28.167 -12.654   7.942  0.00  0.00     0.001 C 
ATOM     40  C   UNL d   1      28.493 -13.245   6.701  0.00  0.00     0.009 C 
ENDBRANCH  34  35
ENDBRANCH  12  34
TORSDOF 7
ENDMDL
MODEL 2
REMARK VINA RESULT:   -12.216      0.738      1.329
REMARK INTER + INTRA:         -15.661
REMARK INTER:                 -14.304
REMARK INTRA:                  -1.357
REMARK CONF_INDEPENDENT:        2.088
REMARK UNBOUND:                -1.357
REMARK  7 active torsions:
REMARK  status: ('A' for Active; 'I' for Inactive)
REMARK    1  A    between atoms: C_2  and  C_3 
REMARK    2  A    between atoms: C_2  and  O_10 
REMARK    3  A    between atoms: C_4  and  C_5 
REMARK    4  A    between atoms: O_10  and  C_11 
REMARK    5  A    between atoms: C_15  and  C_14 
REMARK    6  A    between atoms: N_26  and  C_27 
REMARK    7  A    between atoms: C_27  and  C_28 
ROOT
ATOM      1  C   UNL d   1      28.787 -14.895  -2.601  0.00  0.00     0.219 C 
ATOM      2  N   UNL d   1      28.763 -13.524  -2.170  0.00  0.00    -0.332 N 
ATOM      3  C   UNL d   1      28.734 -13.267  -0.840  0.00  0.00     0.256 C 
ATOM      4  O   UNL d   1      28.017 -12.392  -0.318  0.00  0.00    -0.267 OA
ATOM      5  C   UNL d   1      29.702 -14.042  -0.098  0.00  0.00     0.073 A 
ATOM      6  C   UNL d   1      30.282 -15.134  -0.711  0.00  0.00     0.088 A 
ATOM      7  S   UNL d   1      31.316 -15.969   0.356  0.00  0.00    -0.074 SA
ATOM      8  C   UNL d   1      31.061 -14.815   1.613  0.00  0.00     0.018 A 
ATOM      9  C   UNL d   1      30.201 -13.805   1.220  0.00  0.00    -0.023 A 
ATOM     10  C   UNL d   1      29.633 -12.777   2.153  0.00  0.00     0.068 C 
ATOM     11  C   UNL d   1      30.041 -12.890   3.624  0.00  0.00     0.240 C 
ATOM     12  N   UNL d   1      30.771 -14.168   4.071  0.00  0.00    -0.062 N 
ATOM     13  C   UNL d   1      31.479 -15.066   3.028  0.00  0.00     0.282 C 
ATOM     14  N   UNL d   1      29.985 -15.471  -1.993  0.00  0.00    -0.358 N 
ATOM     15  H   UNL d   1      28.610 -12.766  -2.815  0.00  0.00     0.165 HD
ATOM     16  H   UNL d   1      31.543 -13.821   4.651  0.00  0.00     0.280 HD
ATOM     17  H   UNL d   1      30.413 -16.249  -2.486  0.00  0.00     0.162 HD
ENDROOT
BRANCH   1  18
ATOM     18  C   UNL d   1      27.498 -15.608  -2.173  0.00  0.00    -0.016 C 
ATOM     19  C   UNL d   1      26.233 -15.168  -2.628  0.00  0.00     0.014 C 
ATOM     20  C   UNL d   1      25.050 -15.688  -2.083  0.00  0.00     0.038 C 
ATOM     21  C   UNL d   1      25.135 -16.726  -1.157  0.00  0.00     0.079 C 
ATOM     22  C   UNL d   1      26.364 -17.273  -0.821  0.00  0.00     0.038 C 
ATOM     23  C   UNL d   1      27.532 -16.679  -1.270  0.00  0.00     0.014 C 
BRANCH  21  24
ATOM     24  O   UNL d   1      23.934 -17.241  -0.594  0.00  0.00    -0.276 OA
BRANCH  24  25
ATOM     25  C   UNL d   1      23.104 -18.308  -1.004  0.00  0.00     0.288 C 
ATOM     26  O   UNL d   1      23.280 -18.868  -2.078  0.00  0.00    -0.260 OA
BRANCH  25  27
ATOM     27  C   UNL d   1      21.997 -18.693  -0.085  0.00  0.00     0.085 C 
ATOM     28  C   UNL d   1      20.969 -19.492  -0.435  0.00  0.00     0.043 C 
BRANCH  28  29
ATOM     29  C   UNL d   1      19.971 -19.918   0.515  0.00  0.00     0.075 C 
ATOM     30  C   UNL d   1      18.756 -20.541   0.285  0.00  0.00     0.039 C 
ATOM     31  C   UNL d   1      18.185 -20.988   1.488  0.00  0.00     0.027 C 
ATOM     32  C   UNL d   1      18.980 -20.450   2.455  0.00  0.00     0.142 C 
ATOM     33  O   UNL d   1      20.052 -19.815   1.898  0.00  0.00    -0.323 OA
ENDBRANCH  28  29
ENDBRANCH  25  27
ENDBRANCH  24  25
ENDBRANCH  21  24
ENDBRANCH   1  18
BRANCH  12  34
ATOM     34  C   UNL d   1      29.848 -14.966   5.011  0.00  0.00     0.273 C 
BRANCH  34  35
ATOM     35  C   UNL d   1      29.401 -14.155   6.208  0.00  0.00    -0.033 C 
ATOM     36  C   UNL d   1      28.216 -13.420   6.171  0.00  0.00     0.009 C 
ATOM     37  C   UNL d   1      27.846 -12.387   7.012  0.00  0.00     0.001 C 
ATOM     38  C   UNL d   1      28.516 -12.333   8.198  0.00  0.00     0.000 C 
ATOM     39  C   UNL d   1      29.584 -13.221   8.415  0.00  0.00     0.001 C 
ATOM     40  C   UNL d   1      30.081 -14.075   7.404  0.00  0.00     0.009 C 
ENDBRANCH  34  35
ENDBRANCH  12  34
TORSDOF 7
ENDMDL
MODEL 3
REMARK VINA RESULT:   -11.389      3.961      6.828
REMARK INTER + INTRA:         -16.127
REMARK INTER:                 -13.477
REMARK INTRA:                  -2.650
REMARK CONF_INDEPENDENT:        2.088
REMARK UNBOUND:                -2.650
REMARK  7 active torsions:
REMARK  status: ('A' for Active; 'I' for Inactive)
REMARK    1  A    between atoms: C_2  and  C_3 
REMARK    2  A    between atoms: C_2  and  O_10 
REMARK    3  A    between atoms: C_4  and  C_5 
REMARK    4  A    between atoms: O_10  and  C_11 
REMARK    5  A    between atoms: C_15  and  C_14 
REMARK    6  A    between atoms: N_26  and  C_27 
REMARK    7  A    between atoms: C_27  and  C_28 
ROOT
ATOM      1  C   UNL d   1      28.872 -16.101   0.603  0.00  0.00     0.219 C 
ATOM      2  N   UNL d   1      29.707 -16.972  -0.179  0.00  0.00    -0.332 N 
ATOM      3  C   UNL d   1      29.677 -16.855  -1.528  0.00  0.00     0.256 C 
ATOM      4  O   UNL d   1      29.660 -17.825  -2.309  0.00  0.00    -0.267 OA
ATOM      5  C   UNL d   1      29.775 -15.483  -1.973  0.00  0.00     0.073 A 
ATOM      6  C   UNL d   1      29.558 -14.475  -1.056  0.00  0.00     0.088 A 
ATOM      7  S   UNL d   1      29.620 -12.940  -1.794  0.00  0.00    -0.074 SA
ATOM      8  C   UNL d   1      30.030 -13.619  -3.326  0.00  0.00     0.018 A 
ATOM      9  C   UNL d   1      30.122 -14.998  -3.272  0.00  0.00    -0.023 A 
ATOM     10  C   UNL d   1      30.261 -15.878  -4.479  0.00  0.00     0.068 C 
ATOM     11  C   UNL d   1      30.288 -15.173  -5.837  0.00  0.00     0.240 C 
ATOM     12  N   UNL d   1      29.917 -13.682  -5.881  0.00  0.00    -0.062 N 
ATOM     13  C   UNL d   1      29.981 -12.825  -4.594  0.00  0.00     0.282 C 
ATOM     14  N   UNL d   1      29.289 -14.745   0.248  0.00  0.00    -0.358 N 
ATOM     15  H   UNL d   1      30.184 -17.759   0.231  0.00  0.00     0.165 HD
ATOM     16  H   UNL d   1      30.637 -13.265  -6.481  0.00  0.00     0.280 HD
ATOM     17  H   UNL d   1      29.152 -14.030   0.956  0.00  0.00     0.162 HD
ENDROOT
BRANCH   1  18
ATOM     18  C   UNL d   1      27.393 -16.370   0.297  0.00  0.00    -0.016 C 
ATOM     19  C   UNL d   1      26.802 -17.622   0.589  0.00  0.00     0.014 C 
ATOM     20  C   UNL d   1      25.513 -17.935   0.130  0.00  0.00     0.038 C 
ATOM     21  C   UNL d   1      24.777 -16.954  -0.530  0.00  0.00     0.079 C 
ATOM     22  C   UNL d   1      25.285 -15.673  -0.683  0.00  0.00     0.038 C 
ATOM     23  C   UNL d   1      26.599 -15.404  -0.336  0.00  0.00     0.014 C 
BRANCH  21  24
ATOM     24  O   UNL d   1      23.477 -17.280  -1.008  0.00  0.00    -0.276 OA
BRANCH  24  25
ATOM     25  C   UNL d   1      22.892 -18.529  -1.320  0.00  0.00     0.288 C 
ATOM     26  O   UNL d   1      23.194 -19.129  -2.343  0.00  0.00    -0.260 OA
BRANCH  25  27
ATOM     27  C   UNL d   1      21.879 -19.055  -0.364  0.00  0.00     0.085 C 
ATOM     28  C   UNL d   1      20.641 -19.454  -0.721  0.00  0.00     0.043 C 
BRANCH  28  29
ATOM     29  C   UNL d   1      19.725 -20.048   0.222  0.00  0.00     0.075 C 
ATOM     30  C   UNL d   1      19.640 -19.864   1.591  0.00  0.00     0.039 C 
ATOM     31  C   UNL d   1      18.472 -20.451   2.105  0.00  0.00     0.027 C 
ATOM     32  C   UNL d   1      17.964 -21.156   1.056  0.00  0.00     0.142 C 
ATOM     33  O   UNL d   1      18.690 -20.925  -0.076  0.00  0.00    -0.323 OA
ENDBRANCH  28  29
ENDBRANCH  25  27
ENDBRANCH  24  25
ENDBRANCH  21  24
ENDBRANCH   1  18
BRANCH  12  34
ATOM     34  C   UNL d   1      28.581 -13.522  -6.633  0.00  0.00     0.273 C 
BRANCH  34  35
ATOM     35  C   UNL d   1      27.386 -13.819  -5.754  0.00  0.00    -0.033 C 
ATOM     36  C   UNL d   1      26.563 -12.790  -5.295  0.00  0.00     0.009 C 
ATOM     37  C   UNL d   1      25.669 -12.840  -4.242  0.00  0.00     0.001 C 
ATOM     38  C   UNL d   1      25.283 -14.092  -3.866  0.00  0.00     0.000 C 
ATOM     39  C   UNL d   1      25.899 -15.203  -4.468  0.00  0.00     0.001 C 
ATOM     40  C   UNL d   1      26.998 -15.078  -5.348  0.00  0.00     0.009 C 
ENDBRANCH  34  35
ENDBRANCH  12  34
TORSDOF 7
ENDMDL
MODEL 4
REMARK VINA RESULT:   -10.967      2.050      3.156
REMARK INTER + INTRA:         -14.336
REMARK INTER:                 -13.055
REMARK INTRA:                  -1.281
REMARK CONF_INDEPENDENT:        2.088
REMARK UNBOUND:                -1.281
REMARK  7 active torsions:
REMARK  status: ('A' for Active; 'I' for Inactive)
REMARK    1  A    between atoms: C_2  and  C_3 
REMARK    2  A    between atoms: C_2  and  O_10 
REMARK    3  A    between atoms: C_4  and  C_5 
REMARK    4  A    between atoms: O_10  and  C_11 
REMARK    5  A    between atoms: C_15  and  C_14 
REMARK    6  A    between atoms: N_26  and  C_27 
REMARK    7  A    between atoms: C_27  and  C_28 
ROOT
ATOM      1  C   UNL d   1      28.847 -12.371   0.386  0.00  0.00     0.219 C 
ATOM      2  N   UNL d   1      28.176 -11.294   1.063  0.00  0.00    -0.332 N 
ATOM      3  C   UNL d   1      27.877 -11.444   2.375  0.00  0.00     0.256 C 
ATOM      4  O   UNL d   1      26.794 -11.100   2.884  0.00  0.00    -0.267 OA
ATOM      5  C   UNL d   1      28.989 -11.948   3.149  0.00  0.00     0.073 A 
ATOM      6  C   UNL d   1      30.056 -12.512   2.480  0.00  0.00     0.088 A 
ATOM      7  S   UNL d   1      31.214 -13.133   3.567  0.00  0.00    -0.074 SA
ATOM      8  C   UNL d   1      30.331 -12.563   4.936  0.00  0.00     0.018 A 
ATOM      9  C   UNL d   1      29.172 -11.905   4.565  0.00  0.00    -0.023 A 
ATOM     10  C   UNL d   1      28.104 -11.481   5.531  0.00  0.00     0.068 C 
ATOM     11  C   UNL d   1      28.340 -11.823   7.003  0.00  0.00     0.240 C 
ATOM     12  N   UNL d   1      29.493 -12.781   7.343  0.00  0.00    -0.062 N 
ATOM     13  C   UNL d   1      30.642 -13.007   6.331  0.00  0.00     0.282 C 
ATOM     14  N   UNL d   1      30.093 -12.574   1.124  0.00  0.00    -0.358 N 
ATOM     15  H   UNL d   1      27.787 -10.512   0.561  0.00  0.00     0.165 HD
ATOM     16  H   UNL d   1      29.961 -12.332   8.139  0.00  0.00     0.280 HD
ATOM     17  H   UNL d   1      30.873 -12.955   0.597  0.00  0.00     0.162 HD
ENDROOT
BRANCH   1  18
ATOM     18  C   UNL d   1      27.956 -13.620   0.364  0.00  0.00    -0.016 C 
ATOM     19  C   UNL d   1      28.265 -14.753   1.152  0.00  0.00     0.014 C 
ATOM     20  C   UNL d   1      27.570 -15.960   0.983  0.00  0.00     0.038 C 
ATOM     21  C   UNL d   1      26.494 -15.999   0.098  0.00  0.00     0.079 C 
ATOM     22  C   UNL d   1      26.081 -14.852  -0.562  0.00  0.00     0.038 C 
ATOM     23  C   UNL d   1      26.842 -13.696  -0.483  0.00  0.00     0.014 C 
BRANCH  21  24
ATOM     24  O   UNL d   1      25.801 -17.228  -0.083  0.00  0.00    -0.276 OA
BRANCH  24  25
ATOM     25  C   UNL d   1      24.814 -17.604  -1.022  0.00  0.00     0.288 C 
ATOM     26  O   UNL d   1      24.993 -17.447  -2.223  0.00  0.00    -0.260 OA
BRANCH  25  27
ATOM     27  C   UNL d   1      23.548 -18.168  -0.479  0.00  0.00     0.085 C 
ATOM     28  C   UNL d   1      22.491 -18.518  -1.239  0.00  0.00     0.043 C 
BRANCH  28  29
ATOM     29  C   UNL d   1      21.321 -19.151  -0.682  0.00  0.00     0.075 C 
ATOM     30  C   UNL d   1      20.972 -19.325   0.647  0.00  0.00     0.039 C 
ATOM     31  C   UNL d   1      19.650 -19.787   0.762  0.00  0.00     0.027 C 
ATOM     32  C   UNL d   1      19.284 -20.075  -0.519  0.00  0.00     0.142 C 
ATOM     33  O   UNL d   1      20.260 -19.697  -1.394  0.00  0.00    -0.323 OA
ENDBRANCH  28  29
ENDBRANCH  25  27
ENDBRANCH  24  25
ENDBRANCH  21  24
ENDBRANCH   1  18
BRANCH  12  34
ATOM     34  C   UNL d   1      28.905 -14.101   7.875  0.00  0.00     0.273 C 
BRANCH  34  35
ATOM     35  C   UNL d   1      28.910 -14.168   9.387  0.00  0.00    -0.033 C 
ATOM     36  C   UNL d   1      27.870 -13.609  10.131  0.00  0.00     0.009 C 
ATOM     37  C   UNL d   1      27.883 -13.285  11.475  0.00  0.00     0.001 C 
ATOM     38  C   UNL d   1      28.847 -13.903  12.213  0.00  0.00     0.000 C 
ATOM     39  C   UNL d   1      29.803 -14.697  11.555  0.00  0.00     0.001 C 
ATOM     40  C   UNL d   1      29.890 -14.771  10.146  0.00  0.00     0.009 C 
ENDBRANCH  34  35
ENDBRANCH  12  34
TORSDOF 7
ENDMDL
MODEL 5
REMARK VINA RESULT:   -10.465      5.390      7.914
REMARK INTER + INTRA:         -15.114
REMARK INTER:                 -12.553
REMARK INTRA:                  -2.560
REMARK CONF_INDEPENDENT:        2.088
REMARK UNBOUND:                -2.560
REMARK  7 active torsions:
REMARK  status: ('A' for Active; 'I' for Inactive)
REMARK    1  A    between atoms: C_2  and  C_3 
REMARK    2  A    between atoms: C_2  and  O_10 
REMARK    3  A    between atoms: C_4  and  C_5 
REMARK    4  A    between atoms: O_10  and  C_11 
REMARK    5  A    between atoms: C_15  and  C_14 
REMARK    6  A    between atoms: N_26  and  C_27 
REMARK    7  A    between atoms: C_27  and  C_28 
ROOT
ATOM      1  C   UNL d   1      26.117 -11.887  -3.163  0.00  0.00     0.219 C 
ATOM      2  N   UNL d   1      27.353 -11.302  -2.720  0.00  0.00    -0.332 N 
ATOM      3  C   UNL d   1      28.511 -11.758  -3.255  0.00  0.00     0.256 C 
ATOM      4  O   UNL d   1      29.543 -11.976  -2.593  0.00  0.00    -0.267 OA
ATOM      5  C   UNL d   1      28.458 -11.865  -4.696  0.00  0.00     0.073 A 
ATOM      6  C   UNL d   1      27.225 -11.827  -5.315  0.00  0.00     0.088 A 
ATOM      7  S   UNL d   1      27.367 -12.067  -6.997  0.00  0.00    -0.074 SA
ATOM      8  C   UNL d   1      29.089 -12.128  -6.910  0.00  0.00     0.018 A 
ATOM      9  C   UNL d   1      29.547 -11.964  -5.615  0.00  0.00    -0.023 A 
ATOM     10  C   UNL d   1      30.974 -12.171  -5.198  0.00  0.00     0.068 C 
ATOM     11  C   UNL d   1      31.950 -12.602  -6.294  0.00  0.00     0.240 C 
ATOM     12  N   UNL d   1      31.366 -13.034  -7.649  0.00  0.00    -0.062 N 
ATOM     13  C   UNL d   1      29.933 -12.607  -8.050  0.00  0.00     0.282 C 
ATOM     14  N   UNL d   1      26.078 -11.663  -4.606  0.00  0.00    -0.358 N 
ATOM     15  H   UNL d   1      27.395 -10.686  -1.924  0.00  0.00     0.165 HD
ATOM     16  H   UNL d   1      31.958 -12.556  -8.337  0.00  0.00     0.280 HD
ATOM     17  H   UNL d   1      25.157 -11.602  -5.030  0.00  0.00     0.162 HD
ENDROOT
BRANCH   1  18
ATOM     18  C   UNL d   1      26.072 -13.375  -2.787  0.00  0.00    -0.016 C 
ATOM     19  C   UNL d   1      25.761 -14.363  -3.751  0.00  0.00     0.014 C 
ATOM     20  C   UNL d   1      25.524 -15.692  -3.369  0.00  0.00     0.038 C 
ATOM     21  C   UNL d   1      25.702 -16.051  -2.035  0.00  0.00     0.079 C 
ATOM     22  C   UNL d   1      26.160 -15.126  -1.109  0.00  0.00     0.038 C 
ATOM     23  C   UNL d   1      26.277 -13.791  -1.465  0.00  0.00     0.014 C 
BRANCH  21  24
ATOM     24  O   UNL d   1      25.445 -17.396  -1.648  0.00  0.00    -0.276 OA
BRANCH  24  25
ATOM     25  C   UNL d   1      25.063 -17.944  -0.403  0.00  0.00     0.288 C 
ATOM     26  O   UNL d   1      25.900 -18.235   0.442  0.00  0.00    -0.260 OA
BRANCH  25  27
ATOM     27  C   UNL d   1      23.608 -18.174  -0.186  0.00  0.00     0.085 C 
ATOM     28  C   UNL d   1      22.852 -18.991  -0.947  0.00  0.00     0.043 C 
BRANCH  28  29
ATOM     29  C   UNL d   1      21.468 -19.261  -0.642  0.00  0.00     0.075 C 
ATOM     30  C   UNL d   1      20.842 -19.324   0.591  0.00  0.00     0.039 C 
ATOM     31  C   UNL d   1      19.447 -19.388   0.443  0.00  0.00     0.027 C 
ATOM     32  C   UNL d   1      19.261 -19.561  -0.895  0.00  0.00     0.142 C 
ATOM     33  O   UNL d   1      20.450 -19.481  -1.561  0.00  0.00    -0.323 OA
ENDBRANCH  28  29
ENDBRANCH  25  27
ENDBRANCH  24  25
ENDBRANCH  21  24
ENDBRANCH   1  18
BRANCH  12  34
ATOM     34  C   UNL d   1      31.609 -14.543  -7.839  0.00  0.00     0.273 C 
BRANCH  34  35
ATOM     35  C   UNL d   1      31.008 -15.370  -6.723  0.00  0.00    -0.033 C 
ATOM     36  C   UNL d   1      29.628 -15.407  -6.525  0.00  0.00     0.009 C 
ATOM     37  C   UNL d   1      28.956 -15.815  -5.387  0.00  0.00     0.001 C 
ATOM     38  C   UNL d   1      29.678 -16.594  -4.534  0.00  0.00     0.000 C 
ATOM     39  C   UNL d   1      31.042 -16.811  -4.800  0.00  0.00     0.001 C 
ATOM     40  C   UNL d   1      31.729 -16.144  -5.840  0.00  0.00     0.009 C 
ENDBRANCH  34  35
ENDBRANCH  12  34
TORSDOF 7
ENDMDL
MODEL 6
REMARK VINA RESULT:    -9.999      1.726      2.391
REMARK INTER + INTRA:         -14.342
REMARK INTER:                 -12.087
REMARK INTRA:                  -2.254
REMARK CONF_INDEPENDENT:        2.088
REMARK UNBOUND:                -2.254
REMARK  7 active torsions:
REMARK  status: ('A' for Active; 'I' for Inactive)
REMARK    1  A    between atoms: C_2  and  C_3 
REMARK    2  A    between atoms: C_2  and  O_10 
REMARK    3  A    between atoms: C_4  and  C_5 
REMARK    4  A    between atoms: O_10  and  C_11 
REMARK    5  A    between atoms: C_15  and  C_14 
REMARK    6  A    between atoms: N_26  and  C_27 
REMARK    7  A    between atoms: C_27  and  C_28 
ROOT
ATOM      1  C   UNL d   1      29.863 -14.752  -1.124  0.00  0.00     0.219 C 
ATOM      2  N   UNL d   1      29.730 -13.355  -1.435  0.00  0.00    -0.332 N 
ATOM      3  C   UNL d   1      29.382 -12.503  -0.441  0.00  0.00     0.256 C 
ATOM      4  O   UNL d   1      28.557 -11.579  -0.575  0.00  0.00    -0.267 OA
ATOM      5  C   UNL d   1      30.148 -12.710   0.768  0.00  0.00     0.073 A 
ATOM      6  C   UNL d   1      30.862 -13.883   0.903  0.00  0.00     0.088 A 
ATOM      7  S   UNL d   1      31.613 -13.979   2.431  0.00  0.00    -0.074 SA
ATOM      8  C   UNL d   1      31.060 -12.407   2.877  0.00  0.00     0.018 A 
ATOM      9  C   UNL d   1      30.315 -11.817   1.871  0.00  0.00    -0.023 A 
ATOM     10  C   UNL d   1      29.536 -10.546   2.041  0.00  0.00     0.068 C 
ATOM     11  C   UNL d   1      29.580  -9.897   3.426  0.00  0.00     0.240 C 
ATOM     12  N   UNL d   1      30.186 -10.710   4.581  0.00  0.00    -0.062 N 
ATOM     13  C   UNL d   1      31.127 -11.903   4.285  0.00  0.00     0.282 C 
ATOM     14  N   UNL d   1      30.882 -14.821  -0.078  0.00  0.00    -0.358 N 
ATOM     15  H   UNL d   1      29.733 -13.019  -2.384  0.00  0.00     0.165 HD
ATOM     16  H   UNL d   1      30.796 -10.040   5.062  0.00  0.00     0.280 HD
ATOM     17  H   UNL d   1      31.419 -15.682  -0.025  0.00  0.00     0.162 HD
ENDROOT
BRANCH   1  18
ATOM     18  C   UNL d   1      28.511 -15.326  -0.678  0.00  0.00    -0.016 C 
ATOM     19  C   UNL d   1      28.436 -16.516   0.081  0.00  0.00     0.014 C 
ATOM     20  C   UNL d   1      27.204 -17.146   0.316  0.00  0.00     0.038 C 
ATOM     21  C   UNL d   1      26.037 -16.524  -0.122  0.00  0.00     0.079 C 
ATOM     22  C   UNL d   1      26.085 -15.279  -0.729  0.00  0.00     0.038 C 
ATOM     23  C   UNL d   1      27.308 -14.719  -1.064  0.00  0.00     0.014 C 
BRANCH  21  24
ATOM     24  O   UNL d   1      24.791 -17.173   0.104  0.00  0.00    -0.276 OA
BRANCH  24  25
ATOM     25  C   UNL d   1      23.906 -17.815  -0.793  0.00  0.00     0.288 C 
ATOM     26  O   UNL d   1      24.128 -17.828  -1.997  0.00  0.00    -0.260 OA
BRANCH  25  27
ATOM     27  C   UNL d   1      22.690 -18.441  -0.206  0.00  0.00     0.085 C 
ATOM     28  C   UNL d   1      21.638 -18.870  -0.933  0.00  0.00     0.043 C 
BRANCH  28  29
ATOM     29  C   UNL d   1      20.522 -19.560  -0.333  0.00  0.00     0.075 C 
ATOM     30  C   UNL d   1      20.340 -19.946   0.984  0.00  0.00     0.039 C 
ATOM     31  C   UNL d   1      19.025 -20.389   1.200  0.00  0.00     0.027 C 
ATOM     32  C   UNL d   1      18.483 -20.448  -0.048  0.00  0.00     0.142 C 
ATOM     33  O   UNL d   1      19.354 -19.952  -0.975  0.00  0.00    -0.323 OA
ENDBRANCH  28  29
ENDBRANCH  25  27
ENDBRANCH  24  25
ENDBRANCH  21  24
ENDBRANCH   1  18
BRANCH  12  34
ATOM     34  C   UNL d   1      29.068 -11.072   5.578  0.00  0.00     0.273 C 
BRANCH  34  35
ATOM     35  C   UNL d   1      28.510 -12.458   5.341  0.00  0.00    -0.033 C 
ATOM     36  C   UNL d   1      28.672 -13.466   6.292  0.00  0.00     0.009 C 
ATOM     37  C   UNL d   1      28.537 -14.828   6.098  0.00  0.00     0.001 C 
ATOM     38  C   UNL d   1      27.823 -15.191   4.996  0.00  0.00     0.000 C 
ATOM     39  C   UNL d   1      27.403 -14.193   4.099  0.00  0.00     0.001 C 
ATOM     40  C   UNL d   1      27.806 -12.844   4.221  0.00  0.00     0.009 C 
ENDBRANCH  34  35
ENDBRANCH  12  34
TORSDOF 7
ENDMDL
