MODEL 1
REMARK VINA RESULT:   -10.146      0.000      0.000
REMARK INTER + INTRA:         -15.579
REMARK INTER:                 -13.129
REMARK INTRA:                  -2.450
REMARK CONF_INDEPENDENT:        2.983
REMARK UNBOUND:                -2.450
REMARK  10 active torsions:
REMARK  status: ('A' for Active; 'I' for Inactive)
REMARK    1  A    between atoms: C_2  and  C_3 
REMARK       I    between atoms: C_2  and  N_30 
REMARK    2  A    between atoms: C_3  and  S_4 
REMARK    3  A    between atoms: C_5  and  S_4 
REMARK    4  A    between atoms: N_15  and  N_16 
REMARK       I    between atoms: N_16  and  C_17 
REMARK    5  A    between atoms: C_17  and  C_19 
REMARK    6  A    between atoms: C_19  and  C_20 
REMARK    7  A    between atoms: C_20  and  C_21 
REMARK    8  A    between atoms: N_30  and  C_31 
REMARK    9  A    between atoms: C_31  and  C_32 
REMARK   10  A    between atoms: C_32  and  C_33 
ROOT
ATOM      1  C   UNL d   1      27.451 -15.825   0.254  0.00  0.00     0.274 C 
ATOM      2  N   UNL d   1      26.628 -14.908  -0.524  0.00  0.00    -0.358 N 
ATOM      3  C   UNL d   1      26.742 -14.906  -1.911  0.00  0.00     0.046 A 
ATOM      4  C   UNL d   1      25.740 -14.408  -2.749  0.00  0.00     0.030 A 
ATOM      5  C   UNL d   1      25.915 -14.371  -4.147  0.00  0.00     0.002 A 
ATOM      6  C   UNL d   1      27.104 -14.804  -4.730  0.00  0.00     0.001 A 
ATOM      7  C   UNL d   1      28.093 -15.323  -3.917  0.00  0.00     0.019 A 
ATOM      8  C   UNL d   1      27.890 -15.398  -2.532  0.00  0.00     0.060 A 
ATOM      9  C   UNL d   1      28.944 -15.979  -1.702  0.00  0.00     0.277 C 
ATOM     10  O   UNL d   1      29.855 -16.554  -2.300  0.00  0.00    -0.266 OA
ATOM     11  N   UNL d   1      28.806 -15.813  -0.321  0.00  0.00    -0.221 N 
ATOM     12  H   UNL d   1      25.806 -14.504  -0.101  0.00  0.00     0.162 HD
ENDROOT
BRANCH  11  13
ATOM     13  N   UNL d   1      29.917 -16.114   0.565  0.00  0.00    -0.262 N 
ATOM     14  C   UNL d   1      30.975 -15.213   0.676  0.00  0.00     0.236 C 
ATOM     15  O   UNL d   1      31.129 -14.170   0.051  0.00  0.00    -0.272 OA
ATOM     16  H   UNL d   1      29.702 -16.712   1.354  0.00  0.00     0.190 HD
BRANCH  14  17
ATOM     17  C   UNL d   1      31.996 -15.530   1.738  0.00  0.00     0.109 C 
BRANCH  17  18
ATOM     18  C   UNL d   1      31.832 -14.457   2.827  0.00  0.00     0.046 C 
BRANCH  18  19
ATOM     19  C   UNL d   1      30.529 -14.447   3.527  0.00  0.00    -0.050 A 
ATOM     20  C   UNL d   1      29.430 -13.843   3.072  0.00  0.00    -0.006 A 
ATOM     21  C   UNL d   1      29.148 -13.057   1.919  0.00  0.00     0.014 A 
ATOM     22  C   UNL d   1      28.385 -14.200   4.042  0.00  0.00     0.038 A 
ATOM     23  C   UNL d   1      27.891 -12.625   1.741  0.00  0.00     0.001 A 
ATOM     24  C   UNL d   1      26.832 -12.956   2.685  0.00  0.00     0.002 A 
ATOM     25  C   UNL d   1      27.023 -13.701   3.792  0.00  0.00     0.030 A 
ATOM     26  N   UNL d   1      28.835 -14.934   4.989  0.00  0.00    -0.385 N 
ATOM     27  C   UNL d   1      30.270 -15.193   4.793  0.00  0.00     0.155 A 
ATOM     28  H   UNL d   1      28.262 -15.284   5.751  0.00  0.00     0.160 HD
ENDBRANCH  18  19
ENDBRANCH  17  18
ENDBRANCH  14  17
ENDBRANCH  11  13
BRANCH   1  29
ATOM     29  S   UNL d   1      26.706 -17.501   0.214  0.00  0.00    -0.112 SA
BRANCH  29  30
ATOM     30  C   UNL d   1      24.898 -17.219   0.004  0.00  0.00     0.180 C 
BRANCH  30  31
ATOM     31  C   UNL d   1      24.458 -17.618  -1.430  0.00  0.00     0.227 C 
ATOM     32  O   UNL d   1      24.921 -17.129  -2.459  0.00  0.00    -0.273 OA
ATOM     33  N   UNL d   1      23.496 -18.586  -1.587  0.00  0.00    -0.360 N 
ATOM     34  H   UNL d   1      23.279 -18.792  -2.559  0.00  0.00     0.162 HD
BRANCH  33  35
ATOM     35  C   UNL d   1      22.838 -19.324  -0.538  0.00  0.00     0.127 C 
BRANCH  35  36
ATOM     36  C   UNL d   1      21.762 -18.538   0.230  0.00  0.00     0.058 C 
BRANCH  36  37
ATOM     37  C   UNL d   1      20.560 -19.400   0.563  0.00  0.00    -0.057 C 
ATOM     38  C   UNL d   1      19.687 -19.820  -0.450  0.00  0.00     0.007 C 
ATOM     39  C   UNL d   1      18.484 -20.450  -0.124  0.00  0.00     0.001 C 
ATOM     40  C   UNL d   1      18.196 -20.776   1.200  0.00  0.00     0.000 C 
ATOM     41  C   UNL d   1      19.125 -20.503   2.194  0.00  0.00     0.001 C 
ATOM     42  C   UNL d   1      20.281 -19.792   1.882  0.00  0.00     0.007 C 
ENDBRANCH  36  37
ENDBRANCH  35  36
ENDBRANCH  33  35
ENDBRANCH  30  31
ENDBRANCH  29  30
ENDBRANCH   1  29
TORSDOF 10
ENDMDL
MODEL 2
REMARK VINA RESULT:    -9.905      1.892      5.338
REMARK INTER + INTRA:         -15.937
REMARK INTER:                 -12.888
REMARK INTRA:                  -3.049
REMARK CONF_INDEPENDENT:        2.983
REMARK UNBOUND:                -3.049
REMARK  10 active torsions:
REMARK  status: ('A' for Active; 'I' for Inactive)
REMARK    1  A    between atoms: C_2  and  C_3 
REMARK       I    between atoms: C_2  and  N_30 
REMARK    2  A    between atoms: C_3  and  S_4 
REMARK    3  A    between atoms: C_5  and  S_4 
REMARK    4  A    between atoms: N_15  and  N_16 
REMARK       I    between atoms: N_16  and  C_17 
REMARK    5  A    between atoms: C_17  and  C_19 
REMARK    6  A    between atoms: C_19  and  C_20 
REMARK    7  A    between atoms: C_20  and  C_21 
REMARK    8  A    between atoms: N_30  and  C_31 
REMARK    9  A    between atoms: C_31  and  C_32 
REMARK   10  A    between atoms: C_32  and  C_33 
ROOT
ATOM      1  C   UNL d   1      27.879 -16.480  -0.181  0.00  0.00     0.274 C 
ATOM      2  N   UNL d   1      28.440 -15.801   0.980  0.00  0.00    -0.358 N 
ATOM      3  C   UNL d   1      27.832 -14.638   1.445  0.00  0.00     0.046 A 
ATOM      4  C   UNL d   1      28.008 -14.165   2.748  0.00  0.00     0.030 A 
ATOM      5  C   UNL d   1      27.421 -12.953   3.165  0.00  0.00     0.002 A 
ATOM      6  C   UNL d   1      26.672 -12.180   2.281  0.00  0.00     0.001 A 
ATOM      7  C   UNL d   1      26.467 -12.648   0.997  0.00  0.00     0.019 A 
ATOM      8  C   UNL d   1      27.018 -13.877   0.606  0.00  0.00     0.060 A 
ATOM      9  C   UNL d   1      26.758 -14.359  -0.749  0.00  0.00     0.277 C 
ATOM     10  O   UNL d   1      25.901 -13.749  -1.391  0.00  0.00    -0.266 OA
ATOM     11  N   UNL d   1      27.517 -15.454  -1.172  0.00  0.00    -0.221 N 
ATOM     12  H   UNL d   1      29.060 -16.306   1.594  0.00  0.00     0.162 HD
ENDROOT
BRANCH  11  13
ATOM     13  N   UNL d   1      27.528 -15.836  -2.573  0.00  0.00    -0.262 N 
ATOM     14  C   UNL d   1      28.505 -15.319  -3.422  0.00  0.00     0.236 C 
ATOM     15  O   UNL d   1      29.370 -14.496  -3.143  0.00  0.00    -0.272 OA
ATOM     16  H   UNL d   1      27.131 -16.744  -2.786  0.00  0.00     0.190 HD
BRANCH  14  17
ATOM     17  C   UNL d   1      28.539 -15.898  -4.813  0.00  0.00     0.109 C 
BRANCH  17  18
ATOM     18  C   UNL d   1      27.549 -15.070  -5.649  0.00  0.00     0.046 C 
BRANCH  18  19
ATOM     19  C   UNL d   1      26.719 -14.107  -4.892  0.00  0.00    -0.050 A 
ATOM     20  C   UNL d   1      27.106 -12.875  -4.557  0.00  0.00    -0.006 A 
ATOM     21  C   UNL d   1      28.310 -12.139  -4.743  0.00  0.00     0.014 A 
ATOM     22  C   UNL d   1      25.922 -12.277  -3.924  0.00  0.00     0.038 A 
ATOM     23  C   UNL d   1      28.351 -10.872  -4.305  0.00  0.00     0.001 A 
ATOM     24  C   UNL d   1      27.198 -10.250  -3.668  0.00  0.00     0.002 A 
ATOM     25  C   UNL d   1      26.024 -10.881  -3.467  0.00  0.00     0.030 A 
ATOM     26  N   UNL d   1      24.935 -13.090  -3.877  0.00  0.00    -0.385 N 
ATOM     27  C   UNL d   1      25.308 -14.376  -4.489  0.00  0.00     0.155 A 
ATOM     28  H   UNL d   1      24.030 -12.857  -3.479  0.00  0.00     0.160 HD
ENDBRANCH  18  19
ENDBRANCH  17  18
ENDBRANCH  14  17
ENDBRANCH  11  13
BRANCH   1  29
ATOM     29  S   UNL d   1      26.426 -17.474   0.335  0.00  0.00    -0.112 SA
BRANCH  29  30
ATOM     30  C   UNL d   1      24.967 -16.589  -0.359  0.00  0.00     0.180 C 
BRANCH  30  31
ATOM     31  C   UNL d   1      24.550 -17.225  -1.712  0.00  0.00     0.227 C 
ATOM     32  O   UNL d   1      25.153 -17.060  -2.771  0.00  0.00    -0.273 OA
ATOM     33  N   UNL d   1      23.443 -18.037  -1.754  0.00  0.00    -0.360 N 
ATOM     34  H   UNL d   1      23.252 -18.419  -2.677  0.00  0.00     0.162 HD
BRANCH  33  35
ATOM     35  C   UNL d   1      22.603 -18.406  -0.642  0.00  0.00     0.127 C 
BRANCH  35  36
ATOM     36  C   UNL d   1      21.095 -18.413  -0.944  0.00  0.00     0.058 C 
BRANCH  36  37
ATOM     37  C   UNL d   1      20.327 -19.292   0.025  0.00  0.00    -0.057 C 
ATOM     38  C   UNL d   1      19.257 -20.076  -0.427  0.00  0.00     0.007 C 
ATOM     39  C   UNL d   1      18.434 -20.736   0.489  0.00  0.00     0.001 C 
ATOM     40  C   UNL d   1      18.741 -20.721   1.848  0.00  0.00     0.000 C 
ATOM     41  C   UNL d   1      19.887 -20.075   2.289  0.00  0.00     0.001 C 
ATOM     42  C   UNL d   1      20.655 -19.340   1.389  0.00  0.00     0.007 C 
ENDBRANCH  36  37
ENDBRANCH  35  36
ENDBRANCH  33  35
ENDBRANCH  30  31
ENDBRANCH  29  30
ENDBRANCH   1  29
TORSDOF 10
ENDMDL
MODEL 3
REMARK VINA RESULT:    -9.886      2.852      5.054
REMARK INTER + INTRA:         -15.265
REMARK INTER:                 -12.869
REMARK INTRA:                  -2.396
REMARK CONF_INDEPENDENT:        2.983
REMARK UNBOUND:                -2.396
REMARK  10 active torsions:
REMARK  status: ('A' for Active; 'I' for Inactive)
REMARK    1  A    between atoms: C_2  and  C_3 
REMARK       I    between atoms: C_2  and  N_30 
REMARK    2  A    between atoms: C_3  and  S_4 
REMARK    3  A    between atoms: C_5  and  S_4 
REMARK    4  A    between atoms: N_15  and  N_16 
REMARK       I    between atoms: N_16  and  C_17 
REMARK    5  A    between atoms: C_17  and  C_19 
REMARK    6  A    between atoms: C_19  and  C_20 
REMARK    7  A    between atoms: C_20  and  C_21 
REMARK    8  A    between atoms: N_30  and  C_31 
REMARK    9  A    between atoms: C_31  and  C_32 
REMARK   10  A    between atoms: C_32  and  C_33 
ROOT
ATOM      1  C   UNL d   1      27.873 -16.704   0.063  0.00  0.00     0.274 C 
ATOM      2  N   UNL d   1      27.161 -15.459  -0.191  0.00  0.00    -0.358 N 
ATOM      3  C   UNL d   1      26.883 -15.092  -1.505  0.00  0.00     0.046 A 
ATOM      4  C   UNL d   1      25.872 -14.186  -1.837  0.00  0.00     0.030 A 
ATOM      5  C   UNL d   1      25.658 -13.797  -3.174  0.00  0.00     0.002 A 
ATOM      6  C   UNL d   1      26.466 -14.283  -4.199  0.00  0.00     0.001 A 
ATOM      7  C   UNL d   1      27.453 -15.200  -3.890  0.00  0.00     0.019 A 
ATOM      8  C   UNL d   1      27.628 -15.615  -2.562  0.00  0.00     0.060 A 
ATOM      9  C   UNL d   1      28.660 -16.608  -2.271  0.00  0.00     0.277 C 
ATOM     10  O   UNL d   1      29.170 -17.167  -3.244  0.00  0.00    -0.266 OA
ATOM     11  N   UNL d   1      28.962 -16.809  -0.921  0.00  0.00    -0.221 N 
ATOM     12  H   UNL d   1      26.637 -15.029   0.556  0.00  0.00     0.162 HD
ENDROOT
BRANCH  11  13
ATOM     13  N   UNL d   1      30.142 -17.567  -0.542  0.00  0.00    -0.262 N 
ATOM     14  C   UNL d   1      31.386 -17.214  -1.065  0.00  0.00     0.236 C 
ATOM     15  O   UNL d   1      31.622 -16.338  -1.890  0.00  0.00    -0.272 OA
ATOM     16  H   UNL d   1      30.106 -18.014   0.366  0.00  0.00     0.190 HD
BRANCH  14  17
ATOM     17  C   UNL d   1      32.570 -17.947  -0.490  0.00  0.00     0.109 C 
BRANCH  17  18
ATOM     18  C   UNL d   1      33.231 -18.688  -1.664  0.00  0.00     0.046 C 
BRANCH  18  19
ATOM     19  C   UNL d   1      32.333 -19.548  -2.466  0.00  0.00    -0.050 A 
ATOM     20  C   UNL d   1      31.798 -19.199  -3.637  0.00  0.00    -0.006 A 
ATOM     21  C   UNL d   1      31.851 -18.016  -4.427  0.00  0.00     0.014 A 
ATOM     22  C   UNL d   1      31.085 -20.402  -4.089  0.00  0.00     0.038 A 
ATOM     23  C   UNL d   1      31.211 -18.014  -5.606  0.00  0.00     0.001 A 
ATOM     24  C   UNL d   1      30.491 -19.186  -6.082  0.00  0.00     0.002 A 
ATOM     25  C   UNL d   1      30.405 -20.343  -5.394  0.00  0.00     0.030 A 
ATOM     26  N   UNL d   1      31.180 -21.364  -3.252  0.00  0.00    -0.385 N 
ATOM     27  C   UNL d   1      31.991 -20.952  -2.094  0.00  0.00     0.155 A 
ATOM     28  H   UNL d   1      30.757 -22.278  -3.391  0.00  0.00     0.160 HD
ENDBRANCH  18  19
ENDBRANCH  17  18
ENDBRANCH  14  17
ENDBRANCH  11  13
BRANCH   1  29
ATOM     29  S   UNL d   1      26.704 -18.113  -0.057  0.00  0.00    -0.112 SA
BRANCH  29  30
ATOM     30  C   UNL d   1      25.033 -17.344  -0.145  0.00  0.00     0.180 C 
BRANCH  30  31
ATOM     31  C   UNL d   1      24.412 -17.573  -1.550  0.00  0.00     0.227 C 
ATOM     32  O   UNL d   1      24.780 -16.998  -2.572  0.00  0.00    -0.273 OA
ATOM     33  N   UNL d   1      23.390 -18.481  -1.687  0.00  0.00    -0.360 N 
ATOM     34  H   UNL d   1      23.054 -18.575  -2.642  0.00  0.00     0.162 HD
BRANCH  33  35
ATOM     35  C   UNL d   1      22.818 -19.297  -0.646  0.00  0.00     0.127 C 
BRANCH  35  36
ATOM     36  C   UNL d   1      21.839 -18.566   0.287  0.00  0.00     0.058 C 
BRANCH  36  37
ATOM     37  C   UNL d   1      20.614 -19.406   0.595  0.00  0.00    -0.057 C 
ATOM     38  C   UNL d   1      19.777 -19.842  -0.440  0.00  0.00     0.007 C 
ATOM     39  C   UNL d   1      18.554 -20.451  -0.145  0.00  0.00     0.001 C 
ATOM     40  C   UNL d   1      18.211 -20.739   1.175  0.00  0.00     0.000 C 
ATOM     41  C   UNL d   1      19.105 -20.450   2.197  0.00  0.00     0.001 C 
ATOM     42  C   UNL d   1      20.280 -19.760   1.912  0.00  0.00     0.007 C 
ENDBRANCH  36  37
ENDBRANCH  35  36
ENDBRANCH  33  35
ENDBRANCH  30  31
ENDBRANCH  29  30
ENDBRANCH   1  29
TORSDOF 10
ENDMDL
MODEL 4
REMARK VINA RESULT:    -9.508      2.246      5.641
REMARK INTER + INTRA:         -15.624
REMARK INTER:                 -12.491
REMARK INTRA:                  -3.133
REMARK CONF_INDEPENDENT:        2.983
REMARK UNBOUND:                -3.133
REMARK  10 active torsions:
REMARK  status: ('A' for Active; 'I' for Inactive)
REMARK    1  A    between atoms: C_2  and  C_3 
REMARK       I    between atoms: C_2  and  N_30 
REMARK    2  A    between atoms: C_3  and  S_4 
REMARK    3  A    between atoms: C_5  and  S_4 
REMARK    4  A    between atoms: N_15  and  N_16 
REMARK       I    between atoms: N_16  and  C_17 
REMARK    5  A    between atoms: C_17  and  C_19 
REMARK    6  A    between atoms: C_19  and  C_20 
REMARK    7  A    between atoms: C_20  and  C_21 
REMARK    8  A    between atoms: N_30  and  C_31 
REMARK    9  A    between atoms: C_31  and  C_32 
REMARK   10  A    between atoms: C_32  and  C_33 
ROOT
ATOM      1  C   UNL d   1      27.563 -16.698  -1.875  0.00  0.00     0.274 C 
ATOM      2  N   UNL d   1      27.810 -16.684  -0.440  0.00  0.00    -0.358 N 
ATOM      3  C   UNL d   1      27.927 -15.461   0.217  0.00  0.00     0.046 A 
ATOM      4  C   UNL d   1      27.735 -15.324   1.594  0.00  0.00     0.030 A 
ATOM      5  C   UNL d   1      27.918 -14.081   2.232  0.00  0.00     0.002 A 
ATOM      6  C   UNL d   1      28.322 -12.960   1.510  0.00  0.00     0.001 A 
ATOM      7  C   UNL d   1      28.489 -13.073   0.142  0.00  0.00     0.019 A 
ATOM      8  C   UNL d   1      28.261 -14.305  -0.488  0.00  0.00     0.060 A 
ATOM      9  C   UNL d   1      28.418 -14.386  -1.939  0.00  0.00     0.277 C 
ATOM     10  O   UNL d   1      28.540 -13.315  -2.536  0.00  0.00    -0.266 OA
ATOM     11  N   UNL d   1      28.420 -15.670  -2.490  0.00  0.00    -0.221 N 
ATOM     12  H   UNL d   1      27.613 -17.511   0.102  0.00  0.00     0.162 HD
ENDROOT
BRANCH  11  13
ATOM     13  N   UNL d   1      28.832 -15.872  -3.868  0.00  0.00    -0.262 N 
ATOM     14  C   UNL d   1      30.051 -15.360  -4.306  0.00  0.00     0.236 C 
ATOM     15  O   UNL d   1      30.842 -14.676  -3.665  0.00  0.00    -0.272 OA
ATOM     16  H   UNL d   1      28.460 -16.698  -4.323  0.00  0.00     0.190 HD
BRANCH  14  17
ATOM     17  C   UNL d   1      30.469 -15.759  -5.698  0.00  0.00     0.109 C 
BRANCH  17  18
ATOM     18  C   UNL d   1      29.312 -15.357  -6.627  0.00  0.00     0.046 C 
BRANCH  18  19
ATOM     19  C   UNL d   1      28.661 -14.064  -6.319  0.00  0.00    -0.050 A 
ATOM     20  C   UNL d   1      27.481 -13.939  -5.709  0.00  0.00    -0.006 A 
ATOM     21  C   UNL d   1      26.520 -14.872  -5.227  0.00  0.00     0.014 A 
ATOM     22  C   UNL d   1      27.312 -12.490  -5.530  0.00  0.00     0.038 A 
ATOM     23  C   UNL d   1      25.429 -14.394  -4.610  0.00  0.00     0.001 A 
ATOM     24  C   UNL d   1      25.227 -12.964  -4.421  0.00  0.00     0.002 A 
ATOM     25  C   UNL d   1      26.097 -12.023  -4.842  0.00  0.00     0.030 A 
ATOM     26  N   UNL d   1      28.296 -11.825  -6.007  0.00  0.00    -0.385 N 
ATOM     27  C   UNL d   1      29.297 -12.740  -6.580  0.00  0.00     0.155 A 
ATOM     28  H   UNL d   1      28.362 -10.812  -5.973  0.00  0.00     0.160 HD
ENDBRANCH  18  19
ENDBRANCH  17  18
ENDBRANCH  14  17
ENDBRANCH  11  13
BRANCH   1  29
ATOM     29  S   UNL d   1      25.784 -16.383  -2.194  0.00  0.00    -0.112 SA
BRANCH  29  30
ATOM     30  C   UNL d   1      24.988 -16.402  -0.532  0.00  0.00     0.180 C 
BRANCH  30  31
ATOM     31  C   UNL d   1      24.802 -17.865  -0.046  0.00  0.00     0.227 C 
ATOM     32  O   UNL d   1      25.714 -18.581   0.361  0.00  0.00    -0.273 OA
ATOM     33  N   UNL d   1      23.542 -18.414  -0.053  0.00  0.00    -0.360 N 
ATOM     34  H   UNL d   1      23.513 -19.370   0.293  0.00  0.00     0.162 HD
BRANCH  33  35
ATOM     35  C   UNL d   1      22.320 -17.761  -0.449  0.00  0.00     0.127 C 
BRANCH  35  36
ATOM     36  C   UNL d   1      21.283 -18.678  -1.119  0.00  0.00     0.058 C 
BRANCH  36  37
ATOM     37  C   UNL d   1      20.406 -19.381  -0.100  0.00  0.00    -0.057 C 
ATOM     38  C   UNL d   1      19.268 -20.087  -0.513  0.00  0.00     0.007 C 
ATOM     39  C   UNL d   1      18.360 -20.571   0.432  0.00  0.00     0.001 C 
ATOM     40  C   UNL d   1      18.638 -20.464   1.793  0.00  0.00     0.000 C 
ATOM     41  C   UNL d   1      19.837 -19.903   2.210  0.00  0.00     0.001 C 
ATOM     42  C   UNL d   1      20.697 -19.338   1.272  0.00  0.00     0.007 C 
ENDBRANCH  36  37
ENDBRANCH  35  36
ENDBRANCH  33  35
ENDBRANCH  30  31
ENDBRANCH  29  30
ENDBRANCH   1  29
TORSDOF 10
ENDMDL
MODEL 5
REMARK VINA RESULT:    -9.230      3.108      8.209
REMARK INTER + INTRA:         -15.251
REMARK INTER:                 -12.213
REMARK INTRA:                  -3.038
REMARK CONF_INDEPENDENT:        2.983
REMARK UNBOUND:                -3.038
REMARK  10 active torsions:
REMARK  status: ('A' for Active; 'I' for Inactive)
REMARK    1  A    between atoms: C_2  and  C_3 
REMARK       I    between atoms: C_2  and  N_30 
REMARK    2  A    between atoms: C_3  and  S_4 
REMARK    3  A    between atoms: C_5  and  S_4 
REMARK    4  A    between atoms: N_15  and  N_16 
REMARK       I    between atoms: N_16  and  C_17 
REMARK    5  A    between atoms: C_17  and  C_19 
REMARK    6  A    between atoms: C_19  and  C_20 
REMARK    7  A    between atoms: C_20  and  C_21 
REMARK    8  A    between atoms: N_30  and  C_31 
REMARK    9  A    between atoms: C_31  and  C_32 
REMARK   10  A    between atoms: C_32  and  C_33 
ROOT
ATOM      1  C   UNL d   1      26.170 -14.644  -2.515  0.00  0.00     0.274 C 
ATOM      2  N   UNL d   1      24.809 -15.145  -2.376  0.00  0.00    -0.358 N 
ATOM      3  C   UNL d   1      24.560 -16.200  -1.502  0.00  0.00     0.046 A 
ATOM      4  C   UNL d   1      23.291 -16.465  -0.982  0.00  0.00     0.030 A 
ATOM      5  C   UNL d   1      23.067 -17.576  -0.144  0.00  0.00     0.002 A 
ATOM      6  C   UNL d   1      24.100 -18.457   0.165  0.00  0.00     0.001 A 
ATOM      7  C   UNL d   1      25.367 -18.194  -0.320  0.00  0.00     0.019 A 
ATOM      8  C   UNL d   1      25.587 -17.060  -1.116  0.00  0.00     0.060 A 
ATOM      9  C   UNL d   1      26.944 -16.793  -1.590  0.00  0.00     0.277 C 
ATOM     10  O   UNL d   1      27.842 -17.471  -1.087  0.00  0.00    -0.266 OA
ATOM     11  N   UNL d   1      27.075 -15.803  -2.568  0.00  0.00    -0.221 N 
ATOM     12  H   UNL d   1      24.038 -14.567  -2.675  0.00  0.00     0.162 HD
ENDROOT
BRANCH  11  13
ATOM     13  N   UNL d   1      28.326 -15.650  -3.289  0.00  0.00    -0.262 N 
ATOM     14  C   UNL d   1      28.306 -15.418  -4.663  0.00  0.00     0.236 C 
ATOM     15  O   UNL d   1      27.323 -15.381  -5.395  0.00  0.00    -0.272 OA
ATOM     16  H   UNL d   1      29.106 -15.296  -2.747  0.00  0.00     0.190 HD
BRANCH  14  17
ATOM     17  C   UNL d   1      29.639 -15.108  -5.295  0.00  0.00     0.109 C 
BRANCH  17  18
ATOM     18  C   UNL d   1      30.698 -15.822  -4.439  0.00  0.00     0.046 C 
BRANCH  18  19
ATOM     19  C   UNL d   1      30.684 -17.301  -4.502  0.00  0.00    -0.050 A 
ATOM     20  C   UNL d   1      30.737 -18.010  -5.631  0.00  0.00    -0.006 A 
ATOM     21  C   UNL d   1      30.782 -17.659  -7.010  0.00  0.00     0.014 A 
ATOM     22  C   UNL d   1      30.806 -19.408  -5.184  0.00  0.00     0.038 A 
ATOM     23  C   UNL d   1      30.873 -18.648  -7.911  0.00  0.00     0.001 A 
ATOM     24  C   UNL d   1      30.938 -20.045  -7.503  0.00  0.00     0.002 A 
ATOM     25  C   UNL d   1      30.910 -20.451  -6.218  0.00  0.00     0.030 A 
ATOM     26  N   UNL d   1      30.780 -19.510  -3.908  0.00  0.00    -0.385 N 
ATOM     27  C   UNL d   1      30.696 -18.175  -3.294  0.00  0.00     0.155 A 
ATOM     28  H   UNL d   1      30.823 -20.396  -3.412  0.00  0.00     0.160 HD
ENDBRANCH  18  19
ENDBRANCH  17  18
ENDBRANCH  14  17
ENDBRANCH  11  13
BRANCH   1  29
ATOM     29  S   UNL d   1      26.560 -13.536  -1.105  0.00  0.00    -0.112 SA
BRANCH  29  30
ATOM     30  C   UNL d   1      28.400 -13.487  -1.027  0.00  0.00     0.180 C 
BRANCH  30  31
ATOM     31  C   UNL d   1      28.938 -14.751  -0.304  0.00  0.00     0.227 C 
ATOM     32  O   UNL d   1      29.821 -15.481  -0.749  0.00  0.00    -0.273 OA
ATOM     33  N   UNL d   1      28.416 -15.091   0.920  0.00  0.00    -0.360 N 
ATOM     34  H   UNL d   1      28.835 -15.924   1.325  0.00  0.00     0.162 HD
BRANCH  33  35
ATOM     35  C   UNL d   1      27.405 -14.373   1.655  0.00  0.00     0.127 C 
BRANCH  35  36
ATOM     36  C   UNL d   1      27.908 -13.121   2.395  0.00  0.00     0.058 C 
BRANCH  36  37
ATOM     37  C   UNL d   1      28.038 -13.359   3.887  0.00  0.00    -0.057 C 
ATOM     38  C   UNL d   1      27.888 -12.296   4.788  0.00  0.00     0.007 C 
ATOM     39  C   UNL d   1      28.192 -12.473   6.140  0.00  0.00     0.001 C 
ATOM     40  C   UNL d   1      28.531 -13.735   6.625  0.00  0.00     0.000 C 
ATOM     41  C   UNL d   1      28.532 -14.826   5.767  0.00  0.00     0.001 C 
ATOM     42  C   UNL d   1      28.319 -14.633   4.405  0.00  0.00     0.007 C 
ENDBRANCH  36  37
ENDBRANCH  35  36
ENDBRANCH  33  35
ENDBRANCH  30  31
ENDBRANCH  29  30
ENDBRANCH   1  29
TORSDOF 10
ENDMDL
MODEL 6
REMARK VINA RESULT:    -8.896      2.993      7.679
REMARK INTER + INTRA:         -15.778
REMARK INTER:                 -11.879
REMARK INTRA:                  -3.899
REMARK CONF_INDEPENDENT:        2.983
REMARK UNBOUND:                -3.899
REMARK  10 active torsions:
REMARK  status: ('A' for Active; 'I' for Inactive)
REMARK    1  A    between atoms: C_2  and  C_3 
REMARK       I    between atoms: C_2  and  N_30 
REMARK    2  A    between atoms: C_3  and  S_4 
REMARK    3  A    between atoms: C_5  and  S_4 
REMARK    4  A    between atoms: N_15  and  N_16 
REMARK       I    between atoms: N_16  and  C_17 
REMARK    5  A    between atoms: C_17  and  C_19 
REMARK    6  A    between atoms: C_19  and  C_20 
REMARK    7  A    between atoms: C_20  and  C_21 
REMARK    8  A    between atoms: N_30  and  C_31 
REMARK    9  A    between atoms: C_31  and  C_32 
REMARK   10  A    between atoms: C_32  and  C_33 
ROOT
ATOM      1  C   UNL d   1      29.350 -16.053  -3.313  0.00  0.00     0.274 C 
ATOM      2  N   UNL d   1      29.755 -17.443  -3.470  0.00  0.00    -0.358 N 
ATOM      3  C   UNL d   1      30.366 -17.841  -4.656  0.00  0.00     0.046 A 
ATOM      4  C   UNL d   1      31.156 -18.990  -4.748  0.00  0.00     0.030 A 
ATOM      5  C   UNL d   1      31.712 -19.392  -5.979  0.00  0.00     0.002 A 
ATOM      6  C   UNL d   1      31.466 -18.670  -7.144  0.00  0.00     0.001 A 
ATOM      7  C   UNL d   1      30.709 -17.516  -7.065  0.00  0.00     0.019 A 
ATOM      8  C   UNL d   1      30.198 -17.101  -5.826  0.00  0.00     0.060 A 
ATOM      9  C   UNL d   1      29.426 -15.862  -5.770  0.00  0.00     0.277 C 
ATOM     10  O   UNL d   1      29.450 -15.156  -6.780  0.00  0.00    -0.266 OA
ATOM     11  N   UNL d   1      28.738 -15.615  -4.578  0.00  0.00    -0.221 N 
ATOM     12  H   UNL d   1      29.856 -18.023  -2.651  0.00  0.00     0.162 HD
ENDROOT
BRANCH  11  13
ATOM     13  N   UNL d   1      27.741 -14.561  -4.516  0.00  0.00    -0.262 N 
ATOM     14  C   UNL d   1      26.400 -14.865  -4.748  0.00  0.00     0.236 C 
ATOM     15  O   UNL d   1      25.930 -15.951  -5.070  0.00  0.00    -0.272 OA
ATOM     16  H   UNL d   1      27.965 -13.777  -3.914  0.00  0.00     0.190 HD
BRANCH  14  17
ATOM     17  C   UNL d   1      25.422 -13.745  -4.499  0.00  0.00     0.109 C 
BRANCH  17  18
ATOM     18  C   UNL d   1      24.735 -14.063  -3.161  0.00  0.00     0.046 C 
BRANCH  18  19
ATOM     19  C   UNL d   1      25.573 -14.757  -2.158  0.00  0.00    -0.050 A 
ATOM     20  C   UNL d   1      25.248 -15.910  -1.569  0.00  0.00    -0.006 A 
ATOM     21  C   UNL d   1      24.113 -16.766  -1.645  0.00  0.00     0.014 A 
ATOM     22  C   UNL d   1      26.421 -16.248  -0.752  0.00  0.00     0.038 A 
ATOM     23  C   UNL d   1      24.127 -17.900  -0.929  0.00  0.00     0.001 A 
ATOM     24  C   UNL d   1      25.271 -18.264  -0.104  0.00  0.00     0.002 A 
ATOM     25  C   UNL d   1      26.383 -17.509   0.009  0.00  0.00     0.030 A 
ATOM     26  N   UNL d   1      27.344 -15.367  -0.841  0.00  0.00    -0.385 N 
ATOM     27  C   UNL d   1      26.929 -14.287  -1.752  0.00  0.00     0.155 A 
ATOM     28  H   UNL d   1      28.232 -15.428  -0.352  0.00  0.00     0.160 HD
ENDBRANCH  18  19
ENDBRANCH  17  18
ENDBRANCH  14  17
ENDBRANCH  11  13
BRANCH   1  29
ATOM     29  S   UNL d   1      30.812 -15.035  -2.873  0.00  0.00    -0.112 SA
BRANCH  29  30
ATOM     30  C   UNL d   1      31.499 -15.813  -1.352  0.00  0.00     0.180 C 
BRANCH  30  31
ATOM     31  C   UNL d   1      30.346 -16.255  -0.411  0.00  0.00     0.227 C 
ATOM     32  O   UNL d   1      29.543 -17.149  -0.670  0.00  0.00    -0.273 OA
ATOM     33  N   UNL d   1      30.198 -15.627   0.802  0.00  0.00    -0.360 N 
ATOM     34  H   UNL d   1      29.426 -15.989   1.357  0.00  0.00     0.162 HD
BRANCH  33  35
ATOM     35  C   UNL d   1      31.033 -14.582   1.339  0.00  0.00     0.127 C 
BRANCH  35  36
ATOM     36  C   UNL d   1      31.171 -14.585   2.870  0.00  0.00     0.058 C 
BRANCH  36  37
ATOM     37  C   UNL d   1      29.843 -14.339   3.560  0.00  0.00    -0.057 C 
ATOM     38  C   UNL d   1      29.688 -14.629   4.922  0.00  0.00     0.007 C 
ATOM     39  C   UNL d   1      28.421 -14.583   5.510  0.00  0.00     0.001 C 
ATOM     40  C   UNL d   1      27.323 -14.132   4.781  0.00  0.00     0.000 C 
ATOM     41  C   UNL d   1      27.495 -13.696   3.475  0.00  0.00     0.001 C 
ATOM     42  C   UNL d   1      28.737 -13.829   2.861  0.00  0.00     0.007 C 
ENDBRANCH  36  37
ENDBRANCH  35  36
ENDBRANCH  33  35
ENDBRANCH  30  31
ENDBRANCH  29  30
ENDBRANCH   1  29
TORSDOF 10
ENDMDL
MODEL 7
REMARK VINA RESULT:    -8.376      3.124      7.928
REMARK INTER + INTRA:         -15.713
REMARK INTER:                 -11.359
REMARK INTRA:                  -4.354
REMARK CONF_INDEPENDENT:        2.983
REMARK UNBOUND:                -4.354
REMARK  10 active torsions:
REMARK  status: ('A' for Active; 'I' for Inactive)
REMARK    1  A    between atoms: C_2  and  C_3 
REMARK       I    between atoms: C_2  and  N_30 
REMARK    2  A    between atoms: C_3  and  S_4 
REMARK    3  A    between atoms: C_5  and  S_4 
REMARK    4  A    between atoms: N_15  and  N_16 
REMARK       I    between atoms: N_16  and  C_17 
REMARK    5  A    between atoms: C_17  and  C_19 
REMARK    6  A    between atoms: C_19  and  C_20 
REMARK    7  A    between atoms: C_20  and  C_21 
REMARK    8  A    between atoms: N_30  and  C_31 
REMARK    9  A    between atoms: C_31  and  C_32 
REMARK   10  A    between atoms: C_32  and  C_33 
ROOT
ATOM      1  C   UNL d   1      27.168 -15.845  -0.855  0.00  0.00     0.274 C 
ATOM      2  N   UNL d   1      25.856 -15.783  -1.485  0.00  0.00    -0.358 N 
ATOM      3  C   UNL d   1      24.822 -16.566  -0.979  0.00  0.00     0.046 A 
ATOM      4  C   UNL d   1      23.475 -16.278  -1.212  0.00  0.00     0.030 A 
ATOM      5  C   UNL d   1      22.457 -17.126  -0.731  0.00  0.00     0.002 A 
ATOM      6  C   UNL d   1      22.769 -18.290  -0.032  0.00  0.00     0.001 A 
ATOM      7  C   UNL d   1      24.096 -18.575   0.230  0.00  0.00     0.019 A 
ATOM      8  C   UNL d   1      25.097 -17.700  -0.216  0.00  0.00     0.060 A 
ATOM      9  C   UNL d   1      26.489 -18.014   0.102  0.00  0.00     0.277 C 
ATOM     10  O   UNL d   1      26.673 -18.919   0.919  0.00  0.00    -0.266 OA
ATOM     11  N   UNL d   1      27.460 -17.257  -0.560  0.00  0.00    -0.221 N 
ATOM     12  H   UNL d   1      25.628 -14.995  -2.073  0.00  0.00     0.162 HD
ENDROOT
BRANCH  11  13
ATOM     13  N   UNL d   1      28.854 -17.663  -0.519  0.00  0.00    -0.262 N 
ATOM     14  C   UNL d   1      29.656 -17.493  -1.647  0.00  0.00     0.236 C 
ATOM     15  O   UNL d   1      29.310 -17.077  -2.747  0.00  0.00    -0.272 OA
ATOM     16  H   UNL d   1      29.291 -17.646   0.395  0.00  0.00     0.190 HD
BRANCH  14  17
ATOM     17  C   UNL d   1      31.122 -17.787  -1.459  0.00  0.00     0.109 C 
BRANCH  17  18
ATOM     18  C   UNL d   1      31.758 -17.713  -2.857  0.00  0.00     0.046 C 
BRANCH  18  19
ATOM     19  C   UNL d   1      31.347 -18.772  -3.806  0.00  0.00    -0.050 A 
ATOM     20  C   UNL d   1      31.179 -18.588  -5.117  0.00  0.00    -0.006 A 
ATOM     21  C   UNL d   1      31.281 -17.454  -5.971  0.00  0.00     0.014 A 
ATOM     22  C   UNL d   1      30.883 -19.929  -5.641  0.00  0.00     0.038 A 
ATOM     23  C   UNL d   1      31.081 -17.632  -7.285  0.00  0.00     0.001 A 
ATOM     24  C   UNL d   1      30.780 -18.946  -7.837  0.00  0.00     0.002 A 
ATOM     25  C   UNL d   1      30.677 -20.065  -7.092  0.00  0.00     0.030 A 
ATOM     26  N   UNL d   1      30.862 -20.815  -4.718  0.00  0.00    -0.385 N 
ATOM     27  C   UNL d   1      31.155 -20.198  -3.414  0.00  0.00     0.155 A 
ATOM     28  H   UNL d   1      30.679 -21.801  -4.886  0.00  0.00     0.160 HD
ENDBRANCH  18  19
ENDBRANCH  17  18
ENDBRANCH  14  17
ENDBRANCH  11  13
BRANCH   1  29
ATOM     29  S   UNL d   1      27.165 -14.817   0.665  0.00  0.00    -0.112 SA
BRANCH  29  30
ATOM     30  C   UNL d   1      28.782 -13.935   0.651  0.00  0.00     0.180 C 
BRANCH  30  31
ATOM     31  C   UNL d   1      29.881 -14.845   0.039  0.00  0.00     0.227 C 
ATOM     32  O   UNL d   1      30.426 -15.772   0.635  0.00  0.00    -0.273 OA
ATOM     33  N   UNL d   1      30.282 -14.625  -1.257  0.00  0.00    -0.360 N 
ATOM     34  H   UNL d   1      30.996 -15.274  -1.578  0.00  0.00     0.162 HD
BRANCH  33  35
ATOM     35  C   UNL d   1      29.767 -13.627  -2.160  0.00  0.00     0.127 C 
BRANCH  35  36
ATOM     36  C   UNL d   1      29.371 -14.154  -3.550  0.00  0.00     0.058 C 
BRANCH  36  37
ATOM     37  C   UNL d   1      27.867 -14.172  -3.742  0.00  0.00    -0.057 C 
ATOM     38  C   UNL d   1      27.259 -15.202  -4.471  0.00  0.00     0.007 C 
ATOM     39  C   UNL d   1      25.905 -15.119  -4.808  0.00  0.00     0.001 C 
ATOM     40  C   UNL d   1      25.121 -14.075  -4.322  0.00  0.00     0.000 C 
ATOM     41  C   UNL d   1      25.681 -13.132  -3.471  0.00  0.00     0.001 C 
ATOM     42  C   UNL d   1      27.048 -13.163  -3.211  0.00  0.00     0.007 C 
ENDBRANCH  36  37
ENDBRANCH  35  36
ENDBRANCH  33  35
ENDBRANCH  30  31
ENDBRANCH  29  30
ENDBRANCH   1  29
TORSDOF 10
ENDMDL
MODEL 8
REMARK VINA RESULT:    -8.275      2.286      6.366
REMARK INTER + INTRA:         -15.179
REMARK INTER:                 -11.258
REMARK INTRA:                  -3.921
REMARK CONF_INDEPENDENT:        2.983
REMARK UNBOUND:                -3.921
REMARK  10 active torsions:
REMARK  status: ('A' for Active; 'I' for Inactive)
REMARK    1  A    between atoms: C_2  and  C_3 
REMARK       I    between atoms: C_2  and  N_30 
REMARK    2  A    between atoms: C_3  and  S_4 
REMARK    3  A    between atoms: C_5  and  S_4 
REMARK    4  A    between atoms: N_15  and  N_16 
REMARK       I    between atoms: N_16  and  C_17 
REMARK    5  A    between atoms: C_17  and  C_19 
REMARK    6  A    between atoms: C_19  and  C_20 
REMARK    7  A    between atoms: C_20  and  C_21 
REMARK    8  A    between atoms: N_30  and  C_31 
REMARK    9  A    between atoms: C_31  and  C_32 
REMARK   10  A    between atoms: C_32  and  C_33 
ROOT
ATOM      1  C   UNL d   1      27.139 -16.009  -1.862  0.00  0.00     0.274 C 
ATOM      2  N   UNL d   1      25.951 -16.648  -2.411  0.00  0.00    -0.358 N 
ATOM      3  C   UNL d   1      25.036 -17.239  -1.543  0.00  0.00     0.046 A 
ATOM      4  C   UNL d   1      23.707 -17.485  -1.901  0.00  0.00     0.030 A 
ATOM      5  C   UNL d   1      22.826 -18.136  -1.015  0.00  0.00     0.002 A 
ATOM      6  C   UNL d   1      23.262 -18.577   0.232  0.00  0.00     0.001 A 
ATOM      7  C   UNL d   1      24.566 -18.317   0.611  0.00  0.00     0.019 A 
ATOM      8  C   UNL d   1      25.421 -17.628  -0.261  0.00  0.00     0.060 A 
ATOM      9  C   UNL d   1      26.785 -17.343   0.181  0.00  0.00     0.277 C 
ATOM     10  O   UNL d   1      27.028 -17.546   1.372  0.00  0.00    -0.266 OA
ATOM     11  N   UNL d   1      27.668 -16.878  -0.798  0.00  0.00    -0.221 N 
ATOM     12  H   UNL d   1      25.656 -16.419  -3.348  0.00  0.00     0.162 HD
ENDROOT
BRANCH  11  13
ATOM     13  N   UNL d   1      29.094 -16.820  -0.527  0.00  0.00    -0.262 N 
ATOM     14  C   UNL d   1      29.836 -15.726  -0.968  0.00  0.00     0.236 C 
ATOM     15  O   UNL d   1      29.437 -14.781  -1.639  0.00  0.00    -0.272 OA
ATOM     16  H   UNL d   1      29.406 -17.320   0.297  0.00  0.00     0.190 HD
BRANCH  14  17
ATOM     17  C   UNL d   1      31.267 -15.674  -0.499  0.00  0.00     0.109 C 
BRANCH  17  18
ATOM     18  C   UNL d   1      31.415 -14.362   0.290  0.00  0.00     0.046 C 
BRANCH  18  19
ATOM     19  C   UNL d   1      30.978 -14.410   1.703  0.00  0.00    -0.050 A 
ATOM     20  C   UNL d   1      29.731 -14.183   2.116  0.00  0.00    -0.006 A 
ATOM     21  C   UNL d   1      28.525 -13.820   1.451  0.00  0.00     0.014 A 
ATOM     22  C   UNL d   1      29.768 -14.449   3.561  0.00  0.00     0.038 A 
ATOM     23  C   UNL d   1      27.408 -13.709   2.183  0.00  0.00     0.001 A 
ATOM     24  C   UNL d   1      27.410 -13.960   3.618  0.00  0.00     0.002 A 
ATOM     25  C   UNL d   1      28.509 -14.315   4.313  0.00  0.00     0.030 A 
ATOM     26  N   UNL d   1      30.936 -14.787   3.961  0.00  0.00    -0.385 N 
ATOM     27  C   UNL d   1      31.874 -14.807   2.827  0.00  0.00     0.155 A 
ATOM     28  H   UNL d   1      31.158 -15.015   4.926  0.00  0.00     0.160 HD
ENDBRANCH  18  19
ENDBRANCH  17  18
ENDBRANCH  14  17
ENDBRANCH  11  13
BRANCH   1  29
ATOM     29  S   UNL d   1      26.700 -14.343  -1.229  0.00  0.00    -0.112 SA
BRANCH  29  30
ATOM     30  C   UNL d   1      26.443 -13.311  -2.732  0.00  0.00     0.180 C 
BRANCH  30  31
ATOM     31  C   UNL d   1      25.946 -14.194  -3.908  0.00  0.00     0.227 C 
ATOM     32  O   UNL d   1      24.783 -14.563  -4.055  0.00  0.00    -0.273 OA
ATOM     33  N   UNL d   1      26.845 -14.594  -4.867  0.00  0.00    -0.360 N 
ATOM     34  H   UNL d   1      26.431 -15.159  -5.604  0.00  0.00     0.162 HD
BRANCH  33  35
ATOM     35  C   UNL d   1      28.245 -14.259  -4.928  0.00  0.00     0.127 C 
BRANCH  35  36
ATOM     36  C   UNL d   1      29.025 -14.934  -6.069  0.00  0.00     0.058 C 
BRANCH  36  37
ATOM     37  C   UNL d   1      29.718 -16.202  -5.608  0.00  0.00    -0.057 C 
ATOM     38  C   UNL d   1      30.405 -17.007  -6.527  0.00  0.00     0.007 C 
ATOM     39  C   UNL d   1      30.880 -18.264  -6.143  0.00  0.00     0.001 C 
ATOM     40  C   UNL d   1      30.782 -18.677  -4.816  0.00  0.00     0.000 C 
ATOM     41  C   UNL d   1      30.242 -17.821  -3.866  0.00  0.00     0.001 C 
ATOM     42  C   UNL d   1      29.685 -16.609  -4.265  0.00  0.00     0.007 C 
ENDBRANCH  36  37
ENDBRANCH  35  36
ENDBRANCH  33  35
ENDBRANCH  30  31
ENDBRANCH  29  30
ENDBRANCH   1  29
TORSDOF 10
ENDMDL
