MODEL 1
REMARK VINA RESULT:    -6.514      0.000      0.000
REMARK INTER + INTRA:          -9.979
REMARK INTER:                  -7.707
REMARK INTRA:                  -2.272
REMARK CONF_INDEPENDENT:        1.193
REMARK UNBOUND:                -2.272
REMARK  4 active torsions:
REMARK  status: ('A' for Active; 'I' for Inactive)
REMARK    1  A    between atoms: O_2  and  C_3 
REMARK    2  A    between atoms: C_6  and  C_5 
REMARK    3  A    between atoms: C_28  and  O_29 
REMARK    4  A    between atoms: C_31  and  O_32 
ROOT
ATOM      1  C   UNL d   1      25.534 -14.276  -2.747  0.00  0.00     0.090 C 
ATOM      2  C   UNL d   1      25.889 -12.920  -2.063  0.00  0.00     0.072 C 
ATOM      3  C   UNL d   1      27.382 -12.694  -1.759  0.00  0.00     0.013 C 
ATOM      4  C   UNL d   1      27.886 -12.736  -0.496  0.00  0.00     0.118 C 
ATOM      5  C   UNL d   1      27.076 -13.143   0.668  0.00  0.00     0.266 C 
ATOM      6  O   UNL d   1      26.036 -12.588   1.018  0.00  0.00    -0.267 OA
ATOM      7  N   UNL d   1      27.618 -14.199   1.330  0.00  0.00    -0.274 N 
ATOM      8  C   UNL d   1      28.956 -14.196   1.589  0.00  0.00     0.331 C 
ATOM      9  O   UNL d   1      29.394 -14.451   2.705  0.00  0.00    -0.246 OA
ATOM     10  N   UNL d   1      29.726 -13.836   0.511  0.00  0.00    -0.270 N 
ATOM     11  C   UNL d   1      30.933 -14.577   0.235  0.00  0.00     0.164 C 
ATOM     12  C   UNL d   1      29.358 -12.753  -0.262  0.00  0.00     0.268 C 
ATOM     13  O   UNL d   1      30.123 -11.883  -0.663  0.00  0.00    -0.267 OA
ATOM     14  N   UNL d   1      28.225 -12.513  -2.869  0.00  0.00    -0.261 NA
ATOM     15  C   UNL d   1      28.631 -13.633  -3.647  0.00  0.00     0.029 C 
ATOM     16  C   UNL d   1      29.980 -13.997  -3.541  0.00  0.00     0.025 C 
ATOM     17  C   UNL d   1      30.466 -15.186  -4.084  0.00  0.00     0.002 C 
ATOM     18  C   UNL d   1      29.622 -16.000  -4.824  0.00  0.00     0.001 C 
ATOM     19  C   UNL d   1      28.318 -15.575  -5.082  0.00  0.00     0.020 C 
ATOM     20  C   UNL d   1      27.792 -14.411  -4.462  0.00  0.00     0.022 C 
ATOM     21  S   UNL d   1      26.010 -14.157  -4.553  0.00  0.00    -0.118 SA
ATOM     22  H   UNL d   1      27.045 -14.622   2.046  0.00  0.00     0.173 HD
ATOM     23  H   UNL d   1      27.925 -11.753  -3.479  0.00  0.00     0.133 HD
ENDROOT
BRANCH   1  24
ATOM     24  C   UNL d   1      26.017 -15.520  -1.986  0.00  0.00    -0.038 C 
ATOM     25  C   UNL d   1      25.144 -16.406  -1.366  0.00  0.00     0.048 C 
ATOM     26  C   UNL d   1      25.630 -17.431  -0.524  0.00  0.00     0.104 C 
ATOM     27  C   UNL d   1      27.015 -17.585  -0.289  0.00  0.00     0.133 C 
ATOM     28  C   UNL d   1      27.907 -16.771  -0.958  0.00  0.00     0.104 C 
ATOM     29  C   UNL d   1      27.370 -15.845  -1.852  0.00  0.00     0.048 C 
BRANCH  26  30
ATOM     30  O   UNL d   1      24.629 -18.181   0.056  0.00  0.00    -0.353 OA
ATOM     31  C   UNL d   1      23.342 -18.077  -0.547  0.00  0.00     0.210 C 
ENDBRANCH  26  30
BRANCH  27  32
ATOM     32  O   UNL d   1      27.404 -18.539   0.601  0.00  0.00    -0.356 OA
ATOM     33  H   UNL d   1      28.344 -18.568   0.774  0.00  0.00     0.218 HD
ENDBRANCH  27  32
BRANCH  28  34
ATOM     34  O   UNL d   1      29.271 -16.689  -0.888  0.00  0.00    -0.353 OA
ATOM     35  C   UNL d   1      30.041 -17.870  -0.912  0.00  0.00     0.210 C 
ENDBRANCH  28  34
ENDBRANCH   1  24
TORSDOF 4
ENDMDL
MODEL 2
REMARK VINA RESULT:    -6.232      0.598      2.322
REMARK INTER + INTRA:          -9.782
REMARK INTER:                  -7.425
REMARK INTRA:                  -2.357
REMARK CONF_INDEPENDENT:        1.193
REMARK UNBOUND:                -2.357
REMARK  4 active torsions:
REMARK  status: ('A' for Active; 'I' for Inactive)
REMARK    1  A    between atoms: O_2  and  C_3 
REMARK    2  A    between atoms: C_6  and  C_5 
REMARK    3  A    between atoms: C_28  and  O_29 
REMARK    4  A    between atoms: C_31  and  O_32 
ROOT
ATOM      1  C   UNL d   1      25.614 -14.507  -2.308  0.00  0.00     0.090 C 
ATOM      2  C   UNL d   1      25.915 -13.091  -1.728  0.00  0.00     0.072 C 
ATOM      3  C   UNL d   1      27.388 -12.812  -1.373  0.00  0.00     0.013 C 
ATOM      4  C   UNL d   1      27.830 -12.736  -0.088  0.00  0.00     0.118 C 
ATOM      5  C   UNL d   1      26.969 -13.056   1.066  0.00  0.00     0.266 C 
ATOM      6  O   UNL d   1      25.905 -12.493   1.317  0.00  0.00    -0.267 OA
ATOM      7  N   UNL d   1      27.493 -14.042   1.842  0.00  0.00    -0.274 N 
ATOM      8  C   UNL d   1      28.816 -13.991   2.164  0.00  0.00     0.331 C 
ATOM      9  O   UNL d   1      29.202 -14.141   3.318  0.00  0.00    -0.246 OA
ATOM     10  N   UNL d   1      29.633 -13.711   1.096  0.00  0.00    -0.270 N 
ATOM     11  C   UNL d   1      30.863 -14.450   0.944  0.00  0.00     0.164 C 
ATOM     12  C   UNL d   1      29.288 -12.706   0.216  0.00  0.00     0.268 C 
ATOM     13  O   UNL d   1      30.060 -11.860  -0.222  0.00  0.00    -0.267 OA
ATOM     14  N   UNL d   1      28.281 -12.711  -2.453  0.00  0.00    -0.261 NA
ATOM     15  C   UNL d   1      28.741 -13.886  -3.111  0.00  0.00     0.029 C 
ATOM     16  C   UNL d   1      30.089 -14.215  -2.910  0.00  0.00     0.025 C 
ATOM     17  C   UNL d   1      30.617 -15.437  -3.324  0.00  0.00     0.002 C 
ATOM     18  C   UNL d   1      29.823 -16.327  -4.030  0.00  0.00     0.001 C 
ATOM     19  C   UNL d   1      28.527 -15.950  -4.386  0.00  0.00     0.020 C 
ATOM     20  C   UNL d   1      27.954 -14.747  -3.895  0.00  0.00     0.022 C 
ATOM     21  S   UNL d   1      26.176 -14.535  -4.092  0.00  0.00    -0.118 SA
ATOM     22  H   UNL d   1      26.891 -14.412   2.564  0.00  0.00     0.173 HD
ATOM     23  H   UNL d   1      28.001 -12.013  -3.141  0.00  0.00     0.133 HD
ENDROOT
BRANCH   1  24
ATOM     24  C   UNL d   1      26.077 -15.672  -1.420  0.00  0.00    -0.038 C 
ATOM     25  C   UNL d   1      27.399 -15.831  -1.021  0.00  0.00     0.048 C 
ATOM     26  C   UNL d   1      27.819 -17.008  -0.361  0.00  0.00     0.104 C 
ATOM     27  C   UNL d   1      26.908 -18.054  -0.087  0.00  0.00     0.133 C 
ATOM     28  C   UNL d   1      25.574 -17.885  -0.398  0.00  0.00     0.104 C 
ATOM     29  C   UNL d   1      25.205 -16.661  -0.957  0.00  0.00     0.048 C 
BRANCH  26  30
ATOM     30  O   UNL d   1      29.170 -17.028  -0.089  0.00  0.00    -0.353 OA
ATOM     31  C   UNL d   1      29.958 -17.894  -0.902  0.00  0.00     0.210 C 
ENDBRANCH  26  30
BRANCH  27  32
ATOM     32  O   UNL d   1      27.402 -19.192   0.473  0.00  0.00    -0.356 OA
ATOM     33  H   UNL d   1      28.349 -19.195   0.609  0.00  0.00     0.218 HD
ENDBRANCH  27  32
BRANCH  28  34
ATOM     34  O   UNL d   1      24.511 -18.736  -0.274  0.00  0.00    -0.353 OA
ATOM     35  C   UNL d   1      23.203 -18.252  -0.487  0.00  0.00     0.210 C 
ENDBRANCH  28  34
ENDBRANCH   1  24
TORSDOF 4
ENDMDL
MODEL 3
REMARK VINA RESULT:    -6.165      3.019      5.786
REMARK INTER + INTRA:          -9.667
REMARK INTER:                  -7.359
REMARK INTRA:                  -2.309
REMARK CONF_INDEPENDENT:        1.193
REMARK UNBOUND:                -2.309
REMARK  4 active torsions:
REMARK  status: ('A' for Active; 'I' for Inactive)
REMARK    1  A    between atoms: O_2  and  C_3 
REMARK    2  A    between atoms: C_6  and  C_5 
REMARK    3  A    between atoms: C_28  and  O_29 
REMARK    4  A    between atoms: C_31  and  O_32 
ROOT
ATOM      1  C   UNL d   1      26.501 -15.016  -0.284  0.00  0.00     0.090 C 
ATOM      2  C   UNL d   1      25.791 -15.666  -1.511  0.00  0.00     0.072 C 
ATOM      3  C   UNL d   1      26.545 -15.569  -2.850  0.00  0.00     0.013 C 
ATOM      4  C   UNL d   1      26.144 -14.746  -3.858  0.00  0.00     0.118 C 
ATOM      5  C   UNL d   1      25.044 -13.776  -3.699  0.00  0.00     0.266 C 
ATOM      6  O   UNL d   1      23.895 -14.075  -3.382  0.00  0.00    -0.267 OA
ATOM      7  N   UNL d   1      25.439 -12.502  -3.961  0.00  0.00    -0.274 N 
ATOM      8  C   UNL d   1      26.202 -12.264  -5.064  0.00  0.00     0.331 C 
ATOM      9  O   UNL d   1      25.930 -11.364  -5.851  0.00  0.00    -0.246 OA
ATOM     10  N   UNL d   1      27.242 -13.149  -5.217  0.00  0.00    -0.270 N 
ATOM     11  C   UNL d   1      28.536 -12.646  -5.610  0.00  0.00     0.164 C 
ATOM     12  C   UNL d   1      27.024 -14.499  -5.035  0.00  0.00     0.268 C 
ATOM     13  O   UNL d   1      27.447 -15.385  -5.770  0.00  0.00    -0.267 OA
ATOM     14  N   UNL d   1      27.724 -16.325  -2.959  0.00  0.00    -0.261 NA
ATOM     15  C   UNL d   1      28.922 -15.871  -2.338  0.00  0.00     0.029 C 
ATOM     16  C   UNL d   1      29.933 -15.432  -3.204  0.00  0.00     0.025 C 
ATOM     17  C   UNL d   1      31.070 -14.777  -2.733  0.00  0.00     0.002 C 
ATOM     18  C   UNL d   1      31.262 -14.624  -1.368  0.00  0.00     0.001 C 
ATOM     19  C   UNL d   1      30.350 -15.201  -0.483  0.00  0.00     0.020 C 
ATOM     20  C   UNL d   1      29.148 -15.792  -0.954  0.00  0.00     0.022 C 
ATOM     21  S   UNL d   1      27.874 -16.163   0.266  0.00  0.00    -0.118 SA
ATOM     22  H   UNL d   1      24.780 -11.773  -3.732  0.00  0.00     0.173 HD
ATOM     23  H   UNL d   1      27.584 -17.316  -2.765  0.00  0.00     0.133 HD
ENDROOT
BRANCH   1  24
ATOM     24  C   UNL d   1      26.870 -13.537  -0.470  0.00  0.00    -0.038 C 
ATOM     25  C   UNL d   1      27.455 -13.051  -1.634  0.00  0.00     0.048 C 
ATOM     26  C   UNL d   1      27.946 -11.728  -1.699  0.00  0.00     0.104 C 
ATOM     27  C   UNL d   1      27.856 -10.862  -0.586  0.00  0.00     0.133 C 
ATOM     28  C   UNL d   1      27.206 -11.293   0.553  0.00  0.00     0.104 C 
ATOM     29  C   UNL d   1      26.655 -12.575   0.519  0.00  0.00     0.048 C 
BRANCH  26  30
ATOM     30  O   UNL d   1      28.546 -11.427  -2.904  0.00  0.00    -0.353 OA
ATOM     31  C   UNL d   1      29.971 -11.430  -2.910  0.00  0.00     0.210 C 
ENDBRANCH  26  30
BRANCH  27  32
ATOM     32  O   UNL d   1      28.428  -9.632  -0.693  0.00  0.00    -0.356 OA
ATOM     33  H   UNL d   1      28.823  -9.444  -1.544  0.00  0.00     0.218 HD
ENDBRANCH  27  32
BRANCH  28  34
ATOM     34  O   UNL d   1      27.013 -10.681   1.760  0.00  0.00    -0.353 OA
ATOM     35  C   UNL d   1      27.487 -11.297   2.937  0.00  0.00     0.210 C 
ENDBRANCH  28  34
ENDBRANCH   1  24
TORSDOF 4
ENDMDL
MODEL 4
REMARK VINA RESULT:    -5.705      2.762      5.511
REMARK INTER + INTRA:          -9.472
REMARK INTER:                  -6.898
REMARK INTRA:                  -2.573
REMARK CONF_INDEPENDENT:        1.193
REMARK UNBOUND:                -2.573
REMARK  4 active torsions:
REMARK  status: ('A' for Active; 'I' for Inactive)
REMARK    1  A    between atoms: O_2  and  C_3 
REMARK    2  A    between atoms: C_6  and  C_5 
REMARK    3  A    between atoms: C_28  and  O_29 
REMARK    4  A    between atoms: C_31  and  O_32 
ROOT
ATOM      1  C   UNL d   1      26.621 -16.378  -1.485  0.00  0.00     0.090 C 
ATOM      2  C   UNL d   1      27.939 -17.202  -1.351  0.00  0.00     0.072 C 
ATOM      3  C   UNL d   1      29.218 -16.384  -1.095  0.00  0.00     0.013 C 
ATOM      4  C   UNL d   1      30.175 -16.205  -2.045  0.00  0.00     0.118 C 
ATOM      5  C   UNL d   1      30.002 -16.655  -3.439  0.00  0.00     0.266 C 
ATOM      6  O   UNL d   1      29.781 -17.818  -3.771  0.00  0.00    -0.267 OA
ATOM      7  N   UNL d   1      30.133 -15.637  -4.330  0.00  0.00    -0.274 N 
ATOM      8  C   UNL d   1      31.165 -14.760  -4.179  0.00  0.00     0.331 C 
ATOM      9  O   UNL d   1      31.888 -14.452  -5.120  0.00  0.00    -0.246 OA
ATOM     10  N   UNL d   1      31.328 -14.317  -2.889  0.00  0.00    -0.270 N 
ATOM     11  C   UNL d   1      31.600 -12.919  -2.659  0.00  0.00     0.164 C 
ATOM     12  C   UNL d   1      31.273 -15.217  -1.845  0.00  0.00     0.268 C 
ATOM     13  O   UNL d   1      32.053 -15.245  -0.899  0.00  0.00    -0.267 OA
ATOM     14  N   UNL d   1      29.318 -15.760   0.160  0.00  0.00    -0.261 NA
ATOM     15  C   UNL d   1      28.591 -14.565   0.423  0.00  0.00     0.029 C 
ATOM     16  C   UNL d   1      29.355 -13.395   0.541  0.00  0.00     0.025 C 
ATOM     17  C   UNL d   1      28.764 -12.134   0.595  0.00  0.00     0.002 C 
ATOM     18  C   UNL d   1      27.382 -12.021   0.619  0.00  0.00     0.001 C 
ATOM     19  C   UNL d   1      26.604 -13.179   0.671  0.00  0.00     0.020 C 
ATOM     20  C   UNL d   1      27.194 -14.463   0.529  0.00  0.00     0.022 C 
ATOM     21  S   UNL d   1      26.088 -15.854   0.230  0.00  0.00    -0.118 SA
ATOM     22  H   UNL d   1      29.883 -15.843  -5.286  0.00  0.00     0.173 HD
ATOM     23  H   UNL d   1      29.217 -16.409   0.940  0.00  0.00     0.133 HD
ENDROOT
BRANCH   1  24
ATOM     24  C   UNL d   1      26.661 -15.283  -2.561  0.00  0.00    -0.038 C 
ATOM     25  C   UNL d   1      26.018 -14.060  -2.411  0.00  0.00     0.048 C 
ATOM     26  C   UNL d   1      25.923 -13.154  -3.492  0.00  0.00     0.104 C 
ATOM     27  C   UNL d   1      26.479 -13.465  -4.753  0.00  0.00     0.133 C 
ATOM     28  C   UNL d   1      27.194 -14.636  -4.905  0.00  0.00     0.104 C 
ATOM     29  C   UNL d   1      27.337 -15.441  -3.774  0.00  0.00     0.048 C 
BRANCH  26  30
ATOM     30  O   UNL d   1      25.205 -12.017  -3.189  0.00  0.00    -0.353 OA
ATOM     31  C   UNL d   1      25.947 -10.802  -3.148  0.00  0.00     0.210 C 
ENDBRANCH  26  30
BRANCH  27  32
ATOM     32  O   UNL d   1      26.274 -12.584  -5.770  0.00  0.00    -0.356 OA
ATOM     33  H   UNL d   1      25.670 -11.870  -5.567  0.00  0.00     0.218 HD
ENDBRANCH  27  32
BRANCH  28  34
ATOM     34  O   UNL d   1      27.793 -15.183  -6.006  0.00  0.00    -0.353 OA
ATOM     35  C   UNL d   1      28.589 -14.371  -6.841  0.00  0.00     0.210 C 
ENDBRANCH  28  34
ENDBRANCH   1  24
TORSDOF 4
ENDMDL
MODEL 5
REMARK VINA RESULT:    -5.688      2.732      4.960
REMARK INTER + INTRA:          -9.512
REMARK INTER:                  -6.881
REMARK INTRA:                  -2.631
REMARK CONF_INDEPENDENT:        1.193
REMARK UNBOUND:                -2.631
REMARK  4 active torsions:
REMARK  status: ('A' for Active; 'I' for Inactive)
REMARK    1  A    between atoms: O_2  and  C_3 
REMARK    2  A    between atoms: C_6  and  C_5 
REMARK    3  A    between atoms: C_28  and  O_29 
REMARK    4  A    between atoms: C_31  and  O_32 
ROOT
ATOM      1  C   UNL d   1      25.988 -15.400  -3.915  0.00  0.00     0.090 C 
ATOM      2  C   UNL d   1      26.206 -15.758  -2.413  0.00  0.00     0.072 C 
ATOM      3  C   UNL d   1      27.071 -14.770  -1.608  0.00  0.00     0.013 C 
ATOM      4  C   UNL d   1      28.337 -15.065  -1.205  0.00  0.00     0.118 C 
ATOM      5  C   UNL d   1      29.037 -16.293  -1.628  0.00  0.00     0.266 C 
ATOM      6  O   UNL d   1      28.625 -17.433  -1.425  0.00  0.00    -0.267 OA
ATOM      7  N   UNL d   1      30.212 -16.025  -2.258  0.00  0.00    -0.274 N 
ATOM      8  C   UNL d   1      31.049 -15.094  -1.721  0.00  0.00     0.331 C 
ATOM      9  O   UNL d   1      32.244 -15.319  -1.566  0.00  0.00    -0.246 OA
ATOM     10  N   UNL d   1      30.415 -13.938  -1.338  0.00  0.00    -0.270 N 
ATOM     11  C   UNL d   1      31.035 -12.669  -1.634  0.00  0.00     0.164 C 
ATOM     12  C   UNL d   1      29.224 -14.007  -0.644  0.00  0.00     0.268 C 
ATOM     13  O   UNL d   1      28.944 -13.333   0.341  0.00  0.00    -0.267 OA
ATOM     14  N   UNL d   1      26.512 -13.504  -1.367  0.00  0.00    -0.261 NA
ATOM     15  C   UNL d   1      26.491 -12.526  -2.401  0.00  0.00     0.029 C 
ATOM     16  C   UNL d   1      27.345 -11.428  -2.225  0.00  0.00     0.025 C 
ATOM     17  C   UNL d   1      27.575 -10.505  -3.244  0.00  0.00     0.002 C 
ATOM     18  C   UNL d   1      26.883 -10.613  -4.441  0.00  0.00     0.001 C 
ATOM     19  C   UNL d   1      25.905 -11.600  -4.576  0.00  0.00     0.020 C 
ATOM     20  C   UNL d   1      25.727 -12.594  -3.578  0.00  0.00     0.022 C 
ATOM     21  S   UNL d   1      24.721 -14.027  -4.007  0.00  0.00    -0.118 SA
ATOM     22  H   UNL d   1      30.670 -16.807  -2.703  0.00  0.00     0.173 HD
ATOM     23  H   UNL d   1      25.602 -13.548  -0.910  0.00  0.00     0.133 HD
ENDROOT
BRANCH   1  24
ATOM     24  C   UNL d   1      27.283 -15.200  -4.717  0.00  0.00    -0.038 C 
ATOM     25  C   UNL d   1      27.381 -14.297  -5.770  0.00  0.00     0.048 C 
ATOM     26  C   UNL d   1      28.526 -14.273  -6.598  0.00  0.00     0.104 C 
ATOM     27  C   UNL d   1      29.602 -15.163  -6.380  0.00  0.00     0.133 C 
ATOM     28  C   UNL d   1      29.564 -16.012  -5.292  0.00  0.00     0.104 C 
ATOM     29  C   UNL d   1      28.452 -15.919  -4.455  0.00  0.00     0.048 C 
BRANCH  26  30
ATOM     30  O   UNL d   1      28.436 -13.360  -7.627  0.00  0.00    -0.353 OA
ATOM     31  C   UNL d   1      28.232 -12.003  -7.241  0.00  0.00     0.210 C 
ENDBRANCH  26  30
BRANCH  27  32
ATOM     32  O   UNL d   1      30.632 -15.141  -7.269  0.00  0.00    -0.356 OA
ATOM     33  H   UNL d   1      30.487 -14.592  -8.039  0.00  0.00     0.218 HD
ENDBRANCH  27  32
BRANCH  28  34
ATOM     34  O   UNL d   1      30.440 -16.979  -4.880  0.00  0.00    -0.353 OA
ATOM     35  C   UNL d   1      30.450 -18.231  -5.529  0.00  0.00     0.210 C 
ENDBRANCH  28  34
ENDBRANCH   1  24
TORSDOF 4
ENDMDL
MODEL 6
REMARK VINA RESULT:    -5.659      3.260      6.264
REMARK INTER + INTRA:          -9.476
REMARK INTER:                  -6.853
REMARK INTRA:                  -2.623
REMARK CONF_INDEPENDENT:        1.193
REMARK UNBOUND:                -2.623
REMARK  4 active torsions:
REMARK  status: ('A' for Active; 'I' for Inactive)
REMARK    1  A    between atoms: O_2  and  C_3 
REMARK    2  A    between atoms: C_6  and  C_5 
REMARK    3  A    between atoms: C_28  and  O_29 
REMARK    4  A    between atoms: C_31  and  O_32 
ROOT
ATOM      1  C   UNL d   1      26.528 -14.236  -0.884  0.00  0.00     0.090 C 
ATOM      2  C   UNL d   1      25.883 -15.042  -2.053  0.00  0.00     0.072 C 
ATOM      3  C   UNL d   1      26.731 -15.160  -3.333  0.00  0.00     0.013 C 
ATOM      4  C   UNL d   1      26.430 -14.485  -4.476  0.00  0.00     0.118 C 
ATOM      5  C   UNL d   1      25.355 -13.477  -4.541  0.00  0.00     0.266 C 
ATOM      6  O   UNL d   1      24.176 -13.700  -4.270  0.00  0.00    -0.267 OA
ATOM      7  N   UNL d   1      25.809 -12.265  -4.955  0.00  0.00    -0.274 N 
ATOM      8  C   UNL d   1      26.655 -12.209  -6.021  0.00  0.00     0.331 C 
ATOM      9  O   UNL d   1      26.469 -11.428  -6.948  0.00  0.00    -0.246 OA
ATOM     10  N   UNL d   1      27.672 -13.130  -5.967  0.00  0.00    -0.270 N 
ATOM     11  C   UNL d   1      29.007 -12.719  -6.332  0.00  0.00     0.164 C 
ATOM     12  C   UNL d   1      27.398 -14.433  -5.608  0.00  0.00     0.268 C 
ATOM     13  O   UNL d   1      27.841 -15.427  -6.174  0.00  0.00    -0.267 OA
ATOM     14  N   UNL d   1      27.890 -15.950  -3.244  0.00  0.00    -0.261 NA
ATOM     15  C   UNL d   1      29.056 -15.438  -2.608  0.00  0.00     0.029 C 
ATOM     16  C   UNL d   1      30.139 -15.153  -3.451  0.00  0.00     0.025 C 
ATOM     17  C   UNL d   1      31.262 -14.463  -2.997  0.00  0.00     0.002 C 
ATOM     18  C   UNL d   1      31.363 -14.116  -1.659  0.00  0.00     0.001 C 
ATOM     19  C   UNL d   1      30.373 -14.536  -0.769  0.00  0.00     0.020 C 
ATOM     20  C   UNL d   1      29.187 -15.162  -1.237  0.00  0.00     0.022 C 
ATOM     21  S   UNL d   1      27.819 -15.321  -0.074  0.00  0.00    -0.118 SA
ATOM     22  H   UNL d   1      25.160 -11.494  -4.882  0.00  0.00     0.173 HD
ATOM     23  H   UNL d   1      27.703 -16.899  -2.919  0.00  0.00     0.133 HD
ENDROOT
BRANCH   1  24
ATOM     24  C   UNL d   1      26.958 -12.809  -1.255  0.00  0.00    -0.038 C 
ATOM     25  C   UNL d   1      28.046 -12.176  -0.665  0.00  0.00     0.048 C 
ATOM     26  C   UNL d   1      28.298 -10.805  -0.896  0.00  0.00     0.104 C 
ATOM     27  C   UNL d   1      27.455 -10.040  -1.732  0.00  0.00     0.133 C 
ATOM     28  C   UNL d   1      26.417 -10.663  -2.395  0.00  0.00     0.104 C 
ATOM     29  C   UNL d   1      26.280 -12.039  -2.203  0.00  0.00     0.048 C 
BRANCH  26  30
ATOM     30  O   UNL d   1      29.380 -10.323  -0.190  0.00  0.00    -0.353 OA
ATOM     31  C   UNL d   1      29.768 -11.081   0.953  0.00  0.00     0.210 C 
ENDBRANCH  26  30
BRANCH  27  32
ATOM     32  O   UNL d   1      27.709  -8.707  -1.839  0.00  0.00    -0.356 OA
ATOM     33  H   UNL d   1      28.490  -8.408  -1.375  0.00  0.00     0.218 HD
ENDBRANCH  27  32
BRANCH  28  34
ATOM     34  O   UNL d   1      25.449 -10.159  -3.220  0.00  0.00    -0.353 OA
ATOM     35  C   UNL d   1      25.779  -9.141  -4.139  0.00  0.00     0.210 C 
ENDBRANCH  28  34
ENDBRANCH   1  24
TORSDOF 4
ENDMDL
MODEL 7
REMARK VINA RESULT:    -5.586      2.744      5.541
REMARK INTER + INTRA:          -9.314
REMARK INTER:                  -6.779
REMARK INTRA:                  -2.534
REMARK CONF_INDEPENDENT:        1.193
REMARK UNBOUND:                -2.534
REMARK  4 active torsions:
REMARK  status: ('A' for Active; 'I' for Inactive)
REMARK    1  A    between atoms: O_2  and  C_3 
REMARK    2  A    between atoms: C_6  and  C_5 
REMARK    3  A    between atoms: C_28  and  O_29 
REMARK    4  A    between atoms: C_31  and  O_32 
ROOT
ATOM      1  C   UNL d   1      29.374 -14.298  -0.359  0.00  0.00     0.090 C 
ATOM      2  C   UNL d   1      28.639 -13.071  -0.982  0.00  0.00     0.072 C 
ATOM      3  C   UNL d   1      27.370 -13.392  -1.795  0.00  0.00     0.013 C 
ATOM      4  C   UNL d   1      27.328 -13.302  -3.152  0.00  0.00     0.118 C 
ATOM      5  C   UNL d   1      28.528 -13.031  -3.966  0.00  0.00     0.266 C 
ATOM      6  O   UNL d   1      29.240 -12.035  -3.844  0.00  0.00    -0.267 OA
ATOM      7  N   UNL d   1      28.757 -14.003  -4.888  0.00  0.00    -0.274 N 
ATOM      8  C   UNL d   1      27.710 -14.470  -5.624  0.00  0.00     0.331 C 
ATOM      9  O   UNL d   1      27.780 -14.578  -6.843  0.00  0.00    -0.246 OA
ATOM     10  N   UNL d   1      26.589 -14.743  -4.878  0.00  0.00    -0.270 N 
ATOM     11  C   UNL d   1      25.846 -15.950  -5.150  0.00  0.00     0.164 C 
ATOM     12  C   UNL d   1      26.171 -13.847  -3.916  0.00  0.00     0.268 C 
ATOM     13  O   UNL d   1      25.010 -13.494  -3.741  0.00  0.00    -0.267 OA
ATOM     14  N   UNL d   1      26.264 -13.860  -1.066  0.00  0.00    -0.261 NA
ATOM     15  C   UNL d   1      26.225 -15.209  -0.615  0.00  0.00     0.029 C 
ATOM     16  C   UNL d   1      25.295 -16.043  -1.252  0.00  0.00     0.025 C 
ATOM     17  C   UNL d   1      25.290 -17.423  -1.056  0.00  0.00     0.002 C 
ATOM     18  C   UNL d   1      26.165 -17.993  -0.144  0.00  0.00     0.001 C 
ATOM     19  C   UNL d   1      26.985 -17.163   0.624  0.00  0.00     0.020 C 
ATOM     20  C   UNL d   1      27.058 -15.768   0.368  0.00  0.00     0.022 C 
ATOM     21  S   UNL d   1      28.405 -14.854   1.142  0.00  0.00    -0.118 SA
ATOM     22  H   UNL d   1      29.638 -13.958  -5.378  0.00  0.00     0.173 HD
ATOM     23  H   UNL d   1      25.986 -13.232  -0.312  0.00  0.00     0.133 HD
ENDROOT
BRANCH   1  24
ATOM     24  C   UNL d   1      29.767 -15.385  -1.370  0.00  0.00    -0.038 C 
ATOM     25  C   UNL d   1      29.827 -16.734  -1.036  0.00  0.00     0.048 C 
ATOM     26  C   UNL d   1      30.368 -17.679  -1.936  0.00  0.00     0.104 C 
ATOM     27  C   UNL d   1      30.862 -17.282  -3.199  0.00  0.00     0.133 C 
ATOM     28  C   UNL d   1      30.739 -15.963  -3.588  0.00  0.00     0.104 C 
ATOM     29  C   UNL d   1      30.105 -15.098  -2.695  0.00  0.00     0.048 C 
BRANCH  26  30
ATOM     30  O   UNL d   1      30.404 -18.959  -1.426  0.00  0.00    -0.353 OA
ATOM     31  C   UNL d   1      31.621 -19.344  -0.791  0.00  0.00     0.210 C 
ENDBRANCH  26  30
BRANCH  27  32
ATOM     32  O   UNL d   1      31.447 -18.233  -3.977  0.00  0.00    -0.356 OA
ATOM     33  H   UNL d   1      31.497 -19.102  -3.580  0.00  0.00     0.218 HD
ENDBRANCH  27  32
BRANCH  28  34
ATOM     34  O   UNL d   1      31.157 -15.320  -4.720  0.00  0.00    -0.353 OA
ATOM     35  C   UNL d   1      31.069 -15.976  -5.966  0.00  0.00     0.210 C 
ENDBRANCH  28  34
ENDBRANCH   1  24
TORSDOF 4
ENDMDL
MODEL 8
REMARK VINA RESULT:    -5.414      3.095      5.829
REMARK INTER + INTRA:          -9.265
REMARK INTER:                  -6.607
REMARK INTRA:                  -2.658
REMARK CONF_INDEPENDENT:        1.193
REMARK UNBOUND:                -2.658
REMARK  4 active torsions:
REMARK  status: ('A' for Active; 'I' for Inactive)
REMARK    1  A    between atoms: O_2  and  C_3 
REMARK    2  A    between atoms: C_6  and  C_5 
REMARK    3  A    between atoms: C_28  and  O_29 
REMARK    4  A    between atoms: C_31  and  O_32 
ROOT
ATOM      1  C   UNL d   1      25.158 -13.919  -3.089  0.00  0.00     0.090 C 
ATOM      2  C   UNL d   1      25.245 -13.969  -4.645  0.00  0.00     0.072 C 
ATOM      3  C   UNL d   1      26.653 -14.185  -5.231  0.00  0.00     0.013 C 
ATOM      4  C   UNL d   1      27.345 -13.195  -5.858  0.00  0.00     0.118 C 
ATOM      5  C   UNL d   1      26.868 -11.800  -5.902  0.00  0.00     0.266 C 
ATOM      6  O   UNL d   1      25.788 -11.449  -6.373  0.00  0.00    -0.267 OA
ATOM      7  N   UNL d   1      27.769 -10.930  -5.374  0.00  0.00    -0.274 N 
ATOM      8  C   UNL d   1      29.082 -11.053  -5.718  0.00  0.00     0.331 C 
ATOM      9  O   UNL d   1      29.744 -10.088  -6.081  0.00  0.00    -0.246 OA
ATOM     10  N   UNL d   1      29.547 -12.345  -5.666  0.00  0.00    -0.270 N 
ATOM     11  C   UNL d   1      30.847 -12.597  -5.094  0.00  0.00     0.164 C 
ATOM     12  C   UNL d   1      28.787 -13.368  -6.195  0.00  0.00     0.268 C 
ATOM     13  O   UNL d   1      29.219 -14.275  -6.898  0.00  0.00    -0.267 OA
ATOM     14  N   UNL d   1      27.229 -15.449  -5.020  0.00  0.00    -0.261 NA
ATOM     15  C   UNL d   1      27.788 -15.776  -3.753  0.00  0.00     0.029 C 
ATOM     16  C   UNL d   1      29.185 -15.887  -3.709  0.00  0.00     0.025 C 
ATOM     17  C   UNL d   1      29.875 -16.001  -2.503  0.00  0.00     0.002 C 
ATOM     18  C   UNL d   1      29.171 -16.094  -1.312  0.00  0.00     0.001 C 
ATOM     19  C   UNL d   1      27.777 -16.154  -1.347  0.00  0.00     0.020 C 
ATOM     20  C   UNL d   1      27.067 -15.951  -2.560  0.00  0.00     0.022 C 
ATOM     21  S   UNL d   1      25.291 -15.670  -2.444  0.00  0.00    -0.118 SA
ATOM     22  H   UNL d   1      27.451  -9.982  -5.237  0.00  0.00     0.173 HD
ATOM     23  H   UNL d   1      26.645 -16.216  -5.353  0.00  0.00     0.133 HD
ENDROOT
BRANCH   1  24
ATOM     24  C   UNL d   1      26.069 -12.870  -2.433  0.00  0.00    -0.038 C 
ATOM     25  C   UNL d   1      26.668 -13.066  -1.193  0.00  0.00     0.048 C 
ATOM     26  C   UNL d   1      27.345 -12.011  -0.542  0.00  0.00     0.104 C 
ATOM     27  C   UNL d   1      27.435 -10.730  -1.131  0.00  0.00     0.133 C 
ATOM     28  C   UNL d   1      26.921 -10.532  -2.397  0.00  0.00     0.104 C 
ATOM     29  C   UNL d   1      26.353 -11.638  -3.028  0.00  0.00     0.048 C 
BRANCH  26  30
ATOM     30  O   UNL d   1      27.829 -12.359   0.701  0.00  0.00    -0.353 OA
ATOM     31  C   UNL d   1      27.369 -13.603   1.225  0.00  0.00     0.210 C 
ENDBRANCH  26  30
BRANCH  27  32
ATOM     32  O   UNL d   1      28.027  -9.741  -0.408  0.00  0.00    -0.356 OA
ATOM     33  H   UNL d   1      28.366 -10.014   0.445  0.00  0.00     0.218 HD
ENDBRANCH  27  32
BRANCH  28  34
ATOM     34  O   UNL d   1      26.846  -9.404  -3.167  0.00  0.00    -0.353 OA
ATOM     35  C   UNL d   1      25.594  -8.982  -3.662  0.00  0.00     0.210 C 
ENDBRANCH  28  34
ENDBRANCH   1  24
TORSDOF 4
ENDMDL
MODEL 9
REMARK VINA RESULT:    -5.276      2.957      5.699
REMARK INTER + INTRA:          -9.474
REMARK INTER:                  -6.469
REMARK INTRA:                  -3.005
REMARK CONF_INDEPENDENT:        1.193
REMARK UNBOUND:                -3.005
REMARK  4 active torsions:
REMARK  status: ('A' for Active; 'I' for Inactive)
REMARK    1  A    between atoms: O_2  and  C_3 
REMARK    2  A    between atoms: C_6  and  C_5 
REMARK    3  A    between atoms: C_28  and  O_29 
REMARK    4  A    between atoms: C_31  and  O_32 
ROOT
ATOM      1  C   UNL d   1      25.038 -13.935  -3.093  0.00  0.00     0.090 C 
ATOM      2  C   UNL d   1      25.188 -13.980  -4.645  0.00  0.00     0.072 C 
ATOM      3  C   UNL d   1      26.620 -14.180  -5.174  0.00  0.00     0.013 C 
ATOM      4  C   UNL d   1      27.327 -13.182  -5.770  0.00  0.00     0.118 C 
ATOM      5  C   UNL d   1      26.839 -11.791  -5.830  0.00  0.00     0.266 C 
ATOM      6  O   UNL d   1      25.775 -11.450  -6.344  0.00  0.00    -0.267 OA
ATOM      7  N   UNL d   1      27.709 -10.914  -5.264  0.00  0.00    -0.274 N 
ATOM      8  C   UNL d   1      29.036 -11.024  -5.555  0.00  0.00     0.331 C 
ATOM      9  O   UNL d   1      29.702 -10.051  -5.889  0.00  0.00    -0.246 OA
ATOM     10  N   UNL d   1      29.511 -12.311  -5.488  0.00  0.00    -0.270 N 
ATOM     11  C   UNL d   1      30.789 -12.552  -4.864  0.00  0.00     0.164 C 
ATOM     12  C   UNL d   1      28.783 -13.340  -6.049  0.00  0.00     0.268 C 
ATOM     13  O   UNL d   1      29.252 -14.241  -6.736  0.00  0.00    -0.267 OA
ATOM     14  N   UNL d   1      27.200 -15.439  -4.944  0.00  0.00    -0.261 NA
ATOM     15  C   UNL d   1      27.710 -15.764  -3.655  0.00  0.00     0.029 C 
ATOM     16  C   UNL d   1      29.105 -15.862  -3.555  0.00  0.00     0.025 C 
ATOM     17  C   UNL d   1      29.747 -15.972  -2.322  0.00  0.00     0.002 C 
ATOM     18  C   UNL d   1      28.997 -16.076  -1.161  0.00  0.00     0.001 C 
ATOM     19  C   UNL d   1      27.606 -16.149  -1.253  0.00  0.00     0.020 C 
ATOM     20  C   UNL d   1      26.943 -15.950  -2.493  0.00  0.00     0.022 C 
ATOM     21  S   UNL d   1      25.161 -15.686  -2.448  0.00  0.00    -0.118 SA
ATOM     22  H   UNL d   1      27.376  -9.969  -5.138  0.00  0.00     0.173 HD
ATOM     23  H   UNL d   1      26.637 -16.211  -5.301  0.00  0.00     0.133 HD
ENDROOT
BRANCH   1  24
ATOM     24  C   UNL d   1      25.911 -12.879  -2.399  0.00  0.00    -0.038 C 
ATOM     25  C   UNL d   1      26.079 -11.594  -2.904  0.00  0.00     0.048 C 
ATOM     26  C   UNL d   1      27.030 -10.714  -2.341  0.00  0.00     0.104 C 
ATOM     27  C   UNL d   1      27.835 -11.113  -1.250  0.00  0.00     0.133 C 
ATOM     28  C   UNL d   1      27.630 -12.352  -0.678  0.00  0.00     0.104 C 
ATOM     29  C   UNL d   1      26.608 -13.135  -1.216  0.00  0.00     0.048 C 
BRANCH  26  30
ATOM     30  O   UNL d   1      27.109  -9.504  -2.997  0.00  0.00    -0.353 OA
ATOM     31  C   UNL d   1      25.865  -8.899  -3.342  0.00  0.00     0.210 C 
ENDBRANCH  26  30
BRANCH  27  32
ATOM     32  O   UNL d   1      28.789 -10.244  -0.817  0.00  0.00    -0.356 OA
ATOM     33  H   UNL d   1      28.825  -9.416  -1.295  0.00  0.00     0.218 HD
ENDBRANCH  27  32
BRANCH  28  34
ATOM     34  O   UNL d   1      28.282 -12.986   0.344  0.00  0.00    -0.353 OA
ATOM     35  C   UNL d   1      27.538 -13.701   1.306  0.00  0.00     0.210 C 
ENDBRANCH  28  34
ENDBRANCH   1  24
TORSDOF 4
ENDMDL
