MODEL 1
REMARK VINA RESULT:    -9.192      0.000      0.000
REMARK INTER + INTRA:         -16.625
REMARK INTER:                 -13.368
REMARK INTRA:                  -3.257
REMARK CONF_INDEPENDENT:        4.176
REMARK UNBOUND:                -3.257
REMARK  14 active torsions:
REMARK  status: ('A' for Active; 'I' for Inactive)
REMARK    1  A    between atoms: C_2  and  N_3 
REMARK    2  A    between atoms: C_2  and  C_14 
REMARK       I    between atoms: N_3  and  C_4 
REMARK    3  A    between atoms: C_4  and  O_6 
REMARK    4  A    between atoms: O_6  and  C_7 
REMARK    5  A    between atoms: C_7  and  C_8 
REMARK       I    between atoms: C_14  and  N_16 
REMARK    6  A    between atoms: N_16  and  C_17 
REMARK    7  A    between atoms: C_17  and  C_18 
REMARK    8  A    between atoms: C_17  and  C_27 
REMARK    9  A    between atoms: C_18  and  S_19 
REMARK   10  A    between atoms: S_19  and  C_20 
REMARK   11  A    between atoms: C_20  and  C_21 
REMARK   12  A    between atoms: C_27  and  O_29 
REMARK   13  A    between atoms: O_29  and  C_30 
REMARK   14  A    between atoms: C_30  and  C_31 
ROOT
ATOM      1  C   UNL d   1      28.170 -16.633   0.141  0.00  0.00     0.193 C 
ENDROOT
BRANCH   1   2
ATOM      2  N   UNL d   1      26.692 -16.370   0.002  0.00  0.00    -0.345 N 
ATOM      3  C   UNL d   1      25.757 -17.370  -0.219  0.00  0.00     0.240 C 
ATOM      4  O   UNL d   1      26.047 -18.562  -0.154  0.00  0.00    -0.271 OA
ATOM      5  H   UNL d   1      26.368 -15.447   0.278  0.00  0.00     0.163 HD
BRANCH   3   6
ATOM      6  C   UNL d   1      24.285 -16.963  -0.472  0.00  0.00     0.174 C 
ATOM      7  C   UNL d   1      24.275 -15.962  -1.647  0.00  0.00     0.042 C 
BRANCH   6   8
ATOM      8  N   UNL d   1      23.506 -18.160  -0.778  0.00  0.00    -0.324 N 
ATOM      9  C   UNL d   1      22.162 -18.115  -1.009  0.00  0.00     0.361 C 
ATOM     10  O   UNL d   1      21.470 -17.104  -0.894  0.00  0.00    -0.238 OA
ATOM     11  H   UNL d   1      23.984 -19.032  -0.971  0.00  0.00     0.165 HD
BRANCH   9  12
ATOM     12  O   UNL d   1      21.683 -19.325  -1.387  0.00  0.00    -0.299 OA
BRANCH  12  13
ATOM     13  C   UNL d   1      20.246 -19.406  -1.330  0.00  0.00     0.219 C 
BRANCH  13  14
ATOM     14  C   UNL d   1      19.775 -19.962  -0.003  0.00  0.00    -0.034 A 
ATOM     15  C   UNL d   1      18.606 -20.739   0.070  0.00  0.00     0.009 A 
ATOM     16  C   UNL d   1      18.091 -21.135   1.308  0.00  0.00     0.001 A 
ATOM     17  C   UNL d   1      18.775 -20.826   2.480  0.00  0.00     0.000 A 
ATOM     18  C   UNL d   1      19.940 -20.065   2.422  0.00  0.00     0.001 A 
ATOM     19  C   UNL d   1      20.425 -19.619   1.190  0.00  0.00     0.009 A 
ENDBRANCH  13  14
ENDBRANCH  12  13
ENDBRANCH   9  12
ENDBRANCH   6   8
ENDBRANCH   3   6
ENDBRANCH   1   2
BRANCH   1  20
ATOM     20  C   UNL d   1      28.844 -17.022  -1.214  0.00  0.00     0.109 C 
BRANCH  20  21
ATOM     21  S   UNL d   1      28.754 -15.611  -2.357  0.00  0.00    -0.162 SA
BRANCH  21  22
ATOM     22  C   UNL d   1      27.100 -15.592  -3.096  0.00  0.00     0.112 C 
BRANCH  22  23
ATOM     23  C   UNL d   1      26.797 -14.237  -3.740  0.00  0.00    -0.049 A 
ATOM     24  C   UNL d   1      25.915 -13.351  -3.107  0.00  0.00     0.008 A 
ATOM     25  C   UNL d   1      25.530 -12.158  -3.732  0.00  0.00     0.001 A 
ATOM     26  C   UNL d   1      26.085 -11.787  -4.957  0.00  0.00     0.000 A 
ATOM     27  C   UNL d   1      26.983 -12.634  -5.588  0.00  0.00     0.001 A 
ATOM     28  C   UNL d   1      27.314 -13.854  -4.996  0.00  0.00     0.008 A 
ENDBRANCH  22  23
ENDBRANCH  21  22
ENDBRANCH  20  21
ENDBRANCH   1  20
BRANCH   1  29
ATOM     29  C   UNL d   1      28.880 -15.381   0.721  0.00  0.00     0.282 C 
ATOM     30  O   UNL d   1      30.088 -15.187   0.629  0.00  0.00    -0.263 OA
BRANCH  29  31
ATOM     31  O   UNL d   1      28.011 -14.516   1.324  0.00  0.00    -0.315 OA
BRANCH  31  32
ATOM     32  C   UNL d   1      28.612 -13.382   1.993  0.00  0.00     0.217 C 
BRANCH  32  33
ATOM     33  C   UNL d   1      28.628 -13.626   3.489  0.00  0.00    -0.034 A 
ATOM     34  C   UNL d   1      28.176 -14.824   4.068  0.00  0.00     0.009 A 
ATOM     35  C   UNL d   1      28.154 -14.976   5.462  0.00  0.00     0.001 A 
ATOM     36  C   UNL d   1      28.647 -13.964   6.285  0.00  0.00     0.000 A 
ATOM     37  C   UNL d   1      29.090 -12.771   5.722  0.00  0.00     0.001 A 
ATOM     38  C   UNL d   1      29.061 -12.598   4.338  0.00  0.00     0.009 A 
ENDBRANCH  32  33
ENDBRANCH  31  32
ENDBRANCH  29  31
ENDBRANCH   1  29
TORSDOF 14
ENDMDL
MODEL 2
REMARK VINA RESULT:    -8.972      1.982      6.231
REMARK INTER + INTRA:         -16.561
REMARK INTER:                 -13.148
REMARK INTRA:                  -3.413
REMARK CONF_INDEPENDENT:        4.176
REMARK UNBOUND:                -3.413
REMARK  14 active torsions:
REMARK  status: ('A' for Active; 'I' for Inactive)
REMARK    1  A    between atoms: C_2  and  N_3 
REMARK    2  A    between atoms: C_2  and  C_14 
REMARK       I    between atoms: N_3  and  C_4 
REMARK    3  A    between atoms: C_4  and  O_6 
REMARK    4  A    between atoms: O_6  and  C_7 
REMARK    5  A    between atoms: C_7  and  C_8 
REMARK       I    between atoms: C_14  and  N_16 
REMARK    6  A    between atoms: N_16  and  C_17 
REMARK    7  A    between atoms: C_17  and  C_18 
REMARK    8  A    between atoms: C_17  and  C_27 
REMARK    9  A    between atoms: C_18  and  S_19 
REMARK   10  A    between atoms: S_19  and  C_20 
REMARK   11  A    between atoms: C_20  and  C_21 
REMARK   12  A    between atoms: C_27  and  O_29 
REMARK   13  A    between atoms: O_29  and  C_30 
REMARK   14  A    between atoms: C_30  and  C_31 
ROOT
ATOM      1  C   UNL d   1      25.908 -14.022  -1.664  0.00  0.00     0.193 C 
ENDROOT
BRANCH   1   2
ATOM      2  N   UNL d   1      25.593 -15.489  -1.522  0.00  0.00    -0.345 N 
ATOM      3  C   UNL d   1      25.981 -16.251  -0.431  0.00  0.00     0.240 C 
ATOM      4  O   UNL d   1      26.469 -15.747   0.578  0.00  0.00    -0.271 OA
ATOM      5  H   UNL d   1      24.905 -15.869  -2.166  0.00  0.00     0.163 HD
BRANCH   3   6
ATOM      6  C   UNL d   1      25.711 -17.775  -0.459  0.00  0.00     0.174 C 
ATOM      7  C   UNL d   1      26.845 -18.463   0.332  0.00  0.00     0.042 C 
BRANCH   6   8
ATOM      8  N   UNL d   1      24.404 -18.038   0.138  0.00  0.00    -0.324 N 
ATOM      9  C   UNL d   1      23.256 -17.483  -0.351  0.00  0.00     0.361 C 
ATOM     10  O   UNL d   1      23.216 -16.656  -1.260  0.00  0.00    -0.238 OA
ATOM     11  H   UNL d   1      24.311 -18.759   0.842  0.00  0.00     0.165 HD
BRANCH   9  12
ATOM     12  O   UNL d   1      22.163 -17.964   0.289  0.00  0.00    -0.299 OA
BRANCH  12  13
ATOM     13  C   UNL d   1      21.211 -18.576  -0.602  0.00  0.00     0.219 C 
BRANCH  13  14
ATOM     14  C   UNL d   1      20.254 -19.480   0.146  0.00  0.00    -0.034 A 
ATOM     15  C   UNL d   1      19.169 -20.077  -0.520  0.00  0.00     0.009 A 
ATOM     16  C   UNL d   1      18.205 -20.796   0.193  0.00  0.00     0.001 A 
ATOM     17  C   UNL d   1      18.351 -20.992   1.563  0.00  0.00     0.000 A 
ATOM     18  C   UNL d   1      19.426 -20.414   2.234  0.00  0.00     0.001 A 
ATOM     19  C   UNL d   1      20.360 -19.647   1.533  0.00  0.00     0.009 A 
ENDBRANCH  13  14
ENDBRANCH  12  13
ENDBRANCH   9  12
ENDBRANCH   6   8
ENDBRANCH   3   6
ENDBRANCH   1   2
BRANCH   1  20
ATOM     20  C   UNL d   1      27.373 -13.676  -1.245  0.00  0.00     0.109 C 
BRANCH  20  21
ATOM     21  S   UNL d   1      27.367 -12.951   0.423  0.00  0.00    -0.162 SA
BRANCH  21  22
ATOM     22  C   UNL d   1      28.604 -13.824   1.418  0.00  0.00     0.112 C 
BRANCH  22  23
ATOM     23  C   UNL d   1      28.375 -13.593   2.913  0.00  0.00    -0.049 A 
ATOM     24  C   UNL d   1      28.053 -14.677   3.740  0.00  0.00     0.008 A 
ATOM     25  C   UNL d   1      27.723 -14.475   5.087  0.00  0.00     0.001 A 
ATOM     26  C   UNL d   1      27.794 -13.202   5.652  0.00  0.00     0.000 A 
ATOM     27  C   UNL d   1      28.141 -12.118   4.860  0.00  0.00     0.001 A 
ATOM     28  C   UNL d   1      28.403 -12.311   3.503  0.00  0.00     0.008 A 
ENDBRANCH  22  23
ENDBRANCH  21  22
ENDBRANCH  20  21
ENDBRANCH   1  20
BRANCH   1  29
ATOM     29  C   UNL d   1      25.677 -13.568  -3.129  0.00  0.00     0.282 C 
ATOM     30  O   UNL d   1      26.045 -12.481  -3.564  0.00  0.00    -0.263 OA
BRANCH  29  31
ATOM     31  O   UNL d   1      25.043 -14.516  -3.880  0.00  0.00    -0.315 OA
BRANCH  31  32
ATOM     32  C   UNL d   1      25.881 -15.578  -4.396  0.00  0.00     0.217 C 
BRANCH  32  33
ATOM     33  C   UNL d   1      27.253 -15.026  -4.725  0.00  0.00    -0.034 A 
ATOM     34  C   UNL d   1      27.470 -14.096  -5.756  0.00  0.00     0.009 A 
ATOM     35  C   UNL d   1      28.769 -13.664  -6.061  0.00  0.00     0.001 A 
ATOM     36  C   UNL d   1      29.851 -14.100  -5.297  0.00  0.00     0.000 A 
ATOM     37  C   UNL d   1      29.647 -15.026  -4.278  0.00  0.00     0.001 A 
ATOM     38  C   UNL d   1      28.363 -15.499  -4.010  0.00  0.00     0.009 A 
ENDBRANCH  32  33
ENDBRANCH  31  32
ENDBRANCH  29  31
ENDBRANCH   1  29
TORSDOF 14
ENDMDL
MODEL 3
REMARK VINA RESULT:    -8.971      2.005      5.385
REMARK INTER + INTRA:         -16.448
REMARK INTER:                 -13.148
REMARK INTRA:                  -3.300
REMARK CONF_INDEPENDENT:        4.176
REMARK UNBOUND:                -3.300
REMARK  14 active torsions:
REMARK  status: ('A' for Active; 'I' for Inactive)
REMARK    1  A    between atoms: C_2  and  N_3 
REMARK    2  A    between atoms: C_2  and  C_14 
REMARK       I    between atoms: N_3  and  C_4 
REMARK    3  A    between atoms: C_4  and  O_6 
REMARK    4  A    between atoms: O_6  and  C_7 
REMARK    5  A    between atoms: C_7  and  C_8 
REMARK       I    between atoms: C_14  and  N_16 
REMARK    6  A    between atoms: N_16  and  C_17 
REMARK    7  A    between atoms: C_17  and  C_18 
REMARK    8  A    between atoms: C_17  and  C_27 
REMARK    9  A    between atoms: C_18  and  S_19 
REMARK   10  A    between atoms: S_19  and  C_20 
REMARK   11  A    between atoms: C_20  and  C_21 
REMARK   12  A    between atoms: C_27  and  O_29 
REMARK   13  A    between atoms: O_29  and  C_30 
REMARK   14  A    between atoms: C_30  and  C_31 
ROOT
ATOM      1  C   UNL d   1      26.846 -15.246  -3.048  0.00  0.00     0.193 C 
ENDROOT
BRANCH   1   2
ATOM      2  N   UNL d   1      25.992 -16.294  -2.381  0.00  0.00    -0.345 N 
ATOM      3  C   UNL d   1      26.189 -16.724  -1.078  0.00  0.00     0.240 C 
ATOM      4  O   UNL d   1      26.974 -16.163  -0.316  0.00  0.00    -0.271 OA
ATOM      5  H   UNL d   1      25.126 -16.540  -2.853  0.00  0.00     0.163 HD
BRANCH   3   6
ATOM      6  C   UNL d   1      25.329 -17.896  -0.547  0.00  0.00     0.174 C 
ATOM      7  C   UNL d   1      25.819 -18.222   0.880  0.00  0.00     0.042 C 
BRANCH   6   8
ATOM      8  N   UNL d   1      23.924 -17.497  -0.555  0.00  0.00    -0.324 N 
ATOM      9  C   UNL d   1      22.913 -18.397  -0.732  0.00  0.00     0.361 C 
ATOM     10  O   UNL d   1      23.079 -19.589  -0.987  0.00  0.00    -0.238 OA
ATOM     11  H   UNL d   1      23.670 -16.556  -0.282  0.00  0.00     0.165 HD
BRANCH   9  12
ATOM     12  O   UNL d   1      21.699 -17.813  -0.583  0.00  0.00    -0.299 OA
BRANCH  12  13
ATOM     13  C   UNL d   1      20.631 -18.569  -1.186  0.00  0.00     0.219 C 
BRANCH  13  14
ATOM     14  C   UNL d   1      19.907 -19.417  -0.162  0.00  0.00    -0.034 A 
ATOM     15  C   UNL d   1      18.772 -20.161  -0.527  0.00  0.00     0.009 A 
ATOM     16  C   UNL d   1      18.018 -20.831   0.442  0.00  0.00     0.001 A 
ATOM     17  C   UNL d   1      18.431 -20.830   1.771  0.00  0.00     0.000 A 
ATOM     18  C   UNL d   1      19.559 -20.105   2.145  0.00  0.00     0.001 A 
ATOM     19  C   UNL d   1      20.281 -19.387   1.188  0.00  0.00     0.009 A 
ENDBRANCH  13  14
ENDBRANCH  12  13
ENDBRANCH   9  12
ENDBRANCH   6   8
ENDBRANCH   3   6
ENDBRANCH   1   2
BRANCH   1  20
ATOM     20  C   UNL d   1      28.371 -15.578  -2.979  0.00  0.00     0.109 C 
BRANCH  20  21
ATOM     21  S   UNL d   1      29.315 -14.035  -2.786  0.00  0.00    -0.162 SA
BRANCH  21  22
ATOM     22  C   UNL d   1      30.006 -14.007  -1.111  0.00  0.00     0.112 C 
BRANCH  22  23
ATOM     23  C   UNL d   1      28.945 -13.610  -0.082  0.00  0.00    -0.049 A 
ATOM     24  C   UNL d   1      29.274 -13.595   1.280  0.00  0.00     0.008 A 
ATOM     25  C   UNL d   1      28.292 -13.352   2.250  0.00  0.00     0.001 A 
ATOM     26  C   UNL d   1      26.987 -13.033   1.874  0.00  0.00     0.000 A 
ATOM     27  C   UNL d   1      26.646 -13.012   0.530  0.00  0.00     0.001 A 
ATOM     28  C   UNL d   1      27.609 -13.321  -0.431  0.00  0.00     0.008 A 
ENDBRANCH  22  23
ENDBRANCH  21  22
ENDBRANCH  20  21
ENDBRANCH   1  20
BRANCH   1  29
ATOM     29  C   UNL d   1      26.427 -15.084  -4.533  0.00  0.00     0.282 C 
ATOM     30  O   UNL d   1      27.203 -15.227  -5.472  0.00  0.00    -0.263 OA
BRANCH  29  31
ATOM     31  O   UNL d   1      25.101 -14.787  -4.675  0.00  0.00    -0.315 OA
BRANCH  31  32
ATOM     32  C   UNL d   1      24.614 -13.677  -3.885  0.00  0.00     0.217 C 
BRANCH  32  33
ATOM     33  C   UNL d   1      25.526 -12.481  -4.075  0.00  0.00    -0.034 A 
ATOM     34  C   UNL d   1      25.904 -12.007  -5.344  0.00  0.00     0.009 A 
ATOM     35  C   UNL d   1      26.799 -10.935  -5.464  0.00  0.00     0.001 A 
ATOM     36  C   UNL d   1      27.269 -10.283  -4.325  0.00  0.00     0.000 A 
ATOM     37  C   UNL d   1      26.907 -10.748  -3.064  0.00  0.00     0.001 A 
ATOM     38  C   UNL d   1      26.059 -11.849  -2.943  0.00  0.00     0.009 A 
ENDBRANCH  32  33
ENDBRANCH  31  32
ENDBRANCH  29  31
ENDBRANCH   1  29
TORSDOF 14
ENDMDL
MODEL 4
REMARK VINA RESULT:    -8.737      2.673      6.180
REMARK INTER + INTRA:         -16.380
REMARK INTER:                 -12.913
REMARK INTRA:                  -3.467
REMARK CONF_INDEPENDENT:        4.176
REMARK UNBOUND:                -3.467
REMARK  14 active torsions:
REMARK  status: ('A' for Active; 'I' for Inactive)
REMARK    1  A    between atoms: C_2  and  N_3 
REMARK    2  A    between atoms: C_2  and  C_14 
REMARK       I    between atoms: N_3  and  C_4 
REMARK    3  A    between atoms: C_4  and  O_6 
REMARK    4  A    between atoms: O_6  and  C_7 
REMARK    5  A    between atoms: C_7  and  C_8 
REMARK       I    between atoms: C_14  and  N_16 
REMARK    6  A    between atoms: N_16  and  C_17 
REMARK    7  A    between atoms: C_17  and  C_18 
REMARK    8  A    between atoms: C_17  and  C_27 
REMARK    9  A    between atoms: C_18  and  S_19 
REMARK   10  A    between atoms: S_19  and  C_20 
REMARK   11  A    between atoms: C_20  and  C_21 
REMARK   12  A    between atoms: C_27  and  O_29 
REMARK   13  A    between atoms: O_29  and  C_30 
REMARK   14  A    between atoms: C_30  and  C_31 
ROOT
ATOM      1  C   UNL d   1      26.247 -15.079  -2.628  0.00  0.00     0.193 C 
ENDROOT
BRANCH   1   2
ATOM      2  N   UNL d   1      25.830 -16.404  -2.044  0.00  0.00    -0.345 N 
ATOM      3  C   UNL d   1      25.990 -16.732  -0.706  0.00  0.00     0.240 C 
ATOM      4  O   UNL d   1      26.332 -15.903   0.134  0.00  0.00    -0.271 OA
ATOM      5  H   UNL d   1      25.237 -16.990  -2.625  0.00  0.00     0.163 HD
BRANCH   3   6
ATOM      6  C   UNL d   1      25.641 -18.170  -0.250  0.00  0.00     0.174 C 
ATOM      7  C   UNL d   1      26.651 -18.566   0.849  0.00  0.00     0.042 C 
BRANCH   6   8
ATOM      8  N   UNL d   1      24.269 -18.192   0.249  0.00  0.00    -0.324 N 
ATOM      9  C   UNL d   1      23.210 -17.797  -0.517  0.00  0.00     0.361 C 
ATOM     10  O   UNL d   1      23.309 -17.308  -1.642  0.00  0.00    -0.238 OA
ATOM     11  H   UNL d   1      24.064 -18.644   1.131  0.00  0.00     0.165 HD
BRANCH   9  12
ATOM     12  O   UNL d   1      22.032 -18.017   0.116  0.00  0.00    -0.299 OA
BRANCH  12  13
ATOM     13  C   UNL d   1      21.051 -18.656  -0.724  0.00  0.00     0.219 C 
BRANCH  13  14
ATOM     14  C   UNL d   1      20.122 -19.538   0.083  0.00  0.00    -0.034 A 
ATOM     15  C   UNL d   1      18.999 -20.130  -0.520  0.00  0.00     0.009 A 
ATOM     16  C   UNL d   1      18.062 -20.827   0.250  0.00  0.00     0.001 A 
ATOM     17  C   UNL d   1      18.274 -21.006   1.614  0.00  0.00     0.000 A 
ATOM     18  C   UNL d   1      19.388 -20.433   2.223  0.00  0.00     0.001 A 
ATOM     19  C   UNL d   1      20.295 -19.687   1.466  0.00  0.00     0.009 A 
ENDBRANCH  13  14
ENDBRANCH  12  13
ENDBRANCH   9  12
ENDBRANCH   6   8
ENDBRANCH   3   6
ENDBRANCH   1   2
BRANCH   1  20
ATOM     20  C   UNL d   1      27.786 -14.832  -2.527  0.00  0.00     0.109 C 
BRANCH  20  21
ATOM     21  S   UNL d   1      28.144 -13.873  -1.024  0.00  0.00    -0.162 SA
BRANCH  21  22
ATOM     22  C   UNL d   1      29.029 -14.951   0.132  0.00  0.00     0.112 C 
BRANCH  22  23
ATOM     23  C   UNL d   1      29.887 -15.975  -0.614  0.00  0.00    -0.049 A 
ATOM     24  C   UNL d   1      30.896 -15.532  -1.481  0.00  0.00     0.008 A 
ATOM     25  C   UNL d   1      31.615 -16.445  -2.264  0.00  0.00     0.001 A 
ATOM     26  C   UNL d   1      31.403 -17.817  -2.131  0.00  0.00     0.000 A 
ATOM     27  C   UNL d   1      30.432 -18.279  -1.256  0.00  0.00     0.001 A 
ATOM     28  C   UNL d   1      29.669 -17.367  -0.527  0.00  0.00     0.008 A 
ENDBRANCH  22  23
ENDBRANCH  21  22
ENDBRANCH  20  21
ENDBRANCH   1  20
BRANCH   1  29
ATOM     29  C   UNL d   1      25.815 -14.995  -4.116  0.00  0.00     0.282 C 
ATOM     30  O   UNL d   1      24.780 -14.451  -4.488  0.00  0.00    -0.263 OA
BRANCH  29  31
ATOM     31  O   UNL d   1      26.720 -15.573  -4.960  0.00  0.00    -0.315 OA
BRANCH  31  32
ATOM     32  C   UNL d   1      27.451 -14.666  -5.819  0.00  0.00     0.217 C 
BRANCH  32  33
ATOM     33  C   UNL d   1      28.867 -15.173  -6.005  0.00  0.00    -0.034 A 
ATOM     34  C   UNL d   1      29.779 -14.574  -6.891  0.00  0.00     0.009 A 
ATOM     35  C   UNL d   1      31.058 -15.120  -7.071  0.00  0.00     0.001 A 
ATOM     36  C   UNL d   1      31.461 -16.223  -6.319  0.00  0.00     0.000 A 
ATOM     37  C   UNL d   1      30.564 -16.828  -5.444  0.00  0.00     0.001 A 
ATOM     38  C   UNL d   1      29.273 -16.319  -5.305  0.00  0.00     0.009 A 
ENDBRANCH  32  33
ENDBRANCH  31  32
ENDBRANCH  29  31
ENDBRANCH   1  29
TORSDOF 14
ENDMDL
MODEL 5
REMARK VINA RESULT:    -8.640      2.753      8.259
REMARK INTER + INTRA:         -17.008
REMARK INTER:                 -12.816
REMARK INTRA:                  -4.192
REMARK CONF_INDEPENDENT:        4.176
REMARK UNBOUND:                -4.192
REMARK  14 active torsions:
REMARK  status: ('A' for Active; 'I' for Inactive)
REMARK    1  A    between atoms: C_2  and  N_3 
REMARK    2  A    between atoms: C_2  and  C_14 
REMARK       I    between atoms: N_3  and  C_4 
REMARK    3  A    between atoms: C_4  and  O_6 
REMARK    4  A    between atoms: O_6  and  C_7 
REMARK    5  A    between atoms: C_7  and  C_8 
REMARK       I    between atoms: C_14  and  N_16 
REMARK    6  A    between atoms: N_16  and  C_17 
REMARK    7  A    between atoms: C_17  and  C_18 
REMARK    8  A    between atoms: C_17  and  C_27 
REMARK    9  A    between atoms: C_18  and  S_19 
REMARK   10  A    between atoms: S_19  and  C_20 
REMARK   11  A    between atoms: C_20  and  C_21 
REMARK   12  A    between atoms: C_27  and  O_29 
REMARK   13  A    between atoms: O_29  and  C_30 
REMARK   14  A    between atoms: C_30  and  C_31 
ROOT
ATOM      1  C   UNL d   1      25.018 -16.687  -1.153  0.00  0.00     0.193 C 
ENDROOT
BRANCH   1   2
ATOM      2  N   UNL d   1      25.422 -15.721  -2.237  0.00  0.00    -0.345 N 
ATOM      3  C   UNL d   1      24.543 -14.826  -2.828  0.00  0.00     0.240 C 
ATOM      4  O   UNL d   1      23.408 -14.643  -2.395  0.00  0.00    -0.271 OA
ATOM      5  H   UNL d   1      26.420 -15.600  -2.389  0.00  0.00     0.163 HD
BRANCH   3   6
ATOM      6  C   UNL d   1      25.045 -13.972  -4.018  0.00  0.00     0.174 C 
ATOM      7  C   UNL d   1      25.749 -12.729  -3.434  0.00  0.00     0.042 C 
BRANCH   6   8
ATOM      8  N   UNL d   1      25.956 -14.776  -4.829  0.00  0.00    -0.324 N 
ATOM      9  C   UNL d   1      27.242 -15.025  -4.447  0.00  0.00     0.361 C 
ATOM     10  O   UNL d   1      27.781 -14.536  -3.455  0.00  0.00    -0.238 OA
ATOM     11  H   UNL d   1      25.597 -15.288  -5.626  0.00  0.00     0.165 HD
BRANCH   9  12
ATOM     12  O   UNL d   1      27.853 -15.886  -5.297  0.00  0.00    -0.299 OA
BRANCH  12  13
ATOM     13  C   UNL d   1      29.282 -15.708  -5.351  0.00  0.00     0.219 C 
BRANCH  13  14
ATOM     14  C   UNL d   1      30.003 -16.783  -4.565  0.00  0.00    -0.034 A 
ATOM     15  C   UNL d   1      30.267 -18.035  -5.147  0.00  0.00     0.009 A 
ATOM     16  C   UNL d   1      30.805 -19.075  -4.383  0.00  0.00     0.001 A 
ATOM     17  C   UNL d   1      31.155 -18.857  -3.053  0.00  0.00     0.000 A 
ATOM     18  C   UNL d   1      30.908 -17.618  -2.468  0.00  0.00     0.001 A 
ATOM     19  C   UNL d   1      30.318 -16.594  -3.213  0.00  0.00     0.009 A 
ENDBRANCH  13  14
ENDBRANCH  12  13
ENDBRANCH   9  12
ENDBRANCH   6   8
ENDBRANCH   3   6
ENDBRANCH   1   2
BRANCH   1  20
ATOM     20  C   UNL d   1      23.977 -17.744  -1.644  0.00  0.00     0.109 C 
BRANCH  20  21
ATOM     21  S   UNL d   1      22.639 -17.883  -0.420  0.00  0.00    -0.162 SA
BRANCH  21  22
ATOM     22  C   UNL d   1      21.239 -18.717  -1.212  0.00  0.00     0.112 C 
BRANCH  22  23
ATOM     23  C   UNL d   1      20.322 -19.365  -0.173  0.00  0.00    -0.049 A 
ATOM     24  C   UNL d   1      20.674 -19.325   1.182  0.00  0.00     0.008 A 
ATOM     25  C   UNL d   1      19.913 -20.011   2.138  0.00  0.00     0.001 A 
ATOM     26  C   UNL d   1      18.743 -20.674   1.772  0.00  0.00     0.000 A 
ATOM     27  C   UNL d   1      18.357 -20.700   0.440  0.00  0.00     0.001 A 
ATOM     28  C   UNL d   1      19.152 -20.074  -0.521  0.00  0.00     0.008 A 
ENDBRANCH  22  23
ENDBRANCH  21  22
ENDBRANCH  20  21
ENDBRANCH   1  20
BRANCH   1  29
ATOM     29  C   UNL d   1      26.269 -17.423  -0.604  0.00  0.00     0.282 C 
ATOM     30  O   UNL d   1      26.213 -18.312   0.239  0.00  0.00    -0.263 OA
BRANCH  29  31
ATOM     31  O   UNL d   1      27.430 -16.986  -1.178  0.00  0.00    -0.315 OA
BRANCH  31  32
ATOM     32  C   UNL d   1      28.398 -16.399  -0.276  0.00  0.00     0.217 C 
BRANCH  32  33
ATOM     33  C   UNL d   1      27.825 -15.132   0.328  0.00  0.00    -0.034 A 
ATOM     34  C   UNL d   1      27.246 -14.115  -0.450  0.00  0.00     0.009 A 
ATOM     35  C   UNL d   1      26.786 -12.935   0.153  0.00  0.00     0.001 A 
ATOM     36  C   UNL d   1      26.836 -12.790   1.539  0.00  0.00     0.000 A 
ATOM     37  C   UNL d   1      27.414 -13.789   2.317  0.00  0.00     0.001 A 
ATOM     38  C   UNL d   1      27.922 -14.939   1.713  0.00  0.00     0.009 A 
ENDBRANCH  32  33
ENDBRANCH  31  32
ENDBRANCH  29  31
ENDBRANCH   1  29
TORSDOF 14
ENDMDL
MODEL 6
REMARK VINA RESULT:    -8.563      3.144      6.314
REMARK INTER + INTRA:         -16.362
REMARK INTER:                 -12.739
REMARK INTRA:                  -3.623
REMARK CONF_INDEPENDENT:        4.176
REMARK UNBOUND:                -3.623
REMARK  14 active torsions:
REMARK  status: ('A' for Active; 'I' for Inactive)
REMARK    1  A    between atoms: C_2  and  N_3 
REMARK    2  A    between atoms: C_2  and  C_14 
REMARK       I    between atoms: N_3  and  C_4 
REMARK    3  A    between atoms: C_4  and  O_6 
REMARK    4  A    between atoms: O_6  and  C_7 
REMARK    5  A    between atoms: C_7  and  C_8 
REMARK       I    between atoms: C_14  and  N_16 
REMARK    6  A    between atoms: N_16  and  C_17 
REMARK    7  A    between atoms: C_17  and  C_18 
REMARK    8  A    between atoms: C_17  and  C_27 
REMARK    9  A    between atoms: C_18  and  S_19 
REMARK   10  A    between atoms: S_19  and  C_20 
REMARK   11  A    between atoms: C_20  and  C_21 
REMARK   12  A    between atoms: C_27  and  O_29 
REMARK   13  A    between atoms: O_29  and  C_30 
REMARK   14  A    between atoms: C_30  and  C_31 
ROOT
ATOM      1  C   UNL d   1      26.533 -14.155  -4.565  0.00  0.00     0.193 C 
ENDROOT
BRANCH   1   2
ATOM      2  N   UNL d   1      26.277 -15.414  -3.776  0.00  0.00    -0.345 N 
ATOM      3  C   UNL d   1      25.243 -15.544  -2.861  0.00  0.00     0.240 C 
ATOM      4  O   UNL d   1      24.360 -14.696  -2.747  0.00  0.00    -0.271 OA
ATOM      5  H   UNL d   1      26.769 -16.249  -4.081  0.00  0.00     0.163 HD
BRANCH   3   6
ATOM      6  C   UNL d   1      25.159 -16.840  -2.018  0.00  0.00     0.174 C 
ATOM      7  C   UNL d   1      26.237 -16.749  -0.917  0.00  0.00     0.042 C 
BRANCH   6   8
ATOM      8  N   UNL d   1      23.818 -16.952  -1.450  0.00  0.00    -0.324 N 
ATOM      9  C   UNL d   1      23.459 -17.982  -0.630  0.00  0.00     0.361 C 
ATOM     10  O   UNL d   1      24.178 -18.944  -0.365  0.00  0.00    -0.238 OA
ATOM     11  H   UNL d   1      23.170 -16.179  -1.542  0.00  0.00     0.165 HD
BRANCH   9  12
ATOM     12  O   UNL d   1      22.209 -17.808  -0.136  0.00  0.00    -0.299 OA
BRANCH  12  13
ATOM     13  C   UNL d   1      21.202 -18.511  -0.890  0.00  0.00     0.219 C 
BRANCH  13  14
ATOM     14  C   UNL d   1      20.331 -19.362   0.010  0.00  0.00    -0.034 A 
ATOM     15  C   UNL d   1      19.245 -20.079  -0.521  0.00  0.00     0.009 A 
ATOM     16  C   UNL d   1      18.355 -20.752   0.322  0.00  0.00     0.001 A 
ATOM     17  C   UNL d   1      18.581 -20.780   1.696  0.00  0.00     0.000 A 
ATOM     18  C   UNL d   1      19.659 -20.081   2.234  0.00  0.00     0.001 A 
ATOM     19  C   UNL d   1      20.516 -19.361   1.399  0.00  0.00     0.009 A 
ENDBRANCH  13  14
ENDBRANCH  12  13
ENDBRANCH   9  12
ENDBRANCH   6   8
ENDBRANCH   3   6
ENDBRANCH   1   2
BRANCH   1  20
ATOM     20  C   UNL d   1      26.951 -12.951  -3.661  0.00  0.00     0.109 C 
BRANCH  20  21
ATOM     21  S   UNL d   1      28.712 -13.104  -3.231  0.00  0.00    -0.162 SA
BRANCH  21  22
ATOM     22  C   UNL d   1      28.888 -14.489  -2.077  0.00  0.00     0.112 C 
BRANCH  22  23
ATOM     23  C   UNL d   1      28.358 -14.123  -0.689  0.00  0.00    -0.049 A 
ATOM     24  C   UNL d   1      29.176 -14.305   0.434  0.00  0.00     0.008 A 
ATOM     25  C   UNL d   1      28.675 -14.089   1.725  0.00  0.00     0.001 A 
ATOM     26  C   UNL d   1      27.380 -13.606   1.913  0.00  0.00     0.000 A 
ATOM     27  C   UNL d   1      26.563 -13.389   0.813  0.00  0.00     0.001 A 
ATOM     28  C   UNL d   1      27.040 -13.669  -0.468  0.00  0.00     0.008 A 
ENDBRANCH  22  23
ENDBRANCH  21  22
ENDBRANCH  20  21
ENDBRANCH   1  20
BRANCH   1  29
ATOM     29  C   UNL d   1      27.641 -14.407  -5.621  0.00  0.00     0.282 C 
ATOM     30  O   UNL d   1      27.857 -13.653  -6.565  0.00  0.00    -0.263 OA
BRANCH  29  31
ATOM     31  O   UNL d   1      28.356 -15.544  -5.373  0.00  0.00    -0.315 OA
BRANCH  31  32
ATOM     32  C   UNL d   1      29.616 -15.664  -6.076  0.00  0.00     0.217 C 
BRANCH  32  33
ATOM     33  C   UNL d   1      30.130 -17.085  -5.955  0.00  0.00    -0.034 A 
ATOM     34  C   UNL d   1      30.062 -17.818  -4.758  0.00  0.00     0.009 A 
ATOM     35  C   UNL d   1      30.609 -19.107  -4.684  0.00  0.00     0.001 A 
ATOM     36  C   UNL d   1      31.163 -19.701  -5.817  0.00  0.00     0.000 A 
ATOM     37  C   UNL d   1      31.242 -18.980  -7.005  0.00  0.00     0.001 A 
ATOM     38  C   UNL d   1      30.748 -17.677  -7.066  0.00  0.00     0.009 A 
ENDBRANCH  32  33
ENDBRANCH  31  32
ENDBRANCH  29  31
ENDBRANCH   1  29
TORSDOF 14
ENDMDL
MODEL 7
REMARK VINA RESULT:    -8.409      2.337      4.388
REMARK INTER + INTRA:         -16.403
REMARK INTER:                 -12.585
REMARK INTRA:                  -3.818
REMARK CONF_INDEPENDENT:        4.176
REMARK UNBOUND:                -3.818
REMARK  14 active torsions:
REMARK  status: ('A' for Active; 'I' for Inactive)
REMARK    1  A    between atoms: C_2  and  N_3 
REMARK    2  A    between atoms: C_2  and  C_14 
REMARK       I    between atoms: N_3  and  C_4 
REMARK    3  A    between atoms: C_4  and  O_6 
REMARK    4  A    between atoms: O_6  and  C_7 
REMARK    5  A    between atoms: C_7  and  C_8 
REMARK       I    between atoms: C_14  and  N_16 
REMARK    6  A    between atoms: N_16  and  C_17 
REMARK    7  A    between atoms: C_17  and  C_18 
REMARK    8  A    between atoms: C_17  and  C_27 
REMARK    9  A    between atoms: C_18  and  S_19 
REMARK   10  A    between atoms: S_19  and  C_20 
REMARK   11  A    between atoms: C_20  and  C_21 
REMARK   12  A    between atoms: C_27  and  O_29 
REMARK   13  A    between atoms: O_29  and  C_30 
REMARK   14  A    between atoms: C_30  and  C_31 
ROOT
ATOM      1  C   UNL d   1      28.144 -16.604   0.203  0.00  0.00     0.193 C 
ENDROOT
BRANCH   1   2
ATOM      2  N   UNL d   1      26.661 -16.352   0.100  0.00  0.00    -0.345 N 
ATOM      3  C   UNL d   1      25.724 -17.364  -0.046  0.00  0.00     0.240 C 
ATOM      4  O   UNL d   1      26.021 -18.551   0.064  0.00  0.00    -0.271 OA
ATOM      5  H   UNL d   1      26.341 -15.419   0.343  0.00  0.00     0.163 HD
BRANCH   3   6
ATOM      6  C   UNL d   1      24.242 -16.973  -0.270  0.00  0.00     0.174 C 
ATOM      7  C   UNL d   1      24.205 -15.919  -1.397  0.00  0.00     0.042 C 
BRANCH   6   8
ATOM      8  N   UNL d   1      23.484 -18.169  -0.627  0.00  0.00    -0.324 N 
ATOM      9  C   UNL d   1      22.159 -18.120  -0.954  0.00  0.00     0.361 C 
ATOM     10  O   UNL d   1      21.465 -17.107  -0.894  0.00  0.00    -0.238 OA
ATOM     11  H   UNL d   1      23.971 -19.043  -0.780  0.00  0.00     0.165 HD
BRANCH   9  12
ATOM     12  O   UNL d   1      21.705 -19.331  -1.360  0.00  0.00    -0.299 OA
BRANCH  12  13
ATOM     13  C   UNL d   1      20.269 -19.436  -1.325  0.00  0.00     0.219 C 
BRANCH  13  14
ATOM     14  C   UNL d   1      19.786 -19.980   0.003  0.00  0.00    -0.034 A 
ATOM     15  C   UNL d   1      18.615 -20.754   0.073  0.00  0.00     0.009 A 
ATOM     16  C   UNL d   1      18.089 -21.140   1.310  0.00  0.00     0.001 A 
ATOM     17  C   UNL d   1      18.766 -20.824   2.485  0.00  0.00     0.000 A 
ATOM     18  C   UNL d   1      19.933 -20.067   2.429  0.00  0.00     0.001 A 
ATOM     19  C   UNL d   1      20.429 -19.631   1.198  0.00  0.00     0.009 A 
ENDBRANCH  13  14
ENDBRANCH  12  13
ENDBRANCH   9  12
ENDBRANCH   6   8
ENDBRANCH   3   6
ENDBRANCH   1   2
BRANCH   1  20
ATOM     20  C   UNL d   1      28.663 -17.604  -0.879  0.00  0.00     0.109 C 
BRANCH  20  21
ATOM     21  S   UNL d   1      30.011 -16.826  -1.820  0.00  0.00    -0.162 SA
BRANCH  21  22
ATOM     22  C   UNL d   1      30.229 -17.755  -3.360  0.00  0.00     0.112 C 
BRANCH  22  23
ATOM     23  C   UNL d   1      30.097 -16.842  -4.580  0.00  0.00    -0.049 A 
ATOM     24  C   UNL d   1      30.400 -17.341  -5.854  0.00  0.00     0.008 A 
ATOM     25  C   UNL d   1      30.402 -16.494  -6.971  0.00  0.00     0.001 A 
ATOM     26  C   UNL d   1      30.017 -15.159  -6.850  0.00  0.00     0.000 A 
ATOM     27  C   UNL d   1      29.683 -14.651  -5.604  0.00  0.00     0.001 A 
ATOM     28  C   UNL d   1      29.748 -15.478  -4.482  0.00  0.00     0.008 A 
ENDBRANCH  22  23
ENDBRANCH  21  22
ENDBRANCH  20  21
ENDBRANCH   1  20
BRANCH   1  29
ATOM     29  C   UNL d   1      28.920 -15.267   0.074  0.00  0.00     0.282 C 
ATOM     30  O   UNL d   1      30.122 -15.161   0.294  0.00  0.00    -0.263 OA
BRANCH  29  31
ATOM     31  O   UNL d   1      28.123 -14.233  -0.330  0.00  0.00    -0.315 OA
BRANCH  31  32
ATOM     32  C   UNL d   1      28.459 -13.637  -1.605  0.00  0.00     0.217 C 
BRANCH  32  33
ATOM     33  C   UNL d   1      27.307 -13.824  -2.572  0.00  0.00    -0.034 A 
ATOM     34  C   UNL d   1      26.476 -12.766  -2.977  0.00  0.00     0.009 A 
ATOM     35  C   UNL d   1      25.385 -13.005  -3.826  0.00  0.00     0.001 A 
ATOM     36  C   UNL d   1      25.158 -14.283  -4.333  0.00  0.00     0.000 A 
ATOM     37  C   UNL d   1      25.971 -15.339  -3.932  0.00  0.00     0.001 A 
ATOM     38  C   UNL d   1      27.023 -15.113  -3.044  0.00  0.00     0.009 A 
ENDBRANCH  32  33
ENDBRANCH  31  32
ENDBRANCH  29  31
ENDBRANCH   1  29
TORSDOF 14
ENDMDL
MODEL 8
REMARK VINA RESULT:    -7.773      2.975      8.285
REMARK INTER + INTRA:         -16.726
REMARK INTER:                 -11.949
REMARK INTRA:                  -4.777
REMARK CONF_INDEPENDENT:        4.176
REMARK UNBOUND:                -4.777
REMARK  14 active torsions:
REMARK  status: ('A' for Active; 'I' for Inactive)
REMARK    1  A    between atoms: C_2  and  N_3 
REMARK    2  A    between atoms: C_2  and  C_14 
REMARK       I    between atoms: N_3  and  C_4 
REMARK    3  A    between atoms: C_4  and  O_6 
REMARK    4  A    between atoms: O_6  and  C_7 
REMARK    5  A    between atoms: C_7  and  C_8 
REMARK       I    between atoms: C_14  and  N_16 
REMARK    6  A    between atoms: N_16  and  C_17 
REMARK    7  A    between atoms: C_17  and  C_18 
REMARK    8  A    between atoms: C_17  and  C_27 
REMARK    9  A    between atoms: C_18  and  S_19 
REMARK   10  A    between atoms: S_19  and  C_20 
REMARK   11  A    between atoms: C_20  and  C_21 
REMARK   12  A    between atoms: C_27  and  O_29 
REMARK   13  A    between atoms: O_29  and  C_30 
REMARK   14  A    between atoms: C_30  and  C_31 
ROOT
ATOM      1  C   UNL d   1      27.206 -13.976  -0.302  0.00  0.00     0.193 C 
ENDROOT
BRANCH   1   2
ATOM      2  N   UNL d   1      26.672 -13.841  -1.705  0.00  0.00    -0.345 N 
ATOM      3  C   UNL d   1      26.549 -12.626  -2.362  0.00  0.00     0.240 C 
ATOM      4  O   UNL d   1      27.021 -11.586  -1.906  0.00  0.00    -0.271 OA
ATOM      5  H   UNL d   1      26.587 -14.699  -2.243  0.00  0.00     0.163 HD
BRANCH   3   6
ATOM      6  C   UNL d   1      25.868 -12.601  -3.752  0.00  0.00     0.174 C 
ATOM      7  C   UNL d   1      25.901 -11.143  -4.259  0.00  0.00     0.042 C 
BRANCH   6   8
ATOM      8  N   UNL d   1      26.589 -13.499  -4.651  0.00  0.00    -0.324 N 
ATOM      9  C   UNL d   1      26.314 -14.834  -4.719  0.00  0.00     0.361 C 
ATOM     10  O   UNL d   1      25.518 -15.419  -3.986  0.00  0.00    -0.238 OA
ATOM     11  H   UNL d   1      27.211 -13.113  -5.350  0.00  0.00     0.165 HD
BRANCH   9  12
ATOM     12  O   UNL d   1      27.025 -15.436  -5.704  0.00  0.00    -0.299 OA
BRANCH  12  13
ATOM     13  C   UNL d   1      28.417 -15.064  -5.702  0.00  0.00     0.219 C 
BRANCH  13  14
ATOM     14  C   UNL d   1      29.195 -15.838  -4.659  0.00  0.00    -0.034 A 
ATOM     15  C   UNL d   1      29.845 -17.037  -4.998  0.00  0.00     0.009 A 
ATOM     16  C   UNL d   1      30.445 -17.826  -4.011  0.00  0.00     0.001 A 
ATOM     17  C   UNL d   1      30.468 -17.391  -2.689  0.00  0.00     0.000 A 
ATOM     18  C   UNL d   1      29.836 -16.200  -2.340  0.00  0.00     0.001 A 
ATOM     19  C   UNL d   1      29.188 -15.439  -3.315  0.00  0.00     0.009 A 
ENDBRANCH  13  14
ENDBRANCH  12  13
ENDBRANCH   9  12
ENDBRANCH   6   8
ENDBRANCH   3   6
ENDBRANCH   1   2
BRANCH   1  20
ATOM     20  C   UNL d   1      26.282 -13.303   0.762  0.00  0.00     0.109 C 
BRANCH  20  21
ATOM     21  S   UNL d   1      27.187 -11.952   1.577  0.00  0.00    -0.162 SA
BRANCH  21  22
ATOM     22  C   UNL d   1      28.823 -12.574   2.043  0.00  0.00     0.112 C 
BRANCH  22  23
ATOM     23  C   UNL d   1      28.742 -13.473   3.279  0.00  0.00    -0.049 A 
ATOM     24  C   UNL d   1      27.503 -13.685   3.899  0.00  0.00     0.008 A 
ATOM     25  C   UNL d   1      27.420 -14.406   5.098  0.00  0.00     0.001 A 
ATOM     26  C   UNL d   1      28.554 -15.000   5.650  0.00  0.00     0.000 A 
ATOM     27  C   UNL d   1      29.786 -14.829   5.036  0.00  0.00     0.001 A 
ATOM     28  C   UNL d   1      29.879 -14.055   3.879  0.00  0.00     0.008 A 
ENDBRANCH  22  23
ENDBRANCH  21  22
ENDBRANCH  20  21
ENDBRANCH   1  20
BRANCH   1  29
ATOM     29  C   UNL d   1      27.386 -15.475   0.055  0.00  0.00     0.282 C 
ATOM     30  O   UNL d   1      27.711 -15.868   1.172  0.00  0.00    -0.263 OA
BRANCH  29  31
ATOM     31  O   UNL d   1      27.124 -16.303  -1.000  0.00  0.00    -0.315 OA
BRANCH  31  32
ATOM     32  C   UNL d   1      26.576 -17.599  -0.664  0.00  0.00     0.217 C 
BRANCH  32  33
ATOM     33  C   UNL d   1      25.063 -17.518  -0.633  0.00  0.00    -0.034 A 
ATOM     34  C   UNL d   1      24.357 -16.362  -1.009  0.00  0.00     0.009 A 
ATOM     35  C   UNL d   1      22.959 -16.318  -0.903  0.00  0.00     0.001 A 
ATOM     36  C   UNL d   1      22.251 -17.446  -0.491  0.00  0.00     0.000 A 
ATOM     37  C   UNL d   1      22.942 -18.594  -0.111  0.00  0.00     0.001 A 
ATOM     38  C   UNL d   1      24.335 -18.620  -0.163  0.00  0.00     0.009 A 
ENDBRANCH  32  33
ENDBRANCH  31  32
ENDBRANCH  29  31
ENDBRANCH   1  29
TORSDOF 14
ENDMDL
MODEL 9
REMARK VINA RESULT:    -6.540      3.486      8.154
REMARK INTER + INTRA:         -16.356
REMARK INTER:                 -10.716
REMARK INTRA:                  -5.640
REMARK CONF_INDEPENDENT:        4.176
REMARK UNBOUND:                -5.640
REMARK  14 active torsions:
REMARK  status: ('A' for Active; 'I' for Inactive)
REMARK    1  A    between atoms: C_2  and  N_3 
REMARK    2  A    between atoms: C_2  and  C_14 
REMARK       I    between atoms: N_3  and  C_4 
REMARK    3  A    between atoms: C_4  and  O_6 
REMARK    4  A    between atoms: O_6  and  C_7 
REMARK    5  A    between atoms: C_7  and  C_8 
REMARK       I    between atoms: C_14  and  N_16 
REMARK    6  A    between atoms: N_16  and  C_17 
REMARK    7  A    between atoms: C_17  and  C_18 
REMARK    8  A    between atoms: C_17  and  C_27 
REMARK    9  A    between atoms: C_18  and  S_19 
REMARK   10  A    between atoms: S_19  and  C_20 
REMARK   11  A    between atoms: C_20  and  C_21 
REMARK   12  A    between atoms: C_27  and  O_29 
REMARK   13  A    between atoms: O_29  and  C_30 
REMARK   14  A    between atoms: C_30  and  C_31 
ROOT
ATOM      1  C   UNL d   1      28.720 -12.763  -1.123  0.00  0.00     0.193 C 
ENDROOT
BRANCH   1   2
ATOM      2  N   UNL d   1      27.397 -12.550  -1.812  0.00  0.00    -0.345 N 
ATOM      3  C   UNL d   1      27.114 -11.441  -2.594  0.00  0.00     0.240 C 
ATOM      4  O   UNL d   1      27.980 -10.631  -2.917  0.00  0.00    -0.271 OA
ATOM      5  H   UNL d   1      26.772 -13.350  -1.852  0.00  0.00     0.163 HD
BRANCH   3   6
ATOM      6  C   UNL d   1      25.677 -11.271  -3.145  0.00  0.00     0.174 C 
ATOM      7  C   UNL d   1      25.612  -9.903  -3.858  0.00  0.00     0.042 C 
BRANCH   6   8
ATOM      8  N   UNL d   1      25.386 -12.370  -4.062  0.00  0.00    -0.324 N 
ATOM      9  C   UNL d   1      25.127 -13.636  -3.622  0.00  0.00     0.361 C 
ATOM     10  O   UNL d   1      25.202 -13.993  -2.447  0.00  0.00    -0.238 OA
ATOM     11  H   UNL d   1      25.226 -12.174  -5.043  0.00  0.00     0.165 HD
BRANCH   9  12
ATOM     12  O   UNL d   1      24.771 -14.451  -4.644  0.00  0.00    -0.299 OA
BRANCH  12  13
ATOM     13  C   UNL d   1      25.727 -15.501  -4.888  0.00  0.00     0.219 C 
BRANCH  13  14
ATOM     14  C   UNL d   1      27.146 -14.972  -4.870  0.00  0.00    -0.034 A 
ATOM     15  C   UNL d   1      27.544 -13.969  -5.771  0.00  0.00     0.009 A 
ATOM     16  C   UNL d   1      28.884 -13.578  -5.854  0.00  0.00     0.001 A 
ATOM     17  C   UNL d   1      29.826 -14.126  -4.988  0.00  0.00     0.000 A 
ATOM     18  C   UNL d   1      29.443 -15.114  -4.084  0.00  0.00     0.001 A 
ATOM     19  C   UNL d   1      28.116 -15.547  -4.039  0.00  0.00     0.009 A 
ENDBRANCH  13  14
ENDBRANCH  12  13
ENDBRANCH   9  12
ENDBRANCH   6   8
ENDBRANCH   3   6
ENDBRANCH   1   2
BRANCH   1  20
ATOM     20  C   UNL d   1      28.816 -12.015   0.245  0.00  0.00     0.109 C 
BRANCH  20  21
ATOM     21  S   UNL d   1      27.188 -12.029   1.055  0.00  0.00    -0.162 SA
BRANCH  21  22
ATOM     22  C   UNL d   1      26.921 -13.681   1.749  0.00  0.00     0.112 C 
BRANCH  22  23
ATOM     23  C   UNL d   1      27.822 -13.923   2.962  0.00  0.00    -0.049 A 
ATOM     24  C   UNL d   1      29.203 -14.075   2.780  0.00  0.00     0.008 A 
ATOM     25  C   UNL d   1      30.033 -14.414   3.857  0.00  0.00     0.001 A 
ATOM     26  C   UNL d   1      29.514 -14.521   5.147  0.00  0.00     0.000 A 
ATOM     27  C   UNL d   1      28.155 -14.344   5.356  0.00  0.00     0.001 A 
ATOM     28  C   UNL d   1      27.319 -14.073   4.272  0.00  0.00     0.008 A 
ENDBRANCH  22  23
ENDBRANCH  21  22
ENDBRANCH  20  21
ENDBRANCH   1  20
BRANCH   1  29
ATOM     29  C   UNL d   1      28.960 -14.279  -0.891  0.00  0.00     0.282 C 
ATOM     30  O   UNL d   1      30.056 -14.752  -0.606  0.00  0.00    -0.263 OA
BRANCH  29  31
ATOM     31  O   UNL d   1      27.819 -15.018  -1.020  0.00  0.00    -0.315 OA
BRANCH  31  32
ATOM     32  C   UNL d   1      27.793 -16.271  -0.296  0.00  0.00     0.217 C 
BRANCH  32  33
ATOM     33  C   UNL d   1      26.433 -16.920  -0.454  0.00  0.00    -0.034 A 
ATOM     34  C   UNL d   1      25.933 -17.868   0.456  0.00  0.00     0.009 A 
ATOM     35  C   UNL d   1      24.693 -18.484   0.230  0.00  0.00     0.001 A 
ATOM     36  C   UNL d   1      23.913 -18.110  -0.863  0.00  0.00     0.000 A 
ATOM     37  C   UNL d   1      24.402 -17.178  -1.774  0.00  0.00     0.001 A 
ATOM     38  C   UNL d   1      25.659 -16.604  -1.580  0.00  0.00     0.009 A 
ENDBRANCH  32  33
ENDBRANCH  31  32
ENDBRANCH  29  31
ENDBRANCH   1  29
TORSDOF 14
ENDMDL
