MODEL 1
REMARK VINA RESULT:    -9.818      0.000      0.000
REMARK INTER + INTRA:         -14.003
REMARK INTER:                 -12.503
REMARK INTRA:                  -1.500
REMARK CONF_INDEPENDENT:        2.685
REMARK UNBOUND:                -1.500
REMARK  9 active torsions:
REMARK  status: ('A' for Active; 'I' for Inactive)
REMARK    1  A    between atoms: C_2  and  C_3 
REMARK    2  A    between atoms: C_3  and  C_4 
REMARK    3  A    between atoms: C_4  and  O_5 
REMARK    4  A    between atoms: O_5  and  C_6 
REMARK    5  A    between atoms: C_9  and  C_10 
REMARK    6  A    between atoms: C_12  and  C_13 
REMARK       I    between atoms: C_13  and  N_15 
REMARK    7  A    between atoms: N_15  and  N_16 
REMARK    8  A    between atoms: C_17  and  C_18 
REMARK    9  A    between atoms: C_19  and  O_20 
ROOT
ATOM      1  C   UNL d   1      29.369 -14.063   2.426  0.00  0.00     0.289 C 
ATOM      2  O   UNL d   1      29.864 -12.969   2.157  0.00  0.00    -0.264 OA
ATOM      3  N   UNL d   1      29.422 -14.608   3.751  0.00  0.00    -0.242 N 
ATOM      4  H   UNL d   1      29.013 -15.508   3.974  0.00  0.00     0.192 HD
ENDROOT
BRANCH   1   5
ATOM      5  C   UNL d   1      28.697 -14.854   1.379  0.00  0.00     0.121 A 
ATOM      6  C   UNL d   1      27.449 -15.431   1.349  0.00  0.00     0.071 A 
ATOM      7  C   UNL d   1      27.277 -16.092   0.113  0.00  0.00     0.089 A 
ATOM      8  N   UNL d   1      28.383 -15.940  -0.639  0.00  0.00    -0.174 NA
ATOM      9  N   UNL d   1      29.221 -15.193   0.142  0.00  0.00    -0.272 N 
ATOM     10  H   UNL d   1      30.144 -14.940  -0.208  0.00  0.00     0.189 HD
BRANCH   7  11
ATOM     11  C   UNL d   1      26.075 -16.823  -0.306  0.00  0.00    -0.005 C 
ATOM     12  C   UNL d   1      25.301 -16.405  -1.373  0.00  0.00     0.016 C 
ATOM     13  C   UNL d   1      24.031 -16.945  -1.638  0.00  0.00     0.037 C 
ATOM     14  C   UNL d   1      23.627 -18.098  -0.991  0.00  0.00     0.068 C 
ATOM     15  C   UNL d   1      24.440 -18.584   0.009  0.00  0.00     0.037 C 
ATOM     16  C   UNL d   1      25.651 -17.969   0.336  0.00  0.00     0.016 C 
BRANCH  14  17
ATOM     17  O   UNL d   1      22.528 -18.775  -1.437  0.00  0.00    -0.351 OA
BRANCH  17  18
ATOM     18  C   UNL d   1      21.642 -19.288  -0.433  0.00  0.00     0.175 C 
BRANCH  18  19
ATOM     19  C   UNL d   1      20.207 -18.952  -0.817  0.00  0.00     0.026 C 
BRANCH  19  20
ATOM     20  C   UNL d   1      19.231 -19.904  -0.153  0.00  0.00    -0.002 C 
ATOM     21  C   UNL d   1      19.695 -20.250   1.241  0.00  0.00     0.005 C 
ENDBRANCH  19  20
ENDBRANCH  18  19
ENDBRANCH  17  18
ENDBRANCH  14  17
ENDBRANCH   7  11
ENDBRANCH   1   5
BRANCH   3  22
ATOM     22  N   UNL d   1      30.058 -13.886   4.774  0.00  0.00    -0.183 NA
ATOM     23  C   UNL d   1      29.450 -13.648   5.897  0.00  0.00     0.153 C 
BRANCH  23  24
ATOM     24  C   UNL d   1      30.114 -12.874   6.988  0.00  0.00     0.027 C 
ATOM     25  C   UNL d   1      31.330 -12.219   6.725  0.00  0.00     0.078 C 
ATOM     26  C   UNL d   1      32.041 -11.728   7.823  0.00  0.00     0.038 C 
ATOM     27  C   UNL d   1      31.489 -11.651   9.085  0.00  0.00     0.015 C 
ATOM     28  C   UNL d   1      30.309 -12.280   9.326  0.00  0.00    -0.025 C 
ATOM     29  C   UNL d   1      29.944 -12.316  10.628  0.00  0.00     0.009 C 
ATOM     30  C   UNL d   1      29.511 -12.876   8.367  0.00  0.00    -0.015 C 
ATOM     31  C   UNL d   1      28.713 -12.850  10.771  0.00  0.00    -0.016 C 
ATOM     32  C   UNL d   1      27.561 -13.324  10.965  0.00  0.00     0.043 C 
ATOM     33  C   UNL d   1      28.156 -13.322   9.165  0.00  0.00    -0.004 C 
BRANCH  25  34
ATOM     34  O   UNL d   1      31.852 -11.963   5.480  0.00  0.00    -0.360 OA
ATOM     35  H   UNL d   1      31.926 -12.737   4.889  0.00  0.00     0.217 HD
ENDBRANCH  25  34
ENDBRANCH  23  24
ENDBRANCH   3  22
TORSDOF 9
ENDMDL
MODEL 2
REMARK VINA RESULT:    -9.112      7.025     10.791
REMARK INTER + INTRA:         -13.372
REMARK INTER:                 -11.797
REMARK INTRA:                  -1.575
REMARK CONF_INDEPENDENT:        2.685
REMARK UNBOUND:                -1.575
REMARK  9 active torsions:
REMARK  status: ('A' for Active; 'I' for Inactive)
REMARK    1  A    between atoms: C_2  and  C_3 
REMARK    2  A    between atoms: C_3  and  C_4 
REMARK    3  A    between atoms: C_4  and  O_5 
REMARK    4  A    between atoms: O_5  and  C_6 
REMARK    5  A    between atoms: C_9  and  C_10 
REMARK    6  A    between atoms: C_12  and  C_13 
REMARK       I    between atoms: C_13  and  N_15 
REMARK    7  A    between atoms: N_15  and  N_16 
REMARK    8  A    between atoms: C_17  and  C_18 
REMARK    9  A    between atoms: C_19  and  O_20 
ROOT
ATOM      1  C   UNL d   1      29.124 -16.624  -1.986  0.00  0.00     0.289 C 
ATOM      2  O   UNL d   1      30.228 -16.641  -1.442  0.00  0.00    -0.264 OA
ATOM      3  N   UNL d   1      28.978 -16.335  -3.383  0.00  0.00    -0.242 N 
ATOM      4  H   UNL d   1      28.070 -16.322  -3.833  0.00  0.00     0.192 HD
ENDROOT
BRANCH   1   5
ATOM      5  C   UNL d   1      27.905 -16.906  -1.207  0.00  0.00     0.121 A 
ATOM      6  C   UNL d   1      26.603 -17.094  -1.610  0.00  0.00     0.071 A 
ATOM      7  C   UNL d   1      25.799 -17.331  -0.473  0.00  0.00     0.089 A 
ATOM      8  N   UNL d   1      26.563 -17.303   0.635  0.00  0.00    -0.174 NA
ATOM      9  N   UNL d   1      27.823 -17.047   0.169  0.00  0.00    -0.272 N 
ATOM     10  H   UNL d   1      28.598 -16.974   0.826  0.00  0.00     0.189 HD
BRANCH   7  11
ATOM     11  C   UNL d   1      24.353 -17.585  -0.485  0.00  0.00    -0.005 C 
ATOM     12  C   UNL d   1      23.830 -18.836  -0.216  0.00  0.00     0.016 C 
ATOM     13  C   UNL d   1      22.482 -19.154  -0.454  0.00  0.00     0.037 C 
ATOM     14  C   UNL d   1      21.575 -18.146  -0.722  0.00  0.00     0.068 C 
ATOM     15  C   UNL d   1      22.073 -16.873  -0.894  0.00  0.00     0.037 C 
ATOM     16  C   UNL d   1      23.435 -16.592  -0.762  0.00  0.00     0.016 C 
BRANCH  14  17
ATOM     17  O   UNL d   1      20.237 -18.410  -0.682  0.00  0.00    -0.351 OA
BRANCH  17  18
ATOM     18  C   UNL d   1      19.855 -19.716  -0.229  0.00  0.00     0.175 C 
BRANCH  18  19
ATOM     19  C   UNL d   1      19.722 -19.696   1.288  0.00  0.00     0.026 C 
BRANCH  19  20
ATOM     20  C   UNL d   1      18.770 -20.779   1.762  0.00  0.00    -0.002 C 
ATOM     21  C   UNL d   1      17.964 -21.317   0.606  0.00  0.00     0.005 C 
ENDBRANCH  19  20
ENDBRANCH  18  19
ENDBRANCH  17  18
ENDBRANCH  14  17
ENDBRANCH   7  11
ENDBRANCH   1   5
BRANCH   3  22
ATOM     22  N   UNL d   1      30.116 -16.057  -4.158  0.00  0.00    -0.183 NA
ATOM     23  C   UNL d   1      30.245 -16.550  -5.352  0.00  0.00     0.153 C 
BRANCH  23  24
ATOM     24  C   UNL d   1      31.455 -16.267  -6.180  0.00  0.00     0.027 C 
ATOM     25  C   UNL d   1      32.204 -15.104  -5.931  0.00  0.00     0.078 C 
ATOM     26  C   UNL d   1      33.164 -14.748  -6.880  0.00  0.00     0.038 C 
ATOM     27  C   UNL d   1      33.556 -15.601  -7.891  0.00  0.00     0.015 C 
ATOM     28  C   UNL d   1      32.831 -16.727  -8.118  0.00  0.00    -0.025 C 
ATOM     29  C   UNL d   1      33.168 -17.399  -9.242  0.00  0.00     0.009 C 
ATOM     30  C   UNL d   1      31.804 -17.191  -7.316  0.00  0.00    -0.015 C 
ATOM     31  C   UNL d   1      32.487 -18.560  -9.335  0.00  0.00    -0.016 C 
ATOM     32  C   UNL d   1      31.895 -19.665  -9.466  0.00  0.00     0.043 C 
ATOM     33  C   UNL d   1      31.402 -18.645  -7.946  0.00  0.00    -0.004 C 
BRANCH  25  34
ATOM     34  O   UNL d   1      32.118 -14.319  -4.805  0.00  0.00    -0.360 OA
ATOM     35  H   UNL d   1      31.912 -14.795  -3.978  0.00  0.00     0.217 HD
ENDBRANCH  25  34
ENDBRANCH  23  24
ENDBRANCH   3  22
TORSDOF 9
ENDMDL
MODEL 3
REMARK VINA RESULT:    -8.919      3.850      5.606
REMARK INTER + INTRA:         -12.671
REMARK INTER:                 -11.604
REMARK INTRA:                  -1.067
REMARK CONF_INDEPENDENT:        2.685
REMARK UNBOUND:                -1.067
REMARK  9 active torsions:
REMARK  status: ('A' for Active; 'I' for Inactive)
REMARK    1  A    between atoms: C_2  and  C_3 
REMARK    2  A    between atoms: C_3  and  C_4 
REMARK    3  A    between atoms: C_4  and  O_5 
REMARK    4  A    between atoms: O_5  and  C_6 
REMARK    5  A    between atoms: C_9  and  C_10 
REMARK    6  A    between atoms: C_12  and  C_13 
REMARK       I    between atoms: C_13  and  N_15 
REMARK    7  A    between atoms: N_15  and  N_16 
REMARK    8  A    between atoms: C_17  and  C_18 
REMARK    9  A    between atoms: C_19  and  O_20 
ROOT
ATOM      1  C   UNL d   1      29.207 -15.131   0.120  0.00  0.00     0.289 C 
ATOM      2  O   UNL d   1      29.415 -14.337  -0.797  0.00  0.00    -0.264 OA
ATOM      3  N   UNL d   1      30.026 -15.152   1.298  0.00  0.00    -0.242 N 
ATOM      4  H   UNL d   1      29.855 -15.804   2.054  0.00  0.00     0.192 HD
ENDROOT
BRANCH   1   5
ATOM      5  C   UNL d   1      28.096 -16.095   0.033  0.00  0.00     0.121 A 
ATOM      6  C   UNL d   1      26.747 -15.899  -0.150  0.00  0.00     0.071 A 
ATOM      7  C   UNL d   1      26.096 -17.153  -0.155  0.00  0.00     0.089 A 
ATOM      8  N   UNL d   1      27.002 -18.133   0.012  0.00  0.00    -0.174 NA
ATOM      9  N   UNL d   1      28.196 -17.474   0.123  0.00  0.00    -0.272 N 
ATOM     10  H   UNL d   1      29.053 -18.006   0.262  0.00  0.00     0.189 HD
BRANCH   7  11
ATOM     11  C   UNL d   1      24.654 -17.367  -0.332  0.00  0.00    -0.005 C 
ATOM     12  C   UNL d   1      24.091 -18.628  -0.268  0.00  0.00     0.016 C 
ATOM     13  C   UNL d   1      22.767 -18.881  -0.666  0.00  0.00     0.037 C 
ATOM     14  C   UNL d   1      21.904 -17.826  -0.892  0.00  0.00     0.068 C 
ATOM     15  C   UNL d   1      22.433 -16.554  -0.861  0.00  0.00     0.037 C 
ATOM     16  C   UNL d   1      23.781 -16.325  -0.570  0.00  0.00     0.016 C 
BRANCH  14  17
ATOM     17  O   UNL d   1      20.564 -18.059  -1.009  0.00  0.00    -0.351 OA
BRANCH  17  18
ATOM     18  C   UNL d   1      20.170 -19.413  -1.270  0.00  0.00     0.175 C 
BRANCH  18  19
ATOM     19  C   UNL d   1      19.173 -19.854  -0.206  0.00  0.00     0.026 C 
BRANCH  19  20
ATOM     20  C   UNL d   1      19.867 -20.093   1.122  0.00  0.00    -0.002 C 
ATOM     21  C   UNL d   1      18.861 -20.448   2.188  0.00  0.00     0.005 C 
ENDBRANCH  19  20
ENDBRANCH  18  19
ENDBRANCH  17  18
ENDBRANCH  14  17
ENDBRANCH   7  11
ENDBRANCH   1   5
BRANCH   3  22
ATOM     22  N   UNL d   1      31.097 -14.252   1.415  0.00  0.00    -0.183 NA
ATOM     23  C   UNL d   1      31.047 -13.265   2.258  0.00  0.00     0.153 C 
BRANCH  23  24
ATOM     24  C   UNL d   1      32.178 -12.297   2.383  0.00  0.00     0.027 C 
ATOM     25  C   UNL d   1      32.397 -11.649   3.611  0.00  0.00     0.078 C 
ATOM     26  C   UNL d   1      33.289 -10.574   3.616  0.00  0.00     0.038 C 
ATOM     27  C   UNL d   1      34.115 -10.296   2.547  0.00  0.00     0.015 C 
ATOM     28  C   UNL d   1      33.900 -10.933   1.367  0.00  0.00    -0.025 C 
ATOM     29  C   UNL d   1      34.627 -10.460   0.329  0.00  0.00     0.009 C 
ATOM     30  C   UNL d   1      33.009 -11.973   1.171  0.00  0.00    -0.015 C 
ATOM     31  C   UNL d   1      34.446 -11.216  -0.774  0.00  0.00    -0.016 C 
ATOM     32  C   UNL d   1      34.330 -11.896  -1.829  0.00  0.00     0.043 C 
ATOM     33  C   UNL d   1      33.272 -12.469  -0.364  0.00  0.00    -0.004 C 
BRANCH  25  34
ATOM     34  O   UNL d   1      31.859 -12.018   4.821  0.00  0.00    -0.360 OA
ATOM     35  H   UNL d   1      32.364 -12.692   5.316  0.00  0.00     0.217 HD
ENDBRANCH  25  34
ENDBRANCH  23  24
ENDBRANCH   3  22
TORSDOF 9
ENDMDL
MODEL 4
REMARK VINA RESULT:    -8.711      2.662      3.799
REMARK INTER + INTRA:         -12.921
REMARK INTER:                 -11.396
REMARK INTRA:                  -1.525
REMARK CONF_INDEPENDENT:        2.685
REMARK UNBOUND:                -1.525
REMARK  9 active torsions:
REMARK  status: ('A' for Active; 'I' for Inactive)
REMARK    1  A    between atoms: C_2  and  C_3 
REMARK    2  A    between atoms: C_3  and  C_4 
REMARK    3  A    between atoms: C_4  and  O_5 
REMARK    4  A    between atoms: O_5  and  C_6 
REMARK    5  A    between atoms: C_9  and  C_10 
REMARK    6  A    between atoms: C_12  and  C_13 
REMARK       I    between atoms: C_13  and  N_15 
REMARK    7  A    between atoms: N_15  and  N_16 
REMARK    8  A    between atoms: C_17  and  C_18 
REMARK    9  A    between atoms: C_19  and  O_20 
ROOT
ATOM      1  C   UNL d   1      29.117 -14.900   0.352  0.00  0.00     0.289 C 
ATOM      2  O   UNL d   1      29.158 -13.900  -0.365  0.00  0.00    -0.264 OA
ATOM      3  N   UNL d   1      30.086 -15.124   1.386  0.00  0.00    -0.242 N 
ATOM      4  H   UNL d   1      30.053 -15.946   1.978  0.00  0.00     0.192 HD
ENDROOT
BRANCH   1   5
ATOM      5  C   UNL d   1      28.056 -15.907   0.168  0.00  0.00     0.121 A 
ATOM      6  C   UNL d   1      26.710 -15.761  -0.071  0.00  0.00     0.071 A 
ATOM      7  C   UNL d   1      26.118 -17.041  -0.165  0.00  0.00     0.089 A 
ATOM      8  N   UNL d   1      27.060 -17.987   0.002  0.00  0.00    -0.174 NA
ATOM      9  N   UNL d   1      28.215 -17.282   0.199  0.00  0.00    -0.272 N 
ATOM     10  H   UNL d   1      29.089 -17.782   0.355  0.00  0.00     0.189 HD
BRANCH   7  11
ATOM     11  C   UNL d   1      24.698 -17.310  -0.421  0.00  0.00    -0.005 C 
ATOM     12  C   UNL d   1      23.838 -16.326  -0.872  0.00  0.00     0.016 C 
ATOM     13  C   UNL d   1      22.444 -16.499  -0.895  0.00  0.00     0.037 C 
ATOM     14  C   UNL d   1      21.904 -17.757  -0.709  0.00  0.00     0.068 C 
ATOM     15  C   UNL d   1      22.766 -18.772  -0.355  0.00  0.00     0.037 C 
ATOM     16  C   UNL d   1      24.141 -18.559  -0.229  0.00  0.00     0.016 C 
BRANCH  14  17
ATOM     17  O   UNL d   1      20.589 -17.981  -0.999  0.00  0.00    -0.351 OA
BRANCH  17  18
ATOM     18  C   UNL d   1      20.149 -19.344  -0.965  0.00  0.00     0.175 C 
BRANCH  18  19
ATOM     19  C   UNL d   1      19.543 -19.637   0.402  0.00  0.00     0.026 C 
BRANCH  19  20
ATOM     20  C   UNL d   1      19.363 -21.130   0.606  0.00  0.00    -0.002 C 
ATOM     21  C   UNL d   1      17.899 -21.472   0.741  0.00  0.00     0.005 C 
ENDBRANCH  19  20
ENDBRANCH  18  19
ENDBRANCH  17  18
ENDBRANCH  14  17
ENDBRANCH   7  11
ENDBRANCH   1   5
BRANCH   3  22
ATOM     22  N   UNL d   1      31.114 -14.190   1.589  0.00  0.00    -0.183 NA
ATOM     23  C   UNL d   1      31.164 -13.481   2.676  0.00  0.00     0.153 C 
BRANCH  23  24
ATOM     24  C   UNL d   1      32.248 -12.478   2.898  0.00  0.00     0.027 C 
ATOM     25  C   UNL d   1      33.212 -12.273   1.895  0.00  0.00     0.078 C 
ATOM     26  C   UNL d   1      34.341 -11.527   2.239  0.00  0.00     0.038 C 
ATOM     27  C   UNL d   1      34.421 -10.805   3.412  0.00  0.00     0.015 C 
ATOM     28  C   UNL d   1      33.480 -11.005   4.371  0.00  0.00    -0.025 C 
ATOM     29  C   UNL d   1      33.744 -10.405   5.555  0.00  0.00     0.009 C 
ATOM     30  C   UNL d   1      32.335 -11.766   4.221  0.00  0.00    -0.015 C 
ATOM     31  C   UNL d   1      32.712 -10.552   6.412  0.00  0.00    -0.016 C 
ATOM     32  C   UNL d   1      31.774 -10.640   7.249  0.00  0.00     0.043 C 
ATOM     33  C   UNL d   1      31.489 -11.530   5.600  0.00  0.00    -0.004 C 
BRANCH  25  34
ATOM     34  O   UNL d   1      33.113 -12.689   0.589  0.00  0.00    -0.360 OA
ATOM     35  H   UNL d   1      32.383 -13.310   0.401  0.00  0.00     0.217 HD
ENDBRANCH  25  34
ENDBRANCH  23  24
ENDBRANCH   3  22
TORSDOF 9
ENDMDL
MODEL 5
REMARK VINA RESULT:    -8.696      8.586     11.844
REMARK INTER + INTRA:         -13.149
REMARK INTER:                 -11.381
REMARK INTRA:                  -1.768
REMARK CONF_INDEPENDENT:        2.685
REMARK UNBOUND:                -1.768
REMARK  9 active torsions:
REMARK  status: ('A' for Active; 'I' for Inactive)
REMARK    1  A    between atoms: C_2  and  C_3 
REMARK    2  A    between atoms: C_3  and  C_4 
REMARK    3  A    between atoms: C_4  and  O_5 
REMARK    4  A    between atoms: O_5  and  C_6 
REMARK    5  A    between atoms: C_9  and  C_10 
REMARK    6  A    between atoms: C_12  and  C_13 
REMARK       I    between atoms: C_13  and  N_15 
REMARK    7  A    between atoms: N_15  and  N_16 
REMARK    8  A    between atoms: C_17  and  C_18 
REMARK    9  A    between atoms: C_19  and  O_20 
ROOT
ATOM      1  C   UNL d   1      26.343 -10.771  -3.887  0.00  0.00     0.289 C 
ATOM      2  O   UNL d   1      27.453 -10.651  -3.368  0.00  0.00    -0.264 OA
ATOM      3  N   UNL d   1      25.527 -11.928  -3.657  0.00  0.00    -0.242 N 
ATOM      4  H   UNL d   1      24.612 -12.028  -4.082  0.00  0.00     0.192 HD
ENDROOT
BRANCH   1   5
ATOM      5  C   UNL d   1      25.816  -9.716  -4.771  0.00  0.00     0.121 A 
ATOM      6  C   UNL d   1      24.568  -9.141  -4.840  0.00  0.00     0.071 A 
ATOM      7  C   UNL d   1      24.564  -8.173  -5.869  0.00  0.00     0.089 A 
ATOM      8  N   UNL d   1      25.779  -8.120  -6.444  0.00  0.00    -0.174 NA
ATOM      9  N   UNL d   1      26.514  -9.055  -5.768  0.00  0.00    -0.272 N 
ATOM     10  H   UNL d   1      27.488  -9.211  -6.023  0.00  0.00     0.189 HD
BRANCH   7  11
ATOM     11  C   UNL d   1      23.421  -7.335  -6.251  0.00  0.00    -0.005 C 
ATOM     12  C   UNL d   1      23.239  -6.895  -7.548  0.00  0.00     0.016 C 
ATOM     13  C   UNL d   1      22.296  -5.908  -7.883  0.00  0.00     0.037 C 
ATOM     14  C   UNL d   1      21.338  -5.533  -6.960  0.00  0.00     0.068 C 
ATOM     15  C   UNL d   1      21.450  -6.043  -5.685  0.00  0.00     0.037 C 
ATOM     16  C   UNL d   1      22.462  -6.942  -5.338  0.00  0.00     0.016 C 
BRANCH  14  17
ATOM     17  O   UNL d   1      20.266  -4.789  -7.361  0.00  0.00    -0.351 OA
BRANCH  17  18
ATOM     18  C   UNL d   1      19.810  -4.995  -8.704  0.00  0.00     0.175 C 
BRANCH  18  19
ATOM     19  C   UNL d   1      18.503  -5.777  -8.671  0.00  0.00     0.026 C 
BRANCH  19  20
ATOM     20  C   UNL d   1      18.763  -7.260  -8.487  0.00  0.00    -0.002 C 
ATOM     21  C   UNL d   1      18.035  -7.778  -7.271  0.00  0.00     0.005 C 
ENDBRANCH  19  20
ENDBRANCH  18  19
ENDBRANCH  17  18
ENDBRANCH  14  17
ENDBRANCH   7  11
ENDBRANCH   1   5
BRANCH   3  22
ATOM     22  N   UNL d   1      25.997 -12.956  -2.824  0.00  0.00    -0.183 NA
ATOM     23  C   UNL d   1      25.394 -14.105  -2.782  0.00  0.00     0.153 C 
BRANCH  23  24
ATOM     24  C   UNL d   1      25.881 -15.202  -1.893  0.00  0.00     0.027 C 
ATOM     25  C   UNL d   1      27.259 -15.331  -1.650  0.00  0.00     0.078 C 
ATOM     26  C   UNL d   1      27.692 -16.507  -1.032  0.00  0.00     0.038 C 
ATOM     27  C   UNL d   1      26.816 -17.402  -0.453  0.00  0.00     0.015 C 
ATOM     28  C   UNL d   1      25.485 -17.263  -0.687  0.00  0.00    -0.025 C 
ATOM     29  C   UNL d   1      24.723 -18.289  -0.243  0.00  0.00     0.009 C 
ATOM     30  C   UNL d   1      24.895 -16.196  -1.339  0.00  0.00    -0.015 C 
ATOM     31  C   UNL d   1      23.410 -18.024  -0.406  0.00  0.00    -0.016 C 
ATOM     32  C   UNL d   1      22.171 -17.825  -0.517  0.00  0.00     0.043 C 
ATOM     33  C   UNL d   1      23.287 -16.451  -1.195  0.00  0.00    -0.004 C 
BRANCH  25  34
ATOM     34  O   UNL d   1      28.214 -14.377  -1.910  0.00  0.00    -0.360 OA
ATOM     35  H   UNL d   1      27.877 -13.469  -2.030  0.00  0.00     0.217 HD
ENDBRANCH  25  34
ENDBRANCH  23  24
ENDBRANCH   3  22
TORSDOF 9
ENDMDL
MODEL 6
REMARK VINA RESULT:    -8.676      7.054     10.371
REMARK INTER + INTRA:         -12.799
REMARK INTER:                 -11.361
REMARK INTRA:                  -1.438
REMARK CONF_INDEPENDENT:        2.685
REMARK UNBOUND:                -1.438
REMARK  9 active torsions:
REMARK  status: ('A' for Active; 'I' for Inactive)
REMARK    1  A    between atoms: C_2  and  C_3 
REMARK    2  A    between atoms: C_3  and  C_4 
REMARK    3  A    between atoms: C_4  and  O_5 
REMARK    4  A    between atoms: O_5  and  C_6 
REMARK    5  A    between atoms: C_9  and  C_10 
REMARK    6  A    between atoms: C_12  and  C_13 
REMARK       I    between atoms: C_13  and  N_15 
REMARK    7  A    between atoms: N_15  and  N_16 
REMARK    8  A    between atoms: C_17  and  C_18 
REMARK    9  A    between atoms: C_19  and  O_20 
ROOT
ATOM      1  C   UNL d   1      29.284 -16.464  -2.060  0.00  0.00     0.289 C 
ATOM      2  O   UNL d   1      30.310 -16.117  -1.476  0.00  0.00    -0.264 OA
ATOM      3  N   UNL d   1      29.186 -16.434  -3.491  0.00  0.00    -0.242 N 
ATOM      4  H   UNL d   1      28.342 -16.721  -3.973  0.00  0.00     0.192 HD
ENDROOT
BRANCH   1   5
ATOM      5  C   UNL d   1      28.112 -16.926  -1.295  0.00  0.00     0.121 A 
ATOM      6  C   UNL d   1      26.773 -16.919  -1.609  0.00  0.00     0.071 A 
ATOM      7  C   UNL d   1      26.045 -17.470  -0.532  0.00  0.00     0.089 A 
ATOM      8  N   UNL d   1      26.892 -17.831   0.449  0.00  0.00    -0.174 NA
ATOM      9  N   UNL d   1      28.127 -17.495  -0.032  0.00  0.00    -0.272 N 
ATOM     10  H   UNL d   1      28.954 -17.670   0.537  0.00  0.00     0.189 HD
BRANCH   7  11
ATOM     11  C   UNL d   1      24.587 -17.644  -0.484  0.00  0.00    -0.005 C 
ATOM     12  C   UNL d   1      24.005 -18.891  -0.349  0.00  0.00     0.016 C 
ATOM     13  C   UNL d   1      22.629 -19.102  -0.539  0.00  0.00     0.037 C 
ATOM     14  C   UNL d   1      21.772 -18.021  -0.613  0.00  0.00     0.068 C 
ATOM     15  C   UNL d   1      22.335 -16.764  -0.648  0.00  0.00     0.037 C 
ATOM     16  C   UNL d   1      23.717 -16.576  -0.569  0.00  0.00     0.016 C 
BRANCH  14  17
ATOM     17  O   UNL d   1      20.424 -18.217  -0.521  0.00  0.00    -0.351 OA
BRANCH  17  18
ATOM     18  C   UNL d   1      19.971 -19.577  -0.552  0.00  0.00     0.175 C 
BRANCH  18  19
ATOM     19  C   UNL d   1      20.084 -20.170   0.846  0.00  0.00     0.026 C 
BRANCH  19  20
ATOM     20  C   UNL d   1      18.715 -20.330   1.480  0.00  0.00    -0.002 C 
ATOM     21  C   UNL d   1      18.034 -21.573   0.962  0.00  0.00     0.005 C 
ENDBRANCH  19  20
ENDBRANCH  18  19
ENDBRANCH  17  18
ENDBRANCH  14  17
ENDBRANCH   7  11
ENDBRANCH   1   5
BRANCH   3  22
ATOM     22  N   UNL d   1      30.280 -15.995  -4.253  0.00  0.00    -0.183 NA
ATOM     23  C   UNL d   1      30.099 -15.315  -5.345  0.00  0.00     0.153 C 
BRANCH  23  24
ATOM     24  C   UNL d   1      31.256 -14.852  -6.168  0.00  0.00     0.027 C 
ATOM     25  C   UNL d   1      32.546 -15.324  -5.871  0.00  0.00     0.078 C 
ATOM     26  C   UNL d   1      33.621 -14.678  -6.487  0.00  0.00     0.038 C 
ATOM     27  C   UNL d   1      33.449 -13.788  -7.527  0.00  0.00     0.015 C 
ATOM     28  C   UNL d   1      32.197 -13.344  -7.812  0.00  0.00    -0.025 C 
ATOM     29  C   UNL d   1      32.147 -12.334  -8.710  0.00  0.00     0.009 C 
ATOM     30  C   UNL d   1      31.030 -13.827  -7.247  0.00  0.00    -0.015 C 
ATOM     31  C   UNL d   1      30.870 -12.031  -9.027  0.00  0.00    -0.016 C 
ATOM     32  C   UNL d   1      29.701 -11.716  -9.374  0.00  0.00     0.043 C 
ATOM     33  C   UNL d   1      29.827 -13.073  -8.057  0.00  0.00    -0.004 C 
BRANCH  25  34
ATOM     34  O   UNL d   1      32.843 -16.405  -5.075  0.00  0.00    -0.360 OA
ATOM     35  H   UNL d   1      32.493 -16.364  -4.165  0.00  0.00     0.217 HD
ENDBRANCH  25  34
ENDBRANCH  23  24
ENDBRANCH   3  22
TORSDOF 9
ENDMDL
MODEL 7
REMARK VINA RESULT:    -8.592      1.808      2.452
REMARK INTER + INTRA:         -12.929
REMARK INTER:                 -11.277
REMARK INTRA:                  -1.652
REMARK CONF_INDEPENDENT:        2.685
REMARK UNBOUND:                -1.652
REMARK  9 active torsions:
REMARK  status: ('A' for Active; 'I' for Inactive)
REMARK    1  A    between atoms: C_2  and  C_3 
REMARK    2  A    between atoms: C_3  and  C_4 
REMARK    3  A    between atoms: C_4  and  O_5 
REMARK    4  A    between atoms: O_5  and  C_6 
REMARK    5  A    between atoms: C_9  and  C_10 
REMARK    6  A    between atoms: C_12  and  C_13 
REMARK       I    between atoms: C_13  and  N_15 
REMARK    7  A    between atoms: N_15  and  N_16 
REMARK    8  A    between atoms: C_17  and  C_18 
REMARK    9  A    between atoms: C_19  and  O_20 
ROOT
ATOM      1  C   UNL d   1      28.792 -14.692   1.285  0.00  0.00     0.289 C 
ATOM      2  O   UNL d   1      29.123 -13.760   0.553  0.00  0.00    -0.264 OA
ATOM      3  N   UNL d   1      29.289 -14.809   2.626  0.00  0.00    -0.242 N 
ATOM      4  H   UNL d   1      29.016 -15.575   3.231  0.00  0.00     0.192 HD
ENDROOT
BRANCH   1   5
ATOM      5  C   UNL d   1      27.862 -15.728   0.799  0.00  0.00     0.121 A 
ATOM      6  C   UNL d   1      26.515 -15.670   0.526  0.00  0.00     0.071 A 
ATOM      7  C   UNL d   1      26.081 -16.942   0.088  0.00  0.00     0.089 A 
ATOM      8  N   UNL d   1      27.121 -17.794   0.072  0.00  0.00    -0.174 NA
ATOM      9  N   UNL d   1      28.180 -17.043   0.503  0.00  0.00    -0.272 N 
ATOM     10  H   UNL d   1      29.101 -17.470   0.582  0.00  0.00     0.189 HD
BRANCH   7  11
ATOM     11  C   UNL d   1      24.710 -17.287  -0.308  0.00  0.00    -0.005 C 
ATOM     12  C   UNL d   1      23.762 -16.318  -0.580  0.00  0.00     0.016 C 
ATOM     13  C   UNL d   1      22.398 -16.621  -0.726  0.00  0.00     0.037 C 
ATOM     14  C   UNL d   1      21.996 -17.937  -0.858  0.00  0.00     0.068 C 
ATOM     15  C   UNL d   1      22.953 -18.913  -0.687  0.00  0.00     0.037 C 
ATOM     16  C   UNL d   1      24.290 -18.597  -0.433  0.00  0.00     0.016 C 
BRANCH  14  17
ATOM     17  O   UNL d   1      20.726 -18.219  -1.270  0.00  0.00    -0.351 OA
BRANCH  17  18
ATOM     18  C   UNL d   1      20.308 -19.586  -1.165  0.00  0.00     0.175 C 
BRANCH  18  19
ATOM     19  C   UNL d   1      19.168 -19.682  -0.160  0.00  0.00     0.026 C 
BRANCH  19  20
ATOM     20  C   UNL d   1      19.398 -20.821   0.815  0.00  0.00    -0.002 C 
ATOM     21  C   UNL d   1      19.346 -20.319   2.237  0.00  0.00     0.005 C 
ENDBRANCH  19  20
ENDBRANCH  18  19
ENDBRANCH  17  18
ENDBRANCH  14  17
ENDBRANCH   7  11
ENDBRANCH   1   5
BRANCH   3  22
ATOM     22  N   UNL d   1      30.180 -13.845   3.123  0.00  0.00    -0.183 NA
ATOM     23  C   UNL d   1      29.787 -12.961   3.989  0.00  0.00     0.153 C 
BRANCH  23  24
ATOM     24  C   UNL d   1      30.726 -11.925   4.517  0.00  0.00     0.027 C 
ATOM     25  C   UNL d   1      31.844 -11.554   3.751  0.00  0.00     0.078 C 
ATOM     26  C   UNL d   1      32.823 -10.784   4.382  0.00  0.00     0.038 C 
ATOM     27  C   UNL d   1      32.619 -10.192   5.611  0.00  0.00     0.015 C 
ATOM     28  C   UNL d   1      31.530 -10.551   6.340  0.00  0.00    -0.025 C 
ATOM     29  C   UNL d   1      31.514 -10.070   7.605  0.00  0.00     0.009 C 
ATOM     30  C   UNL d   1      30.500 -11.358   5.893  0.00  0.00    -0.015 C 
ATOM     31  C   UNL d   1      30.352 -10.372   8.222  0.00  0.00    -0.016 C 
ATOM     32  C   UNL d   1      29.281 -10.607   8.843  0.00  0.00     0.043 C 
ATOM     33  C   UNL d   1      29.390 -11.326   7.092  0.00  0.00    -0.004 C 
BRANCH  25  34
ATOM     34  O   UNL d   1      32.031 -11.829   2.417  0.00  0.00    -0.360 OA
ATOM     35  H   UNL d   1      31.412 -12.478   2.032  0.00  0.00     0.217 HD
ENDBRANCH  25  34
ENDBRANCH  23  24
ENDBRANCH   3  22
TORSDOF 9
ENDMDL
MODEL 8
REMARK VINA RESULT:    -8.553      7.917     10.849
REMARK INTER + INTRA:         -12.809
REMARK INTER:                 -11.238
REMARK INTRA:                  -1.571
REMARK CONF_INDEPENDENT:        2.685
REMARK UNBOUND:                -1.571
REMARK  9 active torsions:
REMARK  status: ('A' for Active; 'I' for Inactive)
REMARK    1  A    between atoms: C_2  and  C_3 
REMARK    2  A    between atoms: C_3  and  C_4 
REMARK    3  A    between atoms: C_4  and  O_5 
REMARK    4  A    between atoms: O_5  and  C_6 
REMARK    5  A    between atoms: C_9  and  C_10 
REMARK    6  A    between atoms: C_12  and  C_13 
REMARK       I    between atoms: C_13  and  N_15 
REMARK    7  A    between atoms: N_15  and  N_16 
REMARK    8  A    between atoms: C_17  and  C_18 
REMARK    9  A    between atoms: C_19  and  O_20 
ROOT
ATOM      1  C   UNL d   1      26.456 -12.883  -4.047  0.00  0.00     0.289 C 
ATOM      2  O   UNL d   1      27.383 -12.130  -3.749  0.00  0.00    -0.264 OA
ATOM      3  N   UNL d   1      25.581 -12.599  -5.147  0.00  0.00    -0.242 N 
ATOM      4  H   UNL d   1      24.818 -13.219  -5.394  0.00  0.00     0.192 HD
ENDROOT
BRANCH   1   5
ATOM      5  C   UNL d   1      26.216 -14.113  -3.271  0.00  0.00     0.121 A 
ATOM      6  C   UNL d   1      25.066 -14.607  -2.701  0.00  0.00     0.071 A 
ATOM      7  C   UNL d   1      25.362 -15.828  -2.054  0.00  0.00     0.089 A 
ATOM      8  N   UNL d   1      26.666 -16.118  -2.209  0.00  0.00    -0.174 NA
ATOM      9  N   UNL d   1      27.159 -15.074  -2.944  0.00  0.00    -0.272 N 
ATOM     10  H   UNL d   1      28.145 -15.057  -3.196  0.00  0.00     0.189 HD
BRANCH   7  11
ATOM     11  C   UNL d   1      24.398 -16.669  -1.333  0.00  0.00    -0.005 C 
ATOM     12  C   UNL d   1      24.746 -17.906  -0.824  0.00  0.00     0.016 C 
ATOM     13  C   UNL d   1      23.791 -18.819  -0.348  0.00  0.00     0.037 C 
ATOM     14  C   UNL d   1      22.490 -18.403  -0.133  0.00  0.00     0.068 C 
ATOM     15  C   UNL d   1      22.153 -17.133  -0.546  0.00  0.00     0.037 C 
ATOM     16  C   UNL d   1      23.092 -16.273  -1.121  0.00  0.00     0.016 C 
BRANCH  14  17
ATOM     17  O   UNL d   1      21.635 -19.194   0.579  0.00  0.00    -0.351 OA
BRANCH  17  18
ATOM     18  C   UNL d   1      20.657 -19.921  -0.176  0.00  0.00     0.175 C 
BRANCH  18  19
ATOM     19  C   UNL d   1      19.265 -19.506   0.281  0.00  0.00     0.026 C 
BRANCH  19  20
ATOM     20  C   UNL d   1      18.810 -20.345   1.461  0.00  0.00    -0.002 C 
ATOM     21  C   UNL d   1      17.968 -21.505   0.990  0.00  0.00     0.005 C 
ENDBRANCH  19  20
ENDBRANCH  18  19
ENDBRANCH  17  18
ENDBRANCH  14  17
ENDBRANCH   7  11
ENDBRANCH   1   5
BRANCH   3  22
ATOM     22  N   UNL d   1      25.774 -11.435  -5.907  0.00  0.00    -0.183 NA
ATOM     23  C   UNL d   1      25.534 -10.263  -5.401  0.00  0.00     0.153 C 
BRANCH  23  24
ATOM     24  C   UNL d   1      25.728  -9.019  -6.204  0.00  0.00     0.027 C 
ATOM     25  C   UNL d   1      26.907  -8.858  -6.952  0.00  0.00     0.078 C 
ATOM     26  C   UNL d   1      27.163  -7.588  -7.475  0.00  0.00     0.038 C 
ATOM     27  C   UNL d   1      26.212  -6.590  -7.489  0.00  0.00     0.015 C 
ATOM     28  C   UNL d   1      25.072  -6.758  -6.770  0.00  0.00    -0.025 C 
ATOM     29  C   UNL d   1      24.290  -5.658  -6.684  0.00  0.00     0.009 C 
ATOM     30  C   UNL d   1      24.694  -7.927  -6.133  0.00  0.00    -0.015 C 
ATOM     31  C   UNL d   1      23.128  -5.937  -6.058  0.00  0.00    -0.016 C 
ATOM     32  C   UNL d   1      22.018  -6.142  -5.497  0.00  0.00     0.043 C 
ATOM     33  C   UNL d   1      23.187  -7.633  -5.574  0.00  0.00    -0.004 C 
BRANCH  25  34
ATOM     34  O   UNL d   1      27.800  -9.854  -7.267  0.00  0.00    -0.360 OA
ATOM     35  H   UNL d   1      27.638 -10.715  -6.836  0.00  0.00     0.217 HD
ENDBRANCH  25  34
ENDBRANCH  23  24
ENDBRANCH   3  22
TORSDOF 9
ENDMDL
MODEL 9
REMARK VINA RESULT:    -8.512      4.040      4.913
REMARK INTER + INTRA:         -12.497
REMARK INTER:                 -11.197
REMARK INTRA:                  -1.300
REMARK CONF_INDEPENDENT:        2.685
REMARK UNBOUND:                -1.300
REMARK  9 active torsions:
REMARK  status: ('A' for Active; 'I' for Inactive)
REMARK    1  A    between atoms: C_2  and  C_3 
REMARK    2  A    between atoms: C_3  and  C_4 
REMARK    3  A    between atoms: C_4  and  O_5 
REMARK    4  A    between atoms: O_5  and  C_6 
REMARK    5  A    between atoms: C_9  and  C_10 
REMARK    6  A    between atoms: C_12  and  C_13 
REMARK       I    between atoms: C_13  and  N_15 
REMARK    7  A    between atoms: N_15  and  N_16 
REMARK    8  A    between atoms: C_17  and  C_18 
REMARK    9  A    between atoms: C_19  and  O_20 
ROOT
ATOM      1  C   UNL d   1      29.059 -15.041   0.348  0.00  0.00     0.289 C 
ATOM      2  O   UNL d   1      29.477 -14.410  -0.622  0.00  0.00    -0.264 OA
ATOM      3  N   UNL d   1      29.579 -14.824   1.667  0.00  0.00    -0.242 N 
ATOM      4  H   UNL d   1      29.235 -15.341   2.468  0.00  0.00     0.192 HD
ENDROOT
BRANCH   1   5
ATOM      5  C   UNL d   1      27.997 -16.049   0.180  0.00  0.00     0.121 A 
ATOM      6  C   UNL d   1      26.653 -15.905  -0.072  0.00  0.00     0.071 A 
ATOM      7  C   UNL d   1      26.058 -17.186  -0.139  0.00  0.00     0.089 A 
ATOM      8  N   UNL d   1      26.996 -18.130   0.058  0.00  0.00    -0.174 NA
ATOM      9  N   UNL d   1      28.152 -17.424   0.247  0.00  0.00    -0.272 N 
ATOM     10  H   UNL d   1      29.023 -17.922   0.422  0.00  0.00     0.189 HD
BRANCH   7  11
ATOM     11  C   UNL d   1      24.639 -17.457  -0.399  0.00  0.00    -0.005 C 
ATOM     12  C   UNL d   1      23.737 -16.442  -0.660  0.00  0.00     0.016 C 
ATOM     13  C   UNL d   1      22.349 -16.656  -0.675  0.00  0.00     0.037 C 
ATOM     14  C   UNL d   1      21.852 -17.946  -0.686  0.00  0.00     0.068 C 
ATOM     15  C   UNL d   1      22.754 -18.975  -0.525  0.00  0.00     0.037 C 
ATOM     16  C   UNL d   1      24.125 -18.739  -0.401  0.00  0.00     0.016 C 
BRANCH  14  17
ATOM     17  O   UNL d   1      20.536 -18.163  -0.974  0.00  0.00    -0.351 OA
BRANCH  17  18
ATOM     18  C   UNL d   1      20.140 -19.527  -1.169  0.00  0.00     0.175 C 
BRANCH  18  19
ATOM     19  C   UNL d   1      18.789 -19.752  -0.502  0.00  0.00     0.026 C 
BRANCH  19  20
ATOM     20  C   UNL d   1      18.955 -20.459   0.831  0.00  0.00    -0.002 C 
ATOM     21  C   UNL d   1      20.170 -19.938   1.558  0.00  0.00     0.005 C 
ENDBRANCH  19  20
ENDBRANCH  18  19
ENDBRANCH  17  18
ENDBRANCH  14  17
ENDBRANCH   7  11
ENDBRANCH   1   5
BRANCH   3  22
ATOM     22  N   UNL d   1      30.595 -13.875   1.866  0.00  0.00    -0.183 NA
ATOM     23  C   UNL d   1      31.536 -14.081   2.738  0.00  0.00     0.153 C 
BRANCH  23  24
ATOM     24  C   UNL d   1      32.615 -13.073   2.964  0.00  0.00     0.027 C 
ATOM     25  C   UNL d   1      32.287 -11.707   2.994  0.00  0.00     0.078 C 
ATOM     26  C   UNL d   1      33.344 -10.795   2.950  0.00  0.00     0.038 C 
ATOM     27  C   UNL d   1      34.658 -11.179   3.118  0.00  0.00     0.015 C 
ATOM     28  C   UNL d   1      34.964 -12.503   3.095  0.00  0.00    -0.025 C 
ATOM     29  C   UNL d   1      36.289 -12.776   3.073  0.00  0.00     0.009 C 
ATOM     30  C   UNL d   1      34.043 -13.535   3.073  0.00  0.00    -0.015 C 
ATOM     31  C   UNL d   1      36.510 -14.104   3.170  0.00  0.00    -0.016 C 
ATOM     32  C   UNL d   1      36.780 -15.330   3.276  0.00  0.00     0.043 C 
ATOM     33  C   UNL d   1      34.935 -14.897   3.223  0.00  0.00    -0.004 C 
BRANCH  25  34
ATOM     34  O   UNL d   1      31.021 -11.188   3.128  0.00  0.00    -0.360 OA
ATOM     35  H   UNL d   1      30.364 -11.514   2.483  0.00  0.00     0.217 HD
ENDBRANCH  25  34
ENDBRANCH  23  24
ENDBRANCH   3  22
TORSDOF 9
ENDMDL
