MODEL 1
REMARK VINA RESULT:    -7.746      0.000      0.000
REMARK INTER + INTRA:         -10.677
REMARK INTER:                  -9.535
REMARK INTRA:                  -1.142
REMARK CONF_INDEPENDENT:        1.790
REMARK UNBOUND:                -1.142
REMARK  6 active torsions:
REMARK  status: ('A' for Active; 'I' for Inactive)
REMARK    1  A    between atoms: C_2  and  C_16 
REMARK    2  A    between atoms: N_3  and  N_4 
REMARK       I    between atoms: N_4  and  C_5 
REMARK    3  A    between atoms: C_5  and  C_7 
REMARK    4  A    between atoms: C_7  and  O_8 
REMARK    5  A    between atoms: O_8  and  C_9 
REMARK    6  A    between atoms: C_19  and  O_20 
ROOT
ATOM      1  N   UNL d   1      22.841 -16.440  -1.085  0.00  0.00    -0.245 N 
ATOM      2  C   UNL d   1      24.129 -16.662  -0.584  0.00  0.00     0.261 C 
ATOM      3  O   UNL d   1      24.379 -17.501   0.286  0.00  0.00    -0.269 OA
ATOM      4  H   UNL d   1      22.699 -15.766  -1.824  0.00  0.00     0.192 HD
ENDROOT
BRANCH   1   5
ATOM      5  N   UNL d   1      21.768 -17.176  -0.596  0.00  0.00    -0.176 NA
ATOM      6  C   UNL d   1      21.736 -18.478  -0.700  0.00  0.00     0.061 C 
ATOM      7  C   UNL d   1      22.798 -19.324  -1.376  0.00  0.00     0.073 C 
BRANCH   6   8
ATOM      8  C   UNL d   1      20.564 -19.260  -0.137  0.00  0.00    -0.010 A 
ATOM      9  C   UNL d   1      20.563 -19.659   1.212  0.00  0.00     0.016 A 
ATOM     10  C   UNL d   1      19.522 -20.439   1.741  0.00  0.00     0.037 A 
ATOM     11  C   UNL d   1      18.473 -20.827   0.918  0.00  0.00     0.065 A 
ATOM     12  C   UNL d   1      18.454 -20.442  -0.419  0.00  0.00     0.037 A 
ATOM     13  C   UNL d   1      19.490 -19.651  -0.949  0.00  0.00     0.016 A 
BRANCH  11  14
ATOM     14  O   UNL d   1      17.437 -21.587   1.378  0.00  0.00    -0.361 OA
ATOM     15  H   UNL d   1      17.281 -22.331   0.773  0.00  0.00     0.217 HD
ENDBRANCH  11  14
ENDBRANCH   6   8
ENDBRANCH   1   5
BRANCH   2  16
ATOM     16  C   UNL d   1      25.241 -15.766  -1.200  0.00  0.00     0.280 C 
BRANCH  16  17
ATOM     17  O   UNL d   1      24.682 -14.965  -2.253  0.00  0.00    -0.342 OA
BRANCH  17  18
ATOM     18  C   UNL d   1      25.511 -14.643  -3.290  0.00  0.00     0.069 A 
ATOM     19  C   UNL d   1      26.349 -15.559  -3.928  0.00  0.00     0.040 A 
ATOM     20  C   UNL d   1      27.134 -15.150  -5.013  0.00  0.00     0.045 A 
ATOM     21  C   UNL d   1      27.058 -13.837  -5.468  0.00  0.00     0.116 A 
ATOM     22  F   UNL d   1      27.828 -13.444  -6.493  0.00  0.00    -0.206 F 
ATOM     23  C   UNL d   1      26.189 -12.930  -4.876  0.00  0.00     0.045 A 
ATOM     24  C   UNL d   1      25.405 -13.340  -3.794  0.00  0.00     0.040 A 
ENDBRANCH  17  18
ENDBRANCH  16  17
ENDBRANCH   2  16
TORSDOF 6
ENDMDL
MODEL 2
REMARK VINA RESULT:    -7.118      1.927      2.350
REMARK INTER + INTRA:         -10.379
REMARK INTER:                  -8.908
REMARK INTRA:                  -1.471
REMARK CONF_INDEPENDENT:        1.790
REMARK UNBOUND:                -1.471
REMARK  6 active torsions:
REMARK  status: ('A' for Active; 'I' for Inactive)
REMARK    1  A    between atoms: C_2  and  C_16 
REMARK    2  A    between atoms: N_3  and  N_4 
REMARK       I    between atoms: N_4  and  C_5 
REMARK    3  A    between atoms: C_5  and  C_7 
REMARK    4  A    between atoms: C_7  and  O_8 
REMARK    5  A    between atoms: O_8  and  C_9 
REMARK    6  A    between atoms: C_19  and  O_20 
ROOT
ATOM      1  N   UNL d   1      24.946 -18.058  -0.851  0.00  0.00    -0.245 N 
ATOM      2  C   UNL d   1      25.919 -18.015   0.155  0.00  0.00     0.261 C 
ATOM      3  O   UNL d   1      25.767 -18.535   1.263  0.00  0.00    -0.269 OA
ATOM      4  H   UNL d   1      25.137 -17.647  -1.753  0.00  0.00     0.192 HD
ENDROOT
BRANCH   1   5
ATOM      5  N   UNL d   1      23.736 -18.703  -0.621  0.00  0.00    -0.176 NA
ATOM      6  C   UNL d   1      22.630 -18.029  -0.452  0.00  0.00     0.061 C 
ATOM      7  C   UNL d   1      22.524 -16.516  -0.442  0.00  0.00     0.073 C 
BRANCH   6   8
ATOM      8  C   UNL d   1      21.319 -18.758  -0.225  0.00  0.00    -0.010 A 
ATOM      9  C   UNL d   1      21.030 -19.317   1.034  0.00  0.00     0.016 A 
ATOM     10  C   UNL d   1      19.854 -20.052   1.253  0.00  0.00     0.037 A 
ATOM     11  C   UNL d   1      18.958 -20.235   0.209  0.00  0.00     0.065 A 
ATOM     12  C   UNL d   1      19.223 -19.689  -1.043  0.00  0.00     0.037 A 
ATOM     13  C   UNL d   1      20.396 -18.942  -1.263  0.00  0.00     0.016 A 
BRANCH  11  14
ATOM     14  O   UNL d   1      17.801 -20.942   0.364  0.00  0.00    -0.361 OA
ATOM     15  H   UNL d   1      17.223 -20.799  -0.403  0.00  0.00     0.217 HD
ENDBRANCH  11  14
ENDBRANCH   6   8
ENDBRANCH   1   5
BRANCH   2  16
ATOM     16  C   UNL d   1      27.221 -17.252  -0.219  0.00  0.00     0.280 C 
BRANCH  16  17
ATOM     17  O   UNL d   1      27.215 -16.953  -1.625  0.00  0.00    -0.342 OA
BRANCH  17  18
ATOM     18  C   UNL d   1      26.731 -15.729  -1.992  0.00  0.00     0.069 A 
ATOM     19  C   UNL d   1      27.030 -14.542  -1.322  0.00  0.00     0.040 A 
ATOM     20  C   UNL d   1      26.524 -13.325  -1.796  0.00  0.00     0.045 A 
ATOM     21  C   UNL d   1      25.745 -13.300  -2.949  0.00  0.00     0.116 A 
ATOM     22  F   UNL d   1      25.245 -12.136  -3.387  0.00  0.00    -0.206 F 
ATOM     23  C   UNL d   1      25.485 -14.467  -3.655  0.00  0.00     0.045 A 
ATOM     24  C   UNL d   1      25.992 -15.681  -3.181  0.00  0.00     0.040 A 
ENDBRANCH  17  18
ENDBRANCH  16  17
ENDBRANCH   2  16
TORSDOF 6
ENDMDL
MODEL 3
REMARK VINA RESULT:    -6.960      3.281      5.206
REMARK INTER + INTRA:          -9.528
REMARK INTER:                  -8.750
REMARK INTRA:                  -0.778
REMARK CONF_INDEPENDENT:        1.790
REMARK UNBOUND:                -0.778
REMARK  6 active torsions:
REMARK  status: ('A' for Active; 'I' for Inactive)
REMARK    1  A    between atoms: C_2  and  C_16 
REMARK    2  A    between atoms: N_3  and  N_4 
REMARK       I    between atoms: N_4  and  C_5 
REMARK    3  A    between atoms: C_5  and  C_7 
REMARK    4  A    between atoms: C_7  and  O_8 
REMARK    5  A    between atoms: O_8  and  C_9 
REMARK    6  A    between atoms: C_19  and  O_20 
ROOT
ATOM      1  N   UNL d   1      26.237 -14.738  -3.789  0.00  0.00    -0.245 N 
ATOM      2  C   UNL d   1      26.511 -15.058  -5.124  0.00  0.00     0.261 C 
ATOM      3  O   UNL d   1      25.910 -15.940  -5.744  0.00  0.00    -0.269 OA
ATOM      4  H   UNL d   1      26.734 -13.982  -3.342  0.00  0.00     0.192 HD
ENDROOT
BRANCH   1   5
ATOM      5  N   UNL d   1      25.252 -15.432  -3.096  0.00  0.00    -0.176 NA
ATOM      6  C   UNL d   1      25.546 -16.176  -2.064  0.00  0.00     0.061 C 
ATOM      7  C   UNL d   1      26.946 -16.410  -1.529  0.00  0.00     0.073 C 
BRANCH   6   8
ATOM      8  C   UNL d   1      24.449 -16.906  -1.312  0.00  0.00    -0.010 A 
ATOM      9  C   UNL d   1      24.677 -18.200  -0.808  0.00  0.00     0.016 A 
ATOM     10  C   UNL d   1      23.660 -18.922  -0.164  0.00  0.00     0.037 A 
ATOM     11  C   UNL d   1      22.401 -18.352  -0.024  0.00  0.00     0.065 A 
ATOM     12  C   UNL d   1      22.155 -17.073  -0.513  0.00  0.00     0.037 A 
ATOM     13  C   UNL d   1      23.176 -16.342  -1.148  0.00  0.00     0.016 A 
BRANCH  11  14
ATOM     14  O   UNL d   1      21.375 -19.009   0.589  0.00  0.00    -0.361 OA
ATOM     15  H   UNL d   1      21.695 -19.848   0.960  0.00  0.00     0.217 HD
ENDBRANCH  11  14
ENDBRANCH   6   8
ENDBRANCH   1   5
BRANCH   2  16
ATOM     16  C   UNL d   1      27.643 -14.222  -5.785  0.00  0.00     0.280 C 
BRANCH  16  17
ATOM     17  O   UNL d   1      28.587 -15.104  -6.413  0.00  0.00    -0.342 OA
BRANCH  17  18
ATOM     18  C   UNL d   1      29.334 -15.898  -5.588  0.00  0.00     0.069 A 
ATOM     19  C   UNL d   1      29.326 -15.795  -4.197  0.00  0.00     0.040 A 
ATOM     20  C   UNL d   1      30.091 -16.681  -3.426  0.00  0.00     0.045 A 
ATOM     21  C   UNL d   1      30.837 -17.676  -4.051  0.00  0.00     0.116 A 
ATOM     22  F   UNL d   1      31.585 -18.507  -3.312  0.00  0.00    -0.206 F 
ATOM     23  C   UNL d   1      30.811 -17.822  -5.432  0.00  0.00     0.045 A 
ATOM     24  C   UNL d   1      30.045 -16.938  -6.198  0.00  0.00     0.040 A 
ENDBRANCH  17  18
ENDBRANCH  16  17
ENDBRANCH   2  16
TORSDOF 6
ENDMDL
MODEL 4
REMARK VINA RESULT:    -6.726      3.194      4.982
REMARK INTER + INTRA:          -9.900
REMARK INTER:                  -8.515
REMARK INTRA:                  -1.384
REMARK CONF_INDEPENDENT:        1.790
REMARK UNBOUND:                -1.384
REMARK  6 active torsions:
REMARK  status: ('A' for Active; 'I' for Inactive)
REMARK    1  A    between atoms: C_2  and  C_16 
REMARK    2  A    between atoms: N_3  and  N_4 
REMARK       I    between atoms: N_4  and  C_5 
REMARK    3  A    between atoms: C_5  and  C_7 
REMARK    4  A    between atoms: C_7  and  O_8 
REMARK    5  A    between atoms: O_8  and  C_9 
REMARK    6  A    between atoms: C_19  and  O_20 
ROOT
ATOM      1  N   UNL d   1      25.994 -14.258  -3.698  0.00  0.00    -0.245 N 
ATOM      2  C   UNL d   1      26.551 -14.578  -4.942  0.00  0.00     0.261 C 
ATOM      3  O   UNL d   1      26.287 -15.617  -5.552  0.00  0.00    -0.269 OA
ATOM      4  H   UNL d   1      26.217 -13.376  -3.260  0.00  0.00     0.192 HD
ENDROOT
BRANCH   1   5
ATOM      5  N   UNL d   1      25.103 -15.134  -3.089  0.00  0.00    -0.176 NA
ATOM      6  C   UNL d   1      25.400 -15.730  -1.965  0.00  0.00     0.061 C 
ATOM      7  C   UNL d   1      26.716 -15.588  -1.225  0.00  0.00     0.073 C 
BRANCH   6   8
ATOM      8  C   UNL d   1      24.401 -16.665  -1.310  0.00  0.00    -0.010 A 
ATOM      9  C   UNL d   1      24.771 -17.985  -0.991  0.00  0.00     0.016 A 
ATOM     10  C   UNL d   1      23.848 -18.890  -0.444  0.00  0.00     0.037 A 
ATOM     11  C   UNL d   1      22.542 -18.478  -0.214  0.00  0.00     0.065 A 
ATOM     12  C   UNL d   1      22.155 -17.177  -0.521  0.00  0.00     0.037 A 
ATOM     13  C   UNL d   1      23.082 -16.264  -1.058  0.00  0.00     0.016 A 
BRANCH  11  14
ATOM     14  O   UNL d   1      21.602 -19.315   0.313  0.00  0.00    -0.361 OA
ATOM     15  H   UNL d   1      22.023 -20.141   0.605  0.00  0.00     0.217 HD
ENDBRANCH  11  14
ENDBRANCH   6   8
ENDBRANCH   1   5
BRANCH   2  16
ATOM     16  C   UNL d   1      27.543 -13.525  -5.512  0.00  0.00     0.280 C 
BRANCH  16  17
ATOM     17  O   UNL d   1      27.681 -12.442  -4.577  0.00  0.00    -0.342 OA
BRANCH  17  18
ATOM     18  C   UNL d   1      26.865 -11.361  -4.760  0.00  0.00     0.069 A 
ATOM     19  C   UNL d   1      26.399 -10.943  -6.007  0.00  0.00     0.040 A 
ATOM     20  C   UNL d   1      25.529  -9.848  -6.097  0.00  0.00     0.045 A 
ATOM     21  C   UNL d   1      25.114  -9.196  -4.940  0.00  0.00     0.116 A 
ATOM     22  F   UNL d   1      24.299  -8.136  -5.031  0.00  0.00    -0.206 F 
ATOM     23  C   UNL d   1      25.529  -9.636  -3.689  0.00  0.00     0.045 A 
ATOM     24  C   UNL d   1      26.395 -10.730  -3.602  0.00  0.00     0.040 A 
ENDBRANCH  17  18
ENDBRANCH  16  17
ENDBRANCH   2  16
TORSDOF 6
ENDMDL
MODEL 5
REMARK VINA RESULT:    -6.695      4.457      9.329
REMARK INTER + INTRA:          -9.473
REMARK INTER:                  -8.485
REMARK INTRA:                  -0.989
REMARK CONF_INDEPENDENT:        1.790
REMARK UNBOUND:                -0.989
REMARK  6 active torsions:
REMARK  status: ('A' for Active; 'I' for Inactive)
REMARK    1  A    between atoms: C_2  and  C_16 
REMARK    2  A    between atoms: N_3  and  N_4 
REMARK       I    between atoms: N_4  and  C_5 
REMARK    3  A    between atoms: C_5  and  C_7 
REMARK    4  A    between atoms: C_7  and  O_8 
REMARK    5  A    between atoms: O_8  and  C_9 
REMARK    6  A    between atoms: C_19  and  O_20 
ROOT
ATOM      1  N   UNL d   1      23.641 -18.518  -0.000  0.00  0.00    -0.245 N 
ATOM      2  C   UNL d   1      23.050 -18.592  -1.267  0.00  0.00     0.261 C 
ATOM      3  O   UNL d   1      23.663 -18.360  -2.313  0.00  0.00    -0.269 OA
ATOM      4  H   UNL d   1      23.103 -18.754   0.820  0.00  0.00     0.192 HD
ENDROOT
BRANCH   1   5
ATOM      5  N   UNL d   1      24.979 -18.160   0.122  0.00  0.00    -0.176 NA
ATOM      6  C   UNL d   1      25.412 -17.001  -0.296  0.00  0.00     0.061 C 
ATOM      7  C   UNL d   1      24.561 -15.948  -0.981  0.00  0.00     0.073 C 
BRANCH   6   8
ATOM      8  C   UNL d   1      26.873 -16.626  -0.130  0.00  0.00    -0.010 A 
ATOM      9  C   UNL d   1      27.882 -17.502  -0.572  0.00  0.00     0.016 A 
ATOM     10  C   UNL d   1      29.241 -17.209  -0.372  0.00  0.00     0.037 A 
ATOM     11  C   UNL d   1      29.598 -16.035   0.275  0.00  0.00     0.065 A 
ATOM     12  C   UNL d   1      28.616 -15.154   0.719  0.00  0.00     0.037 A 
ATOM     13  C   UNL d   1      27.254 -15.439   0.510  0.00  0.00     0.016 A 
BRANCH  11  14
ATOM     14  O   UNL d   1      30.902 -15.701   0.499  0.00  0.00    -0.361 OA
ATOM     15  H   UNL d   1      31.336 -16.398   1.018  0.00  0.00     0.217 HD
ENDBRANCH  11  14
ENDBRANCH   6   8
ENDBRANCH   1   5
BRANCH   2  16
ATOM     16  C   UNL d   1      21.546 -18.987  -1.271  0.00  0.00     0.280 C 
BRANCH  16  17
ATOM     17  O   UNL d   1      20.953 -18.628  -0.013  0.00  0.00    -0.342 OA
BRANCH  17  18
ATOM     18  C   UNL d   1      19.997 -19.470   0.481  0.00  0.00     0.069 A 
ATOM     19  C   UNL d   1      19.830 -19.743   1.840  0.00  0.00     0.040 A 
ATOM     20  C   UNL d   1      18.794 -20.587   2.261  0.00  0.00     0.045 A 
ATOM     21  C   UNL d   1      17.919 -21.130   1.325  0.00  0.00     0.116 A 
ATOM     22  F   UNL d   1      16.942 -21.954   1.730  0.00  0.00    -0.206 F 
ATOM     23  C   UNL d   1      18.042 -20.823  -0.024  0.00  0.00     0.045 A 
ATOM     24  C   UNL d   1      19.075 -19.980  -0.442  0.00  0.00     0.040 A 
ENDBRANCH  17  18
ENDBRANCH  16  17
ENDBRANCH   2  16
TORSDOF 6
ENDMDL
MODEL 6
REMARK VINA RESULT:    -6.536      3.300      4.249
REMARK INTER + INTRA:          -9.594
REMARK INTER:                  -8.326
REMARK INTRA:                  -1.268
REMARK CONF_INDEPENDENT:        1.790
REMARK UNBOUND:                -1.268
REMARK  6 active torsions:
REMARK  status: ('A' for Active; 'I' for Inactive)
REMARK    1  A    between atoms: C_2  and  C_16 
REMARK    2  A    between atoms: N_3  and  N_4 
REMARK       I    between atoms: N_4  and  C_5 
REMARK    3  A    between atoms: C_5  and  C_7 
REMARK    4  A    between atoms: C_7  and  O_8 
REMARK    5  A    between atoms: O_8  and  C_9 
REMARK    6  A    between atoms: C_19  and  O_20 
ROOT
ATOM      1  N   UNL d   1      25.042 -17.751   0.114  0.00  0.00    -0.245 N 
ATOM      2  C   UNL d   1      25.492 -17.209  -1.096  0.00  0.00     0.261 C 
ATOM      3  O   UNL d   1      24.869 -17.314  -2.156  0.00  0.00    -0.269 OA
ATOM      4  H   UNL d   1      25.574 -17.603   0.959  0.00  0.00     0.192 HD
ENDROOT
BRANCH   1   5
ATOM      5  N   UNL d   1      23.844 -18.455   0.157  0.00  0.00    -0.176 NA
ATOM      6  C   UNL d   1      22.709 -17.880  -0.142  0.00  0.00     0.061 C 
ATOM      7  C   UNL d   1      22.544 -16.420  -0.517  0.00  0.00     0.073 C 
BRANCH   6   8
ATOM      8  C   UNL d   1      21.418 -18.677  -0.109  0.00  0.00    -0.010 A 
ATOM      9  C   UNL d   1      20.982 -19.266   1.092  0.00  0.00     0.016 A 
ATOM     10  C   UNL d   1      19.825 -20.062   1.136  0.00  0.00     0.037 A 
ATOM     11  C   UNL d   1      19.098 -20.275  -0.027  0.00  0.00     0.065 A 
ATOM     12  C   UNL d   1      19.512 -19.700  -1.225  0.00  0.00     0.037 A 
ATOM     13  C   UNL d   1      20.664 -18.892  -1.270  0.00  0.00     0.016 A 
BRANCH  11  14
ATOM     14  O   UNL d   1      17.969 -21.041  -0.044  0.00  0.00    -0.361 OA
ATOM     15  H   UNL d   1      17.266 -20.581  -0.531  0.00  0.00     0.217 HD
ENDBRANCH  11  14
ENDBRANCH   6   8
ENDBRANCH   1   5
BRANCH   2  16
ATOM     16  C   UNL d   1      26.851 -16.458  -1.018  0.00  0.00     0.280 C 
BRANCH  16  17
ATOM     17  O   UNL d   1      27.244 -16.320   0.357  0.00  0.00    -0.342 OA
BRANCH  17  18
ATOM     18  C   UNL d   1      27.284 -15.051   0.864  0.00  0.00     0.069 A 
ATOM     19  C   UNL d   1      26.592 -13.973   0.310  0.00  0.00     0.040 A 
ATOM     20  C   UNL d   1      26.656 -12.714   0.923  0.00  0.00     0.045 A 
ATOM     21  C   UNL d   1      27.388 -12.549   2.094  0.00  0.00     0.116 A 
ATOM     22  F   UNL d   1      27.465 -11.339   2.664  0.00  0.00    -0.206 F 
ATOM     23  C   UNL d   1      28.037 -13.627   2.683  0.00  0.00     0.045 A 
ATOM     24  C   UNL d   1      27.971 -14.882   2.072  0.00  0.00     0.040 A 
ENDBRANCH  17  18
ENDBRANCH  16  17
ENDBRANCH   2  16
TORSDOF 6
ENDMDL
MODEL 7
REMARK VINA RESULT:    -6.497      6.838      9.576
REMARK INTER + INTRA:          -9.446
REMARK INTER:                  -8.287
REMARK INTRA:                  -1.159
REMARK CONF_INDEPENDENT:        1.790
REMARK UNBOUND:                -1.159
REMARK  6 active torsions:
REMARK  status: ('A' for Active; 'I' for Inactive)
REMARK    1  A    between atoms: C_2  and  C_16 
REMARK    2  A    between atoms: N_3  and  N_4 
REMARK       I    between atoms: N_4  and  C_5 
REMARK    3  A    between atoms: C_5  and  C_7 
REMARK    4  A    between atoms: C_7  and  O_8 
REMARK    5  A    between atoms: O_8  and  C_9 
REMARK    6  A    between atoms: C_19  and  O_20 
ROOT
ATOM      1  N   UNL d   1      27.795 -14.873   2.503  0.00  0.00    -0.245 N 
ATOM      2  C   UNL d   1      27.406 -14.098   1.403  0.00  0.00     0.261 C 
ATOM      3  O   UNL d   1      27.033 -12.925   1.502  0.00  0.00    -0.269 OA
ATOM      4  H   UNL d   1      28.126 -15.816   2.360  0.00  0.00     0.192 HD
ENDROOT
BRANCH   1   5
ATOM      5  N   UNL d   1      27.765 -14.328   3.782  0.00  0.00    -0.176 NA
ATOM      6  C   UNL d   1      28.865 -14.112   4.452  0.00  0.00     0.061 C 
ATOM      7  C   UNL d   1      30.262 -14.450   3.966  0.00  0.00     0.073 C 
BRANCH   6   8
ATOM      8  C   UNL d   1      28.807 -13.496   5.837  0.00  0.00    -0.010 A 
ATOM      9  C   UNL d   1      29.247 -14.228   6.955  0.00  0.00     0.016 A 
ATOM     10  C   UNL d   1      29.143 -13.707   8.255  0.00  0.00     0.037 A 
ATOM     11  C   UNL d   1      28.595 -12.446   8.444  0.00  0.00     0.065 A 
ATOM     12  C   UNL d   1      28.155 -11.704   7.351  0.00  0.00     0.037 A 
ATOM     13  C   UNL d   1      28.268 -12.220   6.046  0.00  0.00     0.016 A 
BRANCH  11  14
ATOM     14  O   UNL d   1      28.467 -11.891   9.684  0.00  0.00    -0.361 OA
ATOM     15  H   UNL d   1      28.155 -10.974   9.604  0.00  0.00     0.217 HD
ENDBRANCH  11  14
ENDBRANCH   6   8
ENDBRANCH   1   5
BRANCH   2  16
ATOM     16  C   UNL d   1      27.468 -14.823   0.029  0.00  0.00     0.280 C 
BRANCH  16  17
ATOM     17  O   UNL d   1      27.337 -16.240   0.229  0.00  0.00    -0.342 OA
BRANCH  17  18
ATOM     18  C   UNL d   1      26.147 -16.806  -0.135  0.00  0.00     0.069 A 
ATOM     19  C   UNL d   1      25.753 -18.092   0.238  0.00  0.00     0.040 A 
ATOM     20  C   UNL d   1      24.495 -18.575  -0.145  0.00  0.00     0.045 A 
ATOM     21  C   UNL d   1      23.633 -17.763  -0.875  0.00  0.00     0.116 A 
ATOM     22  F   UNL d   1      22.439 -18.238  -1.258  0.00  0.00    -0.206 F 
ATOM     23  C   UNL d   1      23.992 -16.463  -1.207  0.00  0.00     0.045 A 
ATOM     24  C   UNL d   1      25.247 -15.982  -0.822  0.00  0.00     0.040 A 
ENDBRANCH  17  18
ENDBRANCH  16  17
ENDBRANCH   2  16
TORSDOF 6
ENDMDL
MODEL 8
REMARK VINA RESULT:    -6.411      5.430      7.052
REMARK INTER + INTRA:          -9.488
REMARK INTER:                  -8.201
REMARK INTRA:                  -1.287
REMARK CONF_INDEPENDENT:        1.790
REMARK UNBOUND:                -1.287
REMARK  6 active torsions:
REMARK  status: ('A' for Active; 'I' for Inactive)
REMARK    1  A    between atoms: C_2  and  C_16 
REMARK    2  A    between atoms: N_3  and  N_4 
REMARK       I    between atoms: N_4  and  C_5 
REMARK    3  A    between atoms: C_5  and  C_7 
REMARK    4  A    between atoms: C_7  and  O_8 
REMARK    5  A    between atoms: O_8  and  C_9 
REMARK    6  A    between atoms: C_19  and  O_20 
ROOT
ATOM      1  N   UNL d   1      27.727 -15.589   0.964  0.00  0.00    -0.245 N 
ATOM      2  C   UNL d   1      28.413 -14.503   0.409  0.00  0.00     0.261 C 
ATOM      3  O   UNL d   1      27.920 -13.758  -0.443  0.00  0.00    -0.269 OA
ATOM      4  H   UNL d   1      28.165 -16.145   1.685  0.00  0.00     0.192 HD
ENDROOT
BRANCH   1   5
ATOM      5  N   UNL d   1      26.430 -15.876   0.554  0.00  0.00    -0.176 NA
ATOM      6  C   UNL d   1      26.074 -17.090   0.230  0.00  0.00     0.061 C 
ATOM      7  C   UNL d   1      26.996 -18.294   0.216  0.00  0.00     0.073 C 
BRANCH   6   8
ATOM      8  C   UNL d   1      24.646 -17.380  -0.193  0.00  0.00    -0.010 A 
ATOM      9  C   UNL d   1      23.790 -16.326  -0.562  0.00  0.00     0.016 A 
ATOM     10  C   UNL d   1      22.446 -16.559  -0.895  0.00  0.00     0.037 A 
ATOM     11  C   UNL d   1      21.948 -17.855  -0.858  0.00  0.00     0.065 A 
ATOM     12  C   UNL d   1      22.778 -18.912  -0.497  0.00  0.00     0.037 A 
ATOM     13  C   UNL d   1      24.128 -18.682  -0.174  0.00  0.00     0.016 A 
BRANCH  11  14
ATOM     14  O   UNL d   1      20.651 -18.140  -1.168  0.00  0.00    -0.361 OA
ATOM     15  H   UNL d   1      20.318 -17.496  -1.815  0.00  0.00     0.217 HD
ENDBRANCH  11  14
ENDBRANCH   6   8
ENDBRANCH   1   5
BRANCH   2  16
ATOM     16  C   UNL d   1      29.860 -14.295   0.938  0.00  0.00     0.280 C 
BRANCH  16  17
ATOM     17  O   UNL d   1      29.962 -14.818   2.272  0.00  0.00    -0.342 OA
BRANCH  17  18
ATOM     18  C   UNL d   1      29.366 -14.094   3.266  0.00  0.00     0.069 A 
ATOM     19  C   UNL d   1      29.220 -12.706   3.234  0.00  0.00     0.040 A 
ATOM     20  C   UNL d   1      28.555 -12.050   4.278  0.00  0.00     0.045 A 
ATOM     21  C   UNL d   1      28.021 -12.786   5.332  0.00  0.00     0.116 A 
ATOM     22  F   UNL d   1      27.405 -12.152   6.339  0.00  0.00    -0.206 F 
ATOM     23  C   UNL d   1      28.113 -14.171   5.348  0.00  0.00     0.045 A 
ATOM     24  C   UNL d   1      28.775 -14.825   4.304  0.00  0.00     0.040 A 
ENDBRANCH  17  18
ENDBRANCH  16  17
ENDBRANCH   2  16
TORSDOF 6
ENDMDL
MODEL 9
REMARK VINA RESULT:    -6.200      3.409      5.304
REMARK INTER + INTRA:          -9.303
REMARK INTER:                  -7.990
REMARK INTRA:                  -1.313
REMARK CONF_INDEPENDENT:        1.790
REMARK UNBOUND:                -1.313
REMARK  6 active torsions:
REMARK  status: ('A' for Active; 'I' for Inactive)
REMARK    1  A    between atoms: C_2  and  C_16 
REMARK    2  A    between atoms: N_3  and  N_4 
REMARK       I    between atoms: N_4  and  C_5 
REMARK    3  A    between atoms: C_5  and  C_7 
REMARK    4  A    between atoms: C_7  and  O_8 
REMARK    5  A    between atoms: O_8  and  C_9 
REMARK    6  A    between atoms: C_19  and  O_20 
ROOT
ATOM      1  N   UNL d   1      25.576 -13.989  -4.352  0.00  0.00    -0.245 N 
ATOM      2  C   UNL d   1      26.748 -14.368  -5.018  0.00  0.00     0.261 C 
ATOM      3  O   UNL d   1      27.178 -15.525  -5.022  0.00  0.00    -0.269 OA
ATOM      4  H   UNL d   1      25.250 -13.035  -4.412  0.00  0.00     0.192 HD
ENDROOT
BRANCH   1   5
ATOM      5  N   UNL d   1      24.842 -14.934  -3.645  0.00  0.00    -0.176 NA
ATOM      6  C   UNL d   1      25.139 -15.239  -2.410  0.00  0.00     0.061 C 
ATOM      7  C   UNL d   1      26.302 -14.661  -1.627  0.00  0.00     0.073 C 
BRANCH   6   8
ATOM      8  C   UNL d   1      24.308 -16.257  -1.654  0.00  0.00    -0.010 A 
ATOM      9  C   UNL d   1      22.990 -15.949  -1.270  0.00  0.00     0.016 A 
ATOM     10  C   UNL d   1      22.221 -16.848  -0.513  0.00  0.00     0.037 A 
ATOM     11  C   UNL d   1      22.771 -18.065  -0.133  0.00  0.00     0.065 A 
ATOM     12  C   UNL d   1      24.072 -18.391  -0.504  0.00  0.00     0.037 A 
ATOM     13  C   UNL d   1      24.841 -17.496  -1.272  0.00  0.00     0.016 A 
BRANCH  11  14
ATOM     14  O   UNL d   1      22.072 -18.976   0.604  0.00  0.00    -0.361 OA
ATOM     15  H   UNL d   1      22.427 -19.867   0.451  0.00  0.00     0.217 HD
ENDBRANCH  11  14
ENDBRANCH   6   8
ENDBRANCH   1   5
BRANCH   2  16
ATOM     16  C   UNL d   1      27.487 -13.218  -5.759  0.00  0.00     0.280 C 
BRANCH  16  17
ATOM     17  O   UNL d   1      26.582 -12.122  -5.967  0.00  0.00    -0.342 OA
BRANCH  17  18
ATOM     18  C   UNL d   1      26.524 -11.175  -4.983  0.00  0.00     0.069 A 
ATOM     19  C   UNL d   1      25.857  -9.957  -5.116  0.00  0.00     0.040 A 
ATOM     20  C   UNL d   1      25.812  -9.063  -4.038  0.00  0.00     0.045 A 
ATOM     21  C   UNL d   1      26.412  -9.404  -2.829  0.00  0.00     0.116 A 
ATOM     22  F   UNL d   1      26.386  -8.537  -1.808  0.00  0.00    -0.206 F 
ATOM     23  C   UNL d   1      27.034 -10.636  -2.668  0.00  0.00     0.045 A 
ATOM     24  C   UNL d   1      27.076 -11.527  -3.744  0.00  0.00     0.040 A 
ENDBRANCH  17  18
ENDBRANCH  16  17
ENDBRANCH   2  16
TORSDOF 6
ENDMDL
