MODEL 1
REMARK VINA RESULT:    -8.125      0.000      0.000
REMARK INTER + INTRA:         -11.212
REMARK INTER:                 -10.213
REMARK INTRA:                  -0.999
REMARK CONF_INDEPENDENT:        2.088
REMARK UNBOUND:                -0.999
REMARK  7 active torsions:
REMARK  status: ('A' for Active; 'I' for Inactive)
REMARK    1  A    between atoms: C_2  and  C_3 
REMARK    2  A    between atoms: C_3  and  N_4 
REMARK       I    between atoms: N_4  and  C_5 
REMARK    3  A    between atoms: C_5  and  C_7 
REMARK    4  A    between atoms: C_10  and  N_11 
REMARK       I    between atoms: N_11  and  C_12 
REMARK    5  A    between atoms: C_12  and  C_14 
REMARK    6  A    between atoms: C_14  and  N_15 
REMARK       I    between atoms: N_15  and  C_16 
REMARK    7  A    between atoms: C_16  and  C_18 
ROOT
ATOM      1  N   UNL d   1      28.091 -14.865   2.041  0.00  0.00    -0.326 N 
ATOM      2  C   UNL d   1      27.131 -14.403   1.130  0.00  0.00     0.239 C 
ATOM      3  O   UNL d   1      26.279 -13.543   1.359  0.00  0.00    -0.271 OA
ATOM      4  H   UNL d   1      28.748 -15.577   1.738  0.00  0.00     0.169 HD
ENDROOT
BRANCH   1   5
ATOM      5  C   UNL d   1      28.209 -14.409   3.394  0.00  0.00     0.036 A 
ATOM      6  C   UNL d   1      28.156 -15.297   4.478  0.00  0.00     0.030 A 
ATOM      7  C   UNL d   1      28.265 -14.813   5.809  0.00  0.00     0.021 A 
ATOM      8  C   UNL d   1      28.412 -13.437   6.077  0.00  0.00     0.053 A 
ATOM      9  C   UNL d   1      28.497 -12.566   4.998  0.00  0.00     0.051 A 
ATOM     10  C   UNL d   1      28.387 -13.056   3.693  0.00  0.00     0.054 A 
ATOM     11 CL   UNL d   1      28.787 -10.868   5.149  0.00  0.00    -0.083 Cl
BRANCH   8  12
ATOM     12  C   UNL d   1      28.517 -12.963   7.488  0.00  0.00     0.253 C 
ATOM     13  N   UNL d   1      29.054 -13.848   8.409  0.00  0.00    -0.357 N 
ATOM     14  H   UNL d   1      29.273 -14.793   8.118  0.00  0.00     0.162 HD
ATOM     15  O   UNL d   1      28.155 -11.826   7.769  0.00  0.00    -0.268 OA
BRANCH  13  16
ATOM     16  C   UNL d   1      29.123 -13.528   9.825  0.00  0.00     0.122 C 
BRANCH  16  17
ATOM     17  C   UNL d   1      28.083 -14.284  10.652  0.00  0.00     0.015 C 
ATOM     18  C   UNL d   1      28.532 -14.433  12.100  0.00  0.00     0.006 C 
ENDBRANCH  16  17
ENDBRANCH  13  16
ENDBRANCH   8  12
ENDBRANCH   1   5
BRANCH   2  19
ATOM     19  C   UNL d   1      27.142 -15.036  -0.265  0.00  0.00     0.226 C 
BRANCH  19  20
ATOM     20  N   UNL d   1      25.995 -14.522  -1.036  0.00  0.00    -0.348 N 
ATOM     21  C   UNL d   1      25.164 -15.260  -1.859  0.00  0.00     0.258 C 
ATOM     22  O   UNL d   1      24.924 -14.812  -2.986  0.00  0.00    -0.267 OA
ATOM     23  H   UNL d   1      26.135 -13.577  -1.389  0.00  0.00     0.163 HD
BRANCH  21  24
ATOM     24  C   UNL d   1      24.542 -16.451  -1.294  0.00  0.00     0.073 A 
ATOM     25  C   UNL d   1      25.135 -17.631  -0.887  0.00  0.00     0.025 A 
ATOM     26  C   UNL d   1      24.231 -18.567  -0.343  0.00  0.00     0.015 A 
ATOM     27  C   UNL d   1      22.958 -18.062  -0.246  0.00  0.00    -0.020 A 
ATOM     28  C   UNL d   1      21.783 -18.753   0.351  0.00  0.00     0.056 C 
ATOM     29  S   UNL d   1      22.863 -16.478  -0.895  0.00  0.00    -0.090 SA
ENDBRANCH  21  24
ENDBRANCH  19  20
ENDBRANCH   2  19
TORSDOF 7
ENDMDL
MODEL 2
REMARK VINA RESULT:    -7.944      7.181      9.004
REMARK INTER + INTRA:         -11.598
REMARK INTER:                 -10.032
REMARK INTRA:                  -1.565
REMARK CONF_INDEPENDENT:        2.088
REMARK UNBOUND:                -1.565
REMARK  7 active torsions:
REMARK  status: ('A' for Active; 'I' for Inactive)
REMARK    1  A    between atoms: C_2  and  C_3 
REMARK    2  A    between atoms: C_3  and  N_4 
REMARK       I    between atoms: N_4  and  C_5 
REMARK    3  A    between atoms: C_5  and  C_7 
REMARK    4  A    between atoms: C_10  and  N_11 
REMARK       I    between atoms: N_11  and  C_12 
REMARK    5  A    between atoms: C_12  and  C_14 
REMARK    6  A    between atoms: C_14  and  N_15 
REMARK       I    between atoms: N_15  and  C_16 
REMARK    7  A    between atoms: C_16  and  C_18 
ROOT
ATOM      1  N   UNL d   1      27.464 -14.708  -3.744  0.00  0.00    -0.326 N 
ATOM      2  C   UNL d   1      27.468 -14.830  -5.141  0.00  0.00     0.239 C 
ATOM      3  O   UNL d   1      26.734 -15.568  -5.800  0.00  0.00    -0.271 OA
ATOM      4  H   UNL d   1      28.114 -14.061  -3.309  0.00  0.00     0.169 HD
ENDROOT
BRANCH   1   5
ATOM      5  C   UNL d   1      26.606 -15.451  -2.869  0.00  0.00     0.036 A 
ATOM      6  C   UNL d   1      25.211 -15.313  -2.913  0.00  0.00     0.030 A 
ATOM      7  C   UNL d   1      24.388 -16.056  -2.027  0.00  0.00     0.021 A 
ATOM      8  C   UNL d   1      24.944 -16.933  -1.073  0.00  0.00     0.053 A 
ATOM      9  C   UNL d   1      26.324 -17.090  -1.057  0.00  0.00     0.051 A 
ATOM     10  C   UNL d   1      27.124 -16.352  -1.935  0.00  0.00     0.054 A 
ATOM     11 CL   UNL d   1      27.156 -18.205  -0.029  0.00  0.00    -0.083 Cl
BRANCH   8  12
ATOM     12  C   UNL d   1      24.048 -17.693  -0.152  0.00  0.00     0.253 C 
ATOM     13  N   UNL d   1      22.816 -18.079  -0.653  0.00  0.00    -0.357 N 
ATOM     14  H   UNL d   1      22.536 -17.768  -1.576  0.00  0.00     0.162 HD
ATOM     15  O   UNL d   1      24.437 -17.960   0.979  0.00  0.00    -0.268 OA
BRANCH  13  16
ATOM     16  C   UNL d   1      21.828 -18.745   0.180  0.00  0.00     0.122 C 
BRANCH  16  17
ATOM     17  C   UNL d   1      20.644 -19.283  -0.624  0.00  0.00     0.015 C 
ATOM     18  C   UNL d   1      19.597 -19.909   0.288  0.00  0.00     0.006 C 
ENDBRANCH  16  17
ENDBRANCH  13  16
ENDBRANCH   8  12
ENDBRANCH   1   5
BRANCH   2  19
ATOM     19  C   UNL d   1      28.483 -13.974  -5.905  0.00  0.00     0.226 C 
BRANCH  19  20
ATOM     20  N   UNL d   1      29.132 -14.804  -6.937  0.00  0.00    -0.348 N 
ATOM     21  C   UNL d   1      30.273 -15.568  -6.778  0.00  0.00     0.258 C 
ATOM     22  O   UNL d   1      31.158 -15.467  -7.633  0.00  0.00    -0.267 OA
ATOM     23  H   UNL d   1      29.071 -14.406  -7.874  0.00  0.00     0.163 HD
BRANCH  21  24
ATOM     24  C   UNL d   1      30.295 -16.521  -5.674  0.00  0.00     0.073 A 
ATOM     25  C   UNL d   1      30.478 -17.890  -5.712  0.00  0.00     0.025 A 
ATOM     26  C   UNL d   1      30.484 -18.501  -4.440  0.00  0.00     0.015 A 
ATOM     27  C   UNL d   1      30.403 -17.581  -3.424  0.00  0.00    -0.020 A 
ATOM     28  C   UNL d   1      30.461 -17.878  -1.967  0.00  0.00     0.056 C 
ATOM     29  S   UNL d   1      30.239 -15.987  -4.034  0.00  0.00    -0.090 SA
ENDBRANCH  21  24
ENDBRANCH  19  20
ENDBRANCH   2  19
TORSDOF 7
ENDMDL
MODEL 3
REMARK VINA RESULT:    -7.711      7.323      9.276
REMARK INTER + INTRA:         -11.495
REMARK INTER:                  -9.799
REMARK INTRA:                  -1.697
REMARK CONF_INDEPENDENT:        2.088
REMARK UNBOUND:                -1.697
REMARK  7 active torsions:
REMARK  status: ('A' for Active; 'I' for Inactive)
REMARK    1  A    between atoms: C_2  and  C_3 
REMARK    2  A    between atoms: C_3  and  N_4 
REMARK       I    between atoms: N_4  and  C_5 
REMARK    3  A    between atoms: C_5  and  C_7 
REMARK    4  A    between atoms: C_10  and  N_11 
REMARK       I    between atoms: N_11  and  C_12 
REMARK    5  A    between atoms: C_12  and  C_14 
REMARK    6  A    between atoms: C_14  and  N_15 
REMARK       I    between atoms: N_15  and  C_16 
REMARK    7  A    between atoms: C_16  and  C_18 
ROOT
ATOM      1  N   UNL d   1      28.201 -15.358  -3.416  0.00  0.00    -0.326 N 
ATOM      2  C   UNL d   1      28.280 -15.119  -4.795  0.00  0.00     0.239 C 
ATOM      3  O   UNL d   1      27.346 -15.206  -5.595  0.00  0.00    -0.271 OA
ATOM      4  H   UNL d   1      29.038 -15.250  -2.854  0.00  0.00     0.169 HD
ENDROOT
BRANCH   1   5
ATOM      5  C   UNL d   1      27.007 -15.760  -2.732  0.00  0.00     0.036 A 
ATOM      6  C   UNL d   1      25.744 -15.281  -3.109  0.00  0.00     0.030 A 
ATOM      7  C   UNL d   1      24.582 -15.691  -2.405  0.00  0.00     0.021 A 
ATOM      8  C   UNL d   1      24.663 -16.570  -1.306  0.00  0.00     0.053 A 
ATOM      9  C   UNL d   1      25.913 -17.067  -0.959  0.00  0.00     0.051 A 
ATOM     10  C   UNL d   1      27.051 -16.655  -1.659  0.00  0.00     0.054 A 
ATOM     11 CL   UNL d   1      26.174 -18.237   0.289  0.00  0.00    -0.083 Cl
BRANCH   8  12
ATOM     12  C   UNL d   1      23.421 -16.975  -0.585  0.00  0.00     0.253 C 
ATOM     13  N   UNL d   1      23.181 -18.334  -0.462  0.00  0.00    -0.357 N 
ATOM     14  H   UNL d   1      23.797 -18.990  -0.927  0.00  0.00     0.162 HD
ATOM     15  O   UNL d   1      22.688 -16.110  -0.119  0.00  0.00    -0.268 OA
BRANCH  13  16
ATOM     16  C   UNL d   1      21.960 -18.842   0.141  0.00  0.00     0.122 C 
BRANCH  16  17
ATOM     17  C   UNL d   1      20.830 -19.018  -0.873  0.00  0.00     0.015 C 
ATOM     18  C   UNL d   1      19.510 -19.328  -0.179  0.00  0.00     0.006 C 
ENDBRANCH  16  17
ENDBRANCH  13  16
ENDBRANCH   8  12
ENDBRANCH   1   5
BRANCH   2  19
ATOM     19  C   UNL d   1      29.654 -14.728  -5.349  0.00  0.00     0.226 C 
BRANCH  19  20
ATOM     20  N   UNL d   1      30.700 -15.224  -4.436  0.00  0.00    -0.348 N 
ATOM     21  C   UNL d   1      30.795 -16.502  -3.916  0.00  0.00     0.258 C 
ATOM     22  O   UNL d   1      30.994 -16.616  -2.702  0.00  0.00    -0.267 OA
ATOM     23  H   UNL d   1      31.027 -14.521  -3.775  0.00  0.00     0.163 HD
BRANCH  21  24
ATOM     24  C   UNL d   1      30.770 -17.615  -4.857  0.00  0.00     0.073 A 
ATOM     25  C   UNL d   1      30.408 -18.930  -4.638  0.00  0.00     0.025 A 
ATOM     26  C   UNL d   1      30.461 -19.738  -5.794  0.00  0.00     0.015 A 
ATOM     27  C   UNL d   1      30.772 -19.013  -6.917  0.00  0.00    -0.020 A 
ATOM     28  C   UNL d   1      30.835 -19.538  -8.309  0.00  0.00     0.056 C 
ATOM     29  S   UNL d   1      31.075 -17.369  -6.538  0.00  0.00    -0.090 SA
ENDBRANCH  21  24
ENDBRANCH  19  20
ENDBRANCH   2  19
TORSDOF 7
ENDMDL
MODEL 4
REMARK VINA RESULT:    -7.680      1.401      1.592
REMARK INTER + INTRA:         -11.281
REMARK INTER:                  -9.768
REMARK INTRA:                  -1.512
REMARK CONF_INDEPENDENT:        2.088
REMARK UNBOUND:                -1.512
REMARK  7 active torsions:
REMARK  status: ('A' for Active; 'I' for Inactive)
REMARK    1  A    between atoms: C_2  and  C_3 
REMARK    2  A    between atoms: C_3  and  N_4 
REMARK       I    between atoms: N_4  and  C_5 
REMARK    3  A    between atoms: C_5  and  C_7 
REMARK    4  A    between atoms: C_10  and  N_11 
REMARK       I    between atoms: N_11  and  C_12 
REMARK    5  A    between atoms: C_12  and  C_14 
REMARK    6  A    between atoms: C_14  and  N_15 
REMARK       I    between atoms: N_15  and  C_16 
REMARK    7  A    between atoms: C_16  and  C_18 
ROOT
ATOM      1  N   UNL d   1      27.740 -14.491   2.114  0.00  0.00    -0.326 N 
ATOM      2  C   UNL d   1      27.045 -13.660   1.223  0.00  0.00     0.239 C 
ATOM      3  O   UNL d   1      26.571 -12.555   1.492  0.00  0.00    -0.271 OA
ATOM      4  H   UNL d   1      28.092 -15.381   1.777  0.00  0.00     0.169 HD
ENDROOT
BRANCH   1   5
ATOM      5  C   UNL d   1      27.985 -14.176   3.490  0.00  0.00     0.036 A 
ATOM      6  C   UNL d   1      28.155 -15.179   4.456  0.00  0.00     0.030 A 
ATOM      7  C   UNL d   1      28.387 -14.835   5.814  0.00  0.00     0.021 A 
ATOM      8  C   UNL d   1      28.434 -13.489   6.231  0.00  0.00     0.053 A 
ATOM      9  C   UNL d   1      28.298 -12.501   5.264  0.00  0.00     0.051 A 
ATOM     10  C   UNL d   1      28.069 -12.853   3.930  0.00  0.00     0.054 A 
ATOM     11 CL   UNL d   1      28.441 -10.808   5.587  0.00  0.00    -0.083 Cl
BRANCH   8  12
ATOM     12  C   UNL d   1      28.673 -13.164   7.667  0.00  0.00     0.253 C 
ATOM     13  N   UNL d   1      29.414 -14.076   8.402  0.00  0.00    -0.357 N 
ATOM     14  H   UNL d   1      29.690 -14.951   7.972  0.00  0.00     0.162 HD
ATOM     15  O   UNL d   1      28.234 -12.117   8.128  0.00  0.00    -0.268 OA
BRANCH  13  16
ATOM     16  C   UNL d   1      29.633 -13.909   9.829  0.00  0.00     0.122 C 
BRANCH  16  17
ATOM     17  C   UNL d   1      28.474 -14.443  10.670  0.00  0.00     0.015 C 
ATOM     18  C   UNL d   1      27.519 -13.325  11.067  0.00  0.00     0.006 C 
ENDBRANCH  16  17
ENDBRANCH  13  16
ENDBRANCH   8  12
ENDBRANCH   1   5
BRANCH   2  19
ATOM     19  C   UNL d   1      26.856 -14.185  -0.204  0.00  0.00     0.226 C 
BRANCH  19  20
ATOM     20  N   UNL d   1      27.350 -15.573  -0.276  0.00  0.00    -0.348 N 
ATOM     21  C   UNL d   1      26.724 -16.694   0.240  0.00  0.00     0.258 C 
ATOM     22  O   UNL d   1      27.405 -17.475   0.912  0.00  0.00    -0.267 OA
ATOM     23  H   UNL d   1      28.364 -15.645  -0.216  0.00  0.00     0.163 HD
BRANCH  21  24
ATOM     24  C   UNL d   1      25.338 -16.926  -0.145  0.00  0.00     0.073 A 
ATOM     25  C   UNL d   1      24.600 -16.321  -1.144  0.00  0.00     0.025 A 
ATOM     26  C   UNL d   1      23.287 -16.823  -1.269  0.00  0.00     0.015 A 
ATOM     27  C   UNL d   1      23.055 -17.881  -0.426  0.00  0.00    -0.020 A 
ATOM     28  C   UNL d   1      21.807 -18.689  -0.357  0.00  0.00     0.056 C 
ATOM     29  S   UNL d   1      24.416 -18.200   0.567  0.00  0.00    -0.090 SA
ENDBRANCH  21  24
ENDBRANCH  19  20
ENDBRANCH   2  19
TORSDOF 7
ENDMDL
MODEL 5
REMARK VINA RESULT:    -7.670      3.679      9.055
REMARK INTER + INTRA:         -10.932
REMARK INTER:                  -9.758
REMARK INTRA:                  -1.174
REMARK CONF_INDEPENDENT:        2.088
REMARK UNBOUND:                -1.174
REMARK  7 active torsions:
REMARK  status: ('A' for Active; 'I' for Inactive)
REMARK    1  A    between atoms: C_2  and  C_3 
REMARK    2  A    between atoms: C_3  and  N_4 
REMARK       I    between atoms: N_4  and  C_5 
REMARK    3  A    between atoms: C_5  and  C_7 
REMARK    4  A    between atoms: C_10  and  N_11 
REMARK       I    between atoms: N_11  and  C_12 
REMARK    5  A    between atoms: C_12  and  C_14 
REMARK    6  A    between atoms: C_14  and  N_15 
REMARK       I    between atoms: N_15  and  C_16 
REMARK    7  A    between atoms: C_16  and  C_18 
ROOT
ATOM      1  N   UNL d   1      28.195 -16.166   0.876  0.00  0.00    -0.326 N 
ATOM      2  C   UNL d   1      28.537 -14.814   0.735  0.00  0.00     0.239 C 
ATOM      3  O   UNL d   1      27.831 -13.944   0.222  0.00  0.00    -0.271 OA
ATOM      4  H   UNL d   1      28.858 -16.792   1.322  0.00  0.00     0.169 HD
ENDROOT
BRANCH   1   5
ATOM      5  C   UNL d   1      26.965 -16.742   0.419  0.00  0.00     0.036 A 
ATOM      6  C   UNL d   1      26.532 -18.001   0.861  0.00  0.00     0.030 A 
ATOM      7  C   UNL d   1      25.313 -18.549   0.382  0.00  0.00     0.021 A 
ATOM      8  C   UNL d   1      24.518 -17.859  -0.556  0.00  0.00     0.053 A 
ATOM      9  C   UNL d   1      24.936 -16.598  -0.964  0.00  0.00     0.051 A 
ATOM     10  C   UNL d   1      26.139 -16.070  -0.486  0.00  0.00     0.054 A 
ATOM     11 CL   UNL d   1      24.026 -15.575  -2.020  0.00  0.00    -0.083 Cl
BRANCH   8  12
ATOM     12  C   UNL d   1      23.246 -18.468  -1.043  0.00  0.00     0.253 C 
ATOM     13  N   UNL d   1      22.076 -18.059  -0.422  0.00  0.00    -0.357 N 
ATOM     14  H   UNL d   1      22.130 -17.440   0.378  0.00  0.00     0.162 HD
ATOM     15  O   UNL d   1      23.280 -19.272  -1.967  0.00  0.00    -0.268 OA
BRANCH  13  16
ATOM     16  C   UNL d   1      20.790 -18.650  -0.752  0.00  0.00     0.122 C 
BRANCH  16  17
ATOM     17  C   UNL d   1      20.365 -19.730   0.242  0.00  0.00     0.015 C 
ATOM     18  C   UNL d   1      19.023 -20.338  -0.145  0.00  0.00     0.006 C 
ENDBRANCH  16  17
ENDBRANCH  13  16
ENDBRANCH   8  12
ENDBRANCH   1   5
BRANCH   2  19
ATOM     19  C   UNL d   1      29.913 -14.392   1.259  0.00  0.00     0.226 C 
BRANCH  19  20
ATOM     20  N   UNL d   1      29.842 -12.995   1.729  0.00  0.00    -0.348 N 
ATOM     21  C   UNL d   1      28.952 -12.488   2.657  0.00  0.00     0.258 C 
ATOM     22  O   UNL d   1      28.362 -11.439   2.375  0.00  0.00    -0.267 OA
ATOM     23  H   UNL d   1      30.065 -12.313   1.006  0.00  0.00     0.163 HD
BRANCH  21  24
ATOM     24  C   UNL d   1      28.864 -13.165   3.945  0.00  0.00     0.073 A 
ATOM     25  C   UNL d   1      28.861 -14.520   4.216  0.00  0.00     0.025 A 
ATOM     26  C   UNL d   1      28.806 -14.828   5.591  0.00  0.00     0.015 A 
ATOM     27  C   UNL d   1      28.864 -13.703   6.376  0.00  0.00    -0.020 A 
ATOM     28  C   UNL d   1      28.905 -13.673   7.864  0.00  0.00     0.056 C 
ATOM     29  S   UNL d   1      28.905 -12.277   5.425  0.00  0.00    -0.090 SA
ENDBRANCH  21  24
ENDBRANCH  19  20
ENDBRANCH   2  19
TORSDOF 7
ENDMDL
MODEL 6
REMARK VINA RESULT:    -7.636      4.317      8.670
REMARK INTER + INTRA:         -11.204
REMARK INTER:                  -9.724
REMARK INTRA:                  -1.480
REMARK CONF_INDEPENDENT:        2.088
REMARK UNBOUND:                -1.480
REMARK  7 active torsions:
REMARK  status: ('A' for Active; 'I' for Inactive)
REMARK    1  A    between atoms: C_2  and  C_3 
REMARK    2  A    between atoms: C_3  and  N_4 
REMARK       I    between atoms: N_4  and  C_5 
REMARK    3  A    between atoms: C_5  and  C_7 
REMARK    4  A    between atoms: C_10  and  N_11 
REMARK       I    between atoms: N_11  and  C_12 
REMARK    5  A    between atoms: C_12  and  C_14 
REMARK    6  A    between atoms: C_14  and  N_15 
REMARK       I    between atoms: N_15  and  C_16 
REMARK    7  A    between atoms: C_16  and  C_18 
ROOT
ATOM      1  N   UNL d   1      28.340 -16.911   0.396  0.00  0.00    -0.326 N 
ATOM      2  C   UNL d   1      29.279 -16.807  -0.640  0.00  0.00     0.239 C 
ATOM      3  O   UNL d   1      29.036 -16.910  -1.843  0.00  0.00    -0.271 OA
ATOM      4  H   UNL d   1      28.657 -16.802   1.354  0.00  0.00     0.169 HD
ENDROOT
BRANCH   1   5
ATOM      5  C   UNL d   1      26.945 -17.174   0.200  0.00  0.00     0.036 A 
ATOM      6  C   UNL d   1      26.282 -18.193   0.900  0.00  0.00     0.030 A 
ATOM      7  C   UNL d   1      24.901 -18.435   0.677  0.00  0.00     0.021 A 
ATOM      8  C   UNL d   1      24.166 -17.678  -0.259  0.00  0.00     0.053 A 
ATOM      9  C   UNL d   1      24.821 -16.649  -0.924  0.00  0.00     0.051 A 
ATOM     10  C   UNL d   1      26.181 -16.421  -0.696  0.00  0.00     0.054 A 
ATOM     11 CL   UNL d   1      24.042 -15.558  -2.018  0.00  0.00    -0.083 Cl
BRANCH   8  12
ATOM     12  C   UNL d   1      22.718 -17.965  -0.473  0.00  0.00     0.253 C 
ATOM     13  N   UNL d   1      22.275 -19.236  -0.144  0.00  0.00    -0.357 N 
ATOM     14  H   UNL d   1      22.948 -19.937   0.143  0.00  0.00     0.162 HD
ATOM     15  O   UNL d   1      21.986 -17.080  -0.900  0.00  0.00    -0.268 OA
BRANCH  13  16
ATOM     16  C   UNL d   1      20.906 -19.656  -0.394  0.00  0.00     0.122 C 
BRANCH  16  17
ATOM     17  C   UNL d   1      20.153 -20.008   0.890  0.00  0.00     0.015 C 
ATOM     18  C   UNL d   1      18.775 -20.577   0.581  0.00  0.00     0.006 C 
ENDBRANCH  16  17
ENDBRANCH  13  16
ENDBRANCH   8  12
ENDBRANCH   1   5
BRANCH   2  19
ATOM     19  C   UNL d   1      30.733 -16.554  -0.229  0.00  0.00     0.226 C 
BRANCH  19  20
ATOM     20  N   UNL d   1      30.988 -15.101  -0.235  0.00  0.00    -0.348 N 
ATOM     21  C   UNL d   1      30.205 -14.129   0.360  0.00  0.00     0.258 C 
ATOM     22  O   UNL d   1      29.912 -13.134  -0.313  0.00  0.00    -0.267 OA
ATOM     23  H   UNL d   1      31.414 -14.768  -1.099  0.00  0.00     0.163 HD
BRANCH  21  24
ATOM     24  C   UNL d   1      29.882 -14.296   1.771  0.00  0.00     0.073 A 
ATOM     25  C   UNL d   1      30.730 -14.307   2.862  0.00  0.00     0.025 A 
ATOM     26  C   UNL d   1      30.068 -14.451   4.100  0.00  0.00     0.015 A 
ATOM     27  C   UNL d   1      28.703 -14.453   3.959  0.00  0.00    -0.020 A 
ATOM     28  C   UNL d   1      27.708 -14.510   5.065  0.00  0.00     0.056 C 
ATOM     29  S   UNL d   1      28.243 -14.360   2.310  0.00  0.00    -0.090 SA
ENDBRANCH  21  24
ENDBRANCH  19  20
ENDBRANCH   2  19
TORSDOF 7
ENDMDL
MODEL 7
REMARK VINA RESULT:    -7.452      6.409      8.951
REMARK INTER + INTRA:         -11.388
REMARK INTER:                  -9.540
REMARK INTRA:                  -1.848
REMARK CONF_INDEPENDENT:        2.088
REMARK UNBOUND:                -1.848
REMARK  7 active torsions:
REMARK  status: ('A' for Active; 'I' for Inactive)
REMARK    1  A    between atoms: C_2  and  C_3 
REMARK    2  A    between atoms: C_3  and  N_4 
REMARK       I    between atoms: N_4  and  C_5 
REMARK    3  A    between atoms: C_5  and  C_7 
REMARK    4  A    between atoms: C_10  and  N_11 
REMARK       I    between atoms: N_11  and  C_12 
REMARK    5  A    between atoms: C_12  and  C_14 
REMARK    6  A    between atoms: C_14  and  N_15 
REMARK       I    between atoms: N_15  and  C_16 
REMARK    7  A    between atoms: C_16  and  C_18 
ROOT
ATOM      1  N   UNL d   1      28.846 -17.361  -0.129  0.00  0.00    -0.326 N 
ATOM      2  C   UNL d   1      29.642 -16.239  -0.398  0.00  0.00     0.239 C 
ATOM      3  O   UNL d   1      29.227 -15.124  -0.721  0.00  0.00    -0.271 OA
ATOM      4  H   UNL d   1      29.301 -18.229   0.134  0.00  0.00     0.169 HD
ENDROOT
BRANCH   1   5
ATOM      5  C   UNL d   1      27.416 -17.378  -0.212  0.00  0.00     0.036 A 
ATOM      6  C   UNL d   1      26.639 -18.196   0.621  0.00  0.00     0.030 A 
ATOM      7  C   UNL d   1      25.224 -18.197   0.509  0.00  0.00     0.021 A 
ATOM      8  C   UNL d   1      24.564 -17.396  -0.446  0.00  0.00     0.053 A 
ATOM      9  C   UNL d   1      25.337 -16.563  -1.245  0.00  0.00     0.051 A 
ATOM     10  C   UNL d   1      26.730 -16.572  -1.125  0.00  0.00     0.054 A 
ATOM     11 CL   UNL d   1      24.683 -15.440  -2.386  0.00  0.00    -0.083 Cl
BRANCH   8  12
ATOM     12  C   UNL d   1      23.075 -17.427  -0.541  0.00  0.00     0.253 C 
ATOM     13  N   UNL d   1      22.485 -18.665  -0.739  0.00  0.00    -0.357 N 
ATOM     14  H   UNL d   1      23.073 -19.475  -0.894  0.00  0.00     0.162 HD
ATOM     15  O   UNL d   1      22.443 -16.384  -0.420  0.00  0.00    -0.268 OA
BRANCH  13  16
ATOM     16  C   UNL d   1      21.052 -18.805  -0.936  0.00  0.00     0.122 C 
BRANCH  16  17
ATOM     17  C   UNL d   1      20.350 -19.434   0.268  0.00  0.00     0.015 C 
ATOM     18  C   UNL d   1      19.037 -20.089  -0.141  0.00  0.00     0.006 C 
ENDBRANCH  16  17
ENDBRANCH  13  16
ENDBRANCH   8  12
ENDBRANCH   1   5
BRANCH   2  19
ATOM     19  C   UNL d   1      31.159 -16.426  -0.287  0.00  0.00     0.226 C 
BRANCH  19  20
ATOM     20  N   UNL d   1      31.464 -17.869  -0.264  0.00  0.00    -0.348 N 
ATOM     21  C   UNL d   1      30.977 -18.825  -1.137  0.00  0.00     0.258 C 
ATOM     22  O   UNL d   1      30.519 -19.866  -0.655  0.00  0.00    -0.267 OA
ATOM     23  H   UNL d   1      31.585 -18.243   0.676  0.00  0.00     0.163 HD
BRANCH  21  24
ATOM     24  C   UNL d   1      31.146 -18.580  -2.564  0.00  0.00     0.073 A 
ATOM     25  C   UNL d   1      31.960 -19.236  -3.468  0.00  0.00     0.025 A 
ATOM     26  C   UNL d   1      31.843 -18.762  -4.792  0.00  0.00     0.015 A 
ATOM     27  C   UNL d   1      30.865 -17.807  -4.914  0.00  0.00    -0.020 A 
ATOM     28  C   UNL d   1      30.429 -17.156  -6.180  0.00  0.00     0.056 C 
ATOM     29  S   UNL d   1      30.154 -17.439  -3.398  0.00  0.00    -0.090 SA
ENDBRANCH  21  24
ENDBRANCH  19  20
ENDBRANCH   2  19
TORSDOF 7
ENDMDL
MODEL 8
REMARK VINA RESULT:    -6.945      6.995      9.111
REMARK INTER + INTRA:         -10.790
REMARK INTER:                  -9.033
REMARK INTRA:                  -1.758
REMARK CONF_INDEPENDENT:        2.088
REMARK UNBOUND:                -1.758
REMARK  7 active torsions:
REMARK  status: ('A' for Active; 'I' for Inactive)
REMARK    1  A    between atoms: C_2  and  C_3 
REMARK    2  A    between atoms: C_3  and  N_4 
REMARK       I    between atoms: N_4  and  C_5 
REMARK    3  A    between atoms: C_5  and  C_7 
REMARK    4  A    between atoms: C_10  and  N_11 
REMARK       I    between atoms: N_11  and  C_12 
REMARK    5  A    between atoms: C_12  and  C_14 
REMARK    6  A    between atoms: C_14  and  N_15 
REMARK       I    between atoms: N_15  and  C_16 
REMARK    7  A    between atoms: C_16  and  C_18 
ROOT
ATOM      1  N   UNL d   1      27.708 -15.082  -3.175  0.00  0.00    -0.326 N 
ATOM      2  C   UNL d   1      28.457 -14.027  -2.633  0.00  0.00     0.239 C 
ATOM      3  O   UNL d   1      28.389 -13.620  -1.472  0.00  0.00    -0.271 OA
ATOM      4  H   UNL d   1      27.853 -15.333  -4.147  0.00  0.00     0.169 HD
ENDROOT
BRANCH   1   5
ATOM      5  C   UNL d   1      26.728 -15.835  -2.449  0.00  0.00     0.036 A 
ATOM      6  C   UNL d   1      25.362 -15.760  -2.760  0.00  0.00     0.030 A 
ATOM      7  C   UNL d   1      24.415 -16.511  -2.016  0.00  0.00     0.021 A 
ATOM      8  C   UNL d   1      24.813 -17.333  -0.941  0.00  0.00     0.053 A 
ATOM      9  C   UNL d   1      26.170 -17.428  -0.660  0.00  0.00     0.051 A 
ATOM     10  C   UNL d   1      27.093 -16.683  -1.400  0.00  0.00     0.054 A 
ATOM     11 CL   UNL d   1      26.834 -18.473   0.548  0.00  0.00    -0.083 Cl
BRANCH   8  12
ATOM     12  C   UNL d   1      23.789 -18.103  -0.177  0.00  0.00     0.253 C 
ATOM     13  N   UNL d   1      22.723 -18.617  -0.897  0.00  0.00    -0.357 N 
ATOM     14  H   UNL d   1      22.631 -18.386  -1.880  0.00  0.00     0.162 HD
ATOM     15  O   UNL d   1      23.938 -18.269   1.029  0.00  0.00    -0.268 OA
BRANCH  13  16
ATOM     16  C   UNL d   1      21.622 -19.306  -0.245  0.00  0.00     0.122 C 
BRANCH  16  17
ATOM     17  C   UNL d   1      20.271 -19.008  -0.896  0.00  0.00     0.015 C 
ATOM     18  C   UNL d   1      19.153 -19.804  -0.235  0.00  0.00     0.006 C 
ENDBRANCH  16  17
ENDBRANCH  13  16
ENDBRANCH   8  12
ENDBRANCH   1   5
BRANCH   2  19
ATOM     19  C   UNL d   1      29.434 -13.320  -3.577  0.00  0.00     0.226 C 
BRANCH  19  20
ATOM     20  N   UNL d   1      29.434 -14.014  -4.879  0.00  0.00    -0.348 N 
ATOM     21  C   UNL d   1      28.376 -14.090  -5.767  0.00  0.00     0.258 C 
ATOM     22  O   UNL d   1      28.092 -15.200  -6.230  0.00  0.00    -0.267 OA
ATOM     23  H   UNL d   1      29.994 -14.865  -4.884  0.00  0.00     0.163 HD
BRANCH  21  24
ATOM     24  C   UNL d   1      27.752 -12.839  -6.178  0.00  0.00     0.073 A 
ATOM     25  C   UNL d   1      27.893 -12.146  -7.364  0.00  0.00     0.025 A 
ATOM     26  C   UNL d   1      27.102 -10.980  -7.444  0.00  0.00     0.015 A 
ATOM     27  C   UNL d   1      26.281 -10.838  -6.353  0.00  0.00    -0.020 A 
ATOM     28  C   UNL d   1      25.267  -9.766  -6.153  0.00  0.00     0.056 C 
ATOM     29  S   UNL d   1      26.543 -12.083  -5.204  0.00  0.00    -0.090 SA
ENDBRANCH  21  24
ENDBRANCH  19  20
ENDBRANCH   2  19
TORSDOF 7
ENDMDL
MODEL 9
REMARK VINA RESULT:    -6.857      5.653      8.666
REMARK INTER + INTRA:         -10.906
REMARK INTER:                  -8.945
REMARK INTRA:                  -1.961
REMARK CONF_INDEPENDENT:        2.088
REMARK UNBOUND:                -1.961
REMARK  7 active torsions:
REMARK  status: ('A' for Active; 'I' for Inactive)
REMARK    1  A    between atoms: C_2  and  C_3 
REMARK    2  A    between atoms: C_3  and  N_4 
REMARK       I    between atoms: N_4  and  C_5 
REMARK    3  A    between atoms: C_5  and  C_7 
REMARK    4  A    between atoms: C_10  and  N_11 
REMARK       I    between atoms: N_11  and  C_12 
REMARK    5  A    between atoms: C_12  and  C_14 
REMARK    6  A    between atoms: C_14  and  N_15 
REMARK       I    between atoms: N_15  and  C_16 
REMARK    7  A    between atoms: C_16  and  C_18 
ROOT
ATOM      1  N   UNL d   1      28.830 -17.357  -0.222  0.00  0.00    -0.326 N 
ATOM      2  C   UNL d   1      29.693 -17.075  -1.291  0.00  0.00     0.239 C 
ATOM      3  O   UNL d   1      29.346 -16.781  -2.436  0.00  0.00    -0.271 OA
ATOM      4  H   UNL d   1      29.232 -17.583   0.682  0.00  0.00     0.169 HD
ENDROOT
BRANCH   1   5
ATOM      5  C   UNL d   1      27.401 -17.363  -0.315  0.00  0.00     0.036 A 
ATOM      6  C   UNL d   1      26.615 -18.224   0.464  0.00  0.00     0.030 A 
ATOM      7  C   UNL d   1      25.200 -18.212   0.342  0.00  0.00     0.021 A 
ATOM      8  C   UNL d   1      24.551 -17.355  -0.571  0.00  0.00     0.053 A 
ATOM      9  C   UNL d   1      25.333 -16.481  -1.315  0.00  0.00     0.051 A 
ATOM     10  C   UNL d   1      26.725 -16.504  -1.186  0.00  0.00     0.054 A 
ATOM     11 CL   UNL d   1      24.691 -15.292  -2.395  0.00  0.00    -0.083 Cl
BRANCH   8  12
ATOM     12  C   UNL d   1      23.063 -17.375  -0.678  0.00  0.00     0.253 C 
ATOM     13  N   UNL d   1      22.440 -18.604  -0.539  0.00  0.00    -0.357 N 
ATOM     14  H   UNL d   1      23.006 -19.440  -0.457  0.00  0.00     0.162 HD
ATOM     15  O   UNL d   1      22.459 -16.323  -0.857  0.00  0.00    -0.268 OA
BRANCH  13  16
ATOM     16  C   UNL d   1      21.005 -18.757  -0.713  0.00  0.00     0.122 C 
BRANCH  16  17
ATOM     17  C   UNL d   1      20.441 -19.950   0.058  0.00  0.00     0.015 C 
ATOM     18  C   UNL d   1      18.936 -20.075  -0.144  0.00  0.00     0.006 C 
ENDBRANCH  16  17
ENDBRANCH  13  16
ENDBRANCH   8  12
ENDBRANCH   1   5
BRANCH   2  19
ATOM     19  C   UNL d   1      31.196 -17.151  -1.003  0.00  0.00     0.226 C 
BRANCH  19  20
ATOM     20  N   UNL d   1      31.438 -16.754   0.397  0.00  0.00    -0.348 N 
ATOM     21  C   UNL d   1      31.400 -15.467   0.902  0.00  0.00     0.258 C 
ATOM     22  O   UNL d   1      32.339 -15.101   1.617  0.00  0.00    -0.267 OA
ATOM     23  H   UNL d   1      32.143 -17.323   0.863  0.00  0.00     0.163 HD
BRANCH  21  24
ATOM     24  C   UNL d   1      30.200 -14.679   0.647  0.00  0.00     0.073 A 
ATOM     25  C   UNL d   1      29.920 -13.843  -0.416  0.00  0.00     0.025 A 
ATOM     26  C   UNL d   1      28.633 -13.265  -0.365  0.00  0.00     0.015 A 
ATOM     27  C   UNL d   1      27.895 -13.741   0.690  0.00  0.00    -0.020 A 
ATOM     28  C   UNL d   1      26.477 -13.401   0.991  0.00  0.00     0.056 C 
ATOM     29  S   UNL d   1      28.807 -14.825   1.655  0.00  0.00    -0.090 SA
ENDBRANCH  21  24
ENDBRANCH  19  20
ENDBRANCH   2  19
TORSDOF 7
ENDMDL
