MODEL 1
REMARK VINA RESULT:    -7.651      0.000      0.000
REMARK INTER + INTRA:         -11.351
REMARK INTER:                  -9.739
REMARK INTRA:                  -1.612
REMARK CONF_INDEPENDENT:        2.088
REMARK UNBOUND:                -1.612
REMARK  7 active torsions:
REMARK  status: ('A' for Active; 'I' for Inactive)
REMARK    1  A    between atoms: C_2  and  N_3 
REMARK       I    between atoms: N_3  and  C_4 
REMARK       I    between atoms: C_4  and  N_6 
REMARK    2  A    between atoms: N_6  and  N_7 
REMARK       I    between atoms: N_7  and  C_8 
REMARK    3  A    between atoms: C_8  and  C_10 
REMARK    4  A    between atoms: C_10  and  C_11 
REMARK    5  A    between atoms: C_11  and  C_12 
REMARK    6  A    between atoms: C_17  and  O_18 
REMARK    7  A    between atoms: O_18  and  C_19 
ROOT
ATOM      1  N   UNL d   1      22.779 -17.746  -0.767  0.00  0.00    -0.266 N 
ATOM      2  C   UNL d   1      24.135 -17.473  -0.749  0.00  0.00     0.236 C 
ATOM      3  O   UNL d   1      24.911 -18.091  -0.019  0.00  0.00    -0.272 OA
ATOM      4  H   UNL d   1      22.094 -17.219  -1.305  0.00  0.00     0.190 HD
ENDROOT
BRANCH   2   5
ATOM      5  C   UNL d   1      24.597 -16.361  -1.697  0.00  0.00     0.109 C 
BRANCH   5   6
ATOM      6  C   UNL d   1      26.096 -16.060  -1.491  0.00  0.00     0.051 C 
BRANCH   6   7
ATOM      7  C   UNL d   1      26.868 -15.790  -2.764  0.00  0.00    -0.024 A 
ATOM      8  C   UNL d   1      28.245 -16.116  -2.710  0.00  0.00     0.010 A 
ATOM      9  C   UNL d   1      29.112 -15.822  -3.759  0.00  0.00     0.001 A 
ATOM     10  C   UNL d   1      28.603 -15.268  -4.923  0.00  0.00     0.003 A 
ATOM     11  C   UNL d   1      27.238 -14.967  -5.014  0.00  0.00     0.037 A 
ATOM     12  C   UNL d   1      26.351 -15.206  -3.943  0.00  0.00     0.075 A 
BRANCH  12  13
ATOM     13  O   UNL d   1      25.057 -14.810  -4.230  0.00  0.00    -0.351 OA
BRANCH  13  14
ATOM     14  C   UNL d   1      24.780 -13.419  -4.270  0.00  0.00     0.171 C 
ATOM     15  C   UNL d   1      25.570 -12.567  -3.313  0.00  0.00     0.034 C 
ENDBRANCH  13  14
ENDBRANCH  12  13
ENDBRANCH   6   7
ENDBRANCH   5   6
ENDBRANCH   2   5
BRANCH   1  16
ATOM     16  N   UNL d   1      22.271 -18.836   0.002  0.00  0.00    -0.249 N 
ATOM     17  C   UNL d   1      20.950 -19.213  -0.152  0.00  0.00     0.334 C 
ATOM     18  N   UNL d   1      20.568 -20.312   0.590  0.00  0.00    -0.342 N 
ATOM     19  O   UNL d   1      20.179 -18.600  -0.895  0.00  0.00    -0.246 OA
ATOM     20  H   UNL d   1      21.244 -20.782   1.173  0.00  0.00     0.164 HD
ATOM     21  H   UNL d   1      22.944 -19.334   0.578  0.00  0.00     0.192 HD
BRANCH  18  22
ATOM     22  C   UNL d   1      19.198 -20.819   0.542  0.00  0.00     0.120 C 
ATOM     23  C   UNL d   1      18.405 -20.590   1.823  0.00  0.00     0.026 C 
ENDBRANCH  18  22
ENDBRANCH   1  16
TORSDOF 7
ENDMDL
MODEL 2
REMARK VINA RESULT:    -7.550      1.215      2.633
REMARK INTER + INTRA:         -11.140
REMARK INTER:                  -9.639
REMARK INTRA:                  -1.502
REMARK CONF_INDEPENDENT:        2.088
REMARK UNBOUND:                -1.502
REMARK  7 active torsions:
REMARK  status: ('A' for Active; 'I' for Inactive)
REMARK    1  A    between atoms: C_2  and  N_3 
REMARK       I    between atoms: N_3  and  C_4 
REMARK       I    between atoms: C_4  and  N_6 
REMARK    2  A    between atoms: N_6  and  N_7 
REMARK       I    between atoms: N_7  and  C_8 
REMARK    3  A    between atoms: C_8  and  C_10 
REMARK    4  A    between atoms: C_10  and  C_11 
REMARK    5  A    between atoms: C_11  and  C_12 
REMARK    6  A    between atoms: C_17  and  O_18 
REMARK    7  A    between atoms: O_18  and  C_19 
ROOT
ATOM      1  N   UNL d   1      23.719 -17.454  -0.621  0.00  0.00    -0.266 N 
ATOM      2  C   UNL d   1      25.100 -17.506  -0.567  0.00  0.00     0.236 C 
ATOM      3  O   UNL d   1      25.692 -18.431  -0.009  0.00  0.00    -0.272 OA
ATOM      4  H   UNL d   1      23.188 -16.678  -1.015  0.00  0.00     0.190 HD
ENDROOT
BRANCH   2   5
ATOM      5  C   UNL d   1      25.832 -16.345  -1.248  0.00  0.00     0.109 C 
BRANCH   5   6
ATOM      6  C   UNL d   1      25.530 -16.325  -2.761  0.00  0.00     0.051 C 
BRANCH   6   7
ATOM      7  C   UNL d   1      25.808 -15.003  -3.444  0.00  0.00    -0.024 A 
ATOM      8  C   UNL d   1      25.095 -13.898  -2.921  0.00  0.00     0.010 A 
ATOM      9  C   UNL d   1      25.156 -12.638  -3.510  0.00  0.00     0.001 A 
ATOM     10  C   UNL d   1      25.998 -12.436  -4.593  0.00  0.00     0.003 A 
ATOM     11  C   UNL d   1      26.739 -13.507  -5.108  0.00  0.00     0.037 A 
ATOM     12  C   UNL d   1      26.652 -14.804  -4.560  0.00  0.00     0.075 A 
BRANCH  12  13
ATOM     13  O   UNL d   1      27.441 -15.718  -5.235  0.00  0.00    -0.351 OA
BRANCH  13  14
ATOM     14  C   UNL d   1      28.840 -15.690  -5.002  0.00  0.00     0.171 C 
ATOM     15  C   UNL d   1      29.708 -15.727  -6.232  0.00  0.00     0.034 C 
ENDBRANCH  13  14
ENDBRANCH  12  13
ENDBRANCH   6   7
ENDBRANCH   5   6
ENDBRANCH   2   5
BRANCH   1  16
ATOM     16  N   UNL d   1      22.953 -18.544  -0.107  0.00  0.00    -0.249 N 
ATOM     17  C   UNL d   1      21.605 -18.622  -0.407  0.00  0.00     0.334 C 
ATOM     18  N   UNL d   1      20.965 -19.740   0.086  0.00  0.00    -0.342 N 
ATOM     19  O   UNL d   1      21.031 -17.747  -1.060  0.00  0.00    -0.246 OA
ATOM     20  H   UNL d   1      21.487 -20.429   0.605  0.00  0.00     0.164 HD
ATOM     21  H   UNL d   1      23.469 -19.258   0.398  0.00  0.00     0.192 HD
BRANCH  18  22
ATOM     22  C   UNL d   1      19.536 -19.953  -0.138  0.00  0.00     0.120 C 
ATOM     23  C   UNL d   1      18.862 -20.812   0.926  0.00  0.00     0.026 C 
ENDBRANCH  18  22
ENDBRANCH   1  16
TORSDOF 7
ENDMDL
MODEL 3
REMARK VINA RESULT:    -7.441      1.077      2.097
REMARK INTER + INTRA:         -11.116
REMARK INTER:                  -9.529
REMARK INTRA:                  -1.587
REMARK CONF_INDEPENDENT:        2.088
REMARK UNBOUND:                -1.587
REMARK  7 active torsions:
REMARK  status: ('A' for Active; 'I' for Inactive)
REMARK    1  A    between atoms: C_2  and  N_3 
REMARK       I    between atoms: N_3  and  C_4 
REMARK       I    between atoms: C_4  and  N_6 
REMARK    2  A    between atoms: N_6  and  N_7 
REMARK       I    between atoms: N_7  and  C_8 
REMARK    3  A    between atoms: C_8  and  C_10 
REMARK    4  A    between atoms: C_10  and  C_11 
REMARK    5  A    between atoms: C_11  and  C_12 
REMARK    6  A    between atoms: C_17  and  O_18 
REMARK    7  A    between atoms: O_18  and  C_19 
ROOT
ATOM      1  N   UNL d   1      22.892 -18.057  -1.003  0.00  0.00    -0.266 N 
ATOM      2  C   UNL d   1      24.256 -17.827  -0.981  0.00  0.00     0.236 C 
ATOM      3  O   UNL d   1      25.003 -18.433  -0.211  0.00  0.00    -0.272 OA
ATOM      4  H   UNL d   1      22.230 -17.536  -1.575  0.00  0.00     0.190 HD
ENDROOT
BRANCH   2   5
ATOM      5  C   UNL d   1      24.765 -16.779  -1.976  0.00  0.00     0.109 C 
BRANCH   5   6
ATOM      6  C   UNL d   1      26.034 -16.088  -1.436  0.00  0.00     0.051 C 
BRANCH   6   7
ATOM      7  C   UNL d   1      26.233 -14.667  -1.916  0.00  0.00    -0.024 A 
ATOM      8  C   UNL d   1      26.885 -13.811  -0.995  0.00  0.00     0.010 A 
ATOM      9  C   UNL d   1      27.042 -12.449  -1.241  0.00  0.00     0.001 A 
ATOM     10  C   UNL d   1      26.619 -11.927  -2.454  0.00  0.00     0.003 A 
ATOM     11  C   UNL d   1      26.001 -12.760  -3.395  0.00  0.00     0.037 A 
ATOM     12  C   UNL d   1      25.784 -14.132  -3.144  0.00  0.00     0.075 A 
BRANCH  12  13
ATOM     13  O   UNL d   1      25.133 -14.764  -4.189  0.00  0.00    -0.351 OA
BRANCH  13  14
ATOM     14  C   UNL d   1      25.905 -15.574  -5.061  0.00  0.00     0.171 C 
ATOM     15  C   UNL d   1      27.287 -15.064  -5.374  0.00  0.00     0.034 C 
ENDBRANCH  13  14
ENDBRANCH  12  13
ENDBRANCH   6   7
ENDBRANCH   5   6
ENDBRANCH   2   5
BRANCH   1  16
ATOM     16  N   UNL d   1      22.340 -19.091  -0.187  0.00  0.00    -0.249 N 
ATOM     17  C   UNL d   1      20.977 -19.323  -0.222  0.00  0.00     0.334 C 
ATOM     18  N   UNL d   1      20.547 -20.378   0.555  0.00  0.00    -0.342 N 
ATOM     19  O   UNL d   1      20.214 -18.626  -0.896  0.00  0.00    -0.246 OA
ATOM     20  H   UNL d   1      21.217 -20.922   1.078  0.00  0.00     0.164 HD
ATOM     21  H   UNL d   1      23.004 -19.661   0.328  0.00  0.00     0.192 HD
BRANCH  18  22
ATOM     22  C   UNL d   1      19.132 -20.736   0.631  0.00  0.00     0.120 C 
ATOM     23  C   UNL d   1      18.406 -20.147   1.835  0.00  0.00     0.026 C 
ENDBRANCH  18  22
ENDBRANCH   1  16
TORSDOF 7
ENDMDL
MODEL 4
REMARK VINA RESULT:    -7.144      1.266      2.528
REMARK INTER + INTRA:         -10.883
REMARK INTER:                  -9.232
REMARK INTRA:                  -1.650
REMARK CONF_INDEPENDENT:        2.088
REMARK UNBOUND:                -1.650
REMARK  7 active torsions:
REMARK  status: ('A' for Active; 'I' for Inactive)
REMARK    1  A    between atoms: C_2  and  N_3 
REMARK       I    between atoms: N_3  and  C_4 
REMARK       I    between atoms: C_4  and  N_6 
REMARK    2  A    between atoms: N_6  and  N_7 
REMARK       I    between atoms: N_7  and  C_8 
REMARK    3  A    between atoms: C_8  and  C_10 
REMARK    4  A    between atoms: C_10  and  C_11 
REMARK    5  A    between atoms: C_11  and  C_12 
REMARK    6  A    between atoms: C_17  and  O_18 
REMARK    7  A    between atoms: O_18  and  C_19 
ROOT
ATOM      1  N   UNL d   1      22.694 -18.440  -1.042  0.00  0.00    -0.266 N 
ATOM      2  C   UNL d   1      23.959 -17.931  -0.810  0.00  0.00     0.236 C 
ATOM      3  O   UNL d   1      24.491 -17.999   0.299  0.00  0.00    -0.272 OA
ATOM      4  H   UNL d   1      22.191 -18.350  -1.923  0.00  0.00     0.190 HD
ENDROOT
BRANCH   2   5
ATOM      5  C   UNL d   1      24.645 -17.288  -2.020  0.00  0.00     0.109 C 
BRANCH   5   6
ATOM      6  C   UNL d   1      24.529 -15.751  -1.957  0.00  0.00     0.051 C 
BRANCH   6   7
ATOM      7  C   UNL d   1      25.432 -15.009  -2.919  0.00  0.00    -0.024 A 
ATOM      8  C   UNL d   1      24.808 -13.960  -3.637  0.00  0.00     0.010 A 
ATOM      9  C   UNL d   1      25.473 -13.258  -4.638  0.00  0.00     0.001 A 
ATOM     10  C   UNL d   1      26.807 -13.537  -4.890  0.00  0.00     0.003 A 
ATOM     11  C   UNL d   1      27.456 -14.548  -4.170  0.00  0.00     0.037 A 
ATOM     12  C   UNL d   1      26.787 -15.309  -3.188  0.00  0.00     0.075 A 
BRANCH  12  13
ATOM     13  O   UNL d   1      27.600 -16.272  -2.620  0.00  0.00    -0.351 OA
BRANCH  13  14
ATOM     14  C   UNL d   1      28.043 -16.069  -1.287  0.00  0.00     0.171 C 
ATOM     15  C   UNL d   1      27.629 -17.121  -0.293  0.00  0.00     0.034 C 
ENDBRANCH  13  14
ENDBRANCH  12  13
ENDBRANCH   6   7
ENDBRANCH   5   6
ENDBRANCH   2   5
BRANCH   1  16
ATOM     16  N   UNL d   1      22.020 -19.152  -0.003  0.00  0.00    -0.249 N 
ATOM     17  C   UNL d   1      20.819 -19.778  -0.283  0.00  0.00     0.334 C 
ATOM     18  N   UNL d   1      20.275 -20.487   0.768  0.00  0.00    -0.342 N 
ATOM     19  O   UNL d   1      20.283 -19.694  -1.391  0.00  0.00    -0.246 OA
ATOM     20  H   UNL d   1      20.763 -20.531   1.649  0.00  0.00     0.164 HD
ATOM     21  H   UNL d   1      22.509 -19.223   0.884  0.00  0.00     0.192 HD
BRANCH  18  22
ATOM     22  C   UNL d   1      19.002 -21.190   0.627  0.00  0.00     0.120 C 
ATOM     23  C   UNL d   1      17.996 -20.880   1.730  0.00  0.00     0.026 C 
ENDBRANCH  18  22
ENDBRANCH   1  16
TORSDOF 7
ENDMDL
MODEL 5
REMARK VINA RESULT:    -6.942      1.565      2.152
REMARK INTER + INTRA:         -10.632
REMARK INTER:                  -9.030
REMARK INTRA:                  -1.602
REMARK CONF_INDEPENDENT:        2.088
REMARK UNBOUND:                -1.602
REMARK  7 active torsions:
REMARK  status: ('A' for Active; 'I' for Inactive)
REMARK    1  A    between atoms: C_2  and  N_3 
REMARK       I    between atoms: N_3  and  C_4 
REMARK       I    between atoms: C_4  and  N_6 
REMARK    2  A    between atoms: N_6  and  N_7 
REMARK       I    between atoms: N_7  and  C_8 
REMARK    3  A    between atoms: C_8  and  C_10 
REMARK    4  A    between atoms: C_10  and  C_11 
REMARK    5  A    between atoms: C_11  and  C_12 
REMARK    6  A    between atoms: C_17  and  O_18 
REMARK    7  A    between atoms: O_18  and  C_19 
ROOT
ATOM      1  N   UNL d   1      23.578 -17.972  -0.807  0.00  0.00    -0.266 N 
ATOM      2  C   UNL d   1      24.923 -17.903  -0.492  0.00  0.00     0.236 C 
ATOM      3  O   UNL d   1      25.400 -18.535   0.453  0.00  0.00    -0.272 OA
ATOM      4  H   UNL d   1      23.130 -17.420  -1.537  0.00  0.00     0.190 HD
ENDROOT
BRANCH   2   5
ATOM      5  C   UNL d   1      25.768 -16.998  -1.394  0.00  0.00     0.109 C 
BRANCH   5   6
ATOM      6  C   UNL d   1      24.867 -16.033  -2.192  0.00  0.00     0.051 C 
BRANCH   6   7
ATOM      7  C   UNL d   1      25.613 -15.071  -3.092  0.00  0.00    -0.024 A 
ATOM      8  C   UNL d   1      25.899 -15.564  -4.388  0.00  0.00     0.010 A 
ATOM      9  C   UNL d   1      26.674 -14.845  -5.294  0.00  0.00     0.001 A 
ATOM     10  C   UNL d   1      27.115 -13.576  -4.951  0.00  0.00     0.003 A 
ATOM     11  C   UNL d   1      26.817 -13.053  -3.687  0.00  0.00     0.037 A 
ATOM     12  C   UNL d   1      26.079 -13.786  -2.733  0.00  0.00     0.075 A 
BRANCH  12  13
ATOM     13  O   UNL d   1      25.922 -13.099  -1.543  0.00  0.00    -0.351 OA
BRANCH  13  14
ATOM     14  C   UNL d   1      26.949 -13.211  -0.570  0.00  0.00     0.171 C 
ATOM     15  C   UNL d   1      26.684 -14.182   0.550  0.00  0.00     0.034 C 
ENDBRANCH  13  14
ENDBRANCH  12  13
ENDBRANCH   6   7
ENDBRANCH   5   6
ENDBRANCH   2   5
BRANCH   1  16
ATOM     16  N   UNL d   1      22.732 -18.871  -0.090  0.00  0.00    -0.249 N 
ATOM     17  C   UNL d   1      21.374 -18.874  -0.351  0.00  0.00     0.334 C 
ATOM     18  N   UNL d   1      20.650 -19.816   0.349  0.00  0.00    -0.342 N 
ATOM     19  O   UNL d   1      20.862 -18.082  -1.147  0.00  0.00    -0.246 OA
ATOM     20  H   UNL d   1      21.123 -20.446   0.979  0.00  0.00     0.164 HD
ATOM     21  H   UNL d   1      23.196 -19.526   0.532  0.00  0.00     0.192 HD
BRANCH  18  22
ATOM     22  C   UNL d   1      19.201 -19.929   0.188  0.00  0.00     0.120 C 
ATOM     23  C   UNL d   1      18.609 -21.205   0.777  0.00  0.00     0.026 C 
ENDBRANCH  18  22
ENDBRANCH   1  16
TORSDOF 7
ENDMDL
MODEL 6
REMARK VINA RESULT:    -6.593      2.067      2.502
REMARK INTER + INTRA:         -10.178
REMARK INTER:                  -8.681
REMARK INTRA:                  -1.497
REMARK CONF_INDEPENDENT:        2.088
REMARK UNBOUND:                -1.497
REMARK  7 active torsions:
REMARK  status: ('A' for Active; 'I' for Inactive)
REMARK    1  A    between atoms: C_2  and  N_3 
REMARK       I    between atoms: N_3  and  C_4 
REMARK       I    between atoms: C_4  and  N_6 
REMARK    2  A    between atoms: N_6  and  N_7 
REMARK       I    between atoms: N_7  and  C_8 
REMARK    3  A    between atoms: C_8  and  C_10 
REMARK    4  A    between atoms: C_10  and  C_11 
REMARK    5  A    between atoms: C_11  and  C_12 
REMARK    6  A    between atoms: C_17  and  O_18 
REMARK    7  A    between atoms: O_18  and  C_19 
ROOT
ATOM      1  N   UNL d   1      22.230 -18.977  -0.149  0.00  0.00    -0.266 N 
ATOM      2  C   UNL d   1      22.989 -17.857  -0.435  0.00  0.00     0.236 C 
ATOM      3  O   UNL d   1      22.547 -16.934  -1.123  0.00  0.00    -0.272 OA
ATOM      4  H   UNL d   1      22.575 -19.790   0.360  0.00  0.00     0.190 HD
ENDROOT
BRANCH   2   5
ATOM      5  C   UNL d   1      24.400 -17.843   0.162  0.00  0.00     0.109 C 
BRANCH   5   6
ATOM      6  C   UNL d   1      25.451 -17.578  -0.935  0.00  0.00     0.051 C 
BRANCH   6   7
ATOM      7  C   UNL d   1      26.056 -16.191  -0.908  0.00  0.00    -0.024 A 
ATOM      8  C   UNL d   1      26.819 -15.893   0.247  0.00  0.00     0.010 A 
ATOM      9  C   UNL d   1      27.345 -14.624   0.473  0.00  0.00     0.001 A 
ATOM     10  C   UNL d   1      27.189 -13.643  -0.494  0.00  0.00     0.003 A 
ATOM     11  C   UNL d   1      26.467 -13.923  -1.661  0.00  0.00     0.037 A 
ATOM     12  C   UNL d   1      25.879 -15.186  -1.886  0.00  0.00     0.075 A 
BRANCH  12  13
ATOM     13  O   UNL d   1      25.188 -15.242  -3.083  0.00  0.00    -0.351 OA
BRANCH  13  14
ATOM     14  C   UNL d   1      24.505 -14.074  -3.513  0.00  0.00     0.171 C 
ATOM     15  C   UNL d   1      25.152 -13.317  -4.641  0.00  0.00     0.034 C 
ENDBRANCH  13  14
ENDBRANCH  12  13
ENDBRANCH   6   7
ENDBRANCH   5   6
ENDBRANCH   2   5
BRANCH   1  16
ATOM     16  N   UNL d   1      20.867 -19.032  -0.572  0.00  0.00    -0.249 N 
ATOM     17  C   UNL d   1      20.059 -20.057  -0.116  0.00  0.00     0.334 C 
ATOM     18  N   UNL d   1      18.746 -19.991  -0.533  0.00  0.00    -0.342 N 
ATOM     19  O   UNL d   1      20.495 -20.959   0.604  0.00  0.00    -0.246 OA
ATOM     20  H   UNL d   1      18.442 -19.224  -1.113  0.00  0.00     0.164 HD
ATOM     21  H   UNL d   1      20.540 -18.255  -1.139  0.00  0.00     0.192 HD
BRANCH  18  22
ATOM     22  C   UNL d   1      17.776 -21.012  -0.142  0.00  0.00     0.120 C 
ATOM     23  C   UNL d   1      17.887 -21.450   1.314  0.00  0.00     0.026 C 
ENDBRANCH  18  22
ENDBRANCH   1  16
TORSDOF 7
ENDMDL
MODEL 7
REMARK VINA RESULT:    -6.485      3.890      8.221
REMARK INTER + INTRA:         -10.040
REMARK INTER:                  -8.573
REMARK INTRA:                  -1.467
REMARK CONF_INDEPENDENT:        2.088
REMARK UNBOUND:                -1.467
REMARK  7 active torsions:
REMARK  status: ('A' for Active; 'I' for Inactive)
REMARK    1  A    between atoms: C_2  and  N_3 
REMARK       I    between atoms: N_3  and  C_4 
REMARK       I    between atoms: C_4  and  N_6 
REMARK    2  A    between atoms: N_6  and  N_7 
REMARK       I    between atoms: N_7  and  C_8 
REMARK    3  A    between atoms: C_8  and  C_10 
REMARK    4  A    between atoms: C_10  and  C_11 
REMARK    5  A    between atoms: C_11  and  C_12 
REMARK    6  A    between atoms: C_17  and  O_18 
REMARK    7  A    between atoms: O_18  and  C_19 
ROOT
ATOM      1  N   UNL d   1      25.840 -12.812  -3.338  0.00  0.00    -0.266 N 
ATOM      2  C   UNL d   1      25.483 -14.075  -3.776  0.00  0.00     0.236 C 
ATOM      3  O   UNL d   1      24.626 -14.240  -4.645  0.00  0.00    -0.272 OA
ATOM      4  H   UNL d   1      26.495 -12.631  -2.579  0.00  0.00     0.190 HD
ENDROOT
BRANCH   2   5
ATOM      5  C   UNL d   1      26.227 -15.239  -3.114  0.00  0.00     0.109 C 
BRANCH   5   6
ATOM      6  C   UNL d   1      25.238 -16.340  -2.680  0.00  0.00     0.051 C 
BRANCH   6   7
ATOM      7  C   UNL d   1      25.557 -16.989  -1.350  0.00  0.00    -0.024 A 
ATOM      8  C   UNL d   1      26.934 -17.035  -1.023  0.00  0.00     0.010 A 
ATOM      9  C   UNL d   1      27.398 -17.698   0.110  0.00  0.00     0.001 A 
ATOM     10  C   UNL d   1      26.485 -18.264   0.986  0.00  0.00     0.003 A 
ATOM     11  C   UNL d   1      25.115 -18.202   0.701  0.00  0.00     0.037 A 
ATOM     12  C   UNL d   1      24.626 -17.582  -0.468  0.00  0.00     0.075 A 
BRANCH  12  13
ATOM     13  O   UNL d   1      23.248 -17.659  -0.571  0.00  0.00    -0.351 OA
BRANCH  13  14
ATOM     14  C   UNL d   1      22.665 -18.939  -0.761  0.00  0.00     0.171 C 
ATOM     15  C   UNL d   1      21.166 -18.960  -0.895  0.00  0.00     0.034 C 
ENDBRANCH  13  14
ENDBRANCH  12  13
ENDBRANCH   6   7
ENDBRANCH   5   6
ENDBRANCH   2   5
BRANCH   1  16
ATOM     16  N   UNL d   1      25.278 -11.662  -3.971  0.00  0.00    -0.249 N 
ATOM     17  C   UNL d   1      25.710 -10.404  -3.593  0.00  0.00     0.334 C 
ATOM     18  N   UNL d   1      25.152  -9.361  -4.301  0.00  0.00    -0.342 N 
ATOM     19  O   UNL d   1      26.528 -10.242  -2.683  0.00  0.00    -0.246 OA
ATOM     20  H   UNL d   1      24.495  -9.552  -5.043  0.00  0.00     0.164 HD
ATOM     21  H   UNL d   1      24.632 -11.840  -4.734  0.00  0.00     0.192 HD
BRANCH  18  22
ATOM     22  C   UNL d   1      25.501  -7.973  -4.005  0.00  0.00     0.120 C 
ATOM     23  C   UNL d   1      24.563  -6.949  -4.633  0.00  0.00     0.026 C 
ENDBRANCH  18  22
ENDBRANCH   1  16
TORSDOF 7
ENDMDL
MODEL 8
REMARK VINA RESULT:    -6.479      3.966      8.353
REMARK INTER + INTRA:         -10.167
REMARK INTER:                  -8.567
REMARK INTRA:                  -1.600
REMARK CONF_INDEPENDENT:        2.088
REMARK UNBOUND:                -1.600
REMARK  7 active torsions:
REMARK  status: ('A' for Active; 'I' for Inactive)
REMARK    1  A    between atoms: C_2  and  N_3 
REMARK       I    between atoms: N_3  and  C_4 
REMARK       I    between atoms: C_4  and  N_6 
REMARK    2  A    between atoms: N_6  and  N_7 
REMARK       I    between atoms: N_7  and  C_8 
REMARK    3  A    between atoms: C_8  and  C_10 
REMARK    4  A    between atoms: C_10  and  C_11 
REMARK    5  A    between atoms: C_11  and  C_12 
REMARK    6  A    between atoms: C_17  and  O_18 
REMARK    7  A    between atoms: O_18  and  C_19 
ROOT
ATOM      1  N   UNL d   1      25.712 -13.045  -3.153  0.00  0.00    -0.266 N 
ATOM      2  C   UNL d   1      25.273 -14.300  -3.532  0.00  0.00     0.236 C 
ATOM      3  O   UNL d   1      24.408 -14.449  -4.397  0.00  0.00    -0.272 OA
ATOM      4  H   UNL d   1      26.377 -12.872  -2.400  0.00  0.00     0.190 HD
ENDROOT
BRANCH   2   5
ATOM      5  C   UNL d   1      25.936 -15.478  -2.811  0.00  0.00     0.109 C 
BRANCH   5   6
ATOM      6  C   UNL d   1      25.524 -15.507  -1.325  0.00  0.00     0.051 C 
BRANCH   6   7
ATOM      7  C   UNL d   1      24.568 -16.621  -0.955  0.00  0.00    -0.024 A 
ATOM      8  C   UNL d   1      23.197 -16.270  -0.998  0.00  0.00     0.010 A 
ATOM      9  C   UNL d   1      22.201 -17.148  -0.578  0.00  0.00     0.001 A 
ATOM     10  C   UNL d   1      22.549 -18.429  -0.180  0.00  0.00     0.003 A 
ATOM     11  C   UNL d   1      23.897 -18.810  -0.161  0.00  0.00     0.037 A 
ATOM     12  C   UNL d   1      24.927 -17.920  -0.531  0.00  0.00     0.075 A 
BRANCH  12  13
ATOM     13  O   UNL d   1      26.184 -18.486  -0.412  0.00  0.00    -0.351 OA
BRANCH  13  14
ATOM     14  C   UNL d   1      27.039 -17.999   0.610  0.00  0.00     0.171 C 
ATOM     15  C   UNL d   1      27.946 -16.864   0.217  0.00  0.00     0.034 C 
ENDBRANCH  13  14
ENDBRANCH  12  13
ENDBRANCH   6   7
ENDBRANCH   5   6
ENDBRANCH   2   5
BRANCH   1  16
ATOM     16  N   UNL d   1      25.231 -11.891  -3.843  0.00  0.00    -0.249 N 
ATOM     17  C   UNL d   1      25.716 -10.644  -3.494  0.00  0.00     0.334 C 
ATOM     18  N   UNL d   1      25.235  -9.600  -4.256  0.00  0.00    -0.342 N 
ATOM     19  O   UNL d   1      26.513 -10.491  -2.565  0.00  0.00    -0.246 OA
ATOM     20  H   UNL d   1      24.592  -9.784  -5.011  0.00  0.00     0.164 HD
ATOM     21  H   UNL d   1      24.600 -12.063  -4.620  0.00  0.00     0.192 HD
BRANCH  18  22
ATOM     22  C   UNL d   1      25.646  -8.222  -3.997  0.00  0.00     0.120 C 
ATOM     23  C   UNL d   1      26.078  -7.457  -5.243  0.00  0.00     0.026 C 
ENDBRANCH  18  22
ENDBRANCH   1  16
TORSDOF 7
ENDMDL
MODEL 9
REMARK VINA RESULT:    -6.399      2.687      3.352
REMARK INTER + INTRA:         -10.074
REMARK INTER:                  -8.487
REMARK INTRA:                  -1.587
REMARK CONF_INDEPENDENT:        2.088
REMARK UNBOUND:                -1.587
REMARK  7 active torsions:
REMARK  status: ('A' for Active; 'I' for Inactive)
REMARK    1  A    between atoms: C_2  and  N_3 
REMARK       I    between atoms: N_3  and  C_4 
REMARK       I    between atoms: C_4  and  N_6 
REMARK    2  A    between atoms: N_6  and  N_7 
REMARK       I    between atoms: N_7  and  C_8 
REMARK    3  A    between atoms: C_8  and  C_10 
REMARK    4  A    between atoms: C_10  and  C_11 
REMARK    5  A    between atoms: C_11  and  C_12 
REMARK    6  A    between atoms: C_17  and  O_18 
REMARK    7  A    between atoms: O_18  and  C_19 
ROOT
ATOM      1  N   UNL d   1      23.011 -17.904  -0.707  0.00  0.00    -0.266 N 
ATOM      2  C   UNL d   1      24.388 -17.814  -0.624  0.00  0.00     0.236 C 
ATOM      3  O   UNL d   1      25.045 -18.573   0.092  0.00  0.00    -0.272 OA
ATOM      4  H   UNL d   1      22.424 -17.259  -1.234  0.00  0.00     0.190 HD
ENDROOT
BRANCH   2   5
ATOM      5  C   UNL d   1      25.033 -16.720  -1.481  0.00  0.00     0.109 C 
BRANCH   5   6
ATOM      6  C   UNL d   1      25.610 -15.601  -0.589  0.00  0.00     0.051 C 
BRANCH   6   7
ATOM      7  C   UNL d   1      27.106 -15.674  -0.373  0.00  0.00    -0.024 A 
ATOM      8  C   UNL d   1      27.708 -16.896  -0.758  0.00  0.00     0.010 A 
ATOM      9  C   UNL d   1      29.054 -17.161  -0.520  0.00  0.00     0.001 A 
ATOM     10  C   UNL d   1      29.850 -16.173   0.039  0.00  0.00     0.003 A 
ATOM     11  C   UNL d   1      29.285 -14.943   0.398  0.00  0.00     0.037 A 
ATOM     12  C   UNL d   1      27.912 -14.673   0.215  0.00  0.00     0.075 A 
BRANCH  12  13
ATOM     13  O   UNL d   1      27.557 -13.413   0.663  0.00  0.00    -0.351 OA
BRANCH  13  14
ATOM     14  C   UNL d   1      26.716 -13.325   1.802  0.00  0.00     0.171 C 
ATOM     15  C   UNL d   1      27.404 -13.465   3.134  0.00  0.00     0.034 C 
ENDBRANCH  13  14
ENDBRANCH  12  13
ENDBRANCH   6   7
ENDBRANCH   5   6
ENDBRANCH   2   5
BRANCH   1  16
ATOM     16  N   UNL d   1      22.331 -18.960  -0.028  0.00  0.00    -0.249 N 
ATOM     17  C   UNL d   1      20.976 -19.135  -0.236  0.00  0.00     0.334 C 
ATOM     18  N   UNL d   1      20.422 -20.216   0.417  0.00  0.00    -0.342 N 
ATOM     19  O   UNL d   1      20.322 -18.370  -0.950  0.00  0.00    -0.246 OA
ATOM     20  H   UNL d   1      21.006 -20.815   0.980  0.00  0.00     0.164 HD
ATOM     21  H   UNL d   1      22.910 -19.586   0.524  0.00  0.00     0.192 HD
BRANCH  18  22
ATOM     22  C   UNL d   1      18.997 -20.520   0.304  0.00  0.00     0.120 C 
ATOM     23  C   UNL d   1      18.405 -21.192   1.538  0.00  0.00     0.026 C 
ENDBRANCH  18  22
ENDBRANCH   1  16
TORSDOF 7
ENDMDL
