MODEL 1
REMARK VINA RESULT:    -7.383      0.000      0.000
REMARK INTER + INTRA:          -9.895
REMARK INTER:                  -8.874
REMARK INTRA:                  -1.021
REMARK CONF_INDEPENDENT:        1.492
REMARK UNBOUND:                -1.021
REMARK  5 active torsions:
REMARK  status: ('A' for Active; 'I' for Inactive)
REMARK    1  A    between atoms: O_2  and  C_3 
REMARK    2  A    between atoms: C_6  and  C_7 
REMARK       I    between atoms: C_7  and  N_9 
REMARK    3  A    between atoms: N_9  and  C_10 
REMARK    4  A    between atoms: C_10  and  N_12 
REMARK    5  A    between atoms: N_12  and  C_13 
ROOT
ATOM      1  C   UNL d   1      22.953 -17.782  -0.508  0.00  0.00     0.257 C 
ATOM      2  O   UNL d   1      22.755 -16.696  -1.063  0.00  0.00    -0.267 OA
ATOM      3  N   UNL d   1      24.235 -18.240  -0.128  0.00  0.00    -0.299 N 
ATOM      4  H   UNL d   1      24.292 -19.062   0.454  0.00  0.00     0.171 HD
ENDROOT
BRANCH   3   5
ATOM      5  C   UNL d   1      25.460 -17.687  -0.575  0.00  0.00     0.179 C 
ATOM      6  S   UNL d   1      26.965 -18.130   0.059  0.00  0.00    -0.040 SA
BRANCH   5   7
ATOM      7  N   UNL d   1      25.325 -16.691  -1.577  0.00  0.00    -0.330 N 
ATOM      8  H   UNL d   1      24.506 -16.710  -2.174  0.00  0.00     0.168 HD
BRANCH   7   9
ATOM      9  C   UNL d   1      26.014 -15.416  -1.496  0.00  0.00     0.075 A 
ATOM     10  C   UNL d   1      26.276 -14.798  -0.263  0.00  0.00     0.034 A 
ATOM     11  C   UNL d   1      26.995 -13.588  -0.225  0.00  0.00     0.022 A 
ATOM     12  C   UNL d   1      27.418 -13.018  -1.415  0.00  0.00     0.118 A 
ATOM     13  N   UNL d   1      27.145 -13.545  -2.620  0.00  0.00    -0.246 NA
ATOM     14  C   UNL d   1      26.448 -14.707  -2.635  0.00  0.00     0.152 A 
ATOM     15 CL   UNL d   1      25.901 -15.084  -4.231  0.00  0.00    -0.060 Cl
ENDBRANCH   7   9
ENDBRANCH   5   7
ENDBRANCH   3   5
BRANCH   1  16
ATOM     16  C   UNL d   1      21.701 -18.539  -0.195  0.00  0.00     0.034 A 
ATOM     17  C   UNL d   1      20.836 -18.861  -1.268  0.00  0.00     0.020 A 
ATOM     18  C   UNL d   1      19.621 -19.528  -1.061  0.00  0.00     0.039 A 
ATOM     19  C   UNL d   1      19.236 -19.885   0.233  0.00  0.00     0.089 A 
ATOM     20  C   UNL d   1      20.129 -19.640   1.289  0.00  0.00     0.068 A 
ATOM     21  C   UNL d   1      21.339 -18.952   1.081  0.00  0.00     0.044 A 
ATOM     22 CL   UNL d   1      19.893 -20.233   2.897  0.00  0.00    -0.081 Cl
BRANCH  19  23
ATOM     23  O   UNL d   1      18.036 -20.539   0.332  0.00  0.00    -0.354 OA
ATOM     24  C   UNL d   1      18.110 -21.823   0.958  0.00  0.00     0.210 C 
ENDBRANCH  19  23
ENDBRANCH   1  16
TORSDOF 5
ENDMDL
MODEL 2
REMARK VINA RESULT:    -7.174      4.420      6.001
REMARK INTER + INTRA:          -9.421
REMARK INTER:                  -8.666
REMARK INTRA:                  -0.755
REMARK CONF_INDEPENDENT:        1.492
REMARK UNBOUND:                -0.755
REMARK  5 active torsions:
REMARK  status: ('A' for Active; 'I' for Inactive)
REMARK    1  A    between atoms: O_2  and  C_3 
REMARK    2  A    between atoms: C_6  and  C_7 
REMARK       I    between atoms: C_7  and  N_9 
REMARK    3  A    between atoms: N_9  and  C_10 
REMARK    4  A    between atoms: C_10  and  N_12 
REMARK    5  A    between atoms: N_12  and  C_13 
ROOT
ATOM      1  C   UNL d   1      24.947 -14.080  -2.825  0.00  0.00     0.257 C 
ATOM      2  O   UNL d   1      23.978 -14.116  -3.592  0.00  0.00    -0.267 OA
ATOM      3  N   UNL d   1      25.852 -12.996  -2.764  0.00  0.00    -0.299 N 
ATOM      4  H   UNL d   1      26.521 -12.979  -2.008  0.00  0.00     0.171 HD
ENDROOT
BRANCH   3   5
ATOM      5  C   UNL d   1      25.958 -11.972  -3.736  0.00  0.00     0.179 C 
ATOM      6  S   UNL d   1      26.086 -10.331  -3.345  0.00  0.00    -0.040 SA
BRANCH   5   7
ATOM      7  N   UNL d   1      25.906 -12.428  -5.079  0.00  0.00    -0.330 N 
ATOM      8  H   UNL d   1      25.232 -12.009  -5.708  0.00  0.00     0.168 HD
BRANCH   7   9
ATOM      9  C   UNL d   1      27.032 -13.090  -5.713  0.00  0.00     0.075 A 
ATOM     10  C   UNL d   1      28.034 -12.363  -6.376  0.00  0.00     0.034 A 
ATOM     11  C   UNL d   1      29.137 -13.040  -6.933  0.00  0.00     0.022 A 
ATOM     12  C   UNL d   1      29.203 -14.420  -6.828  0.00  0.00     0.118 A 
ATOM     13  N   UNL d   1      28.244 -15.160  -6.250  0.00  0.00    -0.246 NA
ATOM     14  C   UNL d   1      27.188 -14.490  -5.726  0.00  0.00     0.152 A 
ATOM     15 CL   UNL d   1      25.905 -15.575  -5.316  0.00  0.00    -0.060 Cl
ENDBRANCH   7   9
ENDBRANCH   5   7
ENDBRANCH   3   5
BRANCH   1  16
ATOM     16  C   UNL d   1      25.030 -15.253  -1.900  0.00  0.00     0.034 A 
ATOM     17  C   UNL d   1      26.258 -15.489  -1.239  0.00  0.00     0.020 A 
ATOM     18  C   UNL d   1      26.439 -16.590  -0.390  0.00  0.00     0.039 A 
ATOM     19  C   UNL d   1      25.392 -17.491  -0.187  0.00  0.00     0.089 A 
ATOM     20  C   UNL d   1      24.148 -17.215  -0.776  0.00  0.00     0.068 A 
ATOM     21  C   UNL d   1      23.975 -16.121  -1.645  0.00  0.00     0.044 A 
ATOM     22 CL   UNL d   1      22.707 -18.106  -0.428  0.00  0.00    -0.081 Cl
BRANCH  19  23
ATOM     23  O   UNL d   1      25.664 -18.530   0.665  0.00  0.00    -0.354 OA
ATOM     24  C   UNL d   1      27.030 -18.950   0.671  0.00  0.00     0.210 C 
ENDBRANCH  19  23
ENDBRANCH   1  16
TORSDOF 5
ENDMDL
MODEL 3
REMARK VINA RESULT:    -6.760      2.234      2.373
REMARK INTER + INTRA:          -9.236
REMARK INTER:                  -8.252
REMARK INTRA:                  -0.984
REMARK CONF_INDEPENDENT:        1.492
REMARK UNBOUND:                -0.984
REMARK  5 active torsions:
REMARK  status: ('A' for Active; 'I' for Inactive)
REMARK    1  A    between atoms: O_2  and  C_3 
REMARK    2  A    between atoms: C_6  and  C_7 
REMARK       I    between atoms: C_7  and  N_9 
REMARK    3  A    between atoms: N_9  and  C_10 
REMARK    4  A    between atoms: C_10  and  N_12 
REMARK    5  A    between atoms: N_12  and  C_13 
ROOT
ATOM      1  C   UNL d   1      23.323 -17.951  -0.249  0.00  0.00     0.257 C 
ATOM      2  O   UNL d   1      24.191 -18.423   0.495  0.00  0.00    -0.267 OA
ATOM      3  N   UNL d   1      23.579 -16.935  -1.197  0.00  0.00    -0.299 N 
ATOM      4  H   UNL d   1      22.855 -16.717  -1.865  0.00  0.00     0.171 HD
ENDROOT
BRANCH   3   5
ATOM      5  C   UNL d   1      24.743 -16.130  -1.229  0.00  0.00     0.179 C 
ATOM      6  S   UNL d   1      25.094 -15.055  -2.489  0.00  0.00    -0.040 SA
BRANCH   5   7
ATOM      7  N   UNL d   1      25.623 -16.323  -0.133  0.00  0.00    -0.330 N 
ATOM      8  H   UNL d   1      25.327 -16.924   0.628  0.00  0.00     0.168 HD
BRANCH   7   9
ATOM      9  C   UNL d   1      27.055 -16.111  -0.245  0.00  0.00     0.075 A 
ATOM     10  C   UNL d   1      27.937 -17.169  -0.520  0.00  0.00     0.034 A 
ATOM     11  C   UNL d   1      29.312 -16.912  -0.674  0.00  0.00     0.022 A 
ATOM     12  C   UNL d   1      29.774 -15.613  -0.535  0.00  0.00     0.118 A 
ATOM     13  N   UNL d   1      28.977 -14.579  -0.221  0.00  0.00    -0.246 NA
ATOM     14  C   UNL d   1      27.657 -14.849  -0.071  0.00  0.00     0.152 A 
ATOM     15 CL   UNL d   1      26.825 -13.509   0.638  0.00  0.00    -0.060 Cl
ENDBRANCH   7   9
ENDBRANCH   5   7
ENDBRANCH   3   5
BRANCH   1  16
ATOM     16  C   UNL d   1      21.988 -18.613  -0.116  0.00  0.00     0.034 A 
ATOM     17  C   UNL d   1      21.277 -18.914  -1.302  0.00  0.00     0.020 A 
ATOM     18  C   UNL d   1      20.001 -19.493  -1.270  0.00  0.00     0.039 A 
ATOM     19  C   UNL d   1      19.398 -19.777  -0.043  0.00  0.00     0.089 A 
ATOM     20  C   UNL d   1      20.133 -19.556   1.132  0.00  0.00     0.068 A 
ATOM     21  C   UNL d   1      21.405 -18.956   1.098  0.00  0.00     0.044 A 
ATOM     22 CL   UNL d   1      19.611 -20.075   2.697  0.00  0.00    -0.081 Cl
BRANCH  19  23
ATOM     23  O   UNL d   1      18.154 -20.348  -0.116  0.00  0.00    -0.354 OA
ATOM     24  C   UNL d   1      18.020 -21.575   0.605  0.00  0.00     0.210 C 
ENDBRANCH  19  23
ENDBRANCH   1  16
TORSDOF 5
ENDMDL
MODEL 4
REMARK VINA RESULT:    -6.671      4.545      6.460
REMARK INTER + INTRA:          -9.421
REMARK INTER:                  -8.162
REMARK INTRA:                  -1.259
REMARK CONF_INDEPENDENT:        1.492
REMARK UNBOUND:                -1.259
REMARK  5 active torsions:
REMARK  status: ('A' for Active; 'I' for Inactive)
REMARK    1  A    between atoms: O_2  and  C_3 
REMARK    2  A    between atoms: C_6  and  C_7 
REMARK       I    between atoms: C_7  and  N_9 
REMARK    3  A    between atoms: N_9  and  C_10 
REMARK    4  A    between atoms: C_10  and  N_12 
REMARK    5  A    between atoms: N_12  and  C_13 
ROOT
ATOM      1  C   UNL d   1      25.094 -14.049  -3.070  0.00  0.00     0.257 C 
ATOM      2  O   UNL d   1      24.448 -14.251  -4.104  0.00  0.00    -0.267 OA
ATOM      3  N   UNL d   1      25.666 -12.799  -2.740  0.00  0.00    -0.299 N 
ATOM      4  H   UNL d   1      26.043 -12.681  -1.811  0.00  0.00     0.171 HD
ENDROOT
BRANCH   3   5
ATOM      5  C   UNL d   1      25.836 -11.721  -3.641  0.00  0.00     0.179 C 
ATOM      6  S   UNL d   1      26.280 -10.163  -3.152  0.00  0.00    -0.040 SA
BRANCH   5   7
ATOM      7  N   UNL d   1      25.563 -12.039  -4.997  0.00  0.00    -0.330 N 
ATOM      8  H   UNL d   1      24.640 -12.380  -5.240  0.00  0.00     0.168 HD
BRANCH   7   9
ATOM      9  C   UNL d   1      26.335 -11.479  -6.092  0.00  0.00     0.075 A 
ATOM     10  C   UNL d   1      25.906 -10.335  -6.784  0.00  0.00     0.034 A 
ATOM     11  C   UNL d   1      26.710  -9.792  -7.805  0.00  0.00     0.022 A 
ATOM     12  C   UNL d   1      27.909 -10.412  -8.119  0.00  0.00     0.118 A 
ATOM     13  N   UNL d   1      28.334 -11.537  -7.521  0.00  0.00    -0.246 NA
ATOM     14  C   UNL d   1      27.543 -12.046  -6.545  0.00  0.00     0.152 A 
ATOM     15 CL   UNL d   1      28.048 -13.640  -6.105  0.00  0.00    -0.060 Cl
ENDBRANCH   7   9
ENDBRANCH   5   7
ENDBRANCH   3   5
BRANCH   1  16
ATOM     16  C   UNL d   1      25.147 -15.229  -2.151  0.00  0.00     0.034 A 
ATOM     17  C   UNL d   1      26.412 -15.628  -1.658  0.00  0.00     0.020 A 
ATOM     18  C   UNL d   1      26.560 -16.747  -0.828  0.00  0.00     0.039 A 
ATOM     19  C   UNL d   1      25.441 -17.504  -0.476  0.00  0.00     0.089 A 
ATOM     20  C   UNL d   1      24.175 -17.064  -0.896  0.00  0.00     0.068 A 
ATOM     21  C   UNL d   1      24.032 -15.951  -1.746  0.00  0.00     0.044 A 
ATOM     22 CL   UNL d   1      22.691 -17.760  -0.346  0.00  0.00    -0.081 Cl
BRANCH  19  23
ATOM     23  O   UNL d   1      25.686 -18.575   0.344  0.00  0.00    -0.354 OA
ATOM     24  C   UNL d   1      26.983 -18.575   0.947  0.00  0.00     0.210 C 
ENDBRANCH  19  23
ENDBRANCH   1  16
TORSDOF 5
ENDMDL
MODEL 5
REMARK VINA RESULT:    -6.528      4.866      9.745
REMARK INTER + INTRA:          -8.607
REMARK INTER:                  -8.019
REMARK INTRA:                  -0.588
REMARK CONF_INDEPENDENT:        1.492
REMARK UNBOUND:                -0.588
REMARK  5 active torsions:
REMARK  status: ('A' for Active; 'I' for Inactive)
REMARK    1  A    between atoms: O_2  and  C_3 
REMARK    2  A    between atoms: C_6  and  C_7 
REMARK       I    between atoms: C_7  and  N_9 
REMARK    3  A    between atoms: N_9  and  C_10 
REMARK    4  A    between atoms: C_10  and  N_12 
REMARK    5  A    between atoms: N_12  and  C_13 
ROOT
ATOM      1  C   UNL d   1      27.195 -15.224  -4.889  0.00  0.00     0.257 C 
ATOM      2  O   UNL d   1      26.261 -15.533  -5.638  0.00  0.00    -0.267 OA
ATOM      3  N   UNL d   1      27.038 -14.991  -3.504  0.00  0.00    -0.299 N 
ATOM      4  H   UNL d   1      27.870 -14.895  -2.942  0.00  0.00     0.171 HD
ENDROOT
BRANCH   3   5
ATOM      5  C   UNL d   1      25.798 -14.789  -2.851  0.00  0.00     0.179 C 
ATOM      6  S   UNL d   1      24.460 -14.075  -3.601  0.00  0.00    -0.040 SA
BRANCH   5   7
ATOM      7  N   UNL d   1      25.775 -15.198  -1.492  0.00  0.00    -0.330 N 
ATOM      8  H   UNL d   1      26.023 -14.523  -0.778  0.00  0.00     0.168 HD
BRANCH   7   9
ATOM      9  C   UNL d   1      24.989 -16.332  -1.040  0.00  0.00     0.075 A 
ATOM     10  C   UNL d   1      23.588 -16.342  -1.138  0.00  0.00     0.034 A 
ATOM     11  C   UNL d   1      22.867 -17.483  -0.737  0.00  0.00     0.022 A 
ATOM     12  C   UNL d   1      23.558 -18.574  -0.236  0.00  0.00     0.118 A 
ATOM     13  N   UNL d   1      24.891 -18.590  -0.075  0.00  0.00    -0.246 NA
ATOM     14  C   UNL d   1      25.566 -17.480  -0.461  0.00  0.00     0.152 A 
ATOM     15 CL   UNL d   1      27.201 -17.520   0.099  0.00  0.00    -0.060 Cl
ENDBRANCH   7   9
ENDBRANCH   5   7
ENDBRANCH   3   5
BRANCH   1  16
ATOM     16  C   UNL d   1      28.530 -15.201  -5.565  0.00  0.00     0.034 A 
ATOM     17  C   UNL d   1      28.889 -14.035  -6.281  0.00  0.00     0.020 A 
ATOM     18  C   UNL d   1      30.100 -13.943  -6.981  0.00  0.00     0.039 A 
ATOM     19  C   UNL d   1      30.983 -15.025  -6.987  0.00  0.00     0.089 A 
ATOM     20  C   UNL d   1      30.667 -16.151  -6.210  0.00  0.00     0.068 A 
ATOM     21  C   UNL d   1      29.441 -16.248  -5.526  0.00  0.00     0.044 A 
ATOM     22 CL   UNL d   1      31.764 -17.460  -5.935  0.00  0.00    -0.081 Cl
BRANCH  19  23
ATOM     23  O   UNL d   1      32.142 -14.836  -7.692  0.00  0.00    -0.354 OA
ATOM     24  C   UNL d   1      32.056 -13.850  -8.724  0.00  0.00     0.210 C 
ENDBRANCH  19  23
ENDBRANCH   1  16
TORSDOF 5
ENDMDL
MODEL 6
REMARK VINA RESULT:    -6.453      4.672      6.499
REMARK INTER + INTRA:          -9.273
REMARK INTER:                  -7.944
REMARK INTRA:                  -1.329
REMARK CONF_INDEPENDENT:        1.492
REMARK UNBOUND:                -1.329
REMARK  5 active torsions:
REMARK  status: ('A' for Active; 'I' for Inactive)
REMARK    1  A    between atoms: O_2  and  C_3 
REMARK    2  A    between atoms: C_6  and  C_7 
REMARK       I    between atoms: C_7  and  N_9 
REMARK    3  A    between atoms: N_9  and  C_10 
REMARK    4  A    between atoms: C_10  and  N_12 
REMARK    5  A    between atoms: N_12  and  C_13 
ROOT
ATOM      1  C   UNL d   1      25.469 -14.410  -3.507  0.00  0.00     0.257 C 
ATOM      2  O   UNL d   1      24.344 -14.135  -3.940  0.00  0.00    -0.267 OA
ATOM      3  N   UNL d   1      26.654 -13.794  -3.970  0.00  0.00    -0.299 N 
ATOM      4  H   UNL d   1      27.507 -13.965  -3.460  0.00  0.00     0.171 HD
ENDROOT
BRANCH   3   5
ATOM      5  C   UNL d   1      26.759 -13.026  -5.154  0.00  0.00     0.179 C 
ATOM      6  S   UNL d   1      28.084 -13.114  -6.203  0.00  0.00    -0.040 SA
BRANCH   5   7
ATOM      7  N   UNL d   1      25.676 -12.136  -5.377  0.00  0.00    -0.330 N 
ATOM      8  H   UNL d   1      24.732 -12.475  -5.236  0.00  0.00     0.168 HD
BRANCH   7   9
ATOM      9  C   UNL d   1      25.840 -10.694  -5.332  0.00  0.00     0.075 A 
ATOM     10  C   UNL d   1      25.743  -9.907  -6.491  0.00  0.00     0.034 A 
ATOM     11  C   UNL d   1      25.856  -8.506  -6.397  0.00  0.00     0.022 A 
ATOM     12  C   UNL d   1      26.076  -7.931  -5.156  0.00  0.00     0.118 A 
ATOM     13  N   UNL d   1      26.228  -8.646  -4.030  0.00  0.00    -0.246 NA
ATOM     14  C   UNL d   1      26.122  -9.993  -4.143  0.00  0.00     0.152 A 
ATOM     15 CL   UNL d   1      26.654 -10.782  -2.699  0.00  0.00    -0.060 Cl
ENDBRANCH   7   9
ENDBRANCH   5   7
ENDBRANCH   3   5
BRANCH   1  16
ATOM     16  C   UNL d   1      25.459 -15.397  -2.382  0.00  0.00     0.034 A 
ATOM     17  C   UNL d   1      26.649 -15.564  -1.637  0.00  0.00     0.020 A 
ATOM     18  C   UNL d   1      26.744 -16.497  -0.596  0.00  0.00     0.039 A 
ATOM     19  C   UNL d   1      25.644 -17.298  -0.280  0.00  0.00     0.089 A 
ATOM     20  C   UNL d   1      24.437 -17.078  -0.962  0.00  0.00     0.068 A 
ATOM     21  C   UNL d   1      24.352 -16.154  -2.020  0.00  0.00     0.044 A 
ATOM     22 CL   UNL d   1      22.941 -17.824  -0.520  0.00  0.00    -0.081 Cl
BRANCH  19  23
ATOM     23  O   UNL d   1      25.832 -18.175   0.757  0.00  0.00    -0.354 OA
ATOM     24  C   UNL d   1      27.030 -18.950   0.669  0.00  0.00     0.210 C 
ENDBRANCH  19  23
ENDBRANCH   1  16
TORSDOF 5
ENDMDL
MODEL 7
REMARK VINA RESULT:    -6.401      5.622      8.407
REMARK INTER + INTRA:          -9.087
REMARK INTER:                  -7.892
REMARK INTRA:                  -1.195
REMARK CONF_INDEPENDENT:        1.492
REMARK UNBOUND:                -1.195
REMARK  5 active torsions:
REMARK  status: ('A' for Active; 'I' for Inactive)
REMARK    1  A    between atoms: O_2  and  C_3 
REMARK    2  A    between atoms: C_6  and  C_7 
REMARK       I    between atoms: C_7  and  N_9 
REMARK    3  A    between atoms: N_9  and  C_10 
REMARK    4  A    between atoms: C_10  and  N_12 
REMARK    5  A    between atoms: N_12  and  C_13 
ROOT
ATOM      1  C   UNL d   1      27.451 -14.076   2.273  0.00  0.00     0.257 C 
ATOM      2  O   UNL d   1      26.664 -13.234   1.827  0.00  0.00    -0.267 OA
ATOM      3  N   UNL d   1      27.987 -15.129   1.497  0.00  0.00    -0.299 N 
ATOM      4  H   UNL d   1      28.736 -15.677   1.894  0.00  0.00     0.171 HD
ENDROOT
BRANCH   3   5
ATOM      5  C   UNL d   1      27.494 -15.539   0.235  0.00  0.00     0.179 C 
ATOM      6  S   UNL d   1      28.283 -16.668  -0.748  0.00  0.00    -0.040 SA
BRANCH   5   7
ATOM      7  N   UNL d   1      26.295 -14.894  -0.167  0.00  0.00    -0.330 N 
ATOM      8  H   UNL d   1      25.767 -14.375   0.525  0.00  0.00     0.168 HD
BRANCH   7   9
ATOM      9  C   UNL d   1      26.034 -14.542  -1.551  0.00  0.00     0.075 A 
ATOM     10  C   UNL d   1      26.280 -13.249  -2.040  0.00  0.00     0.034 A 
ATOM     11  C   UNL d   1      26.064 -12.962  -3.401  0.00  0.00     0.022 A 
ATOM     12  C   UNL d   1      25.593 -13.965  -4.234  0.00  0.00     0.118 A 
ATOM     13  N   UNL d   1      25.294 -15.200  -3.801  0.00  0.00    -0.246 NA
ATOM     14  C   UNL d   1      25.504 -15.453  -2.485  0.00  0.00     0.152 A 
ATOM     15 CL   UNL d   1      24.780 -16.953  -2.018  0.00  0.00    -0.060 Cl
ENDBRANCH   7   9
ENDBRANCH   5   7
ENDBRANCH   3   5
BRANCH   1  16
ATOM     16  C   UNL d   1      27.857 -13.833   3.692  0.00  0.00     0.034 A 
ATOM     17  C   UNL d   1      28.183 -14.955   4.489  0.00  0.00     0.020 A 
ATOM     18  C   UNL d   1      28.530 -14.825   5.841  0.00  0.00     0.039 A 
ATOM     19  C   UNL d   1      28.551 -13.560   6.433  0.00  0.00     0.089 A 
ATOM     20  C   UNL d   1      28.309 -12.438   5.625  0.00  0.00     0.068 A 
ATOM     21  C   UNL d   1      27.940 -12.574   4.274  0.00  0.00     0.044 A 
ATOM     22 CL   UNL d   1      28.530 -10.809   6.162  0.00  0.00    -0.081 Cl
BRANCH  19  23
ATOM     23  O   UNL d   1      28.910 -13.535   7.756  0.00  0.00    -0.354 OA
ATOM     24  C   UNL d   1      30.292 -13.805   8.002  0.00  0.00     0.210 C 
ENDBRANCH  19  23
ENDBRANCH   1  16
TORSDOF 5
ENDMDL
MODEL 8
REMARK VINA RESULT:    -6.362      5.373      8.692
REMARK INTER + INTRA:          -8.940
REMARK INTER:                  -7.853
REMARK INTRA:                  -1.087
REMARK CONF_INDEPENDENT:        1.492
REMARK UNBOUND:                -1.087
REMARK  5 active torsions:
REMARK  status: ('A' for Active; 'I' for Inactive)
REMARK    1  A    between atoms: O_2  and  C_3 
REMARK    2  A    between atoms: C_6  and  C_7 
REMARK       I    between atoms: C_7  and  N_9 
REMARK    3  A    between atoms: N_9  and  C_10 
REMARK    4  A    between atoms: C_10  and  N_12 
REMARK    5  A    between atoms: N_12  and  C_13 
ROOT
ATOM      1  C   UNL d   1      27.577 -14.180   2.440  0.00  0.00     0.257 C 
ATOM      2  O   UNL d   1      26.658 -13.514   1.951  0.00  0.00    -0.267 OA
ATOM      3  N   UNL d   1      28.270 -15.189   1.732  0.00  0.00    -0.299 N 
ATOM      4  H   UNL d   1      29.102 -15.575   2.151  0.00  0.00     0.171 HD
ENDROOT
BRANCH   3   5
ATOM      5  C   UNL d   1      27.836 -15.770   0.517  0.00  0.00     0.179 C 
ATOM      6  S   UNL d   1      28.831 -16.729  -0.460  0.00  0.00    -0.040 SA
BRANCH   5   7
ATOM      7  N   UNL d   1      26.501 -15.452   0.155  0.00  0.00    -0.330 N 
ATOM      8  H   UNL d   1      26.279 -14.492  -0.086  0.00  0.00     0.168 HD
BRANCH   7   9
ATOM      9  C   UNL d   1      25.575 -16.454  -0.339  0.00  0.00     0.075 A 
ATOM     10  C   UNL d   1      25.355 -17.657   0.353  0.00  0.00     0.034 A 
ATOM     11  C   UNL d   1      24.408 -18.580  -0.132  0.00  0.00     0.022 A 
ATOM     12  C   UNL d   1      23.719 -18.288  -1.298  0.00  0.00     0.118 A 
ATOM     13  N   UNL d   1      23.933 -17.176  -2.020  0.00  0.00    -0.246 NA
ATOM     14  C   UNL d   1      24.853 -16.304  -1.539  0.00  0.00     0.152 A 
ATOM     15 CL   UNL d   1      25.248 -15.105  -2.721  0.00  0.00    -0.060 Cl
ENDBRANCH   7   9
ENDBRANCH   5   7
ENDBRANCH   3   5
BRANCH   1  16
ATOM     16  C   UNL d   1      27.954 -13.764   3.827  0.00  0.00     0.034 A 
ATOM     17  C   UNL d   1      28.269 -14.780   4.760  0.00  0.00     0.020 A 
ATOM     18  C   UNL d   1      28.589 -14.484   6.092  0.00  0.00     0.039 A 
ATOM     19  C   UNL d   1      28.592 -13.157   6.528  0.00  0.00     0.089 A 
ATOM     20  C   UNL d   1      28.360 -12.143   5.586  0.00  0.00     0.068 A 
ATOM     21  C   UNL d   1      28.019 -12.444   4.254  0.00  0.00     0.044 A 
ATOM     22 CL   UNL d   1      28.563 -10.459   5.926  0.00  0.00    -0.081 Cl
BRANCH  19  23
ATOM     23  O   UNL d   1      28.925 -12.970   7.844  0.00  0.00    -0.354 OA
ATOM     24  C   UNL d   1      29.600 -14.075   8.449  0.00  0.00     0.210 C 
ENDBRANCH  19  23
ENDBRANCH   1  16
TORSDOF 5
ENDMDL
MODEL 9
REMARK VINA RESULT:    -5.829      4.426      6.587
REMARK INTER + INTRA:          -8.535
REMARK INTER:                  -7.321
REMARK INTRA:                  -1.214
REMARK CONF_INDEPENDENT:        1.492
REMARK UNBOUND:                -1.214
REMARK  5 active torsions:
REMARK  status: ('A' for Active; 'I' for Inactive)
REMARK    1  A    between atoms: O_2  and  C_3 
REMARK    2  A    between atoms: C_6  and  C_7 
REMARK       I    between atoms: C_7  and  N_9 
REMARK    3  A    between atoms: N_9  and  C_10 
REMARK    4  A    between atoms: C_10  and  N_12 
REMARK    5  A    between atoms: N_12  and  C_13 
ROOT
ATOM      1  C   UNL d   1      25.281 -13.871  -3.310  0.00  0.00     0.257 C 
ATOM      2  O   UNL d   1      24.801 -14.118  -4.422  0.00  0.00    -0.267 OA
ATOM      3  N   UNL d   1      25.726 -12.587  -2.922  0.00  0.00    -0.299 N 
ATOM      4  H   UNL d   1      25.961 -12.440  -1.951  0.00  0.00     0.171 HD
ENDROOT
BRANCH   3   5
ATOM      5  C   UNL d   1      25.961 -11.508  -3.807  0.00  0.00     0.179 C 
ATOM      6  S   UNL d   1      26.438  -9.969  -3.290  0.00  0.00    -0.040 SA
BRANCH   5   7
ATOM      7  N   UNL d   1      25.722 -11.805  -5.174  0.00  0.00    -0.330 N 
ATOM      8  H   UNL d   1      24.803 -12.135  -5.447  0.00  0.00     0.168 HD
BRANCH   7   9
ATOM      9  C   UNL d   1      26.527 -11.236  -6.240  0.00  0.00     0.075 A 
ATOM     10  C   UNL d   1      26.162 -10.040  -6.879  0.00  0.00     0.034 A 
ATOM     11  C   UNL d   1      26.998  -9.494  -7.872  0.00  0.00     0.022 A 
ATOM     12  C   UNL d   1      28.164 -10.161  -8.213  0.00  0.00     0.118 A 
ATOM     13  N   UNL d   1      28.526 -11.333  -7.667  0.00  0.00    -0.246 NA
ATOM     14  C   UNL d   1      27.705 -11.845  -6.717  0.00  0.00     0.152 A 
ATOM     15 CL   UNL d   1      28.123 -13.482  -6.351  0.00  0.00    -0.060 Cl
ENDBRANCH   7   9
ENDBRANCH   5   7
ENDBRANCH   3   5
BRANCH   1  16
ATOM     16  C   UNL d   1      25.271 -15.038  -2.374  0.00  0.00     0.034 A 
ATOM     17  C   UNL d   1      24.018 -15.590  -2.017  0.00  0.00     0.020 A 
ATOM     18  C   UNL d   1      23.912 -16.655  -1.112  0.00  0.00     0.039 A 
ATOM     19  C   UNL d   1      25.063 -17.191  -0.532  0.00  0.00     0.089 A 
ATOM     20  C   UNL d   1      26.312 -16.701  -0.946  0.00  0.00     0.068 A 
ATOM     21  C   UNL d   1      26.414 -15.618  -1.839  0.00  0.00     0.044 A 
ATOM     22 CL   UNL d   1      27.818 -17.421  -0.495  0.00  0.00    -0.081 Cl
BRANCH  19  23
ATOM     23  O   UNL d   1      24.857 -18.234   0.333  0.00  0.00    -0.354 OA
ATOM     24  C   UNL d   1      23.635 -18.945   0.125  0.00  0.00     0.210 C 
ENDBRANCH  19  23
ENDBRANCH   1  16
TORSDOF 5
ENDMDL
