MODEL 1
REMARK VINA RESULT:    -9.035      0.000      0.000
REMARK INTER + INTRA:         -11.855
REMARK INTER:                 -10.527
REMARK INTRA:                  -1.329
REMARK CONF_INDEPENDENT:        1.492
REMARK UNBOUND:                -1.329
REMARK  5 active torsions:
REMARK  status: ('A' for Active; 'I' for Inactive)
REMARK    1  A    between atoms: C_5  and  N_6 
REMARK    2  A    between atoms: C_8  and  C_9 
REMARK       I    between atoms: C_9  and  N_11 
REMARK    3  A    between atoms: N_11  and  N_12 
REMARK    4  A    between atoms: C_13  and  C_14 
REMARK    5  A    between atoms: C_18  and  C_19 
ROOT
ATOM      1  N   UNL d   1      25.955  -9.737  -5.815  0.00  0.00    -0.196 N 
ATOM      2  N   UNL d   1      25.691 -10.896  -5.078  0.00  0.00    -0.158 NA
ATOM      3  C   UNL d   1      26.359 -11.982  -5.373  0.00  0.00     0.158 A 
ATOM      4  C   UNL d   1      27.419 -12.000  -6.425  0.00  0.00     0.016 A 
ATOM      5  C   UNL d   1      28.107 -13.145  -6.830  0.00  0.00     0.015 C 
ATOM      6  C   UNL d   1      28.906 -13.135  -7.971  0.00  0.00     0.001 C 
ATOM      7  C   UNL d   1      29.262 -11.929  -8.554  0.00  0.00     0.001 C 
ATOM      8  C   UNL d   1      28.698 -10.754  -8.079  0.00  0.00     0.018 C 
ATOM      9  C   UNL d   1      27.707 -10.812  -7.086  0.00  0.00     0.047 A 
ATOM     10  C   UNL d   1      26.932  -9.611  -6.794  0.00  0.00     0.279 A 
ATOM     11  O   UNL d   1      27.194  -8.579  -7.425  0.00  0.00    -0.265 OA
ENDROOT
BRANCH   3  12
ATOM     12  C   UNL d   1      26.001 -13.299  -4.625  0.00  0.00     0.292 C 
ATOM     13  O   UNL d   1      26.766 -14.262  -4.657  0.00  0.00    -0.264 OA
ATOM     14  N   UNL d   1      24.796 -13.344  -3.936  0.00  0.00    -0.242 N 
ATOM     15  H   UNL d   1      24.152 -12.560  -3.962  0.00  0.00     0.192 HD
BRANCH  14  16
ATOM     16  N   UNL d   1      24.522 -14.496  -3.223  0.00  0.00    -0.183 NA
ATOM     17  C   UNL d   1      25.296 -14.827  -2.242  0.00  0.00     0.150 C 
BRANCH  17  18
ATOM     18  C   UNL d   1      24.999 -16.036  -1.424  0.00  0.00    -0.016 C 
ATOM     19  C   UNL d   1      26.032 -16.845  -0.942  0.00  0.00     0.013 C 
ATOM     20  C   UNL d   1      25.738 -18.021  -0.243  0.00  0.00     0.002 C 
ATOM     21  C   UNL d   1      24.420 -18.462  -0.151  0.00  0.00     0.016 C 
ATOM     22  C   UNL d   1      23.373 -17.668  -0.642  0.00  0.00     0.048 C 
ATOM     23  C   UNL d   1      23.668 -16.407  -1.202  0.00  0.00     0.029 C 
BRANCH  22  24
ATOM     24  C   UNL d   1      21.965 -18.217  -0.629  0.00  0.00     0.417 C 
ATOM     25  F   UNL d   1      21.566 -18.579   0.623  0.00  0.00    -0.166 F 
ATOM     26  F   UNL d   1      21.045 -17.317  -1.068  0.00  0.00    -0.166 F 
ATOM     27  F   UNL d   1      21.809 -19.325  -1.403  0.00  0.00    -0.166 F 
ENDBRANCH  22  24
ENDBRANCH  17  18
ENDBRANCH  14  16
ENDBRANCH   3  12
BRANCH   1  28
ATOM     28  C   UNL d   1      25.136  -8.619  -5.517  0.00  0.00     0.062 A 
ATOM     29  C   UNL d   1      23.902  -8.483  -6.144  0.00  0.00     0.032 A 
ATOM     30  C   UNL d   1      23.067  -7.416  -5.809  0.00  0.00     0.009 A 
ATOM     31  C   UNL d   1      23.465  -6.455  -4.864  0.00  0.00    -0.056 A 
ATOM     32  C   UNL d   1      22.566  -5.285  -4.583  0.00  0.00     0.049 C 
ATOM     33  C   UNL d   1      24.700  -6.603  -4.204  0.00  0.00    -0.054 A 
ATOM     34  C   UNL d   1      25.515  -7.699  -4.526  0.00  0.00     0.039 A 
ATOM     35  C   UNL d   1      25.162  -5.617  -3.164  0.00  0.00     0.049 C 
ENDBRANCH   1  28
TORSDOF 5
ENDMDL
MODEL 2
REMARK VINA RESULT:    -9.013      0.352      1.177
REMARK INTER + INTRA:         -11.845
REMARK INTER:                 -10.504
REMARK INTRA:                  -1.340
REMARK CONF_INDEPENDENT:        1.492
REMARK UNBOUND:                -1.340
REMARK  5 active torsions:
REMARK  status: ('A' for Active; 'I' for Inactive)
REMARK    1  A    between atoms: C_5  and  N_6 
REMARK    2  A    between atoms: C_8  and  C_9 
REMARK       I    between atoms: C_9  and  N_11 
REMARK    3  A    between atoms: N_11  and  N_12 
REMARK    4  A    between atoms: C_13  and  C_14 
REMARK    5  A    between atoms: C_18  and  C_19 
ROOT
ATOM      1  N   UNL d   1      25.962  -9.606  -5.734  0.00  0.00    -0.196 N 
ATOM      2  N   UNL d   1      25.741 -10.781  -5.009  0.00  0.00    -0.158 NA
ATOM      3  C   UNL d   1      26.382 -11.862  -5.375  0.00  0.00     0.158 A 
ATOM      4  C   UNL d   1      27.371 -11.859  -6.494  0.00  0.00     0.016 A 
ATOM      5  C   UNL d   1      28.023 -12.996  -6.972  0.00  0.00     0.015 C 
ATOM      6  C   UNL d   1      28.745 -12.961  -8.163  0.00  0.00     0.001 C 
ATOM      7  C   UNL d   1      29.069 -11.743  -8.738  0.00  0.00     0.001 C 
ATOM      8  C   UNL d   1      28.545 -10.578  -8.198  0.00  0.00     0.018 C 
ATOM      9  C   UNL d   1      27.621 -10.656  -7.143  0.00  0.00     0.047 A 
ATOM     10  C   UNL d   1      26.874  -9.459  -6.772  0.00  0.00     0.279 A 
ATOM     11  O   UNL d   1      27.099  -8.413  -7.394  0.00  0.00    -0.265 OA
ENDROOT
BRANCH   3  12
ATOM     12  C   UNL d   1      26.066 -13.196  -4.637  0.00  0.00     0.292 C 
ATOM     13  O   UNL d   1      26.861 -14.135  -4.678  0.00  0.00    -0.264 OA
ATOM     14  N   UNL d   1      24.865 -13.285  -3.946  0.00  0.00    -0.242 N 
ATOM     15  H   UNL d   1      24.197 -12.521  -3.965  0.00  0.00     0.192 HD
BRANCH  14  16
ATOM     16  N   UNL d   1      24.628 -14.450  -3.243  0.00  0.00    -0.183 NA
ATOM     17  C   UNL d   1      25.337 -14.705  -2.192  0.00  0.00     0.150 C 
BRANCH  17  18
ATOM     18  C   UNL d   1      25.073 -15.929  -1.386  0.00  0.00    -0.016 C 
ATOM     19  C   UNL d   1      26.128 -16.695  -0.881  0.00  0.00     0.013 C 
ATOM     20  C   UNL d   1      25.869 -17.885  -0.193  0.00  0.00     0.002 C 
ATOM     21  C   UNL d   1      24.569 -18.383  -0.134  0.00  0.00     0.016 C 
ATOM     22  C   UNL d   1      23.500 -17.632  -0.647  0.00  0.00     0.048 C 
ATOM     23  C   UNL d   1      23.754 -16.358  -1.195  0.00  0.00     0.029 C 
BRANCH  22  24
ATOM     24  C   UNL d   1      22.118 -18.241  -0.668  0.00  0.00     0.417 C 
ATOM     25  F   UNL d   1      21.731 -18.680   0.562  0.00  0.00    -0.166 F 
ATOM     26  F   UNL d   1      21.161 -17.361  -1.068  0.00  0.00    -0.166 F 
ATOM     27  F   UNL d   1      22.013 -19.316  -1.496  0.00  0.00    -0.166 F 
ENDBRANCH  22  24
ENDBRANCH  17  18
ENDBRANCH  14  16
ENDBRANCH   3  12
BRANCH   1  28
ATOM     28  C   UNL d   1      25.172  -8.492  -5.355  0.00  0.00     0.062 A 
ATOM     29  C   UNL d   1      25.533  -7.736  -4.244  0.00  0.00     0.032 A 
ATOM     30  C   UNL d   1      24.792  -6.604  -3.905  0.00  0.00     0.009 A 
ATOM     31  C   UNL d   1      23.664  -6.226  -4.653  0.00  0.00    -0.056 A 
ATOM     32  C   UNL d   1      22.854  -5.039  -4.212  0.00  0.00     0.049 C 
ATOM     33  C   UNL d   1      23.311  -6.968  -5.796  0.00  0.00    -0.054 A 
ATOM     34  C   UNL d   1      24.084  -8.086  -6.146  0.00  0.00     0.039 A 
ATOM     35  C   UNL d   1      22.128  -6.591  -6.647  0.00  0.00     0.049 C 
ENDBRANCH   1  28
TORSDOF 5
ENDMDL
MODEL 3
REMARK VINA RESULT:    -9.010      5.551      7.323
REMARK INTER + INTRA:         -11.792
REMARK INTER:                 -10.502
REMARK INTRA:                  -1.290
REMARK CONF_INDEPENDENT:        1.492
REMARK UNBOUND:                -1.290
REMARK  5 active torsions:
REMARK  status: ('A' for Active; 'I' for Inactive)
REMARK    1  A    between atoms: C_5  and  N_6 
REMARK    2  A    between atoms: C_8  and  C_9 
REMARK       I    between atoms: C_9  and  N_11 
REMARK    3  A    between atoms: N_11  and  N_12 
REMARK    4  A    between atoms: C_13  and  C_14 
REMARK    5  A    between atoms: C_18  and  C_19 
ROOT
ATOM      1  N   UNL d   1      27.454 -14.315   0.138  0.00  0.00    -0.196 N 
ATOM      2  N   UNL d   1      26.345 -15.149  -0.038  0.00  0.00    -0.158 NA
ATOM      3  C   UNL d   1      26.074 -15.569  -1.248  0.00  0.00     0.158 A 
ATOM      4  C   UNL d   1      26.938 -15.229  -2.418  0.00  0.00     0.016 A 
ATOM      5  C   UNL d   1      26.654 -15.587  -3.737  0.00  0.00     0.015 C 
ATOM      6  C   UNL d   1      27.370 -15.038  -4.799  0.00  0.00     0.001 C 
ATOM      7  C   UNL d   1      28.553 -14.360  -4.556  0.00  0.00     0.001 C 
ATOM      8  C   UNL d   1      28.935 -14.110  -3.246  0.00  0.00     0.018 C 
ATOM      9  C   UNL d   1      28.073 -14.459  -2.193  0.00  0.00     0.047 A 
ATOM     10  C   UNL d   1      28.353 -13.949  -0.856  0.00  0.00     0.279 A 
ATOM     11  O   UNL d   1      29.354 -13.239  -0.699  0.00  0.00    -0.265 OA
ENDROOT
BRANCH   3  12
ATOM     12  C   UNL d   1      24.787 -16.416  -1.468  0.00  0.00     0.292 C 
ATOM     13  O   UNL d   1      24.708 -17.196  -2.416  0.00  0.00    -0.264 OA
ATOM     14  N   UNL d   1      23.743 -16.252  -0.567  0.00  0.00    -0.242 N 
ATOM     15  H   UNL d   1      23.803 -15.567   0.179  0.00  0.00     0.192 HD
BRANCH  14  16
ATOM     16  N   UNL d   1      22.634 -17.057  -0.737  0.00  0.00    -0.183 NA
ATOM     17  C   UNL d   1      22.426 -18.025   0.095  0.00  0.00     0.150 C 
BRANCH  17  18
ATOM     18  C   UNL d   1      21.213 -18.880  -0.033  0.00  0.00    -0.016 C 
ATOM     19  C   UNL d   1      20.510 -18.948  -1.239  0.00  0.00     0.013 C 
ATOM     20  C   UNL d   1      19.328 -19.690  -1.325  0.00  0.00     0.002 C 
ATOM     21  C   UNL d   1      18.773 -20.246  -0.175  0.00  0.00     0.016 C 
ATOM     22  C   UNL d   1      19.459 -20.175   1.047  0.00  0.00     0.048 C 
ATOM     23  C   UNL d   1      20.729 -19.563   1.089  0.00  0.00     0.029 C 
BRANCH  22  24
ATOM     24  C   UNL d   1      18.787 -20.689   2.299  0.00  0.00     0.417 C 
ATOM     25  F   UNL d   1      19.600 -20.604   3.390  0.00  0.00    -0.166 F 
ATOM     26  F   UNL d   1      17.663 -19.992   2.616  0.00  0.00    -0.166 F 
ATOM     27  F   UNL d   1      18.412 -21.994   2.216  0.00  0.00    -0.166 F 
ENDBRANCH  22  24
ENDBRANCH  17  18
ENDBRANCH  14  16
ENDBRANCH   3  12
BRANCH   1  28
ATOM     28  C   UNL d   1      27.643 -13.814   1.450  0.00  0.00     0.062 A 
ATOM     29  C   UNL d   1      27.202 -12.534   1.769  0.00  0.00     0.032 A 
ATOM     30  C   UNL d   1      27.332 -12.060   3.075  0.00  0.00     0.009 A 
ATOM     31  C   UNL d   1      27.931 -12.847   4.074  0.00  0.00    -0.056 A 
ATOM     32  C   UNL d   1      28.114 -12.272   5.450  0.00  0.00     0.049 C 
ATOM     33  C   UNL d   1      28.353 -14.154   3.765  0.00  0.00    -0.054 A 
ATOM     34  C   UNL d   1      28.185 -14.630   2.456  0.00  0.00     0.039 A 
ATOM     35  C   UNL d   1      28.976 -15.048   4.804  0.00  0.00     0.049 C 
ENDBRANCH   1  28
TORSDOF 5
ENDMDL
MODEL 4
REMARK VINA RESULT:    -8.883      4.140     10.219
REMARK INTER + INTRA:         -11.526
REMARK INTER:                 -10.374
REMARK INTRA:                  -1.151
REMARK CONF_INDEPENDENT:        1.492
REMARK UNBOUND:                -1.151
REMARK  5 active torsions:
REMARK  status: ('A' for Active; 'I' for Inactive)
REMARK    1  A    between atoms: C_5  and  N_6 
REMARK    2  A    between atoms: C_8  and  C_9 
REMARK       I    between atoms: C_9  and  N_11 
REMARK    3  A    between atoms: N_11  and  N_12 
REMARK    4  A    between atoms: C_13  and  C_14 
REMARK    5  A    between atoms: C_18  and  C_19 
ROOT
ATOM      1  N   UNL d   1      24.043 -17.380  -0.797  0.00  0.00    -0.196 N 
ATOM      2  N   UNL d   1      24.028 -16.421  -1.815  0.00  0.00    -0.158 NA
ATOM      3  C   UNL d   1      25.108 -15.707  -2.007  0.00  0.00     0.158 A 
ATOM      4  C   UNL d   1      26.356 -15.926  -1.215  0.00  0.00     0.016 A 
ATOM      5  C   UNL d   1      27.508 -15.145  -1.328  0.00  0.00     0.015 C 
ATOM      6  C   UNL d   1      28.540 -15.253  -0.399  0.00  0.00     0.001 C 
ATOM      7  C   UNL d   1      28.574 -16.327   0.474  0.00  0.00     0.001 C 
ATOM      8  C   UNL d   1      27.500 -17.205   0.511  0.00  0.00     0.018 C 
ATOM      9  C   UNL d   1      26.359 -16.938  -0.263  0.00  0.00     0.047 A 
ATOM     10  C   UNL d   1      25.143 -17.704  -0.011  0.00  0.00     0.279 A 
ATOM     11  O   UNL d   1      25.172 -18.575   0.867  0.00  0.00    -0.265 OA
ENDROOT
BRANCH   3  12
ATOM     12  C   UNL d   1      25.067 -14.572  -3.071  0.00  0.00     0.292 C 
ATOM     13  O   UNL d   1      24.781 -14.823  -4.241  0.00  0.00    -0.264 OA
ATOM     14  N   UNL d   1      25.369 -13.283  -2.652  0.00  0.00    -0.242 N 
ATOM     15  H   UNL d   1      25.654 -13.100  -1.695  0.00  0.00     0.192 HD
BRANCH  14  16
ATOM     16  N   UNL d   1      25.265 -12.276  -3.593  0.00  0.00    -0.183 NA
ATOM     17  C   UNL d   1      26.258 -12.056  -4.391  0.00  0.00     0.150 C 
BRANCH  17  18
ATOM     18  C   UNL d   1      26.157 -11.010  -5.447  0.00  0.00    -0.016 C 
ATOM     19  C   UNL d   1      26.973 -11.057  -6.581  0.00  0.00     0.013 C 
ATOM     20  C   UNL d   1      26.926 -10.027  -7.526  0.00  0.00     0.002 C 
ATOM     21  C   UNL d   1      26.171  -8.884  -7.269  0.00  0.00     0.016 C 
ATOM     22  C   UNL d   1      25.357  -8.816  -6.129  0.00  0.00     0.048 C 
ATOM     23  C   UNL d   1      25.288  -9.928  -5.264  0.00  0.00     0.029 C 
BRANCH  22  24
ATOM     24  C   UNL d   1      24.634  -7.527  -5.817  0.00  0.00     0.417 C 
ATOM     25  F   UNL d   1      25.301  -6.773  -4.897  0.00  0.00    -0.166 F 
ATOM     26  F   UNL d   1      24.481  -6.731  -6.910  0.00  0.00    -0.166 F 
ATOM     27  F   UNL d   1      23.386  -7.714  -5.309  0.00  0.00    -0.166 F 
ENDBRANCH  22  24
ENDBRANCH  17  18
ENDBRANCH  14  16
ENDBRANCH   3  12
BRANCH   1  28
ATOM     28  C   UNL d   1      22.818 -18.056  -0.570  0.00  0.00     0.062 A 
ATOM     29  C   UNL d   1      22.125 -18.604  -1.645  0.00  0.00     0.032 A 
ATOM     30  C   UNL d   1      20.951 -19.323  -1.419  0.00  0.00     0.009 A 
ATOM     31  C   UNL d   1      20.436 -19.478  -0.121  0.00  0.00    -0.056 A 
ATOM     32  C   UNL d   1      19.132 -20.200   0.070  0.00  0.00     0.049 C 
ATOM     33  C   UNL d   1      21.148 -18.952   0.974  0.00  0.00    -0.054 A 
ATOM     34  C   UNL d   1      22.345 -18.260   0.736  0.00  0.00     0.039 A 
ATOM     35  C   UNL d   1      20.654 -19.113   2.387  0.00  0.00     0.049 C 
ENDBRANCH   1  28
TORSDOF 5
ENDMDL
MODEL 5
REMARK VINA RESULT:    -8.820      4.325     10.317
REMARK INTER + INTRA:         -11.418
REMARK INTER:                 -10.311
REMARK INTRA:                  -1.107
REMARK CONF_INDEPENDENT:        1.492
REMARK UNBOUND:                -1.107
REMARK  5 active torsions:
REMARK  status: ('A' for Active; 'I' for Inactive)
REMARK    1  A    between atoms: C_5  and  N_6 
REMARK    2  A    between atoms: C_8  and  C_9 
REMARK       I    between atoms: C_9  and  N_11 
REMARK    3  A    between atoms: N_11  and  N_12 
REMARK    4  A    between atoms: C_13  and  C_14 
REMARK    5  A    between atoms: C_18  and  C_19 
ROOT
ATOM      1  N   UNL d   1      23.980 -17.389  -0.760  0.00  0.00    -0.196 N 
ATOM      2  N   UNL d   1      23.973 -16.429  -1.777  0.00  0.00    -0.158 NA
ATOM      3  C   UNL d   1      25.049 -15.705  -1.951  0.00  0.00     0.158 A 
ATOM      4  C   UNL d   1      26.286 -15.913  -1.139  0.00  0.00     0.016 A 
ATOM      5  C   UNL d   1      27.431 -15.121  -1.232  0.00  0.00     0.015 C 
ATOM      6  C   UNL d   1      28.449 -15.220  -0.287  0.00  0.00     0.001 C 
ATOM      7  C   UNL d   1      28.479 -16.295   0.586  0.00  0.00     0.001 C 
ATOM      8  C   UNL d   1      27.413 -17.183   0.604  0.00  0.00     0.018 C 
ATOM      9  C   UNL d   1      26.282 -16.926  -0.188  0.00  0.00     0.047 A 
ATOM     10  C   UNL d   1      25.070 -17.703   0.043  0.00  0.00     0.279 A 
ATOM     11  O   UNL d   1      25.093 -18.575   0.921  0.00  0.00    -0.265 OA
ENDROOT
BRANCH   3  12
ATOM     12  C   UNL d   1      25.014 -14.568  -3.014  0.00  0.00     0.292 C 
ATOM     13  O   UNL d   1      24.785 -14.825  -4.195  0.00  0.00    -0.264 OA
ATOM     14  N   UNL d   1      25.256 -13.271  -2.581  0.00  0.00    -0.242 N 
ATOM     15  H   UNL d   1      25.495 -13.081  -1.613  0.00  0.00     0.192 HD
BRANCH  14  16
ATOM     16  N   UNL d   1      25.158 -12.265  -3.524  0.00  0.00    -0.183 NA
ATOM     17  C   UNL d   1      26.153 -11.455  -3.685  0.00  0.00     0.150 C 
BRANCH  17  18
ATOM     18  C   UNL d   1      26.095 -10.392  -4.726  0.00  0.00    -0.016 C 
ATOM     19  C   UNL d   1      25.343  -9.231  -4.522  0.00  0.00     0.013 C 
ATOM     20  C   UNL d   1      25.232  -8.276  -5.538  0.00  0.00     0.002 C 
ATOM     21  C   UNL d   1      25.751  -8.545  -6.803  0.00  0.00     0.016 C 
ATOM     22  C   UNL d   1      26.498  -9.711  -7.027  0.00  0.00     0.048 C 
ATOM     23  C   UNL d   1      26.741 -10.591  -5.952  0.00  0.00     0.029 C 
BRANCH  22  24
ATOM     24  C   UNL d   1      26.957 -10.032  -8.430  0.00  0.00     0.417 C 
ATOM     25  F   UNL d   1      28.227 -10.526  -8.455  0.00  0.00    -0.166 F 
ATOM     26  F   UNL d   1      26.180 -10.969  -9.037  0.00  0.00    -0.166 F 
ATOM     27  F   UNL d   1      26.962  -8.952  -9.258  0.00  0.00    -0.166 F 
ENDBRANCH  22  24
ENDBRANCH  17  18
ENDBRANCH  14  16
ENDBRANCH   3  12
BRANCH   1  28
ATOM     28  C   UNL d   1      22.758 -18.077  -0.554  0.00  0.00     0.062 A 
ATOM     29  C   UNL d   1      22.067 -18.595  -1.645  0.00  0.00     0.032 A 
ATOM     30  C   UNL d   1      20.896 -19.325  -1.441  0.00  0.00     0.009 A 
ATOM     31  C   UNL d   1      20.382 -19.522  -0.148  0.00  0.00    -0.056 A 
ATOM     32  C   UNL d   1      19.081 -20.255   0.021  0.00  0.00     0.049 C 
ATOM     33  C   UNL d   1      21.092 -19.026   0.962  0.00  0.00    -0.054 A 
ATOM     34  C   UNL d   1      22.286 -18.323   0.745  0.00  0.00     0.039 A 
ATOM     35  C   UNL d   1      20.599 -19.233   2.370  0.00  0.00     0.049 C 
ENDBRANCH   1  28
TORSDOF 5
ENDMDL
MODEL 6
REMARK VINA RESULT:    -8.634      6.190      8.098
REMARK INTER + INTRA:         -11.250
REMARK INTER:                 -10.126
REMARK INTRA:                  -1.124
REMARK CONF_INDEPENDENT:        1.492
REMARK UNBOUND:                -1.124
REMARK  5 active torsions:
REMARK  status: ('A' for Active; 'I' for Inactive)
REMARK    1  A    between atoms: C_5  and  N_6 
REMARK    2  A    between atoms: C_8  and  C_9 
REMARK       I    between atoms: C_9  and  N_11 
REMARK    3  A    between atoms: N_11  and  N_12 
REMARK    4  A    between atoms: C_13  and  C_14 
REMARK    5  A    between atoms: C_18  and  C_19 
ROOT
ATOM      1  N   UNL d   1      26.092 -13.434  -2.717  0.00  0.00    -0.196 N 
ATOM      2  N   UNL d   1      26.803 -13.234  -1.529  0.00  0.00    -0.158 NA
ATOM      3  C   UNL d   1      26.787 -14.187  -0.632  0.00  0.00     0.158 A 
ATOM      4  C   UNL d   1      26.085 -15.485  -0.864  0.00  0.00     0.016 A 
ATOM      5  C   UNL d   1      25.974 -16.501   0.086  0.00  0.00     0.015 C 
ATOM      6  C   UNL d   1      25.110 -17.576  -0.111  0.00  0.00     0.001 C 
ATOM      7  C   UNL d   1      24.570 -17.805  -1.366  0.00  0.00     0.001 C 
ATOM      8  C   UNL d   1      24.780 -16.877  -2.375  0.00  0.00     0.018 C 
ATOM      9  C   UNL d   1      25.452 -15.678  -2.086  0.00  0.00     0.047 A 
ATOM     10  C   UNL d   1      25.425 -14.601  -3.069  0.00  0.00     0.279 A 
ATOM     11  O   UNL d   1      24.823 -14.796  -4.133  0.00  0.00    -0.265 OA
ENDROOT
BRANCH   3  12
ATOM     12  C   UNL d   1      27.493 -13.933   0.732  0.00  0.00     0.292 C 
ATOM     13  O   UNL d   1      28.649 -14.312   0.916  0.00  0.00    -0.264 OA
ATOM     14  N   UNL d   1      26.773 -13.276   1.721  0.00  0.00    -0.242 N 
ATOM     15  H   UNL d   1      25.803 -13.015   1.571  0.00  0.00     0.192 HD
BRANCH  14  16
ATOM     16  N   UNL d   1      27.433 -13.000   2.902  0.00  0.00    -0.183 NA
ATOM     17  C   UNL d   1      27.464 -13.899   3.830  0.00  0.00     0.150 C 
BRANCH  17  18
ATOM     18  C   UNL d   1      28.210 -13.649   5.095  0.00  0.00    -0.016 C 
ATOM     19  C   UNL d   1      28.530 -14.702   5.957  0.00  0.00     0.013 C 
ATOM     20  C   UNL d   1      29.159 -14.445   7.180  0.00  0.00     0.002 C 
ATOM     21  C   UNL d   1      29.340 -13.130   7.605  0.00  0.00     0.016 C 
ATOM     22  C   UNL d   1      29.012 -12.062   6.756  0.00  0.00     0.048 C 
ATOM     23  C   UNL d   1      28.527 -12.335   5.460  0.00  0.00     0.029 C 
BRANCH  22  24
ATOM     24  C   UNL d   1      29.115 -10.649   7.280  0.00  0.00     0.417 C 
ATOM     25  F   UNL d   1      30.409 -10.247   7.425  0.00  0.00    -0.166 F 
ATOM     26  F   UNL d   1      28.532  -9.738   6.456  0.00  0.00    -0.166 F 
ATOM     27  F   UNL d   1      28.534 -10.480   8.500  0.00  0.00    -0.166 F 
ENDBRANCH  22  24
ENDBRANCH  17  18
ENDBRANCH  14  16
ENDBRANCH   3  12
BRANCH   1  28
ATOM     28  C   UNL d   1      26.064 -12.334  -3.610  0.00  0.00     0.062 A 
ATOM     29  C   UNL d   1      26.247 -12.548  -4.972  0.00  0.00     0.032 A 
ATOM     30  C   UNL d   1      26.159 -11.476  -5.861  0.00  0.00     0.009 A 
ATOM     31  C   UNL d   1      25.917 -10.172  -5.399  0.00  0.00    -0.056 A 
ATOM     32  C   UNL d   1      25.900  -9.036  -6.383  0.00  0.00     0.049 C 
ATOM     33  C   UNL d   1      25.702  -9.952  -4.025  0.00  0.00    -0.054 A 
ATOM     34  C   UNL d   1      25.759 -11.044  -3.146  0.00  0.00     0.039 A 
ATOM     35  C   UNL d   1      25.412  -8.579  -3.482  0.00  0.00     0.049 C 
ENDBRANCH   1  28
TORSDOF 5
ENDMDL
MODEL 7
REMARK VINA RESULT:    -8.525      8.241     10.856
REMARK INTER + INTRA:         -11.124
REMARK INTER:                 -10.017
REMARK INTRA:                  -1.108
REMARK CONF_INDEPENDENT:        1.492
REMARK UNBOUND:                -1.108
REMARK  5 active torsions:
REMARK  status: ('A' for Active; 'I' for Inactive)
REMARK    1  A    between atoms: C_5  and  N_6 
REMARK    2  A    between atoms: C_8  and  C_9 
REMARK       I    between atoms: C_9  and  N_11 
REMARK    3  A    between atoms: N_11  and  N_12 
REMARK    4  A    between atoms: C_13  and  C_14 
REMARK    5  A    between atoms: C_18  and  C_19 
ROOT
ATOM      1  N   UNL d   1      27.006 -16.201   0.125  0.00  0.00    -0.196 N 
ATOM      2  N   UNL d   1      27.043 -15.376   1.253  0.00  0.00    -0.158 NA
ATOM      3  C   UNL d   1      28.178 -14.803   1.563  0.00  0.00     0.158 A 
ATOM      4  C   UNL d   1      29.403 -14.962   0.723  0.00  0.00     0.016 A 
ATOM      5  C   UNL d   1      30.655 -14.436   1.048  0.00  0.00     0.015 C 
ATOM      6  C   UNL d   1      31.797 -14.820   0.349  0.00  0.00     0.001 C 
ATOM      7  C   UNL d   1      31.675 -15.498  -0.853  0.00  0.00     0.001 C 
ATOM      8  C   UNL d   1      30.420 -15.914  -1.272  0.00  0.00     0.018 C 
ATOM      9  C   UNL d   1      29.310 -15.729  -0.432  0.00  0.00     0.047 A 
ATOM     10  C   UNL d   1      28.061 -16.409  -0.755  0.00  0.00     0.279 A 
ATOM     11  O   UNL d   1      28.025 -17.111  -1.773  0.00  0.00    -0.265 OA
ENDROOT
BRANCH   3  12
ATOM     12  C   UNL d   1      28.252 -13.962   2.872  0.00  0.00     0.292 C 
ATOM     13  O   UNL d   1      27.884 -12.789   2.881  0.00  0.00    -0.264 OA
ATOM     14  N   UNL d   1      28.751 -14.581   4.010  0.00  0.00    -0.242 N 
ATOM     15  H   UNL d   1      29.099 -15.534   3.974  0.00  0.00     0.192 HD
BRANCH  14  16
ATOM     16  N   UNL d   1      28.750 -13.844   5.178  0.00  0.00    -0.183 NA
ATOM     17  C   UNL d   1      28.855 -14.460   6.311  0.00  0.00     0.150 C 
BRANCH  17  18
ATOM     18  C   UNL d   1      28.905 -13.689   7.584  0.00  0.00    -0.016 C 
ATOM     19  C   UNL d   1      29.028 -12.296   7.573  0.00  0.00     0.013 C 
ATOM     20  C   UNL d   1      29.155 -11.590   8.774  0.00  0.00     0.002 C 
ATOM     21  C   UNL d   1      29.302 -12.283   9.973  0.00  0.00     0.016 C 
ATOM     22  C   UNL d   1      29.194 -13.682  10.000  0.00  0.00     0.048 C 
ATOM     23  C   UNL d   1      28.905 -14.373   8.805  0.00  0.00     0.029 C 
BRANCH  22  24
ATOM     24  C   UNL d   1      29.465 -14.416  11.292  0.00  0.00     0.417 C 
ATOM     25  F   UNL d   1      30.183 -13.661  12.171  0.00  0.00    -0.166 F 
ATOM     26  F   UNL d   1      28.326 -14.768  11.947  0.00  0.00    -0.166 F 
ATOM     27  F   UNL d   1      30.175 -15.564  11.123  0.00  0.00    -0.166 F 
ENDBRANCH  22  24
ENDBRANCH  17  18
ENDBRANCH  14  16
ENDBRANCH   3  12
BRANCH   1  28
ATOM     28  C   UNL d   1      25.779 -16.870  -0.108  0.00  0.00     0.062 A 
ATOM     29  C   UNL d   1      25.715 -18.255   0.018  0.00  0.00     0.032 A 
ATOM     30  C   UNL d   1      24.495 -18.911  -0.150  0.00  0.00     0.009 A 
ATOM     31  C   UNL d   1      23.329 -18.197  -0.476  0.00  0.00    -0.056 A 
ATOM     32  C   UNL d   1      22.051 -18.950  -0.717  0.00  0.00     0.049 C 
ATOM     33  C   UNL d   1      23.380 -16.794  -0.575  0.00  0.00    -0.054 A 
ATOM     34  C   UNL d   1      24.607 -16.143  -0.370  0.00  0.00     0.039 A 
ATOM     35  C   UNL d   1      22.155 -15.980  -0.895  0.00  0.00     0.049 C 
ENDBRANCH   1  28
TORSDOF 5
ENDMDL
MODEL 8
REMARK VINA RESULT:    -8.441      6.171      8.194
REMARK INTER + INTRA:         -11.143
REMARK INTER:                  -9.933
REMARK INTRA:                  -1.210
REMARK CONF_INDEPENDENT:        1.492
REMARK UNBOUND:                -1.210
REMARK  5 active torsions:
REMARK  status: ('A' for Active; 'I' for Inactive)
REMARK    1  A    between atoms: C_5  and  N_6 
REMARK    2  A    between atoms: C_8  and  C_9 
REMARK       I    between atoms: C_9  and  N_11 
REMARK    3  A    between atoms: N_11  and  N_12 
REMARK    4  A    between atoms: C_13  and  C_14 
REMARK    5  A    between atoms: C_18  and  C_19 
ROOT
ATOM      1  N   UNL d   1      26.100 -13.401  -2.866  0.00  0.00    -0.196 N 
ATOM      2  N   UNL d   1      26.789 -13.148  -1.676  0.00  0.00    -0.158 NA
ATOM      3  C   UNL d   1      26.756 -14.059  -0.737  0.00  0.00     0.158 A 
ATOM      4  C   UNL d   1      26.057 -15.367  -0.924  0.00  0.00     0.016 A 
ATOM      5  C   UNL d   1      25.928 -16.339   0.069  0.00  0.00     0.015 C 
ATOM      6  C   UNL d   1      25.067 -17.422  -0.096  0.00  0.00     0.001 C 
ATOM      7  C   UNL d   1      24.550 -17.707  -1.349  0.00  0.00     0.001 C 
ATOM      8  C   UNL d   1      24.780 -16.825  -2.395  0.00  0.00     0.018 C 
ATOM      9  C   UNL d   1      25.447 -15.614  -2.147  0.00  0.00     0.047 A 
ATOM     10  C   UNL d   1      25.439 -14.582  -3.178  0.00  0.00     0.279 A 
ATOM     11  O   UNL d   1      24.857 -14.825  -4.243  0.00  0.00    -0.265 OA
ENDROOT
BRANCH   3  12
ATOM     12  C   UNL d   1      27.437 -13.744   0.627  0.00  0.00     0.292 C 
ATOM     13  O   UNL d   1      28.636 -13.964   0.791  0.00  0.00    -0.264 OA
ATOM     14  N   UNL d   1      26.644 -13.220   1.639  0.00  0.00    -0.242 N 
ATOM     15  H   UNL d   1      25.646 -13.093   1.506  0.00  0.00     0.192 HD
BRANCH  14  16
ATOM     16  N   UNL d   1      27.275 -12.884   2.822  0.00  0.00    -0.183 NA
ATOM     17  C   UNL d   1      27.562 -13.819   3.668  0.00  0.00     0.150 C 
BRANCH  17  18
ATOM     18  C   UNL d   1      28.285 -13.495   4.929  0.00  0.00    -0.016 C 
ATOM     19  C   UNL d   1      28.531 -14.483   5.887  0.00  0.00     0.013 C 
ATOM     20  C   UNL d   1      29.139 -14.151   7.102  0.00  0.00     0.002 C 
ATOM     21  C   UNL d   1      29.372 -12.814   7.419  0.00  0.00     0.016 C 
ATOM     22  C   UNL d   1      29.119 -11.809   6.474  0.00  0.00     0.048 C 
ATOM     23  C   UNL d   1      28.655 -12.170   5.191  0.00  0.00     0.029 C 
BRANCH  22  24
ATOM     24  C   UNL d   1      29.275 -10.362   6.879  0.00  0.00     0.417 C 
ATOM     25  F   UNL d   1      28.531  -9.527   6.100  0.00  0.00    -0.166 F 
ATOM     26  F   UNL d   1      28.881 -10.128   8.160  0.00  0.00    -0.166 F 
ATOM     27  F   UNL d   1      30.556  -9.911   6.789  0.00  0.00    -0.166 F 
ENDBRANCH  22  24
ENDBRANCH  17  18
ENDBRANCH  14  16
ENDBRANCH   3  12
BRANCH   1  28
ATOM     28  C   UNL d   1      26.090 -12.342  -3.808  0.00  0.00     0.062 A 
ATOM     29  C   UNL d   1      25.530 -11.117  -3.461  0.00  0.00     0.032 A 
ATOM     30  C   UNL d   1      25.573 -10.054  -4.363  0.00  0.00     0.009 A 
ATOM     31  C   UNL d   1      26.150 -10.207  -5.635  0.00  0.00    -0.056 A 
ATOM     32  C   UNL d   1      26.113  -9.057  -6.602  0.00  0.00     0.049 C 
ATOM     33  C   UNL d   1      26.746 -11.435  -5.982  0.00  0.00    -0.054 A 
ATOM     34  C   UNL d   1      26.726 -12.486  -5.052  0.00  0.00     0.039 A 
ATOM     35  C   UNL d   1      27.401 -11.643  -7.321  0.00  0.00     0.049 C 
ENDBRANCH   1  28
TORSDOF 5
ENDMDL
MODEL 9
REMARK VINA RESULT:    -8.215      8.039     11.405
REMARK INTER + INTRA:         -10.911
REMARK INTER:                  -9.707
REMARK INTRA:                  -1.204
REMARK CONF_INDEPENDENT:        1.492
REMARK UNBOUND:                -1.204
REMARK  5 active torsions:
REMARK  status: ('A' for Active; 'I' for Inactive)
REMARK    1  A    between atoms: C_5  and  N_6 
REMARK    2  A    between atoms: C_8  and  C_9 
REMARK       I    between atoms: C_9  and  N_11 
REMARK    3  A    between atoms: N_11  and  N_12 
REMARK    4  A    between atoms: C_13  and  C_14 
REMARK    5  A    between atoms: C_18  and  C_19 
ROOT
ATOM      1  N   UNL d   1      29.057 -12.768   6.617  0.00  0.00    -0.196 N 
ATOM      2  N   UNL d   1      28.526 -13.511   5.559  0.00  0.00    -0.158 NA
ATOM      3  C   UNL d   1      28.049 -12.863   4.526  0.00  0.00     0.158 A 
ATOM      4  C   UNL d   1      28.108 -11.373   4.428  0.00  0.00     0.016 A 
ATOM      5  C   UNL d   1      27.549 -10.630   3.387  0.00  0.00     0.015 C 
ATOM      6  C   UNL d   1      27.433  -9.245   3.478  0.00  0.00     0.001 C 
ATOM      7  C   UNL d   1      28.125  -8.557   4.461  0.00  0.00     0.001 C 
ATOM      8  C   UNL d   1      28.809  -9.271   5.434  0.00  0.00     0.018 C 
ATOM      9  C   UNL d   1      28.711 -10.672   5.465  0.00  0.00     0.047 A 
ATOM     10  C   UNL d   1      29.199 -11.386   6.639  0.00  0.00     0.279 A 
ATOM     11  O   UNL d   1      29.700 -10.726   7.558  0.00  0.00    -0.265 OA
ENDROOT
BRANCH   3  12
ATOM     12  C   UNL d   1      27.367 -13.678   3.389  0.00  0.00     0.292 C 
ATOM     13  O   UNL d   1      26.280 -13.325   2.934  0.00  0.00    -0.264 OA
ATOM     14  N   UNL d   1      28.023 -14.809   2.922  0.00  0.00    -0.242 N 
ATOM     15  H   UNL d   1      28.894 -15.117   3.343  0.00  0.00     0.192 HD
BRANCH  14  16
ATOM     16  N   UNL d   1      27.438 -15.485   1.868  0.00  0.00    -0.183 NA
ATOM     17  C   UNL d   1      27.090 -14.824   0.813  0.00  0.00     0.150 C 
BRANCH  17  18
ATOM     18  C   UNL d   1      26.501 -15.533  -0.357  0.00  0.00    -0.016 C 
ATOM     19  C   UNL d   1      26.776 -15.111  -1.662  0.00  0.00     0.013 C 
ATOM     20  C   UNL d   1      26.155 -15.733  -2.749  0.00  0.00     0.002 C 
ATOM     21  C   UNL d   1      25.155 -16.678  -2.530  0.00  0.00     0.016 C 
ATOM     22  C   UNL d   1      24.858 -17.103  -1.226  0.00  0.00     0.048 C 
ATOM     23  C   UNL d   1      25.603 -16.586  -0.146  0.00  0.00     0.029 C 
BRANCH  22  24
ATOM     24  C   UNL d   1      23.698 -18.045  -1.006  0.00  0.00     0.417 C 
ATOM     25  F   UNL d   1      23.300 -18.649  -2.162  0.00  0.00    -0.166 F 
ATOM     26  F   UNL d   1      23.993 -19.052  -0.141  0.00  0.00    -0.166 F 
ATOM     27  F   UNL d   1      22.590 -17.432  -0.507  0.00  0.00    -0.166 F 
ENDBRANCH  22  24
ENDBRANCH  17  18
ENDBRANCH  14  16
ENDBRANCH   3  12
BRANCH   1  28
ATOM     28  C   UNL d   1      29.470 -13.516   7.748  0.00  0.00     0.062 A 
ATOM     29  C   UNL d   1      30.730 -14.106   7.760  0.00  0.00     0.032 A 
ATOM     30  C   UNL d   1      31.164 -14.792   8.895  0.00  0.00     0.009 A 
ATOM     31  C   UNL d   1      30.335 -14.923  10.022  0.00  0.00    -0.056 A 
ATOM     32  C   UNL d   1      30.814 -15.729  11.197  0.00  0.00     0.049 C 
ATOM     33  C   UNL d   1      29.071 -14.303  10.028  0.00  0.00    -0.054 A 
ATOM     34  C   UNL d   1      28.661 -13.588   8.893  0.00  0.00     0.039 A 
ATOM     35  C   UNL d   1      28.155 -14.390  11.220  0.00  0.00     0.049 C 
ENDBRANCH   1  28
TORSDOF 5
ENDMDL
