MODEL 1
REMARK VINA RESULT:   -29.721      0.000      0.000
REMARK INTER + INTRA:         -34.345
REMARK INTER:                 -33.002
REMARK INTRA:                  -1.343
REMARK CONF_INDEPENDENT:        3.281
REMARK UNBOUND:                -1.343
REMARK  11 active torsions:
REMARK  status: ('A' for Active; 'I' for Inactive)
REMARK    1  A    between atoms: C_2  and  O_3 
REMARK    2  A    between atoms: O_3  and  C_4 
REMARK    3  A    between atoms: C_4  and  C_6 
REMARK    4  A    between atoms: C_6  and  C_7 
REMARK    5  A    between atoms: C_7  and  C_8 
REMARK    6  A    between atoms: C_8  and  C_9 
REMARK    7  A    between atoms: C_9  and  C_10 
REMARK    8  A    between atoms: C_10  and  C_11 
REMARK    9  A    between atoms: C_11  and  N_12 
REMARK       I    between atoms: N_12  and  C_13 
REMARK       I    between atoms: C_13  and  N_15 
REMARK   10  A    between atoms: N_15  and  N_16 
REMARK   11  A    between atoms: N_16  and  C_17 
ROOT
ATOM      1  C   UNL d   1      24.537 -18.018  -0.332  0.00  0.00     0.049 A 
ATOM      2  C   UNL d   1      24.513 -16.644  -0.597  0.00  0.00     0.031 A 
ATOM      3  C   UNL d   1      23.307 -15.972  -0.872  0.00  0.00     0.004 A 
ATOM      4  C   UNL d   1      22.098 -16.663  -0.895  0.00  0.00     0.023 A 
ATOM      5  C   UNL d   1      22.093 -18.039  -0.668  0.00  0.00     0.046 A 
ATOM      6  C   UNL d   1      20.851 -18.761  -0.773  0.00  0.00     0.099 C 
ATOM      7  N   UNL d   1      19.843 -19.315  -0.895  0.00  0.00    -0.191 NA
ATOM      8  C   UNL d   1      23.302 -18.704  -0.379  0.00  0.00     0.053 A 
ENDROOT
BRANCH   1   9
ATOM      9  N   UNL d   1      25.705 -18.738   0.029  0.00  0.00    -0.297 N 
ATOM     10  H   UNL d   1      25.913 -19.566  -0.542  0.00  0.00     0.187 HD
BRANCH   9  11
ATOM     11  N   UNL d   1      26.870 -18.033   0.470  0.00  0.00    -0.251 N 
ATOM     12  C   UNL d   1      27.602 -17.351  -0.512  0.00  0.00     0.334 C 
ATOM     13  N   UNL d   1      28.877 -16.963  -0.123  0.00  0.00    -0.342 N 
ATOM     14  O   UNL d   1      27.135 -17.070  -1.614  0.00  0.00    -0.246 OA
ATOM     15  H   UNL d   1      29.252 -17.259   0.765  0.00  0.00     0.164 HD
ATOM     16  H   UNL d   1      27.339 -18.456   1.260  0.00  0.00     0.191 HD
BRANCH  13  17
ATOM     17  C   UNL d   1      29.734 -16.165  -1.012  0.00  0.00     0.124 C 
BRANCH  17  18
ATOM     18  C   UNL d   1      29.651 -14.652  -0.763  0.00  0.00     0.020 C 
BRANCH  18  19
ATOM     19  C   UNL d   1      28.333 -14.249  -0.085  0.00  0.00     0.002 C 
BRANCH  19  20
ATOM     20  C   UNL d   1      27.172 -14.224  -1.089  0.00  0.00     0.001 C 
BRANCH  20  21
ATOM     21  C   UNL d   1      27.650 -13.794  -2.475  0.00  0.00     0.010 C 
BRANCH  21  22
ATOM     22  C   UNL d   1      27.798 -14.975  -3.446  0.00  0.00     0.111 C 
BRANCH  22  23
ATOM     23  C   UNL d   1      26.641 -14.989  -4.431  0.00  0.00     0.258 C 
ATOM     24  O   UNL d   1      26.771 -15.142  -5.639  0.00  0.00    -0.265 OA
BRANCH  23  25
ATOM     25  O   UNL d   1      25.437 -14.811  -3.808  0.00  0.00    -0.322 OA
BRANCH  25  26
ATOM     26  C   UNL d   1      24.735 -13.624  -4.234  0.00  0.00     0.174 C 
ATOM     27  C   UNL d   1      25.712 -12.626  -4.835  0.00  0.00     0.034 C 
ENDBRANCH  25  26
ENDBRANCH  23  25
ENDBRANCH  22  23
ENDBRANCH  21  22
ENDBRANCH  20  21
ENDBRANCH  19  20
ENDBRANCH  18  19
ENDBRANCH  17  18
ENDBRANCH  13  17
ENDBRANCH   9  11
ENDBRANCH   1   9
TORSDOF 11
ENDMDL
MODEL 2
REMARK VINA RESULT:   -29.463      1.384      2.030
REMARK INTER + INTRA:         -34.093
REMARK INTER:                 -32.744
REMARK INTRA:                  -1.349
REMARK CONF_INDEPENDENT:        3.281
REMARK UNBOUND:                -1.349
REMARK  11 active torsions:
REMARK  status: ('A' for Active; 'I' for Inactive)
REMARK    1  A    between atoms: C_2  and  O_3 
REMARK    2  A    between atoms: O_3  and  C_4 
REMARK    3  A    between atoms: C_4  and  C_6 
REMARK    4  A    between atoms: C_6  and  C_7 
REMARK    5  A    between atoms: C_7  and  C_8 
REMARK    6  A    between atoms: C_8  and  C_9 
REMARK    7  A    between atoms: C_9  and  C_10 
REMARK    8  A    between atoms: C_10  and  C_11 
REMARK    9  A    between atoms: C_11  and  N_12 
REMARK       I    between atoms: N_12  and  C_13 
REMARK       I    between atoms: C_13  and  N_15 
REMARK   10  A    between atoms: N_15  and  N_16 
REMARK   11  A    between atoms: N_16  and  C_17 
ROOT
ATOM      1  C   UNL d   1      24.563 -18.085  -0.222  0.00  0.00     0.049 A 
ATOM      2  C   UNL d   1      24.546 -16.693  -0.368  0.00  0.00     0.031 A 
ATOM      3  C   UNL d   1      23.353 -15.998  -0.639  0.00  0.00     0.004 A 
ATOM      4  C   UNL d   1      22.148 -16.685  -0.779  0.00  0.00     0.023 A 
ATOM      5  C   UNL d   1      22.138 -18.075  -0.674  0.00  0.00     0.046 A 
ATOM      6  C   UNL d   1      20.905 -18.784  -0.901  0.00  0.00     0.099 C 
ATOM      7  N   UNL d   1      19.905 -19.325  -1.119  0.00  0.00    -0.191 NA
ATOM      8  C   UNL d   1      23.334 -18.764  -0.388  0.00  0.00     0.053 A 
ENDROOT
BRANCH   1   9
ATOM      9  N   UNL d   1      25.715 -18.835   0.128  0.00  0.00    -0.297 N 
ATOM     10  H   UNL d   1      25.864 -19.700  -0.405  0.00  0.00     0.187 HD
BRANCH   9  11
ATOM     11  N   UNL d   1      26.927 -18.159   0.481  0.00  0.00    -0.251 N 
ATOM     12  C   UNL d   1      27.618 -17.523  -0.559  0.00  0.00     0.334 C 
ATOM     13  N   UNL d   1      28.926 -17.168  -0.258  0.00  0.00    -0.342 N 
ATOM     14  O   UNL d   1      27.094 -17.251  -1.638  0.00  0.00    -0.246 OA
ATOM     15  H   UNL d   1      29.345 -17.456   0.613  0.00  0.00     0.164 HD
ATOM     16  H   UNL d   1      27.429 -18.578   1.252  0.00  0.00     0.191 HD
BRANCH  13  17
ATOM     17  C   UNL d   1      29.751 -16.418  -1.216  0.00  0.00     0.124 C 
BRANCH  17  18
ATOM     18  C   UNL d   1      29.735 -16.996  -2.638  0.00  0.00     0.020 C 
BRANCH  18  19
ATOM     19  C   UNL d   1      30.335 -16.022  -3.664  0.00  0.00     0.002 C 
BRANCH  19  20
ATOM     20  C   UNL d   1      29.739 -16.242  -5.061  0.00  0.00     0.001 C 
BRANCH  20  21
ATOM     21  C   UNL d   1      29.861 -14.982  -5.917  0.00  0.00     0.010 C 
BRANCH  21  22
ATOM     22  C   UNL d   1      28.587 -14.126  -5.901  0.00  0.00     0.111 C 
BRANCH  22  23
ATOM     23  C   UNL d   1      27.427 -14.925  -5.329  0.00  0.00     0.258 C 
ATOM     24  O   UNL d   1      26.640 -15.573  -6.008  0.00  0.00    -0.265 OA
BRANCH  23  25
ATOM     25  O   UNL d   1      27.367 -14.834  -3.966  0.00  0.00    -0.322 OA
BRANCH  25  26
ATOM     26  C   UNL d   1      26.089 -15.216  -3.417  0.00  0.00     0.174 C 
ATOM     27  C   UNL d   1      25.481 -14.053  -2.649  0.00  0.00     0.034 C 
ENDBRANCH  25  26
ENDBRANCH  23  25
ENDBRANCH  22  23
ENDBRANCH  21  22
ENDBRANCH  20  21
ENDBRANCH  19  20
ENDBRANCH  18  19
ENDBRANCH  17  18
ENDBRANCH  13  17
ENDBRANCH   9  11
ENDBRANCH   1   9
TORSDOF 11
ENDMDL
MODEL 3
REMARK VINA RESULT:   -28.247      2.102      2.827
REMARK INTER + INTRA:         -35.128
REMARK INTER:                 -31.529
REMARK INTRA:                  -3.600
REMARK CONF_INDEPENDENT:        3.281
REMARK UNBOUND:                -3.600
REMARK  11 active torsions:
REMARK  status: ('A' for Active; 'I' for Inactive)
REMARK    1  A    between atoms: C_2  and  O_3 
REMARK    2  A    between atoms: O_3  and  C_4 
REMARK    3  A    between atoms: C_4  and  C_6 
REMARK    4  A    between atoms: C_6  and  C_7 
REMARK    5  A    between atoms: C_7  and  C_8 
REMARK    6  A    between atoms: C_8  and  C_9 
REMARK    7  A    between atoms: C_9  and  C_10 
REMARK    8  A    between atoms: C_10  and  C_11 
REMARK    9  A    between atoms: C_11  and  N_12 
REMARK       I    between atoms: N_12  and  C_13 
REMARK       I    between atoms: C_13  and  N_15 
REMARK   10  A    between atoms: N_15  and  N_16 
REMARK   11  A    between atoms: N_16  and  C_17 
ROOT
ATOM      1  C   UNL d   1      24.412 -16.654  -1.038  0.00  0.00     0.049 A 
ATOM      2  C   UNL d   1      25.115 -17.470  -0.143  0.00  0.00     0.031 A 
ATOM      3  C   UNL d   1      24.503 -18.574   0.478  0.00  0.00     0.004 A 
ATOM      4  C   UNL d   1      23.168 -18.883   0.224  0.00  0.00     0.023 A 
ATOM      5  C   UNL d   1      22.431 -18.069  -0.636  0.00  0.00     0.046 A 
ATOM      6  C   UNL d   1      21.031 -18.345  -0.832  0.00  0.00     0.099 C 
ATOM      7  N   UNL d   1      19.902 -18.576  -0.943  0.00  0.00    -0.191 NA
ATOM      8  C   UNL d   1      23.054 -16.973  -1.267  0.00  0.00     0.053 A 
ENDROOT
BRANCH   1   9
ATOM      9  N   UNL d   1      24.992 -15.577  -1.755  0.00  0.00    -0.297 N 
ATOM     10  H   UNL d   1      25.061 -14.687  -1.246  0.00  0.00     0.187 HD
BRANCH   9  11
ATOM     11  N   UNL d   1      26.086 -15.819  -2.646  0.00  0.00    -0.251 N 
ATOM     12  C   UNL d   1      27.363 -15.886  -2.070  0.00  0.00     0.334 C 
ATOM     13  N   UNL d   1      28.414 -15.791  -2.972  0.00  0.00    -0.342 N 
ATOM     14  O   UNL d   1      27.541 -16.067  -0.867  0.00  0.00    -0.246 OA
ATOM     15  H   UNL d   1      28.236 -15.584  -3.942  0.00  0.00     0.164 HD
ATOM     16  H   UNL d   1      25.960 -15.439  -3.575  0.00  0.00     0.191 HD
BRANCH  13  17
ATOM     17  C   UNL d   1      29.809 -15.930  -2.531  0.00  0.00     0.124 C 
BRANCH  17  18
ATOM     18  C   UNL d   1      30.771 -16.382  -3.640  0.00  0.00     0.020 C 
BRANCH  18  19
ATOM     19  C   UNL d   1      30.690 -15.477  -4.879  0.00  0.00     0.002 C 
BRANCH  19  20
ATOM     20  C   UNL d   1      29.618 -15.967  -5.861  0.00  0.00     0.001 C 
BRANCH  20  21
ATOM     21  C   UNL d   1      29.283 -14.892  -6.894  0.00  0.00     0.010 C 
BRANCH  21  22
ATOM     22  C   UNL d   1      28.299 -13.841  -6.361  0.00  0.00     0.111 C 
BRANCH  22  23
ATOM     23  C   UNL d   1      27.311 -14.489  -5.402  0.00  0.00     0.258 C 
ATOM     24  O   UNL d   1      26.779 -15.574  -5.597  0.00  0.00    -0.265 OA
BRANCH  23  25
ATOM     25  O   UNL d   1      27.088 -13.715  -4.298  0.00  0.00    -0.322 OA
BRANCH  25  26
ATOM     26  C   UNL d   1      25.976 -12.807  -4.443  0.00  0.00     0.174 C 
ATOM     27  C   UNL d   1      24.779 -13.316  -3.657  0.00  0.00     0.034 C 
ENDBRANCH  25  26
ENDBRANCH  23  25
ENDBRANCH  22  23
ENDBRANCH  21  22
ENDBRANCH  20  21
ENDBRANCH  19  20
ENDBRANCH  18  19
ENDBRANCH  17  18
ENDBRANCH  13  17
ENDBRANCH   9  11
ENDBRANCH   1   9
TORSDOF 11
ENDMDL
MODEL 4
REMARK VINA RESULT:   -28.239      2.252      3.856
REMARK INTER + INTRA:         -34.477
REMARK INTER:                 -31.520
REMARK INTRA:                  -2.957
REMARK CONF_INDEPENDENT:        3.281
REMARK UNBOUND:                -2.957
REMARK  11 active torsions:
REMARK  status: ('A' for Active; 'I' for Inactive)
REMARK    1  A    between atoms: C_2  and  O_3 
REMARK    2  A    between atoms: O_3  and  C_4 
REMARK    3  A    between atoms: C_4  and  C_6 
REMARK    4  A    between atoms: C_6  and  C_7 
REMARK    5  A    between atoms: C_7  and  C_8 
REMARK    6  A    between atoms: C_8  and  C_9 
REMARK    7  A    between atoms: C_9  and  C_10 
REMARK    8  A    between atoms: C_10  and  C_11 
REMARK    9  A    between atoms: C_11  and  N_12 
REMARK       I    between atoms: N_12  and  C_13 
REMARK       I    between atoms: C_13  and  N_15 
REMARK   10  A    between atoms: N_15  and  N_16 
REMARK   11  A    between atoms: N_16  and  C_17 
ROOT
ATOM      1  C   UNL d   1      24.577 -17.448  -1.507  0.00  0.00     0.049 A 
ATOM      2  C   UNL d   1      25.128 -17.657  -0.237  0.00  0.00     0.031 A 
ATOM      3  C   UNL d   1      24.367 -18.203   0.813  0.00  0.00     0.004 A 
ATOM      4  C   UNL d   1      23.030 -18.545   0.617  0.00  0.00     0.023 A 
ATOM      5  C   UNL d   1      22.442 -18.318  -0.627  0.00  0.00     0.046 A 
ATOM      6  C   UNL d   1      21.040 -18.598  -0.800  0.00  0.00     0.099 C 
ATOM      7  N   UNL d   1      19.905 -18.805  -0.895  0.00  0.00    -0.191 NA
ATOM      8  C   UNL d   1      23.214 -17.784  -1.679  0.00  0.00     0.053 A 
ENDROOT
BRANCH   1   9
ATOM      9  N   UNL d   1      25.310 -16.976  -2.625  0.00  0.00    -0.297 N 
ATOM     10  H   UNL d   1      24.857 -17.097  -3.540  0.00  0.00     0.187 HD
BRANCH   9  11
ATOM     11  N   UNL d   1      26.082 -15.775  -2.518  0.00  0.00    -0.251 N 
ATOM     12  C   UNL d   1      25.485 -14.599  -2.992  0.00  0.00     0.334 C 
ATOM     13  N   UNL d   1      26.358 -13.536  -3.178  0.00  0.00    -0.342 N 
ATOM     14  O   UNL d   1      24.274 -14.497  -3.179  0.00  0.00    -0.246 OA
ATOM     15  H   UNL d   1      27.352 -13.669  -3.071  0.00  0.00     0.164 HD
ATOM     16  H   UNL d   1      27.081 -15.913  -2.596  0.00  0.00     0.191 HD
BRANCH  13  17
ATOM     17  C   UNL d   1      25.870 -12.212  -3.588  0.00  0.00     0.124 C 
BRANCH  17  18
ATOM     18  C   UNL d   1      26.009 -11.935  -5.092  0.00  0.00     0.020 C 
BRANCH  18  19
ATOM     19  C   UNL d   1      27.441 -11.530  -5.475  0.00  0.00     0.002 C 
BRANCH  19  20
ATOM     20  C   UNL d   1      27.970 -12.378  -6.639  0.00  0.00     0.001 C 
BRANCH  20  21
ATOM     21  C   UNL d   1      29.137 -13.258  -6.195  0.00  0.00     0.010 C 
BRANCH  21  22
ATOM     22  C   UNL d   1      28.855 -14.757  -6.375  0.00  0.00     0.111 C 
BRANCH  22  23
ATOM     23  C   UNL d   1      27.783 -15.208  -5.396  0.00  0.00     0.258 C 
ATOM     24  O   UNL d   1      26.613 -15.402  -5.702  0.00  0.00    -0.265 OA
BRANCH  23  25
ATOM     25  O   UNL d   1      28.279 -15.369  -4.132  0.00  0.00    -0.322 OA
BRANCH  25  26
ATOM     26  C   UNL d   1      29.558 -16.037  -4.094  0.00  0.00     0.174 C 
ATOM     27  C   UNL d   1      30.585 -15.162  -3.394  0.00  0.00     0.034 C 
ENDBRANCH  25  26
ENDBRANCH  23  25
ENDBRANCH  22  23
ENDBRANCH  21  22
ENDBRANCH  20  21
ENDBRANCH  19  20
ENDBRANCH  18  19
ENDBRANCH  17  18
ENDBRANCH  13  17
ENDBRANCH   9  11
ENDBRANCH   1   9
TORSDOF 11
ENDMDL
MODEL 5
REMARK VINA RESULT:   -27.706      2.037      3.121
REMARK INTER + INTRA:         -34.696
REMARK INTER:                 -30.987
REMARK INTRA:                  -3.709
REMARK CONF_INDEPENDENT:        3.281
REMARK UNBOUND:                -3.709
REMARK  11 active torsions:
REMARK  status: ('A' for Active; 'I' for Inactive)
REMARK    1  A    between atoms: C_2  and  O_3 
REMARK    2  A    between atoms: O_3  and  C_4 
REMARK    3  A    between atoms: C_4  and  C_6 
REMARK    4  A    between atoms: C_6  and  C_7 
REMARK    5  A    between atoms: C_7  and  C_8 
REMARK    6  A    between atoms: C_8  and  C_9 
REMARK    7  A    between atoms: C_9  and  C_10 
REMARK    8  A    between atoms: C_10  and  C_11 
REMARK    9  A    between atoms: C_11  and  N_12 
REMARK       I    between atoms: N_12  and  C_13 
REMARK       I    between atoms: C_13  and  N_15 
REMARK   10  A    between atoms: N_15  and  N_16 
REMARK   11  A    between atoms: N_16  and  C_17 
ROOT
ATOM      1  C   UNL d   1      24.390 -16.664  -0.677  0.00  0.00     0.049 A 
ATOM      2  C   UNL d   1      25.176 -17.767  -0.326  0.00  0.00     0.031 A 
ATOM      3  C   UNL d   1      24.618 -19.052  -0.187  0.00  0.00     0.004 A 
ATOM      4  C   UNL d   1      23.255 -19.259  -0.390  0.00  0.00     0.023 A 
ATOM      5  C   UNL d   1      22.438 -18.174  -0.708  0.00  0.00     0.046 A 
ATOM      6  C   UNL d   1      21.019 -18.380  -0.836  0.00  0.00     0.099 C 
ATOM      7  N   UNL d   1      19.880 -18.575  -0.902  0.00  0.00    -0.191 NA
ATOM      8  C   UNL d   1      23.007 -16.892  -0.859  0.00  0.00     0.053 A 
ENDROOT
BRANCH   1   9
ATOM      9  N   UNL d   1      24.903 -15.362  -0.909  0.00  0.00    -0.297 N 
ATOM     10  H   UNL d   1      24.907 -14.733  -0.097  0.00  0.00     0.187 HD
BRANCH   9  11
ATOM     11  N   UNL d   1      26.021 -15.181  -1.785  0.00  0.00    -0.251 N 
ATOM     12  C   UNL d   1      26.873 -14.104  -1.504  0.00  0.00     0.334 C 
ATOM     13  N   UNL d   1      27.736 -13.760  -2.536  0.00  0.00    -0.342 N 
ATOM     14  O   UNL d   1      26.892 -13.539  -0.413  0.00  0.00    -0.246 OA
ATOM     15  H   UNL d   1      27.655 -14.204  -3.437  0.00  0.00     0.164 HD
ATOM     16  H   UNL d   1      25.854 -15.470  -2.740  0.00  0.00     0.191 HD
BRANCH  13  17
ATOM     17  C   UNL d   1      28.747 -12.708  -2.363  0.00  0.00     0.124 C 
BRANCH  17  18
ATOM     18  C   UNL d   1      29.268 -12.121  -3.683  0.00  0.00     0.020 C 
BRANCH  18  19
ATOM     19  C   UNL d   1      28.225 -11.227  -4.370  0.00  0.00     0.002 C 
BRANCH  19  20
ATOM     20  C   UNL d   1      26.982 -11.039  -3.490  0.00  0.00     0.001 C 
BRANCH  20  21
ATOM     21  C   UNL d   1      25.800 -11.845  -4.026  0.00  0.00     0.010 C 
BRANCH  21  22
ATOM     22  C   UNL d   1      26.222 -12.917  -5.040  0.00  0.00     0.111 C 
BRANCH  22  23
ATOM     23  C   UNL d   1      25.672 -14.273  -4.628  0.00  0.00     0.258 C 
ATOM     24  O   UNL d   1      24.541 -14.450  -4.192  0.00  0.00    -0.265 OA
BRANCH  23  25
ATOM     25  O   UNL d   1      26.590 -15.271  -4.799  0.00  0.00    -0.322 OA
BRANCH  25  26
ATOM     26  C   UNL d   1      27.589 -14.973  -5.797  0.00  0.00     0.174 C 
ATOM     27  C   UNL d   1      28.934 -15.544  -5.378  0.00  0.00     0.034 C 
ENDBRANCH  25  26
ENDBRANCH  23  25
ENDBRANCH  22  23
ENDBRANCH  21  22
ENDBRANCH  20  21
ENDBRANCH  19  20
ENDBRANCH  18  19
ENDBRANCH  17  18
ENDBRANCH  13  17
ENDBRANCH   9  11
ENDBRANCH   1   9
TORSDOF 11
ENDMDL
MODEL 6
REMARK VINA RESULT:   -27.570      2.160      3.480
REMARK INTER + INTRA:         -34.401
REMARK INTER:                 -30.851
REMARK INTRA:                  -3.550
REMARK CONF_INDEPENDENT:        3.281
REMARK UNBOUND:                -3.550
REMARK  11 active torsions:
REMARK  status: ('A' for Active; 'I' for Inactive)
REMARK    1  A    between atoms: C_2  and  O_3 
REMARK    2  A    between atoms: O_3  and  C_4 
REMARK    3  A    between atoms: C_4  and  C_6 
REMARK    4  A    between atoms: C_6  and  C_7 
REMARK    5  A    between atoms: C_7  and  C_8 
REMARK    6  A    between atoms: C_8  and  C_9 
REMARK    7  A    between atoms: C_9  and  C_10 
REMARK    8  A    between atoms: C_10  and  C_11 
REMARK    9  A    between atoms: C_11  and  N_12 
REMARK       I    between atoms: N_12  and  C_13 
REMARK       I    between atoms: C_13  and  N_15 
REMARK   10  A    between atoms: N_15  and  N_16 
REMARK   11  A    between atoms: N_16  and  C_17 
ROOT
ATOM      1  C   UNL d   1      24.343 -16.624  -0.919  0.00  0.00     0.049 A 
ATOM      2  C   UNL d   1      25.136 -17.670  -0.434  0.00  0.00     0.031 A 
ATOM      3  C   UNL d   1      24.586 -18.930  -0.136  0.00  0.00     0.004 A 
ATOM      4  C   UNL d   1      23.224 -19.169  -0.310  0.00  0.00     0.023 A 
ATOM      5  C   UNL d   1      22.401 -18.137  -0.759  0.00  0.00     0.046 A 
ATOM      6  C   UNL d   1      20.983 -18.367  -0.860  0.00  0.00     0.099 C 
ATOM      7  N   UNL d   1      19.845 -18.575  -0.899  0.00  0.00    -0.191 NA
ATOM      8  C   UNL d   1      22.961 -16.881  -1.070  0.00  0.00     0.053 A 
ENDROOT
BRANCH   1   9
ATOM      9  N   UNL d   1      24.848 -15.358  -1.312  0.00  0.00    -0.297 N 
ATOM     10  H   UNL d   1      25.432 -14.875  -0.618  0.00  0.00     0.187 HD
BRANCH   9  11
ATOM     11  N   UNL d   1      25.265 -15.145  -2.665  0.00  0.00    -0.251 N 
ATOM     12  C   UNL d   1      26.566 -15.548  -2.994  0.00  0.00     0.334 C 
ATOM     13  N   UNL d   1      27.048 -15.039  -4.193  0.00  0.00    -0.342 N 
ATOM     14  O   UNL d   1      27.214 -16.332  -2.304  0.00  0.00    -0.246 OA
ATOM     15  H   UNL d   1      26.516 -14.353  -4.706  0.00  0.00     0.164 HD
ATOM     16  H   UNL d   1      24.850 -14.334  -3.106  0.00  0.00     0.191 HD
BRANCH  13  17
ATOM     17  C   UNL d   1      28.363 -15.438  -4.715  0.00  0.00     0.124 C 
BRANCH  17  18
ATOM     18  C   UNL d   1      28.846 -14.591  -5.901  0.00  0.00     0.020 C 
BRANCH  18  19
ATOM     19  C   UNL d   1      28.641 -13.087  -5.658  0.00  0.00     0.002 C 
BRANCH  19  20
ATOM     20  C   UNL d   1      27.310 -12.602  -6.245  0.00  0.00     0.001 C 
BRANCH  20  21
ATOM     21  C   UNL d   1      27.037 -11.147  -5.865  0.00  0.00     0.010 C 
BRANCH  21  22
ATOM     22  C   UNL d   1      26.036 -11.011  -4.709  0.00  0.00     0.111 C 
BRANCH  22  23
ATOM     23  C   UNL d   1      25.595 -12.388  -4.236  0.00  0.00     0.258 C 
ATOM     24  O   UNL d   1      25.037 -13.211  -4.950  0.00  0.00    -0.265 OA
BRANCH  23  25
ATOM     25  O   UNL d   1      25.894 -12.595  -2.918  0.00  0.00    -0.322 OA
BRANCH  25  26
ATOM     26  C   UNL d   1      27.119 -11.960  -2.496  0.00  0.00     0.174 C 
ATOM     27  C   UNL d   1      27.631 -12.607  -1.219  0.00  0.00     0.034 C 
ENDBRANCH  25  26
ENDBRANCH  23  25
ENDBRANCH  22  23
ENDBRANCH  21  22
ENDBRANCH  20  21
ENDBRANCH  19  20
ENDBRANCH  18  19
ENDBRANCH  17  18
ENDBRANCH  13  17
ENDBRANCH   9  11
ENDBRANCH   1   9
TORSDOF 11
ENDMDL
MODEL 7
REMARK VINA RESULT:   -27.543      2.175      3.853
REMARK INTER + INTRA:         -34.717
REMARK INTER:                 -30.824
REMARK INTRA:                  -3.893
REMARK CONF_INDEPENDENT:        3.281
REMARK UNBOUND:                -3.893
REMARK  11 active torsions:
REMARK  status: ('A' for Active; 'I' for Inactive)
REMARK    1  A    between atoms: C_2  and  O_3 
REMARK    2  A    between atoms: O_3  and  C_4 
REMARK    3  A    between atoms: C_4  and  C_6 
REMARK    4  A    between atoms: C_6  and  C_7 
REMARK    5  A    between atoms: C_7  and  C_8 
REMARK    6  A    between atoms: C_8  and  C_9 
REMARK    7  A    between atoms: C_9  and  C_10 
REMARK    8  A    between atoms: C_10  and  C_11 
REMARK    9  A    between atoms: C_11  and  N_12 
REMARK       I    between atoms: N_12  and  C_13 
REMARK       I    between atoms: C_13  and  N_15 
REMARK   10  A    between atoms: N_15  and  N_16 
REMARK   11  A    between atoms: N_16  and  C_17 
ROOT
ATOM      1  C   UNL d   1      24.493 -17.135  -1.448  0.00  0.00     0.049 A 
ATOM      2  C   UNL d   1      25.095 -17.485  -0.234  0.00  0.00     0.031 A 
ATOM      3  C   UNL d   1      24.392 -18.200   0.754  0.00  0.00     0.004 A 
ATOM      4  C   UNL d   1      23.065 -18.574   0.550  0.00  0.00     0.023 A 
ATOM      5  C   UNL d   1      22.427 -18.210  -0.635  0.00  0.00     0.046 A 
ATOM      6  C   UNL d   1      21.033 -18.529  -0.805  0.00  0.00     0.099 C 
ATOM      7  N   UNL d   1      19.905 -18.773  -0.896  0.00  0.00    -0.191 NA
ATOM      8  C   UNL d   1      23.141 -17.507  -1.626  0.00  0.00     0.053 A 
ENDROOT
BRANCH   1   9
ATOM      9  N   UNL d   1      25.169 -16.486  -2.513  0.00  0.00    -0.297 N 
ATOM     10  H   UNL d   1      24.932 -16.814  -3.458  0.00  0.00     0.187 HD
BRANCH   9  11
ATOM     11  N   UNL d   1      25.433 -15.081  -2.440  0.00  0.00    -0.251 N 
ATOM     12  C   UNL d   1      25.395 -14.369  -3.647  0.00  0.00     0.334 C 
ATOM     13  N   UNL d   1      25.968 -13.105  -3.596  0.00  0.00    -0.342 N 
ATOM     14  O   UNL d   1      24.852 -14.806  -4.659  0.00  0.00    -0.246 OA
ATOM     15  H   UNL d   1      26.456 -12.800  -2.768  0.00  0.00     0.164 HD
ATOM     16  H   UNL d   1      26.076 -14.815  -1.706  0.00  0.00     0.191 HD
BRANCH  13  17
ATOM     17  C   UNL d   1      25.929 -12.205  -4.757  0.00  0.00     0.124 C 
BRANCH  17  18
ATOM     18  C   UNL d   1      27.307 -11.927  -5.376  0.00  0.00     0.020 C 
BRANCH  18  19
ATOM     19  C   UNL d   1      28.358 -12.956  -4.933  0.00  0.00     0.002 C 
BRANCH  19  20
ATOM     20  C   UNL d   1      28.199 -14.281  -5.690  0.00  0.00     0.001 C 
BRANCH  20  21
ATOM     21  C   UNL d   1      28.288 -15.474  -4.739  0.00  0.00     0.010 C 
BRANCH  21  22
ATOM     22  C   UNL d   1      29.153 -15.186  -3.503  0.00  0.00     0.111 C 
BRANCH  22  23
ATOM     23  C   UNL d   1      28.279 -15.108  -2.261  0.00  0.00     0.258 C 
ATOM     24  O   UNL d   1      27.884 -16.086  -1.638  0.00  0.00    -0.265 OA
BRANCH  23  25
ATOM     25  O   UNL d   1      27.985 -13.816  -1.924  0.00  0.00    -0.322 OA
BRANCH  25  26
ATOM     26  C   UNL d   1      28.285 -13.494  -0.549  0.00  0.00     0.174 C 
ATOM     27  C   UNL d   1      27.323 -12.435  -0.038  0.00  0.00     0.034 C 
ENDBRANCH  25  26
ENDBRANCH  23  25
ENDBRANCH  22  23
ENDBRANCH  21  22
ENDBRANCH  20  21
ENDBRANCH  19  20
ENDBRANCH  18  19
ENDBRANCH  17  18
ENDBRANCH  13  17
ENDBRANCH   9  11
ENDBRANCH   1   9
TORSDOF 11
ENDMDL
MODEL 8
REMARK VINA RESULT:   -27.332      2.271      3.992
REMARK INTER + INTRA:         -34.761
REMARK INTER:                 -30.613
REMARK INTRA:                  -4.148
REMARK CONF_INDEPENDENT:        3.281
REMARK UNBOUND:                -4.148
REMARK  11 active torsions:
REMARK  status: ('A' for Active; 'I' for Inactive)
REMARK    1  A    between atoms: C_2  and  O_3 
REMARK    2  A    between atoms: O_3  and  C_4 
REMARK    3  A    between atoms: C_4  and  C_6 
REMARK    4  A    between atoms: C_6  and  C_7 
REMARK    5  A    between atoms: C_7  and  C_8 
REMARK    6  A    between atoms: C_8  and  C_9 
REMARK    7  A    between atoms: C_9  and  C_10 
REMARK    8  A    between atoms: C_10  and  C_11 
REMARK    9  A    between atoms: C_11  and  N_12 
REMARK       I    between atoms: N_12  and  C_13 
REMARK       I    between atoms: C_13  and  N_15 
REMARK   10  A    between atoms: N_15  and  N_16 
REMARK   11  A    between atoms: N_16  and  C_17 
ROOT
ATOM      1  C   UNL d   1      24.531 -17.302  -1.466  0.00  0.00     0.049 A 
ATOM      2  C   UNL d   1      25.102 -17.574  -0.217  0.00  0.00     0.031 A 
ATOM      3  C   UNL d   1      24.368 -18.205   0.804  0.00  0.00     0.004 A 
ATOM      4  C   UNL d   1      23.039 -18.571   0.600  0.00  0.00     0.023 A 
ATOM      5  C   UNL d   1      22.430 -18.283  -0.622  0.00  0.00     0.046 A 
ATOM      6  C   UNL d   1      21.035 -18.591  -0.798  0.00  0.00     0.099 C 
ATOM      7  N   UNL d   1      19.905 -18.823  -0.895  0.00  0.00    -0.191 NA
ATOM      8  C   UNL d   1      23.176 -17.664  -1.645  0.00  0.00     0.053 A 
ENDROOT
BRANCH   1   9
ATOM      9  N   UNL d   1      25.239 -16.741  -2.560  0.00  0.00    -0.297 N 
ATOM     10  H   UNL d   1      24.851 -16.939  -3.491  0.00  0.00     0.187 HD
BRANCH   9  11
ATOM     11  N   UNL d   1      25.820 -15.438  -2.442  0.00  0.00    -0.251 N 
ATOM     12  C   UNL d   1      25.857 -14.657  -3.605  0.00  0.00     0.334 C 
ATOM     13  N   UNL d   1      26.703 -13.559  -3.543  0.00  0.00    -0.342 N 
ATOM     14  O   UNL d   1      25.155 -14.894  -4.587  0.00  0.00    -0.246 OA
ATOM     15  H   UNL d   1      27.307 -13.425  -2.747  0.00  0.00     0.164 HD
ATOM     16  H   UNL d   1      26.558 -15.371  -1.754  0.00  0.00     0.191 HD
BRANCH  13  17
ATOM     17  C   UNL d   1      26.785 -12.598  -4.652  0.00  0.00     0.124 C 
BRANCH  17  18
ATOM     18  C   UNL d   1      26.216 -11.211  -4.318  0.00  0.00     0.020 C 
BRANCH  18  19
ATOM     19  C   UNL d   1      26.265 -10.913  -2.812  0.00  0.00     0.002 C 
BRANCH  19  20
ATOM     20  C   UNL d   1      27.694 -11.028  -2.264  0.00  0.00     0.001 C 
BRANCH  20  21
ATOM     21  C   UNL d   1      27.717 -10.867  -0.745  0.00  0.00     0.010 C 
BRANCH  21  22
ATOM     22  C   UNL d   1      28.137 -12.151  -0.016  0.00  0.00     0.111 C 
BRANCH  22  23
ATOM     23  C   UNL d   1      27.463 -13.357  -0.652  0.00  0.00     0.258 C 
ATOM     24  O   UNL d   1      26.252 -13.464  -0.802  0.00  0.00    -0.265 OA
BRANCH  23  25
ATOM     25  O   UNL d   1      28.368 -14.306  -1.035  0.00  0.00    -0.322 OA
BRANCH  25  26
ATOM     26  C   UNL d   1      28.339 -15.496  -0.219  0.00  0.00     0.174 C 
ATOM     27  C   UNL d   1      28.297 -16.734  -1.101  0.00  0.00     0.034 C 
ENDBRANCH  25  26
ENDBRANCH  23  25
ENDBRANCH  22  23
ENDBRANCH  21  22
ENDBRANCH  20  21
ENDBRANCH  19  20
ENDBRANCH  18  19
ENDBRANCH  17  18
ENDBRANCH  13  17
ENDBRANCH   9  11
ENDBRANCH   1   9
TORSDOF 11
ENDMDL
MODEL 9
REMARK VINA RESULT:   -27.260      2.113      3.877
REMARK INTER + INTRA:         -34.462
REMARK INTER:                 -30.542
REMARK INTRA:                  -3.921
REMARK CONF_INDEPENDENT:        3.281
REMARK UNBOUND:                -3.921
REMARK  11 active torsions:
REMARK  status: ('A' for Active; 'I' for Inactive)
REMARK    1  A    between atoms: C_2  and  O_3 
REMARK    2  A    between atoms: O_3  and  C_4 
REMARK    3  A    between atoms: C_4  and  C_6 
REMARK    4  A    between atoms: C_6  and  C_7 
REMARK    5  A    between atoms: C_7  and  C_8 
REMARK    6  A    between atoms: C_8  and  C_9 
REMARK    7  A    between atoms: C_9  and  C_10 
REMARK    8  A    between atoms: C_10  and  C_11 
REMARK    9  A    between atoms: C_11  and  N_12 
REMARK       I    between atoms: N_12  and  C_13 
REMARK       I    between atoms: C_13  and  N_15 
REMARK   10  A    between atoms: N_15  and  N_16 
REMARK   11  A    between atoms: N_16  and  C_17 
ROOT
ATOM      1  C   UNL d   1      24.195 -16.702  -1.171  0.00  0.00     0.049 A 
ATOM      2  C   UNL d   1      25.063 -17.558  -0.482  0.00  0.00     0.031 A 
ATOM      3  C   UNL d   1      24.623 -18.792   0.031  0.00  0.00     0.004 A 
ATOM      4  C   UNL d   1      23.298 -19.194  -0.127  0.00  0.00     0.023 A 
ATOM      5  C   UNL d   1      22.400 -18.349  -0.779  0.00  0.00     0.046 A 
ATOM      6  C   UNL d   1      21.016 -18.734  -0.868  0.00  0.00     0.099 C 
ATOM      7  N   UNL d   1      19.905 -19.059  -0.894  0.00  0.00    -0.191 NA
ATOM      8  C   UNL d   1      22.852 -17.120  -1.303  0.00  0.00     0.053 A 
ENDROOT
BRANCH   1   9
ATOM      9  N   UNL d   1      24.595 -15.484  -1.779  0.00  0.00    -0.297 N 
ATOM     10  H   UNL d   1      24.298 -14.626  -1.298  0.00  0.00     0.187 HD
BRANCH   9  11
ATOM     11  N   UNL d   1      25.882 -15.383  -2.396  0.00  0.00    -0.251 N 
ATOM     12  C   UNL d   1      25.905 -15.008  -3.747  0.00  0.00     0.334 C 
ATOM     13  N   UNL d   1      27.112 -15.236  -4.394  0.00  0.00    -0.342 N 
ATOM     14  O   UNL d   1      24.950 -14.471  -4.304  0.00  0.00    -0.246 OA
ATOM     15  H   UNL d   1      27.856 -15.731  -3.926  0.00  0.00     0.164 HD
ATOM     16  H   UNL d   1      26.573 -16.025  -2.029  0.00  0.00     0.191 HD
BRANCH  13  17
ATOM     17  C   UNL d   1      27.319 -14.817  -5.787  0.00  0.00     0.124 C 
BRANCH  17  18
ATOM     18  C   UNL d   1      28.792 -14.596  -6.160  0.00  0.00     0.020 C 
BRANCH  18  19
ATOM     19  C   UNL d   1      29.640 -14.187  -4.945  0.00  0.00     0.002 C 
BRANCH  19  20
ATOM     20  C   UNL d   1      30.479 -15.362  -4.427  0.00  0.00     0.001 C 
BRANCH  20  21
ATOM     21  C   UNL d   1      31.103 -15.038  -3.070  0.00  0.00     0.010 C 
BRANCH  21  22
ATOM     22  C   UNL d   1      30.507 -15.872  -1.927  0.00  0.00     0.111 C 
BRANCH  22  23
ATOM     23  C   UNL d   1      29.004 -16.016  -2.114  0.00  0.00     0.258 C 
ATOM     24  O   UNL d   1      28.446 -17.072  -2.384  0.00  0.00    -0.265 OA
BRANCH  23  25
ATOM     25  O   UNL d   1      28.352 -14.826  -1.946  0.00  0.00    -0.322 OA
BRANCH  25  26
ATOM     26  C   UNL d   1      28.246 -14.414  -0.567  0.00  0.00     0.174 C 
ATOM     27  C   UNL d   1      27.919 -15.610   0.312  0.00  0.00     0.034 C 
ENDBRANCH  25  26
ENDBRANCH  23  25
ENDBRANCH  22  23
ENDBRANCH  21  22
ENDBRANCH  20  21
ENDBRANCH  19  20
ENDBRANCH  18  19
ENDBRANCH  17  18
ENDBRANCH  13  17
ENDBRANCH   9  11
ENDBRANCH   1   9
TORSDOF 11
ENDMDL
