MODEL 1
REMARK VINA RESULT:   -10.770      0.000      0.000
REMARK INTER + INTRA:         -14.972
REMARK INTER:                 -13.753
REMARK INTRA:                  -1.219
REMARK CONF_INDEPENDENT:        2.983
REMARK UNBOUND:                -1.219
REMARK  10 active torsions:
REMARK  status: ('A' for Active; 'I' for Inactive)
REMARK    1  A    between atoms: C_2  and  C_3 
REMARK       I    between atoms: C_2  and  N_10 
REMARK    2  A    between atoms: C_3  and  C_4 
REMARK    3  A    between atoms: N_10  and  N_11 
REMARK    4  A    between atoms: N_11  and  C_12 
REMARK    5  A    between atoms: C_12  and  N_14 
REMARK       I    between atoms: N_14  and  C_15 
REMARK    6  A    between atoms: C_15  and  C_17 
REMARK    7  A    between atoms: C_20  and  O_21 
REMARK    8  A    between atoms: O_21  and  C_22 
REMARK    9  A    between atoms: C_22  and  C_23 
REMARK   10  A    between atoms: C_23  and  C_24 
ROOT
ATOM      1  N   UNL d   1      29.627 -14.848   1.757  0.00  0.00    -0.298 N 
ATOM      2  C   UNL d   1      28.451 -14.328   1.179  0.00  0.00     0.257 C 
ATOM      3  O   UNL d   1      28.146 -13.133   1.129  0.00  0.00    -0.267 OA
ATOM      4  H   UNL d   1      29.757 -15.848   1.691  0.00  0.00     0.171 HD
ENDROOT
BRANCH   2   5
ATOM      5  C   UNL d   1      27.432 -15.236   0.590  0.00  0.00     0.033 A 
ATOM      6  C   UNL d   1      27.386 -16.579   0.998  0.00  0.00     0.020 A 
ATOM      7  C   UNL d   1      26.611 -17.516   0.297  0.00  0.00     0.039 A 
ATOM      8  C   UNL d   1      25.817 -17.131  -0.796  0.00  0.00     0.086 A 
ATOM      9  C   UNL d   1      25.903 -15.784  -1.224  0.00  0.00     0.045 A 
ATOM     10 BR   UNL d   1      25.105 -14.986  -2.769  0.00  0.00    -0.048 Br
ATOM     11  C   UNL d   1      26.701 -14.855  -0.527  0.00  0.00     0.039 A 
BRANCH   8  12
ATOM     12  O   UNL d   1      25.053 -18.179  -1.268  0.00  0.00    -0.349 OA
BRANCH  12  13
ATOM     13  C   UNL d   1      23.873 -18.468  -0.536  0.00  0.00     0.180 C 
BRANCH  13  14
ATOM     14  C   UNL d   1      22.566 -18.153  -1.267  0.00  0.00     0.065 C 
BRANCH  14  15
ATOM     15  C   UNL d   1      21.414 -18.844  -0.556  0.00  0.00    -0.056 A 
ATOM     16  C   UNL d   1      20.300 -19.319  -1.270  0.00  0.00     0.007 A 
ATOM     17  C   UNL d   1      19.156 -19.759  -0.606  0.00  0.00     0.001 A 
ATOM     18  C   UNL d   1      19.157 -19.851   0.781  0.00  0.00     0.000 A 
ATOM     19  C   UNL d   1      20.284 -19.461   1.502  0.00  0.00     0.001 A 
ATOM     20  C   UNL d   1      21.404 -18.950   0.840  0.00  0.00     0.007 A 
ENDBRANCH  14  15
ENDBRANCH  13  14
ENDBRANCH  12  13
ENDBRANCH   8  12
ENDBRANCH   2   5
BRANCH   1  21
ATOM     21  C   UNL d   1      30.663 -14.098   2.356  0.00  0.00     0.193 C 
ATOM     22  S   UNL d   1      31.680 -13.025   1.543  0.00  0.00    -0.039 SA
BRANCH  21  23
ATOM     23  N   UNL d   1      30.812 -14.296   3.745  0.00  0.00    -0.273 N 
ATOM     24  H   UNL d   1      31.650 -14.075   4.268  0.00  0.00     0.189 HD
BRANCH  23  25
ATOM     25  N   UNL d   1      29.691 -14.818   4.464  0.00  0.00    -0.268 N 
ATOM     26  C   UNL d   1      29.356 -14.658   5.788  0.00  0.00     0.240 C 
ATOM     27  O   UNL d   1      28.339 -15.204   6.216  0.00  0.00    -0.272 OA
ATOM     28  H   UNL d   1      29.048 -15.399   3.921  0.00  0.00     0.190 HD
BRANCH  26  29
ATOM     29  C   UNL d   1      30.264 -13.806   6.643  0.00  0.00     0.143 C 
BRANCH  29  30
ATOM     30  C   UNL d   1      29.737 -13.489   8.025  0.00  0.00    -0.049 A 
ATOM     31  C   UNL d   1      30.214 -14.170   9.155  0.00  0.00     0.007 A 
ATOM     32  C   UNL d   1      29.617 -13.975  10.403  0.00  0.00     0.001 A 
ATOM     33  C   UNL d   1      28.597 -13.037  10.549  0.00  0.00     0.000 A 
ATOM     34  C   UNL d   1      28.155 -12.312   9.444  0.00  0.00     0.001 A 
ATOM     35  C   UNL d   1      28.718 -12.541   8.187  0.00  0.00     0.007 A 
ENDBRANCH  29  30
ENDBRANCH  26  29
ENDBRANCH  23  25
ENDBRANCH  21  23
ENDBRANCH   1  21
TORSDOF 10
ENDMDL
MODEL 2
REMARK VINA RESULT:   -10.240      1.128      1.634
REMARK INTER + INTRA:         -14.685
REMARK INTER:                 -13.223
REMARK INTRA:                  -1.463
REMARK CONF_INDEPENDENT:        2.983
REMARK UNBOUND:                -1.463
REMARK  10 active torsions:
REMARK  status: ('A' for Active; 'I' for Inactive)
REMARK    1  A    between atoms: C_2  and  C_3 
REMARK       I    between atoms: C_2  and  N_10 
REMARK    2  A    between atoms: C_3  and  C_4 
REMARK    3  A    between atoms: N_10  and  N_11 
REMARK    4  A    between atoms: N_11  and  C_12 
REMARK    5  A    between atoms: C_12  and  N_14 
REMARK       I    between atoms: N_14  and  C_15 
REMARK    6  A    between atoms: C_15  and  C_17 
REMARK    7  A    between atoms: C_20  and  O_21 
REMARK    8  A    between atoms: O_21  and  C_22 
REMARK    9  A    between atoms: C_22  and  C_23 
REMARK   10  A    between atoms: C_23  and  C_24 
ROOT
ATOM      1  N   UNL d   1      29.381 -14.634   1.961  0.00  0.00    -0.298 N 
ATOM      2  C   UNL d   1      28.726 -14.296   0.759  0.00  0.00     0.257 C 
ATOM      3  O   UNL d   1      28.985 -13.315   0.056  0.00  0.00    -0.267 OA
ATOM      4  H   UNL d   1      29.083 -15.489   2.411  0.00  0.00     0.171 HD
ENDROOT
BRANCH   2   5
ATOM      5  C   UNL d   1      27.601 -15.123   0.251  0.00  0.00     0.033 A 
ATOM      6  C   UNL d   1      27.450 -16.441   0.713  0.00  0.00     0.020 A 
ATOM      7  C   UNL d   1      26.558 -17.325   0.085  0.00  0.00     0.039 A 
ATOM      8  C   UNL d   1      25.753 -16.905  -0.987  0.00  0.00     0.086 A 
ATOM      9  C   UNL d   1      25.943 -15.588  -1.471  0.00  0.00     0.045 A 
ATOM     10 BR   UNL d   1      25.151 -14.772  -3.010  0.00  0.00    -0.048 Br
ATOM     11  C   UNL d   1      26.856 -14.715  -0.846  0.00  0.00     0.039 A 
BRANCH   8  12
ATOM     12  O   UNL d   1      24.874 -17.892  -1.384  0.00  0.00    -0.349 OA
BRANCH  12  13
ATOM     13  C   UNL d   1      24.023 -18.410  -0.373  0.00  0.00     0.180 C 
BRANCH  13  14
ATOM     14  C   UNL d   1      22.735 -17.617  -0.146  0.00  0.00     0.065 C 
BRANCH  14  15
ATOM     15  C   UNL d   1      21.557 -18.577  -0.094  0.00  0.00    -0.056 A 
ATOM     16  C   UNL d   1      20.908 -18.995  -1.269  0.00  0.00     0.007 A 
ATOM     17  C   UNL d   1      19.708 -19.701  -1.214  0.00  0.00     0.001 A 
ATOM     18  C   UNL d   1      19.204 -20.109   0.017  0.00  0.00     0.000 A 
ATOM     19  C   UNL d   1      19.879 -19.772   1.189  0.00  0.00     0.001 A 
ATOM     20  C   UNL d   1      21.044 -19.001   1.137  0.00  0.00     0.007 A 
ENDBRANCH  14  15
ENDBRANCH  13  14
ENDBRANCH  12  13
ENDBRANCH   8  12
ENDBRANCH   2   5
BRANCH   1  21
ATOM     21  C   UNL d   1      30.450 -13.929   2.555  0.00  0.00     0.193 C 
ATOM     22  S   UNL d   1      31.327 -12.693   1.813  0.00  0.00    -0.039 SA
BRANCH  21  23
ATOM     23  N   UNL d   1      30.765 -14.326   3.871  0.00  0.00    -0.273 N 
ATOM     24  H   UNL d   1      31.618 -14.076   4.356  0.00  0.00     0.189 HD
BRANCH  23  25
ATOM     25  N   UNL d   1      29.799 -15.111   4.575  0.00  0.00    -0.268 N 
ATOM     26  C   UNL d   1      28.579 -14.735   5.086  0.00  0.00     0.240 C 
ATOM     27  O   UNL d   1      27.894 -15.574   5.672  0.00  0.00    -0.272 OA
ATOM     28  H   UNL d   1      30.051 -16.090   4.730  0.00  0.00     0.190 HD
BRANCH  26  29
ATOM     29  C   UNL d   1      28.146 -13.302   4.888  0.00  0.00     0.143 C 
BRANCH  29  30
ATOM     30  C   UNL d   1      28.385 -12.387   6.068  0.00  0.00    -0.049 A 
ATOM     31  C   UNL d   1      28.783 -11.054   5.881  0.00  0.00     0.007 A 
ATOM     32  C   UNL d   1      29.143 -10.264   6.975  0.00  0.00     0.001 A 
ATOM     33  C   UNL d   1      29.029 -10.769   8.268  0.00  0.00     0.000 A 
ATOM     34  C   UNL d   1      28.579 -12.072   8.469  0.00  0.00     0.001 A 
ATOM     35  C   UNL d   1      28.264 -12.879   7.374  0.00  0.00     0.007 A 
ENDBRANCH  29  30
ENDBRANCH  26  29
ENDBRANCH  23  25
ENDBRANCH  21  23
ENDBRANCH   1  21
TORSDOF 10
ENDMDL
MODEL 3
REMARK VINA RESULT:    -9.906      5.094      5.359
REMARK INTER + INTRA:         -13.889
REMARK INTER:                 -12.889
REMARK INTRA:                  -0.999
REMARK CONF_INDEPENDENT:        2.983
REMARK UNBOUND:                -0.999
REMARK  10 active torsions:
REMARK  status: ('A' for Active; 'I' for Inactive)
REMARK    1  A    between atoms: C_2  and  C_3 
REMARK       I    between atoms: C_2  and  N_10 
REMARK    2  A    between atoms: C_3  and  C_4 
REMARK    3  A    between atoms: N_10  and  N_11 
REMARK    4  A    between atoms: N_11  and  C_12 
REMARK    5  A    between atoms: C_12  and  N_14 
REMARK       I    between atoms: N_14  and  C_15 
REMARK    6  A    between atoms: C_15  and  C_17 
REMARK    7  A    between atoms: C_20  and  O_21 
REMARK    8  A    between atoms: O_21  and  C_22 
REMARK    9  A    between atoms: C_22  and  C_23 
REMARK   10  A    between atoms: C_23  and  C_24 
ROOT
ATOM      1  N   UNL d   1      30.061 -17.422  -0.319  0.00  0.00    -0.298 N 
ATOM      2  C   UNL d   1      29.332 -16.693  -1.280  0.00  0.00     0.257 C 
ATOM      3  O   UNL d   1      29.818 -16.095  -2.245  0.00  0.00    -0.267 OA
ATOM      4  H   UNL d   1      29.521 -17.889   0.396  0.00  0.00     0.171 HD
ENDROOT
BRANCH   2   5
ATOM      5  C   UNL d   1      27.855 -16.562  -1.171  0.00  0.00     0.033 A 
ATOM      6  C   UNL d   1      27.118 -17.576  -0.536  0.00  0.00     0.020 A 
ATOM      7  C   UNL d   1      25.718 -17.609  -0.627  0.00  0.00     0.039 A 
ATOM      8  C   UNL d   1      25.009 -16.605  -1.307  0.00  0.00     0.086 A 
ATOM      9  C   UNL d   1      25.763 -15.612  -1.978  0.00  0.00     0.045 A 
ATOM     10 BR   UNL d   1      25.124 -14.225  -3.131  0.00  0.00    -0.048 Br
ATOM     11  C   UNL d   1      27.170 -15.599  -1.899  0.00  0.00     0.039 A 
BRANCH   8  12
ATOM     12  O   UNL d   1      23.644 -16.767  -1.182  0.00  0.00    -0.349 OA
BRANCH  12  13
ATOM     13  C   UNL d   1      23.190 -18.099  -0.999  0.00  0.00     0.180 C 
BRANCH  13  14
ATOM     14  C   UNL d   1      22.708 -18.428   0.415  0.00  0.00     0.065 C 
BRANCH  14  15
ATOM     15  C   UNL d   1      21.285 -18.958   0.348  0.00  0.00    -0.056 A 
ATOM     16  C   UNL d   1      20.632 -19.432   1.501  0.00  0.00     0.007 A 
ATOM     17  C   UNL d   1      19.416 -20.108   1.410  0.00  0.00     0.001 A 
ATOM     18  C   UNL d   1      18.775 -20.211   0.181  0.00  0.00     0.000 A 
ATOM     19  C   UNL d   1      19.371 -19.676  -0.960  0.00  0.00     0.001 A 
ATOM     20  C   UNL d   1      20.624 -19.062  -0.880  0.00  0.00     0.007 A 
ENDBRANCH  14  15
ENDBRANCH  13  14
ENDBRANCH  12  13
ENDBRANCH   8  12
ENDBRANCH   2   5
BRANCH   1  21
ATOM     21  C   UNL d   1      31.460 -17.612  -0.302  0.00  0.00     0.193 C 
ATOM     22  S   UNL d   1      32.574 -16.699  -1.182  0.00  0.00    -0.039 SA
BRANCH  21  23
ATOM     23  N   UNL d   1      31.908 -18.653   0.537  0.00  0.00    -0.273 N 
ATOM     24  H   UNL d   1      31.587 -19.612   0.480  0.00  0.00     0.189 HD
BRANCH  23  25
ATOM     25  N   UNL d   1      32.902 -18.337   1.514  0.00  0.00    -0.268 N 
ATOM     26  C   UNL d   1      33.328 -19.077   2.592  0.00  0.00     0.240 C 
ATOM     27  O   UNL d   1      34.203 -18.613   3.325  0.00  0.00    -0.272 OA
ATOM     28  H   UNL d   1      33.359 -17.428   1.403  0.00  0.00     0.190 HD
BRANCH  26  29
ATOM     29  C   UNL d   1      32.696 -20.430   2.809  0.00  0.00     0.143 C 
BRANCH  29  30
ATOM     30  C   UNL d   1      32.629 -20.888   4.250  0.00  0.00    -0.049 A 
ATOM     31  C   UNL d   1      33.797 -21.171   4.973  0.00  0.00     0.007 A 
ATOM     32  C   UNL d   1      33.720 -21.733   6.249  0.00  0.00     0.001 A 
ATOM     33  C   UNL d   1      32.478 -21.938   6.847  0.00  0.00     0.000 A 
ATOM     34  C   UNL d   1      31.312 -21.607   6.159  0.00  0.00     0.001 A 
ATOM     35  C   UNL d   1      31.387 -21.089   4.865  0.00  0.00     0.007 A 
ENDBRANCH  29  30
ENDBRANCH  26  29
ENDBRANCH  23  25
ENDBRANCH  21  23
ENDBRANCH   1  21
TORSDOF 10
ENDMDL
MODEL 4
REMARK VINA RESULT:    -9.839      5.774      8.175
REMARK INTER + INTRA:         -14.051
REMARK INTER:                 -12.822
REMARK INTRA:                  -1.229
REMARK CONF_INDEPENDENT:        2.983
REMARK UNBOUND:                -1.229
REMARK  10 active torsions:
REMARK  status: ('A' for Active; 'I' for Inactive)
REMARK    1  A    between atoms: C_2  and  C_3 
REMARK       I    between atoms: C_2  and  N_10 
REMARK    2  A    between atoms: C_3  and  C_4 
REMARK    3  A    between atoms: N_10  and  N_11 
REMARK    4  A    between atoms: N_11  and  C_12 
REMARK    5  A    between atoms: C_12  and  N_14 
REMARK       I    between atoms: N_14  and  C_15 
REMARK    6  A    between atoms: C_15  and  C_17 
REMARK    7  A    between atoms: C_20  and  O_21 
REMARK    8  A    between atoms: O_21  and  C_22 
REMARK    9  A    between atoms: C_22  and  C_23 
REMARK   10  A    between atoms: C_23  and  C_24 
ROOT
ATOM      1  N   UNL d   1      30.147 -18.766  -0.534  0.00  0.00    -0.298 N 
ATOM      2  C   UNL d   1      29.517 -17.557  -0.894  0.00  0.00     0.257 C 
ATOM      3  O   UNL d   1      30.072 -16.592  -1.427  0.00  0.00    -0.267 OA
ATOM      4  H   UNL d   1      29.554 -19.482  -0.138  0.00  0.00     0.171 HD
ENDROOT
BRANCH   2   5
ATOM      5  C   UNL d   1      28.073 -17.344  -0.613  0.00  0.00     0.033 A 
ATOM      6  C   UNL d   1      27.406 -18.209   0.270  0.00  0.00     0.020 A 
ATOM      7  C   UNL d   1      26.006 -18.192   0.373  0.00  0.00     0.039 A 
ATOM      8  C   UNL d   1      25.235 -17.275  -0.361  0.00  0.00     0.086 A 
ATOM      9  C   UNL d   1      25.913 -16.437  -1.279  0.00  0.00     0.045 A 
ATOM     10 BR   UNL d   1      25.154 -15.222  -2.547  0.00  0.00    -0.048 Br
ATOM     11  C   UNL d   1      27.317 -16.476  -1.390  0.00  0.00     0.039 A 
BRANCH   8  12
ATOM     12  O   UNL d   1      23.897 -17.353  -0.031  0.00  0.00    -0.349 OA
BRANCH  12  13
ATOM     13  C   UNL d   1      23.296 -18.631  -0.166  0.00  0.00     0.180 C 
BRANCH  13  14
ATOM     14  C   UNL d   1      22.083 -18.678  -1.097  0.00  0.00     0.065 C 
BRANCH  14  15
ATOM     15  C   UNL d   1      20.882 -19.208  -0.330  0.00  0.00    -0.056 A 
ATOM     16  C   UNL d   1      20.910 -19.325   1.072  0.00  0.00     0.007 A 
ATOM     17  C   UNL d   1      19.900 -20.001   1.755  0.00  0.00     0.001 A 
ATOM     18  C   UNL d   1      18.786 -20.459   1.062  0.00  0.00     0.000 A 
ATOM     19  C   UNL d   1      18.704 -20.279  -0.318  0.00  0.00     0.001 A 
ATOM     20  C   UNL d   1      19.751 -19.666  -1.013  0.00  0.00     0.007 A 
ENDBRANCH  14  15
ENDBRANCH  13  14
ENDBRANCH  12  13
ENDBRANCH   8  12
ENDBRANCH   2   5
BRANCH   1  21
ATOM     21  C   UNL d   1      31.507 -19.088  -0.735  0.00  0.00     0.193 C 
ATOM     22  S   UNL d   1      32.503 -18.404  -1.913  0.00  0.00    -0.039 SA
BRANCH  21  23
ATOM     23  N   UNL d   1      32.023 -20.060   0.148  0.00  0.00    -0.273 N 
ATOM     24  H   UNL d   1      33.010 -20.221   0.308  0.00  0.00     0.189 HD
BRANCH  23  25
ATOM     25  N   UNL d   1      31.086 -20.848   0.886  0.00  0.00    -0.268 N 
ATOM     26  C   UNL d   1      30.399 -21.974   0.496  0.00  0.00     0.240 C 
ATOM     27  O   UNL d   1      29.624 -22.505   1.293  0.00  0.00    -0.272 OA
ATOM     28  H   UNL d   1      30.892 -20.530   1.839  0.00  0.00     0.190 HD
BRANCH  26  29
ATOM     29  C   UNL d   1      30.645 -22.498  -0.898  0.00  0.00     0.143 C 
BRANCH  29  30
ATOM     30  C   UNL d   1      30.063 -23.865  -1.185  0.00  0.00    -0.049 A 
ATOM     31  C   UNL d   1      29.485 -24.158  -2.429  0.00  0.00     0.007 A 
ATOM     32  C   UNL d   1      28.821 -25.370  -2.633  0.00  0.00     0.001 A 
ATOM     33  C   UNL d   1      28.801 -26.332  -1.625  0.00  0.00     0.000 A 
ATOM     34  C   UNL d   1      29.423 -26.074  -0.405  0.00  0.00     0.001 A 
ATOM     35  C   UNL d   1      30.046 -24.845  -0.184  0.00  0.00     0.007 A 
ENDBRANCH  29  30
ENDBRANCH  26  29
ENDBRANCH  23  25
ENDBRANCH  21  23
ENDBRANCH   1  21
TORSDOF 10
ENDMDL
MODEL 5
REMARK VINA RESULT:    -9.466      5.779      8.043
REMARK INTER + INTRA:         -13.850
REMARK INTER:                 -12.449
REMARK INTRA:                  -1.401
REMARK CONF_INDEPENDENT:        2.983
REMARK UNBOUND:                -1.401
REMARK  10 active torsions:
REMARK  status: ('A' for Active; 'I' for Inactive)
REMARK    1  A    between atoms: C_2  and  C_3 
REMARK       I    between atoms: C_2  and  N_10 
REMARK    2  A    between atoms: C_3  and  C_4 
REMARK    3  A    between atoms: N_10  and  N_11 
REMARK    4  A    between atoms: N_11  and  C_12 
REMARK    5  A    between atoms: C_12  and  N_14 
REMARK       I    between atoms: N_14  and  C_15 
REMARK    6  A    between atoms: C_15  and  C_17 
REMARK    7  A    between atoms: C_20  and  O_21 
REMARK    8  A    between atoms: O_21  and  C_22 
REMARK    9  A    between atoms: C_22  and  C_23 
REMARK   10  A    between atoms: C_23  and  C_24 
ROOT
ATOM      1  N   UNL d   1      30.185 -18.386  -0.525  0.00  0.00    -0.298 N 
ATOM      2  C   UNL d   1      29.470 -17.391  -1.224  0.00  0.00     0.257 C 
ATOM      3  O   UNL d   1      29.934 -16.662  -2.105  0.00  0.00    -0.267 OA
ATOM      4  H   UNL d   1      29.660 -18.929   0.146  0.00  0.00     0.171 HD
ENDROOT
BRANCH   2   5
ATOM      5  C   UNL d   1      28.044 -17.118  -0.905  0.00  0.00     0.033 A 
ATOM      6  C   UNL d   1      27.368 -17.953   0.001  0.00  0.00     0.020 A 
ATOM      7  C   UNL d   1      25.973 -17.879   0.142  0.00  0.00     0.039 A 
ATOM      8  C   UNL d   1      25.219 -16.936  -0.577  0.00  0.00     0.086 A 
ATOM      9  C   UNL d   1      25.904 -16.130  -1.517  0.00  0.00     0.045 A 
ATOM     10 BR   UNL d   1      25.160 -14.891  -2.771  0.00  0.00    -0.048 Br
ATOM     11  C   UNL d   1      27.303 -16.225  -1.666  0.00  0.00     0.039 A 
BRANCH   8  12
ATOM     12  O   UNL d   1      23.889 -16.959  -0.210  0.00  0.00    -0.349 OA
BRANCH  12  13
ATOM     13  C   UNL d   1      23.306 -18.245  -0.063  0.00  0.00     0.180 C 
BRANCH  13  14
ATOM     14  C   UNL d   1      22.248 -18.597  -1.110  0.00  0.00     0.065 C 
BRANCH  14  15
ATOM     15  C   UNL d   1      21.002 -19.114  -0.410  0.00  0.00    -0.056 A 
ATOM     16  C   UNL d   1      20.984 -19.324   0.981  0.00  0.00     0.007 A 
ATOM     17  C   UNL d   1      19.924 -19.992   1.592  0.00  0.00     0.001 A 
ATOM     18  C   UNL d   1      18.809 -20.348   0.842  0.00  0.00     0.000 A 
ATOM     19  C   UNL d   1      18.776 -20.075  -0.525  0.00  0.00     0.001 A 
ATOM     20  C   UNL d   1      19.870 -19.471  -1.151  0.00  0.00     0.007 A 
ENDBRANCH  14  15
ENDBRANCH  13  14
ENDBRANCH  12  13
ENDBRANCH   8  12
ENDBRANCH   2   5
BRANCH   1  21
ATOM     21  C   UNL d   1      31.538 -18.733  -0.724  0.00  0.00     0.193 C 
ATOM     22  S   UNL d   1      32.767 -17.653  -1.138  0.00  0.00    -0.039 SA
BRANCH  21  23
ATOM     23  N   UNL d   1      31.833 -20.101  -0.544  0.00  0.00    -0.273 N 
ATOM     24  H   UNL d   1      32.618 -20.578  -0.970  0.00  0.00     0.189 HD
BRANCH  23  25
ATOM     25  N   UNL d   1      30.979 -20.854   0.320  0.00  0.00    -0.268 N 
ATOM     26  C   UNL d   1      30.791 -22.215   0.388  0.00  0.00     0.240 C 
ATOM     27  O   UNL d   1      29.994 -22.667   1.210  0.00  0.00    -0.272 OA
ATOM     28  H   UNL d   1      30.420 -20.306   0.980  0.00  0.00     0.190 HD
BRANCH  26  29
ATOM     29  C   UNL d   1      31.590 -23.081  -0.557  0.00  0.00     0.143 C 
BRANCH  29  30
ATOM     30  C   UNL d   1      31.604 -22.621  -1.998  0.00  0.00    -0.049 A 
ATOM     31  C   UNL d   1      32.780 -22.141  -2.592  0.00  0.00     0.007 A 
ATOM     32  C   UNL d   1      32.749 -21.582  -3.872  0.00  0.00     0.001 A 
ATOM     33  C   UNL d   1      31.562 -21.575  -4.601  0.00  0.00     0.000 A 
ATOM     34  C   UNL d   1      30.400 -22.103  -4.042  0.00  0.00     0.001 A 
ATOM     35  C   UNL d   1      30.419 -22.618  -2.746  0.00  0.00     0.007 A 
ENDBRANCH  29  30
ENDBRANCH  26  29
ENDBRANCH  23  25
ENDBRANCH  21  23
ENDBRANCH   1  21
TORSDOF 10
ENDMDL
MODEL 6
REMARK VINA RESULT:    -9.192      2.081      3.303
REMARK INTER + INTRA:         -14.239
REMARK INTER:                 -12.175
REMARK INTRA:                  -2.064
REMARK CONF_INDEPENDENT:        2.983
REMARK UNBOUND:                -2.064
REMARK  10 active torsions:
REMARK  status: ('A' for Active; 'I' for Inactive)
REMARK    1  A    between atoms: C_2  and  C_3 
REMARK       I    between atoms: C_2  and  N_10 
REMARK    2  A    between atoms: C_3  and  C_4 
REMARK    3  A    between atoms: N_10  and  N_11 
REMARK    4  A    between atoms: N_11  and  C_12 
REMARK    5  A    between atoms: C_12  and  N_14 
REMARK       I    between atoms: N_14  and  C_15 
REMARK    6  A    between atoms: C_15  and  C_17 
REMARK    7  A    between atoms: C_20  and  O_21 
REMARK    8  A    between atoms: O_21  and  C_22 
REMARK    9  A    between atoms: C_22  and  C_23 
REMARK   10  A    between atoms: C_23  and  C_24 
ROOT
ATOM      1  N   UNL d   1      29.828 -14.560   1.844  0.00  0.00    -0.298 N 
ATOM      2  C   UNL d   1      29.248 -14.084   0.651  0.00  0.00     0.257 C 
ATOM      3  O   UNL d   1      29.535 -13.023   0.090  0.00  0.00    -0.267 OA
ATOM      4  H   UNL d   1      29.516 -15.466   2.166  0.00  0.00     0.171 HD
ENDROOT
BRANCH   2   5
ATOM      5  C   UNL d   1      28.174 -14.855  -0.029  0.00  0.00     0.033 A 
ATOM      6  C   UNL d   1      27.253 -14.181  -0.849  0.00  0.00     0.020 A 
ATOM      7  C   UNL d   1      26.094 -14.825  -1.307  0.00  0.00     0.039 A 
ATOM      8  C   UNL d   1      25.844 -16.175  -1.006  0.00  0.00     0.086 A 
ATOM      9  C   UNL d   1      26.756 -16.832  -0.145  0.00  0.00     0.045 A 
ATOM     10 BR   UNL d   1      26.616 -18.589   0.599  0.00  0.00    -0.048 Br
ATOM     11  C   UNL d   1      27.908 -16.170   0.327  0.00  0.00     0.039 A 
BRANCH   8  12
ATOM     12  O   UNL d   1      24.712 -16.640  -1.643  0.00  0.00    -0.349 OA
BRANCH  12  13
ATOM     13  C   UNL d   1      23.541 -16.725  -0.846  0.00  0.00     0.180 C 
BRANCH  13  14
ATOM     14  C   UNL d   1      23.455 -17.965   0.045  0.00  0.00     0.065 C 
BRANCH  14  15
ATOM     15  C   UNL d   1      22.041 -18.520  -0.002  0.00  0.00    -0.056 A 
ATOM     16  C   UNL d   1      21.390 -18.950   1.169  0.00  0.00     0.007 A 
ATOM     17  C   UNL d   1      20.186 -19.649   1.105  0.00  0.00     0.001 A 
ATOM     18  C   UNL d   1      19.551 -19.818  -0.120  0.00  0.00     0.000 A 
ATOM     19  C   UNL d   1      20.143 -19.327  -1.283  0.00  0.00     0.001 A 
ATOM     20  C   UNL d   1      21.387 -18.690  -1.227  0.00  0.00     0.007 A 
ENDBRANCH  14  15
ENDBRANCH  13  14
ENDBRANCH  12  13
ENDBRANCH   8  12
ENDBRANCH   2   5
BRANCH   1  21
ATOM     21  C   UNL d   1      30.843 -13.923   2.590  0.00  0.00     0.193 C 
ATOM     22  S   UNL d   1      32.144 -13.074   1.929  0.00  0.00    -0.039 SA
BRANCH  21  23
ATOM     23  N   UNL d   1      30.708 -14.029   3.989  0.00  0.00    -0.273 N 
ATOM     24  H   UNL d   1      31.254 -13.501   4.659  0.00  0.00     0.189 HD
BRANCH  23  25
ATOM     25  N   UNL d   1      29.712 -14.923   4.493  0.00  0.00    -0.268 N 
ATOM     26  C   UNL d   1      28.642 -14.659   5.316  0.00  0.00     0.240 C 
ATOM     27  O   UNL d   1      27.898 -15.585   5.642  0.00  0.00    -0.272 OA
ATOM     28  H   UNL d   1      29.809 -15.901   4.208  0.00  0.00     0.190 HD
BRANCH  26  29
ATOM     29  C   UNL d   1      28.440 -13.233   5.768  0.00  0.00     0.143 C 
BRANCH  29  30
ATOM     30  C   UNL d   1      28.308 -12.216   4.656  0.00  0.00    -0.049 A 
ATOM     31  C   UNL d   1      28.805 -10.912   4.807  0.00  0.00     0.007 A 
ATOM     32  C   UNL d   1      28.548  -9.941   3.836  0.00  0.00     0.001 A 
ATOM     33  C   UNL d   1      27.866 -10.284   2.671  0.00  0.00     0.000 A 
ATOM     34  C   UNL d   1      27.418 -11.590   2.485  0.00  0.00     0.001 A 
ATOM     35  C   UNL d   1      27.633 -12.550   3.475  0.00  0.00     0.007 A 
ENDBRANCH  29  30
ENDBRANCH  26  29
ENDBRANCH  23  25
ENDBRANCH  21  23
ENDBRANCH   1  21
TORSDOF 10
ENDMDL
MODEL 7
REMARK VINA RESULT:    -8.863      5.780      8.166
REMARK INTER + INTRA:         -13.796
REMARK INTER:                 -11.846
REMARK INTRA:                  -1.950
REMARK CONF_INDEPENDENT:        2.983
REMARK UNBOUND:                -1.950
REMARK  10 active torsions:
REMARK  status: ('A' for Active; 'I' for Inactive)
REMARK    1  A    between atoms: C_2  and  C_3 
REMARK       I    between atoms: C_2  and  N_10 
REMARK    2  A    between atoms: C_3  and  C_4 
REMARK    3  A    between atoms: N_10  and  N_11 
REMARK    4  A    between atoms: N_11  and  C_12 
REMARK    5  A    between atoms: C_12  and  N_14 
REMARK       I    between atoms: N_14  and  C_15 
REMARK    6  A    between atoms: C_15  and  C_17 
REMARK    7  A    between atoms: C_20  and  O_21 
REMARK    8  A    between atoms: O_21  and  C_22 
REMARK    9  A    between atoms: C_22  and  C_23 
REMARK   10  A    between atoms: C_23  and  C_24 
ROOT
ATOM      1  N   UNL d   1      30.497 -18.278  -0.659  0.00  0.00    -0.298 N 
ATOM      2  C   UNL d   1      29.856 -17.172  -1.254  0.00  0.00     0.257 C 
ATOM      3  O   UNL d   1      30.401 -16.335  -1.979  0.00  0.00    -0.267 OA
ATOM      4  H   UNL d   1      29.912 -18.899  -0.117  0.00  0.00     0.171 HD
ENDROOT
BRANCH   2   5
ATOM      5  C   UNL d   1      28.414 -16.910  -1.007  0.00  0.00     0.033 A 
ATOM      6  C   UNL d   1      27.695 -17.758  -0.149  0.00  0.00     0.020 A 
ATOM      7  C   UNL d   1      26.295 -17.692  -0.081  0.00  0.00     0.039 A 
ATOM      8  C   UNL d   1      25.574 -16.744  -0.827  0.00  0.00     0.086 A 
ATOM      9  C   UNL d   1      26.305 -15.923  -1.719  0.00  0.00     0.045 A 
ATOM     10 BR   UNL d   1      25.622 -14.671  -2.995  0.00  0.00    -0.048 Br
ATOM     11  C   UNL d   1      27.709 -16.010  -1.795  0.00  0.00     0.039 A 
BRANCH   8  12
ATOM     12  O   UNL d   1      24.227 -16.776  -0.531  0.00  0.00    -0.349 OA
BRANCH  12  13
ATOM     13  C   UNL d   1      23.683 -18.056  -0.248  0.00  0.00     0.180 C 
BRANCH  13  14
ATOM     14  C   UNL d   1      22.643 -18.552  -1.253  0.00  0.00     0.065 C 
BRANCH  14  15
ATOM     15  C   UNL d   1      21.369 -18.926  -0.514  0.00  0.00    -0.056 A 
ATOM     16  C   UNL d   1      21.326 -18.954   0.892  0.00  0.00     0.007 A 
ATOM     17  C   UNL d   1      20.232 -19.495   1.566  0.00  0.00     0.001 A 
ATOM     18  C   UNL d   1      19.113 -19.901   0.848  0.00  0.00     0.000 A 
ATOM     19  C   UNL d   1      19.106 -19.805  -0.542  0.00  0.00     0.001 A 
ATOM     20  C   UNL d   1      20.232 -19.330  -1.222  0.00  0.00     0.007 A 
ENDBRANCH  14  15
ENDBRANCH  13  14
ENDBRANCH  12  13
ENDBRANCH   8  12
ENDBRANCH   2   5
BRANCH   1  21
ATOM     21  C   UNL d   1      31.856 -18.631  -0.803  0.00  0.00     0.193 C 
ATOM     22  S   UNL d   1      32.916 -18.952   0.470  0.00  0.00    -0.039 SA
BRANCH  21  23
ATOM     23  N   UNL d   1      32.310 -18.711  -2.136  0.00  0.00    -0.273 N 
ATOM     24  H   UNL d   1      33.244 -18.462  -2.439  0.00  0.00     0.189 HD
BRANCH  23  25
ATOM     25  N   UNL d   1      31.396 -19.204  -3.119  0.00  0.00    -0.268 N 
ATOM     26  C   UNL d   1      30.901 -18.577  -4.238  0.00  0.00     0.240 C 
ATOM     27  O   UNL d   1      30.108 -19.184  -4.960  0.00  0.00    -0.272 OA
ATOM     28  H   UNL d   1      31.054 -20.156  -2.968  0.00  0.00     0.190 HD
BRANCH  26  29
ATOM     29  C   UNL d   1      31.370 -17.170  -4.520  0.00  0.00     0.143 C 
BRANCH  29  30
ATOM     30  C   UNL d   1      30.373 -16.289  -5.238  0.00  0.00    -0.049 A 
ATOM     31  C   UNL d   1      30.694 -15.681  -6.462  0.00  0.00     0.007 A 
ATOM     32  C   UNL d   1      29.825 -14.754  -7.041  0.00  0.00     0.001 A 
ATOM     33  C   UNL d   1      28.592 -14.489  -6.448  0.00  0.00     0.000 A 
ATOM     34  C   UNL d   1      28.238 -15.131  -5.263  0.00  0.00     0.001 A 
ATOM     35  C   UNL d   1      29.126 -16.022  -4.658  0.00  0.00     0.007 A 
ENDBRANCH  29  30
ENDBRANCH  26  29
ENDBRANCH  23  25
ENDBRANCH  21  23
ENDBRANCH   1  21
TORSDOF 10
ENDMDL
MODEL 8
REMARK VINA RESULT:    -8.486      6.662     10.170
REMARK INTER + INTRA:         -13.986
REMARK INTER:                 -11.469
REMARK INTRA:                  -2.517
REMARK CONF_INDEPENDENT:        2.983
REMARK UNBOUND:                -2.517
REMARK  10 active torsions:
REMARK  status: ('A' for Active; 'I' for Inactive)
REMARK    1  A    between atoms: C_2  and  C_3 
REMARK       I    between atoms: C_2  and  N_10 
REMARK    2  A    between atoms: C_3  and  C_4 
REMARK    3  A    between atoms: N_10  and  N_11 
REMARK    4  A    between atoms: N_11  and  C_12 
REMARK    5  A    between atoms: C_12  and  N_14 
REMARK       I    between atoms: N_14  and  C_15 
REMARK    6  A    between atoms: C_15  and  C_17 
REMARK    7  A    between atoms: C_20  and  O_21 
REMARK    8  A    between atoms: O_21  and  C_22 
REMARK    9  A    between atoms: C_22  and  C_23 
REMARK   10  A    between atoms: C_23  and  C_24 
ROOT
ATOM      1  N   UNL d   1      26.004 -16.566  -1.946  0.00  0.00    -0.298 N 
ATOM      2  C   UNL d   1      25.216 -15.560  -2.542  0.00  0.00     0.257 C 
ATOM      3  O   UNL d   1      24.057 -15.277  -2.223  0.00  0.00    -0.267 OA
ATOM      4  H   UNL d   1      26.950 -16.658  -2.290  0.00  0.00     0.171 HD
ENDROOT
BRANCH   2   5
ATOM      5  C   UNL d   1      25.745 -14.753  -3.672  0.00  0.00     0.033 A 
ATOM      6  C   UNL d   1      26.271 -15.405  -4.800  0.00  0.00     0.020 A 
ATOM      7  C   UNL d   1      26.993 -14.693  -5.770  0.00  0.00     0.039 A 
ATOM      8  C   UNL d   1      27.167 -13.302  -5.671  0.00  0.00     0.086 A 
ATOM      9  C   UNL d   1      26.670 -12.662  -4.511  0.00  0.00     0.045 A 
ATOM     10 BR   UNL d   1      26.894 -10.836  -3.985  0.00  0.00    -0.048 Br
ATOM     11  C   UNL d   1      25.963 -13.389  -3.532  0.00  0.00     0.039 A 
BRANCH   8  12
ATOM     12  O   UNL d   1      27.809 -12.787  -6.779  0.00  0.00    -0.349 OA
BRANCH  12  13
ATOM     13  C   UNL d   1      29.181 -12.467  -6.611  0.00  0.00     0.180 C 
BRANCH  13  14
ATOM     14  C   UNL d   1      30.157 -13.549  -7.077  0.00  0.00     0.065 C 
BRANCH  14  15
ATOM     15  C   UNL d   1      30.202 -14.663  -6.044  0.00  0.00    -0.056 A 
ATOM     16  C   UNL d   1      30.197 -16.015  -6.433  0.00  0.00     0.007 A 
ATOM     17  C   UNL d   1      30.026 -17.031  -5.494  0.00  0.00     0.001 A 
ATOM     18  C   UNL d   1      29.984 -16.718  -4.140  0.00  0.00     0.000 A 
ATOM     19  C   UNL d   1      30.069 -15.389  -3.731  0.00  0.00     0.001 A 
ATOM     20  C   UNL d   1      30.167 -14.364  -4.677  0.00  0.00     0.007 A 
ENDBRANCH  14  15
ENDBRANCH  13  14
ENDBRANCH  12  13
ENDBRANCH   8  12
ENDBRANCH   2   5
BRANCH   1  21
ATOM     21  C   UNL d   1      25.618 -17.405  -0.879  0.00  0.00     0.193 C 
ATOM     22  S   UNL d   1      26.393 -17.491   0.617  0.00  0.00    -0.039 SA
BRANCH  21  23
ATOM     23  N   UNL d   1      24.488 -18.209  -1.135  0.00  0.00    -0.273 N 
ATOM     24  H   UNL d   1      24.510 -19.218  -1.221  0.00  0.00     0.189 HD
BRANCH  23  25
ATOM     25  N   UNL d   1      23.222 -17.554  -1.253  0.00  0.00    -0.268 N 
ATOM     26  C   UNL d   1      22.017 -17.881  -0.676  0.00  0.00     0.240 C 
ATOM     27  O   UNL d   1      21.032 -17.181  -0.916  0.00  0.00    -0.272 OA
ATOM     28  H   UNL d   1      23.204 -16.728  -1.857  0.00  0.00     0.190 HD
BRANCH  26  29
ATOM     29  C   UNL d   1      21.977 -19.088   0.230  0.00  0.00     0.143 C 
BRANCH  29  30
ATOM     30  C   UNL d   1      20.592 -19.599   0.563  0.00  0.00    -0.049 A 
ATOM     31  C   UNL d   1      20.215 -19.851   1.890  0.00  0.00     0.007 A 
ATOM     32  C   UNL d   1      18.991 -20.461   2.173  0.00  0.00     0.001 A 
ATOM     33  C   UNL d   1      18.099 -20.748   1.142  0.00  0.00     0.000 A 
ATOM     34  C   UNL d   1      18.441 -20.449  -0.176  0.00  0.00     0.001 A 
ATOM     35  C   UNL d   1      19.683 -19.882  -0.465  0.00  0.00     0.007 A 
ENDBRANCH  29  30
ENDBRANCH  26  29
ENDBRANCH  23  25
ENDBRANCH  21  23
ENDBRANCH   1  21
TORSDOF 10
ENDMDL
MODEL 9
REMARK VINA RESULT:    -8.203      2.348      2.786
REMARK INTER + INTRA:         -13.837
REMARK INTER:                 -11.186
REMARK INTRA:                  -2.651
REMARK CONF_INDEPENDENT:        2.983
REMARK UNBOUND:                -2.651
REMARK  10 active torsions:
REMARK  status: ('A' for Active; 'I' for Inactive)
REMARK    1  A    between atoms: C_2  and  C_3 
REMARK       I    between atoms: C_2  and  N_10 
REMARK    2  A    between atoms: C_3  and  C_4 
REMARK    3  A    between atoms: N_10  and  N_11 
REMARK    4  A    between atoms: N_11  and  C_12 
REMARK    5  A    between atoms: C_12  and  N_14 
REMARK       I    between atoms: N_14  and  C_15 
REMARK    6  A    between atoms: C_15  and  C_17 
REMARK    7  A    between atoms: C_20  and  O_21 
REMARK    8  A    between atoms: O_21  and  C_22 
REMARK    9  A    between atoms: C_22  and  C_23 
REMARK   10  A    between atoms: C_23  and  C_24 
ROOT
ATOM      1  N   UNL d   1      29.750 -14.838   1.521  0.00  0.00    -0.298 N 
ATOM      2  C   UNL d   1      28.761 -14.285   0.682  0.00  0.00     0.257 C 
ATOM      3  O   UNL d   1      28.722 -13.113   0.298  0.00  0.00    -0.267 OA
ATOM      4  H   UNL d   1      29.669 -15.825   1.723  0.00  0.00     0.171 HD
ENDROOT
BRANCH   2   5
ATOM      5  C   UNL d   1      27.622 -15.115   0.206  0.00  0.00     0.033 A 
ATOM      6  C   UNL d   1      27.538 -16.461   0.599  0.00  0.00     0.020 A 
ATOM      7  C   UNL d   1      26.625 -17.332  -0.016  0.00  0.00     0.039 A 
ATOM      8  C   UNL d   1      25.735 -16.875  -1.002  0.00  0.00     0.086 A 
ATOM      9  C   UNL d   1      25.857 -15.528  -1.420  0.00  0.00     0.045 A 
ATOM     10 BR   UNL d   1      24.936 -14.648  -2.848  0.00  0.00    -0.048 Br
ATOM     11  C   UNL d   1      26.791 -14.665  -0.810  0.00  0.00     0.039 A 
BRANCH   8  12
ATOM     12  O   UNL d   1      24.854 -17.862  -1.394  0.00  0.00    -0.349 OA
BRANCH  12  13
ATOM     13  C   UNL d   1      23.481 -17.608  -1.139  0.00  0.00     0.180 C 
BRANCH  13  14
ATOM     14  C   UNL d   1      22.988 -18.049   0.240  0.00  0.00     0.065 C 
BRANCH  14  15
ATOM     15  C   UNL d   1      21.673 -18.795   0.088  0.00  0.00    -0.056 A 
ATOM     16  C   UNL d   1      21.038 -18.901  -1.163  0.00  0.00     0.007 A 
ATOM     17  C   UNL d   1      19.740 -19.397  -1.269  0.00  0.00     0.001 A 
ATOM     18  C   UNL d   1      19.105 -19.911  -0.144  0.00  0.00     0.000 A 
ATOM     19  C   UNL d   1      19.751 -19.888   1.090  0.00  0.00     0.001 A 
ATOM     20  C   UNL d   1      21.025 -19.324   1.210  0.00  0.00     0.007 A 
ENDBRANCH  14  15
ENDBRANCH  13  14
ENDBRANCH  12  13
ENDBRANCH   8  12
ENDBRANCH   2   5
BRANCH   1  21
ATOM     21  C   UNL d   1      30.870 -14.159   2.048  0.00  0.00     0.193 C 
ATOM     22  S   UNL d   1      32.320 -14.890   2.509  0.00  0.00    -0.039 SA
BRANCH  21  23
ATOM     23  N   UNL d   1      30.713 -12.763   2.172  0.00  0.00    -0.273 N 
ATOM     24  H   UNL d   1      29.991 -12.224   1.709  0.00  0.00     0.189 HD
BRANCH  23  25
ATOM     25  N   UNL d   1      31.619 -12.068   3.033  0.00  0.00    -0.268 N 
ATOM     26  C   UNL d   1      31.362 -11.395   4.205  0.00  0.00     0.240 C 
ATOM     27  O   UNL d   1      32.296 -10.852   4.797  0.00  0.00    -0.272 OA
ATOM     28  H   UNL d   1      32.598 -12.063   2.736  0.00  0.00     0.190 HD
BRANCH  26  29
ATOM     29  C   UNL d   1      29.937 -11.368   4.701  0.00  0.00     0.143 C 
BRANCH  29  30
ATOM     30  C   UNL d   1      29.254 -12.716   4.774  0.00  0.00    -0.049 A 
ATOM     31  C   UNL d   1      27.923 -12.875   4.358  0.00  0.00     0.007 A 
ATOM     32  C   UNL d   1      27.257 -14.085   4.567  0.00  0.00     0.001 A 
ATOM     33  C   UNL d   1      27.938 -15.170   5.115  0.00  0.00     0.000 A 
ATOM     34  C   UNL d   1      29.277 -15.040   5.478  0.00  0.00     0.001 A 
ATOM     35  C   UNL d   1      29.930 -13.818   5.314  0.00  0.00     0.007 A 
ENDBRANCH  29  30
ENDBRANCH  26  29
ENDBRANCH  23  25
ENDBRANCH  21  23
ENDBRANCH   1  21
TORSDOF 10
ENDMDL
