MODEL 1
REMARK VINA RESULT:    -8.260      0.000      0.000
REMARK INTER + INTRA:         -14.005
REMARK INTER:                 -11.542
REMARK INTRA:                  -2.463
REMARK CONF_INDEPENDENT:        3.281
REMARK UNBOUND:                -2.463
REMARK  11 active torsions:
REMARK  status: ('A' for Active; 'I' for Inactive)
REMARK    1  A    between atoms: C_2  and  C_3 
REMARK    2  A    between atoms: C_4  and  C_3 
REMARK    3  A    between atoms: C_4  and  N_13 
REMARK    4  A    between atoms: C_4  and  C_5 
REMARK       I    between atoms: C_5  and  N_7 
REMARK    5  A    between atoms: N_7  and  C_8 
REMARK    6  A    between atoms: C_8  and  C_9 
REMARK    7  A    between atoms: C_9  and  C_10 
REMARK       I    between atoms: N_13  and  C_14 
REMARK    8  A    between atoms: N_13  and  C_25 
REMARK    9  A    between atoms: C_14  and  C_16 
REMARK   10  A    between atoms: C_19  and  C_20 
REMARK       I    between atoms: C_20  and  N_21 
REMARK   11  A    between atoms: C_23  and  N_24 
ROOT
ATOM      1  N   UNL d   1      26.000 -15.717  -1.592  0.00  0.00    -0.299 N 
ATOM      2  C   UNL d   1      25.894 -15.025  -2.893  0.00  0.00     0.269 C 
ATOM      3  O   UNL d   1      24.795 -14.906  -3.418  0.00  0.00    -0.266 OA
ENDROOT
BRANCH   1   4
ATOM      4  C   UNL d   1      27.228 -15.718  -0.687  0.00  0.00     0.185 C 
BRANCH   4   5
ATOM      5  C   UNL d   1      27.127 -14.831   0.545  0.00  0.00     0.241 C 
ATOM      6  O   UNL d   1      26.081 -14.216   0.766  0.00  0.00    -0.271 OA
ATOM      7  N   UNL d   1      28.101 -14.919   1.526  0.00  0.00    -0.359 N 
ATOM      8  H   UNL d   1      28.675 -15.748   1.612  0.00  0.00     0.162 HD
BRANCH   7   9
ATOM      9  C   UNL d   1      27.847 -14.111   2.687  0.00  0.00     0.123 C 
BRANCH   9  10
ATOM     10  C   UNL d   1      28.129 -14.717   4.031  0.00  0.00     0.023 C 
BRANCH  10  11
ATOM     11  C   UNL d   1      28.774 -13.692   4.988  0.00  0.00    -0.021 C 
ATOM     12  C   UNL d   1      27.772 -12.669   5.531  0.00  0.00     0.009 C 
ATOM     13  C   UNL d   1      29.432 -14.447   6.133  0.00  0.00     0.009 C 
ENDBRANCH  10  11
ENDBRANCH   9  10
ENDBRANCH   7   9
ENDBRANCH   4   5
BRANCH   4  14
ATOM     14  C   UNL d   1      27.541 -17.088  -0.003  0.00  0.00     0.035 C 
BRANCH  14  15
ATOM     15  C   UNL d   1      28.801 -17.784  -0.520  0.00  0.00    -0.002 C 
ATOM     16  C   UNL d   1      29.629 -17.076  -1.520  0.00  0.00     0.005 C 
ENDBRANCH  14  15
ENDBRANCH   4  14
ENDBRANCH   1   4
BRANCH   1  17
ATOM     17  C   UNL d   1      24.851 -16.547  -1.143  0.00  0.00     0.038 A 
ATOM     18  C   UNL d   1      24.927 -17.937  -0.914  0.00  0.00     0.030 A 
ATOM     19  C   UNL d   1      23.848 -18.719  -0.478  0.00  0.00     0.009 A 
ATOM     20  C   UNL d   1      22.606 -18.146  -0.278  0.00  0.00    -0.062 A 
ATOM     21  C   UNL d   1      21.455 -18.993   0.173  0.00  0.00     0.048 C 
ATOM     22  C   UNL d   1      22.478 -16.775  -0.517  0.00  0.00     0.009 A 
ATOM     23  C   UNL d   1      23.581 -15.990  -0.931  0.00  0.00     0.030 A 
ENDBRANCH   1  17
BRANCH   2  24
ATOM     24  C   UNL d   1      27.074 -14.430  -3.575  0.00  0.00     0.115 C 
ATOM     25  S   UNL d   1      28.262 -13.570  -2.646  0.00  0.00     0.019 SA
ATOM     26  N   UNL d   1      29.464 -13.534  -3.821  0.00  0.00    -0.203 NA
ATOM     27  C   UNL d   1      28.954 -14.004  -4.972  0.00  0.00     0.155 C 
ATOM     28  C   UNL d   1      27.572 -14.503  -4.867  0.00  0.00     0.065 C 
BRANCH  27  29
ATOM     29  C   UNL d   1      29.799 -14.152  -6.193  0.00  0.00     0.270 C 
ATOM     30  N   UNL d   1      29.334 -14.855  -7.270  0.00  0.00    -0.365 N 
ATOM     31  H   UNL d   1      28.405 -15.260  -7.295  0.00  0.00     0.159 HD
ATOM     32  H   UNL d   1      29.864 -14.779  -8.130  0.00  0.00     0.159 HD
ATOM     33  O   UNL d   1      30.872 -13.533  -6.346  0.00  0.00    -0.266 OA
ENDBRANCH  27  29
BRANCH  28  34
ATOM     34  N   UNL d   1      26.955 -15.208  -5.862  0.00  0.00    -0.299 NA
ATOM     35  H   UNL d   1      25.969 -15.436  -5.677  0.00  0.00     0.124 HD
ATOM     36  H   UNL d   1      27.064 -14.910  -6.825  0.00  0.00     0.124 HD
ENDBRANCH  28  34
ENDBRANCH   2  24
TORSDOF 11
ENDMDL
MODEL 2
REMARK VINA RESULT:    -8.042      1.190      1.695
REMARK INTER + INTRA:         -14.025
REMARK INTER:                 -11.324
REMARK INTRA:                  -2.701
REMARK CONF_INDEPENDENT:        3.281
REMARK UNBOUND:                -2.701
REMARK  11 active torsions:
REMARK  status: ('A' for Active; 'I' for Inactive)
REMARK    1  A    between atoms: C_2  and  C_3 
REMARK    2  A    between atoms: C_4  and  C_3 
REMARK    3  A    between atoms: C_4  and  N_13 
REMARK    4  A    between atoms: C_4  and  C_5 
REMARK       I    between atoms: C_5  and  N_7 
REMARK    5  A    between atoms: N_7  and  C_8 
REMARK    6  A    between atoms: C_8  and  C_9 
REMARK    7  A    between atoms: C_9  and  C_10 
REMARK       I    between atoms: N_13  and  C_14 
REMARK    8  A    between atoms: N_13  and  C_25 
REMARK    9  A    between atoms: C_14  and  C_16 
REMARK   10  A    between atoms: C_19  and  C_20 
REMARK       I    between atoms: C_20  and  N_21 
REMARK   11  A    between atoms: C_23  and  N_24 
ROOT
ATOM      1  N   UNL d   1      25.477 -15.362  -2.128  0.00  0.00    -0.299 N 
ATOM      2  C   UNL d   1      25.104 -14.504  -3.271  0.00  0.00     0.269 C 
ATOM      3  O   UNL d   1      23.922 -14.380  -3.563  0.00  0.00    -0.266 OA
ENDROOT
BRANCH   1   4
ATOM      4  C   UNL d   1      26.853 -15.414  -1.472  0.00  0.00     0.185 C 
BRANCH   4   5
ATOM      5  C   UNL d   1      26.964 -14.691  -0.138  0.00  0.00     0.241 C 
ATOM      6  O   UNL d   1      25.945 -14.475   0.523  0.00  0.00    -0.271 OA
ATOM      7  N   UNL d   1      28.212 -14.511   0.435  0.00  0.00    -0.359 N 
ATOM      8  H   UNL d   1      28.990 -15.103   0.176  0.00  0.00     0.162 HD
BRANCH   7   9
ATOM      9  C   UNL d   1      28.184 -13.908   1.739  0.00  0.00     0.123 C 
BRANCH   9  10
ATOM     10  C   UNL d   1      28.093 -14.823   2.925  0.00  0.00     0.023 C 
BRANCH  10  11
ATOM     11  C   UNL d   1      27.582 -14.075   4.176  0.00  0.00    -0.021 C 
ATOM     12  C   UNL d   1      28.186 -14.609   5.478  0.00  0.00     0.009 C 
ATOM     13  C   UNL d   1      27.894 -12.596   4.015  0.00  0.00     0.009 C 
ENDBRANCH  10  11
ENDBRANCH   9  10
ENDBRANCH   7   9
ENDBRANCH   4   5
BRANCH   4  14
ATOM     14  C   UNL d   1      27.323 -16.841  -1.040  0.00  0.00     0.035 C 
BRANCH  14  15
ATOM     15  C   UNL d   1      27.029 -17.194   0.419  0.00  0.00    -0.002 C 
ATOM     16  C   UNL d   1      25.991 -18.210   0.695  0.00  0.00     0.005 C 
ENDBRANCH  14  15
ENDBRANCH   4  14
ENDBRANCH   1   4
BRANCH   1  17
ATOM     17  C   UNL d   1      24.462 -16.315  -1.605  0.00  0.00     0.038 A 
ATOM     18  C   UNL d   1      23.496 -15.980  -0.632  0.00  0.00     0.030 A 
ATOM     19  C   UNL d   1      22.531 -16.873  -0.146  0.00  0.00     0.009 A 
ATOM     20  C   UNL d   1      22.504 -18.182  -0.592  0.00  0.00    -0.062 A 
ATOM     21  C   UNL d   1      21.478 -19.134  -0.056  0.00  0.00     0.048 C 
ATOM     22  C   UNL d   1      23.459 -18.566  -1.538  0.00  0.00     0.009 A 
ATOM     23  C   UNL d   1      24.412 -17.647  -2.042  0.00  0.00     0.030 A 
ENDBRANCH   1  17
BRANCH   2  24
ATOM     24  C   UNL d   1      26.112 -13.749  -4.060  0.00  0.00     0.115 C 
ATOM     25  S   UNL d   1      26.618 -12.175  -3.529  0.00  0.00     0.019 SA
ATOM     26  N   UNL d   1      27.979 -12.049  -4.508  0.00  0.00    -0.203 NA
ATOM     27  C   UNL d   1      27.991 -13.086  -5.364  0.00  0.00     0.155 C 
ATOM     28  C   UNL d   1      26.913 -14.067  -5.146  0.00  0.00     0.065 C 
BRANCH  27  29
ATOM     29  C   UNL d   1      29.112 -13.286  -6.327  0.00  0.00     0.270 C 
ATOM     30  N   UNL d   1      29.026 -14.250  -7.292  0.00  0.00    -0.365 N 
ATOM     31  H   UNL d   1      28.201 -14.826  -7.413  0.00  0.00     0.159 HD
ATOM     32  H   UNL d   1      29.727 -14.230  -8.025  0.00  0.00     0.159 HD
ATOM     33  O   UNL d   1      30.086 -12.506  -6.395  0.00  0.00    -0.266 OA
ENDBRANCH  27  29
BRANCH  28  34
ATOM     34  N   UNL d   1      26.876 -15.285  -5.764  0.00  0.00    -0.299 NA
ATOM     35  H   UNL d   1      27.527 -15.982  -5.379  0.00  0.00     0.124 HD
ATOM     36  H   UNL d   1      25.980 -15.720  -5.954  0.00  0.00     0.124 HD
ENDBRANCH  28  34
ENDBRANCH   2  24
TORSDOF 11
ENDMDL
MODEL 3
REMARK VINA RESULT:    -7.635      2.039      2.420
REMARK INTER + INTRA:         -14.358
REMARK INTER:                 -10.917
REMARK INTRA:                  -3.442
REMARK CONF_INDEPENDENT:        3.281
REMARK UNBOUND:                -3.442
REMARK  11 active torsions:
REMARK  status: ('A' for Active; 'I' for Inactive)
REMARK    1  A    between atoms: C_2  and  C_3 
REMARK    2  A    between atoms: C_4  and  C_3 
REMARK    3  A    between atoms: C_4  and  N_13 
REMARK    4  A    between atoms: C_4  and  C_5 
REMARK       I    between atoms: C_5  and  N_7 
REMARK    5  A    between atoms: N_7  and  C_8 
REMARK    6  A    between atoms: C_8  and  C_9 
REMARK    7  A    between atoms: C_9  and  C_10 
REMARK       I    between atoms: N_13  and  C_14 
REMARK    8  A    between atoms: N_13  and  C_25 
REMARK    9  A    between atoms: C_14  and  C_16 
REMARK   10  A    between atoms: C_19  and  C_20 
REMARK       I    between atoms: C_20  and  N_21 
REMARK   11  A    between atoms: C_23  and  N_24 
ROOT
ATOM      1  N   UNL d   1      25.560 -15.631  -2.298  0.00  0.00    -0.299 N 
ATOM      2  C   UNL d   1      25.163 -14.647  -3.326  0.00  0.00     0.269 C 
ATOM      3  O   UNL d   1      23.983 -14.342  -3.435  0.00  0.00    -0.266 OA
ENDROOT
BRANCH   1   4
ATOM      4  C   UNL d   1      26.990 -15.919  -1.853  0.00  0.00     0.185 C 
BRANCH   4   5
ATOM      5  C   UNL d   1      27.546 -14.973  -0.800  0.00  0.00     0.241 C 
ATOM      6  O   UNL d   1      28.758 -14.744  -0.768  0.00  0.00    -0.271 OA
ATOM      7  N   UNL d   1      26.674 -14.191  -0.061  0.00  0.00    -0.359 N 
ATOM      8  H   UNL d   1      25.744 -13.988  -0.403  0.00  0.00     0.162 HD
BRANCH   7   9
ATOM      9  C   UNL d   1      27.318 -13.264   0.830  0.00  0.00     0.123 C 
BRANCH   9  10
ATOM     10  C   UNL d   1      26.897 -13.279   2.270  0.00  0.00     0.023 C 
BRANCH  10  11
ATOM     11  C   UNL d   1      27.780 -14.232   3.106  0.00  0.00    -0.021 C 
ATOM     12  C   UNL d   1      29.278 -13.986   2.907  0.00  0.00     0.009 C 
ATOM     13  C   UNL d   1      27.407 -14.075   4.572  0.00  0.00     0.009 C 
ENDBRANCH  10  11
ENDBRANCH   9  10
ENDBRANCH   7   9
ENDBRANCH   4   5
BRANCH   4  14
ATOM     14  C   UNL d   1      27.189 -17.283  -1.116  0.00  0.00     0.035 C 
BRANCH  14  15
ATOM     15  C   UNL d   1      26.864 -17.253   0.378  0.00  0.00    -0.002 C 
ATOM     16  C   UNL d   1      26.473 -18.519   1.034  0.00  0.00     0.005 C 
ENDBRANCH  14  15
ENDBRANCH   4  14
ENDBRANCH   1   4
BRANCH   1  17
ATOM     17  C   UNL d   1      24.498 -16.473  -1.685  0.00  0.00     0.038 A 
ATOM     18  C   UNL d   1      24.275 -17.825  -2.020  0.00  0.00     0.030 A 
ATOM     19  C   UNL d   1      23.284 -18.625  -1.435  0.00  0.00     0.009 A 
ATOM     20  C   UNL d   1      22.425 -18.092  -0.491  0.00  0.00    -0.062 A 
ATOM     21  C   UNL d   1      21.359 -18.950   0.119  0.00  0.00     0.048 C 
ATOM     22  C   UNL d   1      22.593 -16.748  -0.145  0.00  0.00     0.009 A 
ATOM     23  C   UNL d   1      23.616 -15.958  -0.723  0.00  0.00     0.030 A 
ENDBRANCH   1  17
BRANCH   2  24
ATOM     24  C   UNL d   1      26.154 -13.980  -4.212  0.00  0.00     0.115 C 
ATOM     25  S   UNL d   1      27.391 -14.924  -4.982  0.00  0.00     0.019 SA
ATOM     26  N   UNL d   1      27.871 -13.766  -6.103  0.00  0.00    -0.203 NA
ATOM     27  C   UNL d   1      27.248 -12.610  -5.821  0.00  0.00     0.155 C 
ATOM     28  C   UNL d   1      26.273 -12.696  -4.720  0.00  0.00     0.065 C 
BRANCH  27  29
ATOM     29  C   UNL d   1      27.425 -11.402  -6.679  0.00  0.00     0.270 C 
ATOM     30  N   UNL d   1      28.365 -11.396  -7.672  0.00  0.00    -0.365 N 
ATOM     31  H   UNL d   1      28.937 -12.204  -7.884  0.00  0.00     0.159 HD
ATOM     32  H   UNL d   1      28.326 -10.629  -8.335  0.00  0.00     0.159 HD
ATOM     33  O   UNL d   1      26.645 -10.428  -6.636  0.00  0.00    -0.266 OA
ENDBRANCH  27  29
BRANCH  28  34
ATOM     34  N   UNL d   1      25.391 -11.696  -4.423  0.00  0.00    -0.299 NA
ATOM     35  H   UNL d   1      25.155 -11.083  -5.215  0.00  0.00     0.124 HD
ATOM     36  H   UNL d   1      24.554 -11.910  -3.893  0.00  0.00     0.124 HD
ENDBRANCH  28  34
ENDBRANCH   2  24
TORSDOF 11
ENDMDL
MODEL 4
REMARK VINA RESULT:    -7.169      2.424      4.854
REMARK INTER + INTRA:         -14.287
REMARK INTER:                 -10.451
REMARK INTRA:                  -3.836
REMARK CONF_INDEPENDENT:        3.281
REMARK UNBOUND:                -3.836
REMARK  11 active torsions:
REMARK  status: ('A' for Active; 'I' for Inactive)
REMARK    1  A    between atoms: C_2  and  C_3 
REMARK    2  A    between atoms: C_4  and  C_3 
REMARK    3  A    between atoms: C_4  and  N_13 
REMARK    4  A    between atoms: C_4  and  C_5 
REMARK       I    between atoms: C_5  and  N_7 
REMARK    5  A    between atoms: N_7  and  C_8 
REMARK    6  A    between atoms: C_8  and  C_9 
REMARK    7  A    between atoms: C_9  and  C_10 
REMARK       I    between atoms: N_13  and  C_14 
REMARK    8  A    between atoms: N_13  and  C_25 
REMARK    9  A    between atoms: C_14  and  C_16 
REMARK   10  A    between atoms: C_19  and  C_20 
REMARK       I    between atoms: C_20  and  N_21 
REMARK   11  A    between atoms: C_23  and  N_24 
ROOT
ATOM      1  N   UNL d   1      25.569 -15.250  -2.157  0.00  0.00    -0.299 N 
ATOM      2  C   UNL d   1      25.091 -14.415  -3.278  0.00  0.00     0.269 C 
ATOM      3  O   UNL d   1      23.889 -14.335  -3.492  0.00  0.00    -0.266 OA
ENDROOT
BRANCH   1   4
ATOM      4  C   UNL d   1      26.986 -15.247  -1.593  0.00  0.00     0.185 C 
BRANCH   4   5
ATOM      5  C   UNL d   1      28.066 -15.738  -2.546  0.00  0.00     0.241 C 
ATOM      6  O   UNL d   1      27.781 -15.953  -3.727  0.00  0.00    -0.271 OA
ATOM      7  N   UNL d   1      29.392 -15.696  -2.149  0.00  0.00    -0.359 N 
ATOM      8  H   UNL d   1      29.692 -15.073  -1.411  0.00  0.00     0.162 HD
BRANCH   7   9
ATOM      9  C   UNL d   1      30.328 -16.088  -3.168  0.00  0.00     0.123 C 
BRANCH   9  10
ATOM     10  C   UNL d   1      30.379 -17.540  -3.542  0.00  0.00     0.023 C 
BRANCH  10  11
ATOM     11  C   UNL d   1      30.752 -17.726  -5.029  0.00  0.00    -0.021 C 
ATOM     12  C   UNL d   1      30.408 -19.121  -5.561  0.00  0.00     0.009 C 
ATOM     13  C   UNL d   1      30.037 -16.659  -5.843  0.00  0.00     0.009 C 
ENDBRANCH  10  11
ENDBRANCH   9  10
ENDBRANCH   7   9
ENDBRANCH   4   5
BRANCH   4  14
ATOM     14  C   UNL d   1      27.557 -13.833  -1.251  0.00  0.00     0.035 C 
BRANCH  14  15
ATOM     15  C   UNL d   1      26.692 -13.012  -0.293  0.00  0.00    -0.002 C 
ATOM     16  C   UNL d   1      26.671 -13.397   1.134  0.00  0.00     0.005 C 
ENDBRANCH  14  15
ENDBRANCH   4  14
ENDBRANCH   1   4
BRANCH   1  17
ATOM     17  C   UNL d   1      24.626 -16.233  -1.562  0.00  0.00     0.038 A 
ATOM     18  C   UNL d   1      23.275 -15.950  -1.270  0.00  0.00     0.030 A 
ATOM     19  C   UNL d   1      22.380 -16.879  -0.721  0.00  0.00     0.009 A 
ATOM     20  C   UNL d   1      22.809 -18.153  -0.397  0.00  0.00    -0.062 A 
ATOM     21  C   UNL d   1      21.849 -19.135   0.204  0.00  0.00     0.048 C 
ATOM     22  C   UNL d   1      24.147 -18.471  -0.645  0.00  0.00     0.009 A 
ATOM     23  C   UNL d   1      25.034 -17.532  -1.226  0.00  0.00     0.030 A 
ENDBRANCH   1  17
BRANCH   2  24
ATOM     24  C   UNL d   1      26.019 -13.632  -4.137  0.00  0.00     0.115 C 
ATOM     25  S   UNL d   1      26.409 -11.994  -3.711  0.00  0.00     0.019 SA
ATOM     26  N   UNL d   1      27.733 -11.821  -4.734  0.00  0.00    -0.203 NA
ATOM     27  C   UNL d   1      27.808 -12.903  -5.528  0.00  0.00     0.155 C 
ATOM     28  C   UNL d   1      26.817 -13.951  -5.224  0.00  0.00     0.065 C 
BRANCH  27  29
ATOM     29  C   UNL d   1      28.919 -13.072  -6.508  0.00  0.00     0.270 C 
ATOM     30  N   UNL d   1      28.896 -14.106  -7.403  0.00  0.00    -0.365 N 
ATOM     31  H   UNL d   1      28.124 -14.759  -7.459  0.00  0.00     0.159 HD
ATOM     32  H   UNL d   1      29.575 -14.076  -8.155  0.00  0.00     0.159 HD
ATOM     33  O   UNL d   1      29.817 -12.217  -6.659  0.00  0.00    -0.266 OA
ENDBRANCH  27  29
BRANCH  28  34
ATOM     34  N   UNL d   1      26.863 -15.202  -5.770  0.00  0.00    -0.299 NA
ATOM     35  H   UNL d   1      27.812 -15.571  -5.919  0.00  0.00     0.124 HD
ATOM     36  H   UNL d   1      26.266 -15.932  -5.395  0.00  0.00     0.124 HD
ENDBRANCH  28  34
ENDBRANCH   2  24
TORSDOF 11
ENDMDL
MODEL 5
REMARK VINA RESULT:    -6.891      2.740      5.947
REMARK INTER + INTRA:         -13.841
REMARK INTER:                 -10.172
REMARK INTRA:                  -3.669
REMARK CONF_INDEPENDENT:        3.281
REMARK UNBOUND:                -3.669
REMARK  11 active torsions:
REMARK  status: ('A' for Active; 'I' for Inactive)
REMARK    1  A    between atoms: C_2  and  C_3 
REMARK    2  A    between atoms: C_4  and  C_3 
REMARK    3  A    between atoms: C_4  and  N_13 
REMARK    4  A    between atoms: C_4  and  C_5 
REMARK       I    between atoms: C_5  and  N_7 
REMARK    5  A    between atoms: N_7  and  C_8 
REMARK    6  A    between atoms: C_8  and  C_9 
REMARK    7  A    between atoms: C_9  and  C_10 
REMARK       I    between atoms: N_13  and  C_14 
REMARK    8  A    between atoms: N_13  and  C_25 
REMARK    9  A    between atoms: C_14  and  C_16 
REMARK   10  A    between atoms: C_19  and  C_20 
REMARK       I    between atoms: C_20  and  N_21 
REMARK   11  A    between atoms: C_23  and  N_24 
ROOT
ATOM      1  N   UNL d   1      25.966 -16.059  -0.425  0.00  0.00    -0.299 N 
ATOM      2  C   UNL d   1      26.956 -16.434   0.605  0.00  0.00     0.269 C 
ATOM      3  O   UNL d   1      26.889 -17.541   1.121  0.00  0.00    -0.266 OA
ENDROOT
BRANCH   1   4
ATOM      4  C   UNL d   1      26.061 -14.847  -1.346  0.00  0.00     0.185 C 
BRANCH   4   5
ATOM      5  C   UNL d   1      27.412 -14.646  -2.016  0.00  0.00     0.241 C 
ATOM      6  O   UNL d   1      27.720 -13.527  -2.437  0.00  0.00    -0.271 OA
ATOM      7  N   UNL d   1      28.372 -15.639  -1.923  0.00  0.00    -0.359 N 
ATOM      8  H   UNL d   1      28.335 -16.326  -1.181  0.00  0.00     0.162 HD
BRANCH   7   9
ATOM      9  C   UNL d   1      29.640 -15.295  -2.506  0.00  0.00     0.123 C 
BRANCH   9  10
ATOM     10  C   UNL d   1      30.349 -16.354  -3.299  0.00  0.00     0.023 C 
BRANCH  10  11
ATOM     11  C   UNL d   1      29.635 -16.626  -4.641  0.00  0.00    -0.021 C 
ATOM     12  C   UNL d   1      29.494 -15.371  -5.508  0.00  0.00     0.009 C 
ATOM     13  C   UNL d   1      30.406 -17.702  -5.389  0.00  0.00     0.009 C 
ENDBRANCH  10  11
ENDBRANCH   9  10
ENDBRANCH   7   9
ENDBRANCH   4   5
BRANCH   4  14
ATOM     14  C   UNL d   1      25.143 -14.906  -2.610  0.00  0.00     0.035 C 
BRANCH  14  15
ATOM     15  C   UNL d   1      25.781 -15.575  -3.829  0.00  0.00    -0.002 C 
ATOM     16  C   UNL d   1      26.050 -14.742  -5.021  0.00  0.00     0.005 C 
ENDBRANCH  14  15
ENDBRANCH   4  14
ENDBRANCH   1   4
BRANCH   1  17
ATOM     17  C   UNL d   1      24.729 -16.878  -0.541  0.00  0.00     0.038 A 
ATOM     18  C   UNL d   1      24.726 -18.280  -0.699  0.00  0.00     0.030 A 
ATOM     19  C   UNL d   1      23.562 -19.055  -0.796  0.00  0.00     0.009 A 
ATOM     20  C   UNL d   1      22.318 -18.451  -0.775  0.00  0.00    -0.062 A 
ATOM     21  C   UNL d   1      21.080 -19.286  -0.894  0.00  0.00     0.048 C 
ATOM     22  C   UNL d   1      22.273 -17.060  -0.645  0.00  0.00     0.009 A 
ATOM     23  C   UNL d   1      23.455 -16.291  -0.520  0.00  0.00     0.030 A 
ENDBRANCH   1  17
BRANCH   2  24
ATOM     24  C   UNL d   1      28.061 -15.526   1.013  0.00  0.00     0.115 C 
ATOM     25  S   UNL d   1      27.719 -14.153   2.018  0.00  0.00     0.019 SA
ATOM     26  N   UNL d   1      29.306 -13.813   2.457  0.00  0.00    -0.203 NA
ATOM     27  C   UNL d   1      30.128 -14.597   1.739  0.00  0.00     0.155 C 
ATOM     28  C   UNL d   1      29.440 -15.575   0.880  0.00  0.00     0.065 C 
BRANCH  27  29
ATOM     29  C   UNL d   1      31.606 -14.571   1.947  0.00  0.00     0.270 C 
ATOM     30  N   UNL d   1      32.122 -14.258   3.174  0.00  0.00    -0.365 N 
ATOM     31  H   UNL d   1      31.536 -14.075   3.980  0.00  0.00     0.159 HD
ATOM     32  H   UNL d   1      33.113 -14.425   3.310  0.00  0.00     0.159 HD
ATOM     33  O   UNL d   1      32.412 -14.971   1.082  0.00  0.00    -0.266 OA
ENDBRANCH  27  29
BRANCH  28  34
ATOM     34  N   UNL d   1      30.088 -16.594   0.240  0.00  0.00    -0.299 NA
ATOM     35  H   UNL d   1      31.098 -16.448   0.115  0.00  0.00     0.124 HD
ATOM     36  H   UNL d   1      29.911 -17.552   0.521  0.00  0.00     0.124 HD
ENDBRANCH  28  34
ENDBRANCH   2  24
TORSDOF 11
ENDMDL
MODEL 6
REMARK VINA RESULT:    -6.681      2.957      4.490
REMARK INTER + INTRA:         -13.418
REMARK INTER:                  -9.962
REMARK INTRA:                  -3.457
REMARK CONF_INDEPENDENT:        3.281
REMARK UNBOUND:                -3.457
REMARK  11 active torsions:
REMARK  status: ('A' for Active; 'I' for Inactive)
REMARK    1  A    between atoms: C_2  and  C_3 
REMARK    2  A    between atoms: C_4  and  C_3 
REMARK    3  A    between atoms: C_4  and  N_13 
REMARK    4  A    between atoms: C_4  and  C_5 
REMARK       I    between atoms: C_5  and  N_7 
REMARK    5  A    between atoms: N_7  and  C_8 
REMARK    6  A    between atoms: C_8  and  C_9 
REMARK    7  A    between atoms: C_9  and  C_10 
REMARK       I    between atoms: N_13  and  C_14 
REMARK    8  A    between atoms: N_13  and  C_25 
REMARK    9  A    between atoms: C_14  and  C_16 
REMARK   10  A    between atoms: C_19  and  C_20 
REMARK       I    between atoms: C_20  and  N_21 
REMARK   11  A    between atoms: C_23  and  N_24 
ROOT
ATOM      1  N   UNL d   1      25.587 -16.851  -1.088  0.00  0.00    -0.299 N 
ATOM      2  C   UNL d   1      26.721 -17.570  -0.474  0.00  0.00     0.269 C 
ATOM      3  O   UNL d   1      26.569 -18.731  -0.118  0.00  0.00    -0.266 OA
ENDROOT
BRANCH   1   4
ATOM      4  C   UNL d   1      25.677 -15.515  -1.819  0.00  0.00     0.185 C 
BRANCH   4   5
ATOM      5  C   UNL d   1      26.392 -14.407  -1.062  0.00  0.00     0.241 C 
ATOM      6  O   UNL d   1      26.156 -14.241   0.138  0.00  0.00    -0.271 OA
ATOM      7  N   UNL d   1      27.471 -13.769  -1.651  0.00  0.00    -0.359 N 
ATOM      8  H   UNL d   1      27.990 -14.213  -2.397  0.00  0.00     0.162 HD
BRANCH   7   9
ATOM      9  C   UNL d   1      28.129 -12.812  -0.803  0.00  0.00     0.123 C 
BRANCH   9  10
ATOM     10  C   UNL d   1      27.370 -11.570  -0.439  0.00  0.00     0.023 C 
BRANCH  10  11
ATOM     11  C   UNL d   1      27.525 -11.233   1.061  0.00  0.00    -0.021 C 
ATOM     12  C   UNL d   1      26.679 -12.134   1.965  0.00  0.00     0.009 C 
ATOM     13  C   UNL d   1      28.996 -11.344   1.430  0.00  0.00     0.009 C 
ENDBRANCH  10  11
ENDBRANCH   9  10
ENDBRANCH   7   9
ENDBRANCH   4   5
BRANCH   4  14
ATOM     14  C   UNL d   1      26.532 -15.538  -3.128  0.00  0.00     0.035 C 
BRANCH  14  15
ATOM     15  C   UNL d   1      25.909 -14.791  -4.309  0.00  0.00    -0.002 C 
ATOM     16  C   UNL d   1      24.753 -13.908  -4.044  0.00  0.00     0.005 C 
ENDBRANCH  14  15
ENDBRANCH   4  14
ENDBRANCH   1   4
BRANCH   1  17
ATOM     17  C   UNL d   1      24.223 -17.422  -0.928  0.00  0.00     0.038 A 
ATOM     18  C   UNL d   1      23.967 -18.788  -0.683  0.00  0.00     0.030 A 
ATOM     19  C   UNL d   1      22.683 -19.327  -0.520  0.00  0.00     0.009 A 
ATOM     20  C   UNL d   1      21.567 -18.518  -0.629  0.00  0.00    -0.062 A 
ATOM     21  C   UNL d   1      20.198 -19.106  -0.467  0.00  0.00     0.048 C 
ATOM     22  C   UNL d   1      21.772 -17.161  -0.895  0.00  0.00     0.009 A 
ATOM     23  C   UNL d   1      23.075 -16.623  -1.031  0.00  0.00     0.030 A 
ENDBRANCH   1  17
BRANCH   2  24
ATOM     24  C   UNL d   1      28.061 -16.947  -0.307  0.00  0.00     0.115 C 
ATOM     25  S   UNL d   1      29.266 -17.154  -1.540  0.00  0.00     0.019 SA
ATOM     26  N   UNL d   1      30.311 -15.945  -1.018  0.00  0.00    -0.203 NA
ATOM     27  C   UNL d   1      29.876 -15.482   0.166  0.00  0.00     0.155 C 
ATOM     28  C   UNL d   1      28.597 -16.059   0.613  0.00  0.00     0.065 C 
BRANCH  27  29
ATOM     29  C   UNL d   1      30.565 -14.355   0.860  0.00  0.00     0.270 C 
ATOM     30  N   UNL d   1      30.768 -14.401   2.212  0.00  0.00    -0.365 N 
ATOM     31  H   UNL d   1      30.500 -15.199   2.775  0.00  0.00     0.159 HD
ATOM     32  H   UNL d   1      31.389 -13.703   2.606  0.00  0.00     0.159 HD
ATOM     33  O   UNL d   1      31.110 -13.418   0.240  0.00  0.00    -0.266 OA
ENDBRANCH  27  29
BRANCH  28  34
ATOM     34  N   UNL d   1      27.888 -15.572   1.674  0.00  0.00    -0.299 NA
ATOM     35  H   UNL d   1      28.378 -15.620   2.577  0.00  0.00     0.124 HD
ATOM     36  H   UNL d   1      27.413 -14.680   1.589  0.00  0.00     0.124 HD
ENDBRANCH  28  34
ENDBRANCH   2  24
TORSDOF 11
ENDMDL
MODEL 7
REMARK VINA RESULT:    -6.668      2.637      3.475
REMARK INTER + INTRA:         -13.911
REMARK INTER:                  -9.949
REMARK INTRA:                  -3.962
REMARK CONF_INDEPENDENT:        3.281
REMARK UNBOUND:                -3.962
REMARK  11 active torsions:
REMARK  status: ('A' for Active; 'I' for Inactive)
REMARK    1  A    between atoms: C_2  and  C_3 
REMARK    2  A    between atoms: C_4  and  C_3 
REMARK    3  A    between atoms: C_4  and  N_13 
REMARK    4  A    between atoms: C_4  and  C_5 
REMARK       I    between atoms: C_5  and  N_7 
REMARK    5  A    between atoms: N_7  and  C_8 
REMARK    6  A    between atoms: C_8  and  C_9 
REMARK    7  A    between atoms: C_9  and  C_10 
REMARK       I    between atoms: N_13  and  C_14 
REMARK    8  A    between atoms: N_13  and  C_25 
REMARK    9  A    between atoms: C_14  and  C_16 
REMARK   10  A    between atoms: C_19  and  C_20 
REMARK       I    between atoms: C_20  and  N_21 
REMARK   11  A    between atoms: C_23  and  N_24 
ROOT
ATOM      1  N   UNL d   1      25.516 -15.610  -2.285  0.00  0.00    -0.299 N 
ATOM      2  C   UNL d   1      25.119 -14.651  -3.336  0.00  0.00     0.269 C 
ATOM      3  O   UNL d   1      23.935 -14.376  -3.476  0.00  0.00    -0.266 OA
ENDROOT
BRANCH   1   4
ATOM      4  C   UNL d   1      26.943 -15.856  -1.805  0.00  0.00     0.185 C 
BRANCH   4   5
ATOM      5  C   UNL d   1      27.454 -14.879  -0.757  0.00  0.00     0.241 C 
ATOM      6  O   UNL d   1      28.638 -14.925  -0.411  0.00  0.00    -0.271 OA
ATOM      7  N   UNL d   1      26.667 -13.799  -0.394  0.00  0.00    -0.359 N 
ATOM      8  H   UNL d   1      25.937 -13.462  -1.007  0.00  0.00     0.162 HD
BRANCH   7   9
ATOM      9  C   UNL d   1      27.295 -12.891   0.526  0.00  0.00     0.123 C 
BRANCH   9  10
ATOM     10  C   UNL d   1      27.721 -11.552  -0.003  0.00  0.00     0.023 C 
BRANCH  10  11
ATOM     11  C   UNL d   1      27.425 -11.423  -1.513  0.00  0.00    -0.021 C 
ATOM     12  C   UNL d   1      27.032 -10.001  -1.924  0.00  0.00     0.009 C 
ATOM     13  C   UNL d   1      28.654 -11.877  -2.286  0.00  0.00     0.009 C 
ENDBRANCH  10  11
ENDBRANCH   9  10
ENDBRANCH   7   9
ENDBRANCH   4   5
BRANCH   4  14
ATOM     14  C   UNL d   1      27.157 -17.203  -1.039  0.00  0.00     0.035 C 
BRANCH  14  15
ATOM     15  C   UNL d   1      26.694 -17.186   0.419  0.00  0.00    -0.002 C 
ATOM     16  C   UNL d   1      26.655 -18.469   1.154  0.00  0.00     0.005 C 
ENDBRANCH  14  15
ENDBRANCH   4  14
ENDBRANCH   1   4
BRANCH   1  17
ATOM     17  C   UNL d   1      24.462 -16.468  -1.682  0.00  0.00     0.038 A 
ATOM     18  C   UNL d   1      24.265 -17.824  -2.018  0.00  0.00     0.030 A 
ATOM     19  C   UNL d   1      23.280 -18.639  -1.443  0.00  0.00     0.009 A 
ATOM     20  C   UNL d   1      22.403 -18.120  -0.509  0.00  0.00    -0.062 A 
ATOM     21  C   UNL d   1      21.344 -18.994   0.090  0.00  0.00     0.048 C 
ATOM     22  C   UNL d   1      22.545 -16.773  -0.163  0.00  0.00     0.009 A 
ATOM     23  C   UNL d   1      23.562 -15.967  -0.731  0.00  0.00     0.030 A 
ENDBRANCH   1  17
BRANCH   2  24
ATOM     24  C   UNL d   1      26.113 -13.974  -4.211  0.00  0.00     0.115 C 
ATOM     25  S   UNL d   1      27.339 -14.911  -5.006  0.00  0.00     0.019 SA
ATOM     26  N   UNL d   1      27.827 -13.733  -6.102  0.00  0.00    -0.203 NA
ATOM     27  C   UNL d   1      27.215 -12.577  -5.792  0.00  0.00     0.155 C 
ATOM     28  C   UNL d   1      26.242 -12.680  -4.690  0.00  0.00     0.065 C 
BRANCH  27  29
ATOM     29  C   UNL d   1      27.400 -11.352  -6.623  0.00  0.00     0.270 C 
ATOM     30  N   UNL d   1      28.319 -11.341  -7.636  0.00  0.00    -0.365 N 
ATOM     31  H   UNL d   1      28.868 -12.155  -7.881  0.00  0.00     0.159 HD
ATOM     32  H   UNL d   1      28.283 -10.557  -8.278  0.00  0.00     0.159 HD
ATOM     33  O   UNL d   1      26.643 -10.363  -6.539  0.00  0.00    -0.266 OA
ENDBRANCH  27  29
BRANCH  28  34
ATOM     34  N   UNL d   1      25.372 -11.678  -4.367  0.00  0.00    -0.299 NA
ATOM     35  H   UNL d   1      25.155 -11.032  -5.138  0.00  0.00     0.124 HD
ATOM     36  H   UNL d   1      24.524 -11.900  -3.857  0.00  0.00     0.124 HD
ENDBRANCH  28  34
ENDBRANCH   2  24
TORSDOF 11
ENDMDL
MODEL 8
REMARK VINA RESULT:    -6.352      2.230      4.194
REMARK INTER + INTRA:         -13.525
REMARK INTER:                  -9.634
REMARK INTRA:                  -3.891
REMARK CONF_INDEPENDENT:        3.281
REMARK UNBOUND:                -3.891
REMARK  11 active torsions:
REMARK  status: ('A' for Active; 'I' for Inactive)
REMARK    1  A    between atoms: C_2  and  C_3 
REMARK    2  A    between atoms: C_4  and  C_3 
REMARK    3  A    between atoms: C_4  and  N_13 
REMARK    4  A    between atoms: C_4  and  C_5 
REMARK       I    between atoms: C_5  and  N_7 
REMARK    5  A    between atoms: N_7  and  C_8 
REMARK    6  A    between atoms: C_8  and  C_9 
REMARK    7  A    between atoms: C_9  and  C_10 
REMARK       I    between atoms: N_13  and  C_14 
REMARK    8  A    between atoms: N_13  and  C_25 
REMARK    9  A    between atoms: C_14  and  C_16 
REMARK   10  A    between atoms: C_19  and  C_20 
REMARK       I    between atoms: C_20  and  N_21 
REMARK   11  A    between atoms: C_23  and  N_24 
ROOT
ATOM      1  N   UNL d   1      25.609 -15.314  -2.080  0.00  0.00    -0.299 N 
ATOM      2  C   UNL d   1      25.175 -14.512  -3.243  0.00  0.00     0.269 C 
ATOM      3  O   UNL d   1      23.983 -14.443  -3.508  0.00  0.00    -0.266 OA
ENDROOT
BRANCH   1   4
ATOM      4  C   UNL d   1      27.001 -15.291  -1.459  0.00  0.00     0.185 C 
BRANCH   4   5
ATOM      5  C   UNL d   1      28.153 -15.454  -2.439  0.00  0.00     0.241 C 
ATOM      6  O   UNL d   1      28.089 -16.325  -3.311  0.00  0.00    -0.271 OA
ATOM      7  N   UNL d   1      29.132 -14.476  -2.506  0.00  0.00    -0.359 N 
ATOM      8  H   UNL d   1      28.948 -13.537  -2.179  0.00  0.00     0.162 HD
BRANCH   7   9
ATOM      9  C   UNL d   1      30.111 -14.688  -3.538  0.00  0.00     0.123 C 
BRANCH   9  10
ATOM     10  C   UNL d   1      31.415 -15.314  -3.138  0.00  0.00     0.023 C 
BRANCH  10  11
ATOM     11  C   UNL d   1      31.378 -16.849  -3.305  0.00  0.00    -0.021 C 
ATOM     12  C   UNL d   1      30.743 -17.563  -2.108  0.00  0.00     0.009 C 
ATOM     13  C   UNL d   1      30.620 -17.178  -4.581  0.00  0.00     0.009 C 
ENDBRANCH  10  11
ENDBRANCH   9  10
ENDBRANCH   7   9
ENDBRANCH   4   5
BRANCH   4  14
ATOM     14  C   UNL d   1      27.406 -13.932  -0.799  0.00  0.00     0.035 C 
BRANCH  14  15
ATOM     15  C   UNL d   1      27.577 -13.989   0.720  0.00  0.00    -0.002 C 
ATOM     16  C   UNL d   1      26.680 -13.162   1.556  0.00  0.00     0.005 C 
ENDBRANCH  14  15
ENDBRANCH   4  14
ENDBRANCH   1   4
BRANCH   1  17
ATOM     17  C   UNL d   1      24.644 -16.284  -1.497  0.00  0.00     0.038 A 
ATOM     18  C   UNL d   1      24.983 -17.603  -1.126  0.00  0.00     0.030 A 
ATOM     19  C   UNL d   1      24.080 -18.516  -0.564  0.00  0.00     0.009 A 
ATOM     20  C   UNL d   1      22.757 -18.161  -0.374  0.00  0.00    -0.062 A 
ATOM     21  C   UNL d   1      21.794 -19.148   0.213  0.00  0.00     0.048 C 
ATOM     22  C   UNL d   1      22.370 -16.871  -0.751  0.00  0.00     0.009 A 
ATOM     23  C   UNL d   1      23.298 -15.949  -1.292  0.00  0.00     0.030 A 
ENDBRANCH   1  17
BRANCH   2  24
ATOM     24  C   UNL d   1      26.135 -13.750  -4.085  0.00  0.00     0.115 C 
ATOM     25  S   UNL d   1      26.599 -12.143  -3.619  0.00  0.00     0.019 SA
ATOM     26  N   UNL d   1      27.927 -12.003  -4.640  0.00  0.00    -0.203 NA
ATOM     27  C   UNL d   1      27.952 -13.066  -5.462  0.00  0.00     0.155 C 
ATOM     28  C   UNL d   1      26.916 -14.076  -5.182  0.00  0.00     0.065 C 
BRANCH  27  29
ATOM     29  C   UNL d   1      29.053 -13.260  -6.450  0.00  0.00     0.270 C 
ATOM     30  N   UNL d   1      29.036 -14.334  -7.297  0.00  0.00    -0.365 N 
ATOM     31  H   UNL d   1      28.276 -15.002  -7.312  0.00  0.00     0.159 HD
ATOM     32  H   UNL d   1      29.704 -14.326  -8.060  0.00  0.00     0.159 HD
ATOM     33  O   UNL d   1      29.932 -12.397  -6.652  0.00  0.00    -0.266 OA
ENDBRANCH  27  29
BRANCH  28  34
ATOM     34  N   UNL d   1      26.904 -15.314  -5.760  0.00  0.00    -0.299 NA
ATOM     35  H   UNL d   1      27.068 -15.315  -6.775  0.00  0.00     0.124 HD
ATOM     36  H   UNL d   1      27.423 -16.071  -5.328  0.00  0.00     0.124 HD
ENDBRANCH  28  34
ENDBRANCH   2  24
TORSDOF 11
ENDMDL
MODEL 9
REMARK VINA RESULT:    -5.488      3.335      5.864
REMARK INTER + INTRA:         -13.148
REMARK INTER:                  -8.769
REMARK INTRA:                  -4.378
REMARK CONF_INDEPENDENT:        3.281
REMARK UNBOUND:                -4.378
REMARK  11 active torsions:
REMARK  status: ('A' for Active; 'I' for Inactive)
REMARK    1  A    between atoms: C_2  and  C_3 
REMARK    2  A    between atoms: C_4  and  C_3 
REMARK    3  A    between atoms: C_4  and  N_13 
REMARK    4  A    between atoms: C_4  and  C_5 
REMARK       I    between atoms: C_5  and  N_7 
REMARK    5  A    between atoms: N_7  and  C_8 
REMARK    6  A    between atoms: C_8  and  C_9 
REMARK    7  A    between atoms: C_9  and  C_10 
REMARK       I    between atoms: N_13  and  C_14 
REMARK    8  A    between atoms: N_13  and  C_25 
REMARK    9  A    between atoms: C_14  and  C_16 
REMARK   10  A    between atoms: C_19  and  C_20 
REMARK       I    between atoms: C_20  and  N_21 
REMARK   11  A    between atoms: C_23  and  N_24 
ROOT
ATOM      1  N   UNL d   1      26.737 -14.971  -2.621  0.00  0.00    -0.299 N 
ATOM      2  C   UNL d   1      26.578 -13.516  -2.425  0.00  0.00     0.269 C 
ATOM      3  O   UNL d   1      25.916 -13.110  -1.479  0.00  0.00    -0.266 OA
ENDROOT
BRANCH   1   4
ATOM      4  C   UNL d   1      27.730 -15.634  -3.570  0.00  0.00     0.185 C 
BRANCH   4   5
ATOM      5  C   UNL d   1      27.625 -15.201  -5.025  0.00  0.00     0.241 C 
ATOM      6  O   UNL d   1      26.632 -15.520  -5.684  0.00  0.00    -0.271 OA
ATOM      7  N   UNL d   1      28.508 -14.254  -5.517  0.00  0.00    -0.359 N 
ATOM      8  H   UNL d   1      28.988 -13.620  -4.891  0.00  0.00     0.162 HD
BRANCH   7   9
ATOM      9  C   UNL d   1      28.248 -13.849  -6.872  0.00  0.00     0.123 C 
BRANCH   9  10
ATOM     10  C   UNL d   1      29.396 -13.288  -7.660  0.00  0.00     0.023 C 
BRANCH  10  11
ATOM     11  C   UNL d   1      30.751 -13.805  -7.129  0.00  0.00    -0.021 C 
ATOM     12  C   UNL d   1      30.856 -15.332  -7.149  0.00  0.00     0.009 C 
ATOM     13  C   UNL d   1      31.863 -13.186  -7.961  0.00  0.00     0.009 C 
ENDBRANCH  10  11
ENDBRANCH   9  10
ENDBRANCH   7   9
ENDBRANCH   4   5
BRANCH   4  14
ATOM     14  C   UNL d   1      29.231 -15.291  -3.298  0.00  0.00     0.035 C 
BRANCH  14  15
ATOM     15  C   UNL d   1      29.655 -15.408  -1.833  0.00  0.00    -0.002 C 
ATOM     16  C   UNL d   1      29.945 -16.755  -1.297  0.00  0.00     0.005 C 
ENDBRANCH  14  15
ENDBRANCH   4  14
ENDBRANCH   1   4
BRANCH   1  17
ATOM     17  C   UNL d   1      25.812 -15.883  -1.895  0.00  0.00     0.038 A 
ATOM     18  C   UNL d   1      26.238 -16.987  -1.128  0.00  0.00     0.030 A 
ATOM     19  C   UNL d   1      25.369 -17.841  -0.433  0.00  0.00     0.009 A 
ATOM     20  C   UNL d   1      24.002 -17.649  -0.500  0.00  0.00    -0.062 A 
ATOM     21  C   UNL d   1      23.080 -18.575   0.234  0.00  0.00     0.048 C 
ATOM     22  C   UNL d   1      23.532 -16.581  -1.269  0.00  0.00     0.009 A 
ATOM     23  C   UNL d   1      24.421 -15.709  -1.944  0.00  0.00     0.030 A 
ENDBRANCH   1  17
BRANCH   2  24
ATOM     24  C   UNL d   1      27.228 -12.519  -3.316  0.00  0.00     0.115 C 
ATOM     25  S   UNL d   1      28.930 -12.212  -3.166  0.00  0.00     0.019 SA
ATOM     26  N   UNL d   1      29.125 -11.392  -4.621  0.00  0.00    -0.203 NA
ATOM     27  C   UNL d   1      27.913 -11.181  -5.162  0.00  0.00     0.155 C 
ATOM     28  C   UNL d   1      26.800 -11.796  -4.419  0.00  0.00     0.065 C 
BRANCH  27  29
ATOM     29  C   UNL d   1      27.760 -10.524  -6.492  0.00  0.00     0.270 C 
ATOM     30  N   UNL d   1      28.847  -9.985  -7.123  0.00  0.00    -0.365 N 
ATOM     31  H   UNL d   1      29.782 -10.044  -6.739  0.00  0.00     0.159 HD
ATOM     32  H   UNL d   1      28.725  -9.712  -8.092  0.00  0.00     0.159 HD
ATOM     33  O   UNL d   1      26.695 -10.569  -7.144  0.00  0.00    -0.266 OA
ENDBRANCH  27  29
BRANCH  28  34
ATOM     34  N   UNL d   1      25.528 -11.877  -4.911  0.00  0.00    -0.299 NA
ATOM     35  H   UNL d   1      24.789 -11.671  -4.226  0.00  0.00     0.124 HD
ATOM     36  H   UNL d   1      25.307 -11.436  -5.797  0.00  0.00     0.124 HD
ENDBRANCH  28  34
ENDBRANCH   2  24
TORSDOF 11
ENDMDL
