MODEL 1
REMARK VINA RESULT:   -11.463      0.000      0.000
REMARK INTER + INTRA:         -17.025
REMARK INTER:                 -15.340
REMARK INTRA:                  -1.685
REMARK CONF_INDEPENDENT:        3.878
REMARK UNBOUND:                -1.685
REMARK  13 active torsions:
REMARK  status: ('A' for Active; 'I' for Inactive)
REMARK    1  A    between atoms: O_2  and  C_3 
REMARK    2  A    between atoms: C_3  and  C_4 
REMARK    3  A    between atoms: C_4  and  O_5 
REMARK    4  A    between atoms: O_5  and  C_6 
REMARK    5  A    between atoms: C_6  and  C_8 
REMARK    6  A    between atoms: C_9  and  N_10 
REMARK       I    between atoms: N_10  and  C_11 
REMARK    7  A    between atoms: C_11  and  C_13 
REMARK    8  A    between atoms: C_13  and  N_14 
REMARK    9  A    between atoms: C_15  and  N_14 
REMARK   10  A    between atoms: C_15  and  C_23 
REMARK   11  A    between atoms: C_15  and  C_16 
REMARK   12  A    between atoms: C_16  and  C_17 
REMARK   13  A    between atoms: C_30  and  C_31 
REMARK       I    between atoms: C_31  and  N_32 
ROOT
ATOM      1  N   UNL d   1      27.746 -15.435   0.983  0.00  0.00    -0.319 N 
ATOM      2  C   UNL d   1      27.986 -14.195   1.588  0.00  0.00     0.248 C 
ATOM      3  O   UNL d   1      27.193 -13.256   1.595  0.00  0.00    -0.271 OA
ATOM      4  H   UNL d   1      28.159 -16.311   1.315  0.00  0.00     0.169 HD
ENDROOT
BRANCH   1   5
ATOM      5  C   UNL d   1      26.858 -15.522  -0.102  0.00  0.00     0.094 C 
ATOM      6  C   UNL d   1      25.957 -16.495  -0.498  0.00  0.00     0.080 C 
ATOM      7  C   UNL d   1      25.346 -16.161  -1.780  0.00  0.00    -0.020 C 
ATOM      8  C   UNL d   1      25.701 -14.913  -2.265  0.00  0.00     0.081 C 
ATOM      9  C   UNL d   1      24.433 -17.169  -2.390  0.00  0.00     0.051 C 
ATOM     10  S   UNL d   1      26.786 -14.148  -1.129  0.00  0.00    -0.065 SA
BRANCH   6  11
ATOM     11  C   UNL d   1      25.560 -17.789   0.121  0.00  0.00     0.296 C 
ATOM     12  O   UNL d   1      26.296 -18.732   0.237  0.00  0.00    -0.259 OA
BRANCH  11  13
ATOM     13  O   UNL d   1      24.277 -18.040   0.447  0.00  0.00    -0.315 OA
BRANCH  13  14
ATOM     14  C   UNL d   1      23.472 -18.997  -0.143  0.00  0.00     0.205 C 
BRANCH  14  15
ATOM     15  C   UNL d   1      22.263 -18.207  -0.398  0.00  0.00     0.193 C 
BRANCH  15  16
ATOM     16  O   UNL d   1      21.563 -19.221  -1.066  0.00  0.00    -0.394 OA
ATOM     17  C   UNL d   1      20.397 -19.650  -0.519  0.00  0.00     0.201 C 
ENDBRANCH  15  16
ENDBRANCH  14  15
ENDBRANCH  13  14
ENDBRANCH  11  13
ENDBRANCH   6  11
BRANCH   8  18
ATOM     18  C   UNL d   1      25.312 -14.201  -3.499  0.00  0.00     0.256 C 
ATOM     19  N   UNL d   1      25.107 -12.839  -3.465  0.00  0.00    -0.365 N 
ATOM     20  H   UNL d   1      25.190 -12.205  -2.700  0.00  0.00     0.159 HD
ATOM     21  H   UNL d   1      24.829 -12.380  -4.321  0.00  0.00     0.159 HD
ATOM     22  O   UNL d   1      25.152 -14.740  -4.588  0.00  0.00    -0.267 OA
ENDBRANCH   8  18
ENDBRANCH   1   5
BRANCH   2  23
ATOM     23  C   UNL d   1      29.321 -14.036   2.325  0.00  0.00     0.335 C 
BRANCH  23  24
ATOM     24  N   UNL d   1      29.634 -14.825   3.885  0.00  0.00    -0.058 N 
ATOM     25  H   UNL d   1      30.572 -15.262   3.766  0.00  0.00     0.278 HD
ATOM     26  H   UNL d   1      29.102 -15.671   4.106  0.00  0.00     0.278 HD
BRANCH  24  27
ATOM     27  C   UNL d   1      29.581 -14.130   5.286  0.00  0.00     0.223 C 
BRANCH  27  28
ATOM     28  C   UNL d   1      29.306 -12.719   4.981  0.00  0.00    -0.028 C 
ATOM     29  C   UNL d   1      30.320 -11.770   4.861  0.00  0.00     0.009 C 
ATOM     30  C   UNL d   1      30.125 -10.431   4.952  0.00  0.00     0.001 C 
ATOM     31  C   UNL d   1      28.833 -10.044   4.738  0.00  0.00     0.000 C 
ATOM     32  C   UNL d   1      27.784 -10.980   4.677  0.00  0.00     0.001 C 
ATOM     33  C   UNL d   1      28.004 -12.323   4.882  0.00  0.00     0.009 C 
ENDBRANCH  27  28
BRANCH  27  34
ATOM     34  C   UNL d   1      28.746 -14.652   6.602  0.00  0.00     0.076 C 
BRANCH  34  35
ATOM     35  C   UNL d   1      28.906 -13.881   7.984  0.00  0.00    -0.056 C 
ATOM     36  C   UNL d   1      28.982 -14.563   9.230  0.00  0.00     0.007 C 
ATOM     37  C   UNL d   1      28.713 -13.922  10.457  0.00  0.00     0.001 C 
ATOM     38  C   UNL d   1      28.512 -12.551  10.507  0.00  0.00     0.000 C 
ATOM     39  C   UNL d   1      28.406 -11.846   9.313  0.00  0.00     0.001 C 
ATOM     40  C   UNL d   1      28.582 -12.497   8.069  0.00  0.00     0.007 C 
ENDBRANCH  34  35
ENDBRANCH  27  34
ENDBRANCH  24  27
ENDBRANCH  23  24
ENDBRANCH   2  23
TORSDOF 13
ENDMDL
MODEL 2
REMARK VINA RESULT:   -10.937      4.349      7.606
REMARK INTER + INTRA:         -17.772
REMARK INTER:                 -14.815
REMARK INTRA:                  -2.956
REMARK CONF_INDEPENDENT:        3.878
REMARK UNBOUND:                -2.956
REMARK  13 active torsions:
REMARK  status: ('A' for Active; 'I' for Inactive)
REMARK    1  A    between atoms: O_2  and  C_3 
REMARK    2  A    between atoms: C_3  and  C_4 
REMARK    3  A    between atoms: C_4  and  O_5 
REMARK    4  A    between atoms: O_5  and  C_6 
REMARK    5  A    between atoms: C_6  and  C_8 
REMARK    6  A    between atoms: C_9  and  N_10 
REMARK       I    between atoms: N_10  and  C_11 
REMARK    7  A    between atoms: C_11  and  C_13 
REMARK    8  A    between atoms: C_13  and  N_14 
REMARK    9  A    between atoms: C_15  and  N_14 
REMARK   10  A    between atoms: C_15  and  C_23 
REMARK   11  A    between atoms: C_15  and  C_16 
REMARK   12  A    between atoms: C_16  and  C_17 
REMARK   13  A    between atoms: C_30  and  C_31 
REMARK       I    between atoms: C_31  and  N_32 
ROOT
ATOM      1  N   UNL d   1      29.779 -16.424  -3.555  0.00  0.00    -0.319 N 
ATOM      2  C   UNL d   1      29.789 -15.806  -2.298  0.00  0.00     0.248 C 
ATOM      3  O   UNL d   1      29.440 -14.646  -2.087  0.00  0.00    -0.271 OA
ATOM      4  H   UNL d   1      29.645 -17.430  -3.685  0.00  0.00     0.169 HD
ENDROOT
BRANCH   1   5
ATOM      5  C   UNL d   1      29.905 -15.644  -4.717  0.00  0.00     0.094 C 
ATOM      6  C   UNL d   1      28.983 -14.950  -5.481  0.00  0.00     0.080 C 
ATOM      7  C   UNL d   1      29.603 -14.386  -6.676  0.00  0.00    -0.020 C 
ATOM      8  C   UNL d   1      30.976 -14.561  -6.732  0.00  0.00     0.081 C 
ATOM      9  C   UNL d   1      28.712 -13.700  -7.655  0.00  0.00     0.051 C 
ATOM     10  S   UNL d   1      31.502 -15.418  -5.303  0.00  0.00    -0.065 SA
BRANCH   6  11
ATOM     11  C   UNL d   1      27.521 -14.731  -5.314  0.00  0.00     0.296 C 
ATOM     12  O   UNL d   1      26.676 -15.456  -5.770  0.00  0.00    -0.259 OA
BRANCH  11  13
ATOM     13  O   UNL d   1      27.044 -13.594  -4.770  0.00  0.00    -0.315 OA
BRANCH  13  14
ATOM     14  C   UNL d   1      26.472 -13.484  -3.515  0.00  0.00     0.205 C 
BRANCH  14  15
ATOM     15  C   UNL d   1      26.211 -14.895  -3.217  0.00  0.00     0.193 C 
BRANCH  15  16
ATOM     16  O   UNL d   1      24.888 -14.900  -3.678  0.00  0.00    -0.394 OA
ATOM     17  C   UNL d   1      24.290 -13.700  -3.895  0.00  0.00     0.201 C 
ENDBRANCH  15  16
ENDBRANCH  14  15
ENDBRANCH  13  14
ENDBRANCH  11  13
ENDBRANCH   6  11
BRANCH   8  18
ATOM     18  C   UNL d   1      31.969 -14.149  -7.745  0.00  0.00     0.256 C 
ATOM     19  N   UNL d   1      31.542 -13.681  -8.969  0.00  0.00    -0.365 N 
ATOM     20  H   UNL d   1      30.614 -13.555  -9.310  0.00  0.00     0.159 HD
ATOM     21  H   UNL d   1      32.244 -13.420  -9.647  0.00  0.00     0.159 HD
ATOM     22  O   UNL d   1      33.183 -14.190  -7.581  0.00  0.00    -0.267 OA
ENDBRANCH   8  18
ENDBRANCH   1   5
BRANCH   2  23
ATOM     23  C   UNL d   1      30.228 -16.670  -1.110  0.00  0.00     0.335 C 
BRANCH  23  24
ATOM     24  N   UNL d   1      29.128 -17.054   0.230  0.00  0.00    -0.058 N 
ATOM     25  H   UNL d   1      29.563 -16.593   1.057  0.00  0.00     0.278 HD
ATOM     26  H   UNL d   1      29.121 -18.015   0.581  0.00  0.00     0.278 HD
BRANCH  24  27
ATOM     27  C   UNL d   1      27.588 -16.775   0.255  0.00  0.00     0.223 C 
BRANCH  27  28
ATOM     28  C   UNL d   1      27.481 -15.364   0.654  0.00  0.00    -0.028 C 
ATOM     29  C   UNL d   1      27.942 -14.899   1.884  0.00  0.00     0.009 C 
ATOM     30  C   UNL d   1      27.552 -13.731   2.451  0.00  0.00     0.001 C 
ATOM     31  C   UNL d   1      27.019 -12.837   1.568  0.00  0.00     0.000 C 
ATOM     32  C   UNL d   1      26.692 -13.209   0.250  0.00  0.00     0.001 C 
ATOM     33  C   UNL d   1      26.845 -14.503  -0.192  0.00  0.00     0.009 C 
ENDBRANCH  27  28
BRANCH  27  34
ATOM     34  C   UNL d   1      26.506 -17.169  -0.918  0.00  0.00     0.076 C 
BRANCH  34  35
ATOM     35  C   UNL d   1      24.972 -17.342  -0.540  0.00  0.00    -0.056 C 
ATOM     36  C   UNL d   1      24.404 -18.608  -0.227  0.00  0.00     0.007 C 
ATOM     37  C   UNL d   1      23.016 -18.849  -0.293  0.00  0.00     0.001 C 
ATOM     38  C   UNL d   1      22.130 -17.806  -0.520  0.00  0.00     0.000 C 
ATOM     39  C   UNL d   1      22.639 -16.556  -0.855  0.00  0.00     0.001 C 
ATOM     40  C   UNL d   1      24.035 -16.325  -0.882  0.00  0.00     0.007 C 
ENDBRANCH  34  35
ENDBRANCH  27  34
ENDBRANCH  24  27
ENDBRANCH  23  24
ENDBRANCH   2  23
TORSDOF 13
ENDMDL
MODEL 3
REMARK VINA RESULT:   -10.437      4.189      7.155
REMARK INTER + INTRA:         -18.021
REMARK INTER:                 -14.314
REMARK INTRA:                  -3.706
REMARK CONF_INDEPENDENT:        3.878
REMARK UNBOUND:                -3.706
REMARK  13 active torsions:
REMARK  status: ('A' for Active; 'I' for Inactive)
REMARK    1  A    between atoms: O_2  and  C_3 
REMARK    2  A    between atoms: C_3  and  C_4 
REMARK    3  A    between atoms: C_4  and  O_5 
REMARK    4  A    between atoms: O_5  and  C_6 
REMARK    5  A    between atoms: C_6  and  C_8 
REMARK    6  A    between atoms: C_9  and  N_10 
REMARK       I    between atoms: N_10  and  C_11 
REMARK    7  A    between atoms: C_11  and  C_13 
REMARK    8  A    between atoms: C_13  and  N_14 
REMARK    9  A    between atoms: C_15  and  N_14 
REMARK   10  A    between atoms: C_15  and  C_23 
REMARK   11  A    between atoms: C_15  and  C_16 
REMARK   12  A    between atoms: C_16  and  C_17 
REMARK   13  A    between atoms: C_30  and  C_31 
REMARK       I    between atoms: C_31  and  N_32 
ROOT
ATOM      1  N   UNL d   1      29.722 -14.132  -2.322  0.00  0.00    -0.319 N 
ATOM      2  C   UNL d   1      29.560 -15.524  -2.308  0.00  0.00     0.248 C 
ATOM      3  O   UNL d   1      29.006 -16.170  -3.194  0.00  0.00    -0.271 OA
ATOM      4  H   UNL d   1      30.503 -13.654  -1.864  0.00  0.00     0.169 HD
ENDROOT
BRANCH   1   5
ATOM      5  C   UNL d   1      28.814 -13.331  -3.033  0.00  0.00     0.094 C 
ATOM      6  C   UNL d   1      28.270 -13.435  -4.301  0.00  0.00     0.080 C 
ATOM      7  C   UNL d   1      27.454 -12.269  -4.625  0.00  0.00    -0.020 C 
ATOM      8  C   UNL d   1      27.305 -11.378  -3.575  0.00  0.00     0.081 C 
ATOM      9  C   UNL d   1      26.888 -12.186  -6.001  0.00  0.00     0.051 C 
ATOM     10  S   UNL d   1      28.169 -11.986  -2.183  0.00  0.00    -0.065 SA
BRANCH   6  11
ATOM     11  C   UNL d   1      28.408 -14.473  -5.358  0.00  0.00     0.296 C 
ATOM     12  O   UNL d   1      29.244 -14.445  -6.223  0.00  0.00    -0.259 OA
BRANCH  11  13
ATOM     13  O   UNL d   1      27.485 -15.442  -5.507  0.00  0.00    -0.315 OA
BRANCH  13  14
ATOM     14  C   UNL d   1      26.116 -15.271  -5.394  0.00  0.00     0.205 C 
BRANCH  14  15
ATOM     15  C   UNL d   1      25.932 -15.541  -3.965  0.00  0.00     0.193 C 
BRANCH  15  16
ATOM     16  O   UNL d   1      24.939 -14.573  -3.759  0.00  0.00    -0.394 OA
ATOM     17  C   UNL d   1      25.150 -13.650  -2.786  0.00  0.00     0.201 C 
ENDBRANCH  15  16
ENDBRANCH  14  15
ENDBRANCH  13  14
ENDBRANCH  11  13
ENDBRANCH   6  11
BRANCH   8  18
ATOM     18  C   UNL d   1      26.572 -10.100  -3.479  0.00  0.00     0.256 C 
ATOM     19  N   UNL d   1      25.266 -10.027  -3.914  0.00  0.00    -0.365 N 
ATOM     20  H   UNL d   1      24.687 -10.741  -4.301  0.00  0.00     0.159 HD
ATOM     21  H   UNL d   1      24.794  -9.137  -3.849  0.00  0.00     0.159 HD
ATOM     22  O   UNL d   1      27.044  -9.062  -3.029  0.00  0.00    -0.267 OA
ENDBRANCH   8  18
ENDBRANCH   1   5
BRANCH   2  23
ATOM     23  C   UNL d   1      30.163 -16.275  -1.116  0.00  0.00     0.335 C 
BRANCH  23  24
ATOM     24  N   UNL d   1      29.163 -16.861   0.229  0.00  0.00    -0.058 N 
ATOM     25  H   UNL d   1      29.570 -16.399   1.069  0.00  0.00     0.278 HD
ATOM     26  H   UNL d   1      29.280 -17.834   0.522  0.00  0.00     0.278 HD
BRANCH  24  27
ATOM     27  C   UNL d   1      27.603 -16.767   0.314  0.00  0.00     0.223 C 
BRANCH  27  28
ATOM     28  C   UNL d   1      27.347 -15.413   0.823  0.00  0.00    -0.028 C 
ATOM     29  C   UNL d   1      26.626 -14.466   0.097  0.00  0.00     0.009 C 
ATOM     30  C   UNL d   1      26.672 -13.132   0.330  0.00  0.00     0.001 C 
ATOM     31  C   UNL d   1      27.120 -12.801   1.577  0.00  0.00     0.000 C 
ATOM     32  C   UNL d   1      27.704 -13.759   2.427  0.00  0.00     0.001 C 
ATOM     33  C   UNL d   1      27.897 -15.060   2.021  0.00  0.00     0.009 C 
ENDBRANCH  27  28
BRANCH  27  34
ATOM     34  C   UNL d   1      26.535 -17.198  -0.860  0.00  0.00     0.076 C 
BRANCH  34  35
ATOM     35  C   UNL d   1      24.994 -17.344  -0.497  0.00  0.00    -0.056 C 
ATOM     36  C   UNL d   1      24.415 -18.588  -0.125  0.00  0.00     0.007 C 
ATOM     37  C   UNL d   1      23.027 -18.826  -0.201  0.00  0.00     0.001 C 
ATOM     38  C   UNL d   1      22.150 -17.794  -0.500  0.00  0.00     0.000 C 
ATOM     39  C   UNL d   1      22.670 -16.566  -0.893  0.00  0.00     0.001 C 
ATOM     40  C   UNL d   1      24.068 -16.343  -0.910  0.00  0.00     0.007 C 
ENDBRANCH  34  35
ENDBRANCH  27  34
ENDBRANCH  24  27
ENDBRANCH  23  24
ENDBRANCH   2  23
TORSDOF 13
ENDMDL
MODEL 4
REMARK VINA RESULT:    -9.838      4.012      7.107
REMARK INTER + INTRA:         -17.241
REMARK INTER:                 -13.716
REMARK INTRA:                  -3.526
REMARK CONF_INDEPENDENT:        3.878
REMARK UNBOUND:                -3.526
REMARK  13 active torsions:
REMARK  status: ('A' for Active; 'I' for Inactive)
REMARK    1  A    between atoms: O_2  and  C_3 
REMARK    2  A    between atoms: C_3  and  C_4 
REMARK    3  A    between atoms: C_4  and  O_5 
REMARK    4  A    between atoms: O_5  and  C_6 
REMARK    5  A    between atoms: C_6  and  C_8 
REMARK    6  A    between atoms: C_9  and  N_10 
REMARK       I    between atoms: N_10  and  C_11 
REMARK    7  A    between atoms: C_11  and  C_13 
REMARK    8  A    between atoms: C_13  and  N_14 
REMARK    9  A    between atoms: C_15  and  N_14 
REMARK   10  A    between atoms: C_15  and  C_23 
REMARK   11  A    between atoms: C_15  and  C_16 
REMARK   12  A    between atoms: C_16  and  C_17 
REMARK   13  A    between atoms: C_30  and  C_31 
REMARK       I    between atoms: C_31  and  N_32 
ROOT
ATOM      1  N   UNL d   1      30.213 -14.531  -2.880  0.00  0.00    -0.319 N 
ATOM      2  C   UNL d   1      29.609 -15.653  -2.299  0.00  0.00     0.248 C 
ATOM      3  O   UNL d   1      28.702 -16.303  -2.816  0.00  0.00    -0.271 OA
ATOM      4  H   UNL d   1      31.184 -14.262  -2.702  0.00  0.00     0.169 HD
ENDROOT
BRANCH   1   5
ATOM      5  C   UNL d   1      29.494 -13.747  -3.797  0.00  0.00     0.094 C 
ATOM      6  C   UNL d   1      28.342 -12.989  -3.676  0.00  0.00     0.080 C 
ATOM      7  C   UNL d   1      27.926 -12.449  -4.967  0.00  0.00    -0.020 C 
ATOM      8  C   UNL d   1      28.815 -12.705  -5.997  0.00  0.00     0.081 C 
ATOM      9  C   UNL d   1      26.639 -11.699  -5.016  0.00  0.00     0.051 C 
ATOM     10  S   UNL d   1      30.172 -13.610  -5.368  0.00  0.00    -0.065 SA
BRANCH   6  11
ATOM     11  C   UNL d   1      27.473 -12.684  -2.507  0.00  0.00     0.296 C 
ATOM     12  O   UNL d   1      27.757 -11.893  -1.648  0.00  0.00    -0.259 OA
BRANCH  11  13
ATOM     13  O   UNL d   1      26.368 -13.411  -2.252  0.00  0.00    -0.315 OA
BRANCH  13  14
ATOM     14  C   UNL d   1      25.315 -13.605  -3.129  0.00  0.00     0.205 C 
BRANCH  14  15
ATOM     15  C   UNL d   1      25.248 -15.070  -3.143  0.00  0.00     0.193 C 
BRANCH  15  16
ATOM     16  O   UNL d   1      25.155 -15.199  -4.536  0.00  0.00    -0.394 OA
ATOM     17  C   UNL d   1      26.311 -15.197  -5.249  0.00  0.00     0.201 C 
ENDBRANCH  15  16
ENDBRANCH  14  15
ENDBRANCH  13  14
ENDBRANCH  11  13
ENDBRANCH   6  11
BRANCH   8  18
ATOM     18  C   UNL d   1      28.779 -12.342  -7.428  0.00  0.00     0.256 C 
ATOM     19  N   UNL d   1      28.909 -13.325  -8.385  0.00  0.00    -0.365 N 
ATOM     20  H   UNL d   1      29.023 -14.309  -8.271  0.00  0.00     0.159 HD
ATOM     21  H   UNL d   1      28.895 -13.045  -9.356  0.00  0.00     0.159 HD
ATOM     22  O   UNL d   1      28.638 -11.200  -7.849  0.00  0.00    -0.267 OA
ENDBRANCH   8  18
ENDBRANCH   1   5
BRANCH   2  23
ATOM     23  C   UNL d   1      30.162 -16.110  -0.945  0.00  0.00     0.335 C 
BRANCH  23  24
ATOM     24  N   UNL d   1      29.110 -16.755   0.331  0.00  0.00    -0.058 N 
ATOM     25  H   UNL d   1      29.556 -16.433   1.216  0.00  0.00     0.278 HD
ATOM     26  H   UNL d   1      29.137 -17.763   0.508  0.00  0.00     0.278 HD
BRANCH  24  27
ATOM     27  C   UNL d   1      27.565 -16.531   0.440  0.00  0.00     0.223 C 
BRANCH  27  28
ATOM     28  C   UNL d   1      27.433 -15.190   1.028  0.00  0.00    -0.028 C 
ATOM     29  C   UNL d   1      28.148 -14.797   2.157  0.00  0.00     0.009 C 
ATOM     30  C   UNL d   1      27.809 -13.747   2.946  0.00  0.00     0.001 C 
ATOM     31  C   UNL d   1      26.987 -12.840   2.338  0.00  0.00     0.000 C 
ATOM     32  C   UNL d   1      26.371 -13.117   1.103  0.00  0.00     0.001 C 
ATOM     33  C   UNL d   1      26.526 -14.333   0.477  0.00  0.00     0.009 C 
ENDBRANCH  27  28
BRANCH  27  34
ATOM     34  C   UNL d   1      26.455 -16.799  -0.743  0.00  0.00     0.076 C 
BRANCH  34  35
ATOM     35  C   UNL d   1      24.976 -17.224  -0.344  0.00  0.00    -0.056 C 
ATOM     36  C   UNL d   1      24.604 -18.581  -0.140  0.00  0.00     0.007 C 
ATOM     37  C   UNL d   1      23.261 -19.011  -0.194  0.00  0.00     0.001 C 
ATOM     38  C   UNL d   1      22.230 -18.090  -0.297  0.00  0.00     0.000 C 
ATOM     39  C   UNL d   1      22.545 -16.754  -0.522  0.00  0.00     0.001 C 
ATOM     40  C   UNL d   1      23.893 -16.324  -0.562  0.00  0.00     0.007 C 
ENDBRANCH  34  35
ENDBRANCH  27  34
ENDBRANCH  24  27
ENDBRANCH  23  24
ENDBRANCH   2  23
TORSDOF 13
ENDMDL
MODEL 5
REMARK VINA RESULT:    -9.676      4.775      8.207
REMARK INTER + INTRA:         -17.070
REMARK INTER:                 -13.554
REMARK INTRA:                  -3.516
REMARK CONF_INDEPENDENT:        3.878
REMARK UNBOUND:                -3.516
REMARK  13 active torsions:
REMARK  status: ('A' for Active; 'I' for Inactive)
REMARK    1  A    between atoms: O_2  and  C_3 
REMARK    2  A    between atoms: C_3  and  C_4 
REMARK    3  A    between atoms: C_4  and  O_5 
REMARK    4  A    between atoms: O_5  and  C_6 
REMARK    5  A    between atoms: C_6  and  C_8 
REMARK    6  A    between atoms: C_9  and  N_10 
REMARK       I    between atoms: N_10  and  C_11 
REMARK    7  A    between atoms: C_11  and  C_13 
REMARK    8  A    between atoms: C_13  and  N_14 
REMARK    9  A    between atoms: C_15  and  N_14 
REMARK   10  A    between atoms: C_15  and  C_23 
REMARK   11  A    between atoms: C_15  and  C_16 
REMARK   12  A    between atoms: C_16  and  C_17 
REMARK   13  A    between atoms: C_30  and  C_31 
REMARK       I    between atoms: C_31  and  N_32 
ROOT
ATOM      1  N   UNL d   1      30.131 -16.577  -2.877  0.00  0.00    -0.319 N 
ATOM      2  C   UNL d   1      31.082 -16.186  -1.926  0.00  0.00     0.248 C 
ATOM      3  O   UNL d   1      32.298 -16.205  -2.107  0.00  0.00    -0.271 OA
ATOM      4  H   UNL d   1      29.186 -16.186  -2.920  0.00  0.00     0.169 HD
ENDROOT
BRANCH   1   5
ATOM      5  C   UNL d   1      30.476 -17.513  -3.866  0.00  0.00     0.094 C 
ATOM      6  C   UNL d   1      30.423 -17.474  -5.249  0.00  0.00     0.080 C 
ATOM      7  C   UNL d   1      30.789 -18.763  -5.829  0.00  0.00    -0.020 C 
ATOM      8  C   UNL d   1      31.215 -19.697  -4.900  0.00  0.00     0.081 C 
ATOM      9  C   UNL d   1      30.674 -18.908  -7.308  0.00  0.00     0.051 C 
ATOM     10  S   UNL d   1      31.170 -18.980  -3.307  0.00  0.00    -0.065 SA
BRANCH   6  11
ATOM     11  C   UNL d   1      30.031 -16.397  -6.197  0.00  0.00     0.296 C 
ATOM     12  O   UNL d   1      30.793 -15.856  -6.954  0.00  0.00    -0.259 OA
BRANCH  11  13
ATOM     13  O   UNL d   1      28.806 -15.838  -6.147  0.00  0.00    -0.315 OA
BRANCH  13  14
ATOM     14  C   UNL d   1      28.542 -14.479  -6.177  0.00  0.00     0.205 C 
BRANCH  14  15
ATOM     15  C   UNL d   1      28.486 -14.188  -4.741  0.00  0.00     0.193 C 
BRANCH  15  16
ATOM     16  O   UNL d   1      27.796 -15.354  -4.381  0.00  0.00    -0.394 OA
ATOM     17  C   UNL d   1      26.575 -15.213  -3.805  0.00  0.00     0.201 C 
ENDBRANCH  15  16
ENDBRANCH  14  15
ENDBRANCH  13  14
ENDBRANCH  11  13
ENDBRANCH   6  11
BRANCH   8  18
ATOM     18  C   UNL d   1      31.671 -21.093  -5.061  0.00  0.00     0.256 C 
ATOM     19  N   UNL d   1      30.780 -22.128  -4.876  0.00  0.00    -0.365 N 
ATOM     20  H   UNL d   1      29.810 -22.094  -4.645  0.00  0.00     0.159 HD
ATOM     21  H   UNL d   1      31.123 -23.072  -4.979  0.00  0.00     0.159 HD
ATOM     22  O   UNL d   1      32.815 -21.418  -5.356  0.00  0.00    -0.267 OA
ENDBRANCH   8  18
ENDBRANCH   1   5
BRANCH   2  23
ATOM     23  C   UNL d   1      30.545 -15.662  -0.590  0.00  0.00     0.335 C 
BRANCH  23  24
ATOM     24  N   UNL d   1      29.395 -16.594   0.391  0.00  0.00    -0.058 N 
ATOM     25  H   UNL d   1      29.620 -16.325   1.372  0.00  0.00     0.278 HD
ATOM     26  H   UNL d   1      29.546 -17.603   0.474  0.00  0.00     0.278 HD
BRANCH  24  27
ATOM     27  C   UNL d   1      27.839 -16.595   0.218  0.00  0.00     0.223 C 
BRANCH  27  28
ATOM     28  C   UNL d   1      27.422 -15.263   0.676  0.00  0.00    -0.028 C 
ATOM     29  C   UNL d   1      26.738 -14.371  -0.148  0.00  0.00     0.009 C 
ATOM     30  C   UNL d   1      26.656 -13.036   0.076  0.00  0.00     0.001 C 
ATOM     31  C   UNL d   1      26.910 -12.675   1.368  0.00  0.00     0.000 C 
ATOM     32  C   UNL d   1      27.441 -13.589   2.298  0.00  0.00     0.001 C 
ATOM     33  C   UNL d   1      27.780 -14.872   1.933  0.00  0.00     0.009 C 
ENDBRANCH  27  28
BRANCH  27  34
ATOM     34  C   UNL d   1      27.007 -17.079  -1.115  0.00  0.00     0.076 C 
BRANCH  34  35
ATOM     35  C   UNL d   1      25.452 -17.389  -0.994  0.00  0.00    -0.056 C 
ATOM     36  C   UNL d   1      24.457 -16.445  -1.369  0.00  0.00     0.007 C 
ATOM     37  C   UNL d   1      23.128 -16.524  -0.902  0.00  0.00     0.001 C 
ATOM     38  C   UNL d   1      22.702 -17.625  -0.175  0.00  0.00     0.000 C 
ATOM     39  C   UNL d   1      23.643 -18.562   0.236  0.00  0.00     0.001 C 
ATOM     40  C   UNL d   1      25.000 -18.444  -0.150  0.00  0.00     0.007 C 
ENDBRANCH  34  35
ENDBRANCH  27  34
ENDBRANCH  24  27
ENDBRANCH  23  24
ENDBRANCH   2  23
TORSDOF 13
ENDMDL
MODEL 6
REMARK VINA RESULT:    -9.603      3.877      7.007
REMARK INTER + INTRA:         -17.353
REMARK INTER:                 -13.481
REMARK INTRA:                  -3.873
REMARK CONF_INDEPENDENT:        3.878
REMARK UNBOUND:                -3.873
REMARK  13 active torsions:
REMARK  status: ('A' for Active; 'I' for Inactive)
REMARK    1  A    between atoms: O_2  and  C_3 
REMARK    2  A    between atoms: C_3  and  C_4 
REMARK    3  A    between atoms: C_4  and  O_5 
REMARK    4  A    between atoms: O_5  and  C_6 
REMARK    5  A    between atoms: C_6  and  C_8 
REMARK    6  A    between atoms: C_9  and  N_10 
REMARK       I    between atoms: N_10  and  C_11 
REMARK    7  A    between atoms: C_11  and  C_13 
REMARK    8  A    between atoms: C_13  and  N_14 
REMARK    9  A    between atoms: C_15  and  N_14 
REMARK   10  A    between atoms: C_15  and  C_23 
REMARK   11  A    between atoms: C_15  and  C_16 
REMARK   12  A    between atoms: C_16  and  C_17 
REMARK   13  A    between atoms: C_30  and  C_31 
REMARK       I    between atoms: C_31  and  N_32 
ROOT
ATOM      1  N   UNL d   1      28.953 -13.541  -0.896  0.00  0.00    -0.319 N 
ATOM      2  C   UNL d   1      29.684 -14.520  -1.581  0.00  0.00     0.248 C 
ATOM      3  O   UNL d   1      29.927 -14.493  -2.786  0.00  0.00    -0.271 OA
ATOM      4  H   UNL d   1      29.102 -13.318   0.092  0.00  0.00     0.169 HD
ENDROOT
BRANCH   1   5
ATOM      5  C   UNL d   1      27.996 -12.776  -1.583  0.00  0.00     0.094 C 
ATOM      6  C   UNL d   1      26.940 -13.121  -2.409  0.00  0.00     0.080 C 
ATOM      7  C   UNL d   1      26.305 -11.937  -2.979  0.00  0.00    -0.020 C 
ATOM      8  C   UNL d   1      26.807 -10.741  -2.494  0.00  0.00     0.081 C 
ATOM      9  C   UNL d   1      25.219 -12.153  -3.976  0.00  0.00     0.051 C 
ATOM     10  S   UNL d   1      28.061 -11.080  -1.325  0.00  0.00    -0.065 SA
BRANCH   6  11
ATOM     11  C   UNL d   1      26.399 -14.443  -2.825  0.00  0.00     0.296 C 
ATOM     12  O   UNL d   1      25.242 -14.757  -2.724  0.00  0.00    -0.259 OA
BRANCH  11  13
ATOM     13  O   UNL d   1      27.218 -15.445  -3.198  0.00  0.00    -0.315 OA
BRANCH  13  14
ATOM     14  C   UNL d   1      27.819 -15.572  -4.438  0.00  0.00     0.205 C 
BRANCH  14  15
ATOM     15  C   UNL d   1      26.702 -15.201  -5.313  0.00  0.00     0.193 C 
BRANCH  15  16
ATOM     16  O   UNL d   1      27.492 -14.836  -6.411  0.00  0.00    -0.394 OA
ATOM     17  C   UNL d   1      28.373 -13.816  -6.244  0.00  0.00     0.201 C 
ENDBRANCH  15  16
ENDBRANCH  14  15
ENDBRANCH  13  14
ENDBRANCH  11  13
ENDBRANCH   6  11
BRANCH   8  18
ATOM     18  C   UNL d   1      26.450  -9.341  -2.798  0.00  0.00     0.256 C 
ATOM     19  N   UNL d   1      25.158  -8.906  -2.597  0.00  0.00    -0.365 N 
ATOM     20  H   UNL d   1      24.369  -9.406  -2.249  0.00  0.00     0.159 HD
ATOM     21  H   UNL d   1      24.939  -7.947  -2.827  0.00  0.00     0.159 HD
ATOM     22  O   UNL d   1      27.235  -8.504  -3.230  0.00  0.00    -0.267 OA
ENDBRANCH   8  18
ENDBRANCH   1   5
BRANCH   2  23
ATOM     23  C   UNL d   1      30.248 -15.672  -0.742  0.00  0.00     0.335 C 
BRANCH  23  24
ATOM     24  N   UNL d   1      29.221 -16.640   0.335  0.00  0.00    -0.058 N 
ATOM     25  H   UNL d   1      29.641 -16.504   1.278  0.00  0.00     0.278 HD
ATOM     26  H   UNL d   1      29.302 -17.659   0.282  0.00  0.00     0.278 HD
BRANCH  24  27
ATOM     27  C   UNL d   1      27.666 -16.525   0.460  0.00  0.00     0.223 C 
BRANCH  27  28
ATOM     28  C   UNL d   1      27.448 -15.220   1.099  0.00  0.00    -0.028 C 
ATOM     29  C   UNL d   1      28.152 -14.817   2.233  0.00  0.00     0.009 C 
ATOM     30  C   UNL d   1      27.752 -13.824   3.065  0.00  0.00     0.001 C 
ATOM     31  C   UNL d   1      26.858 -12.958   2.504  0.00  0.00     0.000 C 
ATOM     32  C   UNL d   1      26.243 -13.232   1.268  0.00  0.00     0.001 C 
ATOM     33  C   UNL d   1      26.473 -14.411   0.595  0.00  0.00     0.009 C 
ENDBRANCH  27  28
BRANCH  27  34
ATOM     34  C   UNL d   1      26.567 -16.822  -0.727  0.00  0.00     0.076 C 
BRANCH  34  35
ATOM     35  C   UNL d   1      25.081 -17.227  -0.333  0.00  0.00    -0.056 C 
ATOM     36  C   UNL d   1      24.695 -18.577  -0.114  0.00  0.00     0.007 C 
ATOM     37  C   UNL d   1      23.348 -18.994  -0.172  0.00  0.00     0.001 C 
ATOM     38  C   UNL d   1      22.327 -18.064  -0.294  0.00  0.00     0.000 C 
ATOM     39  C   UNL d   1      22.657 -16.735  -0.535  0.00  0.00     0.001 C 
ATOM     40  C   UNL d   1      24.010 -16.319  -0.571  0.00  0.00     0.007 C 
ENDBRANCH  34  35
ENDBRANCH  27  34
ENDBRANCH  24  27
ENDBRANCH  23  24
ENDBRANCH   2  23
TORSDOF 13
ENDMDL
MODEL 7
REMARK VINA RESULT:    -9.548      4.451      7.645
REMARK INTER + INTRA:         -16.733
REMARK INTER:                 -13.426
REMARK INTRA:                  -3.307
REMARK CONF_INDEPENDENT:        3.878
REMARK UNBOUND:                -3.307
REMARK  13 active torsions:
REMARK  status: ('A' for Active; 'I' for Inactive)
REMARK    1  A    between atoms: O_2  and  C_3 
REMARK    2  A    between atoms: C_3  and  C_4 
REMARK    3  A    between atoms: C_4  and  O_5 
REMARK    4  A    between atoms: O_5  and  C_6 
REMARK    5  A    between atoms: C_6  and  C_8 
REMARK    6  A    between atoms: C_9  and  N_10 
REMARK       I    between atoms: N_10  and  C_11 
REMARK    7  A    between atoms: C_11  and  C_13 
REMARK    8  A    between atoms: C_13  and  N_14 
REMARK    9  A    between atoms: C_15  and  N_14 
REMARK   10  A    between atoms: C_15  and  C_23 
REMARK   11  A    between atoms: C_15  and  C_16 
REMARK   12  A    between atoms: C_16  and  C_17 
REMARK   13  A    between atoms: C_30  and  C_31 
REMARK       I    between atoms: C_31  and  N_32 
ROOT
ATOM      1  N   UNL d   1      27.174 -13.556  -0.718  0.00  0.00    -0.319 N 
ATOM      2  C   UNL d   1      27.201 -13.086   0.601  0.00  0.00     0.248 C 
ATOM      3  O   UNL d   1      26.548 -12.130   1.015  0.00  0.00    -0.271 OA
ATOM      4  H   UNL d   1      27.342 -14.534  -0.969  0.00  0.00     0.169 HD
ENDROOT
BRANCH   1   5
ATOM      5  C   UNL d   1      26.855 -12.677  -1.766  0.00  0.00     0.094 C 
ATOM      6  C   UNL d   1      26.357 -12.884  -3.041  0.00  0.00     0.080 C 
ATOM      7  C   UNL d   1      26.308 -11.637  -3.799  0.00  0.00    -0.020 C 
ATOM      8  C   UNL d   1      26.652 -10.516  -3.061  0.00  0.00     0.081 C 
ATOM      9  C   UNL d   1      25.895 -11.718  -5.229  0.00  0.00     0.051 C 
ATOM     10  S   UNL d   1      27.030 -11.003  -1.426  0.00  0.00    -0.065 SA
BRANCH   6  11
ATOM     11  C   UNL d   1      25.925 -14.119  -3.748  0.00  0.00     0.296 C 
ATOM     12  O   UNL d   1      24.804 -14.311  -4.141  0.00  0.00    -0.259 OA
BRANCH  11  13
ATOM     13  O   UNL d   1      26.741 -15.186  -3.847  0.00  0.00    -0.315 OA
BRANCH  13  14
ATOM     14  C   UNL d   1      28.116 -15.162  -3.697  0.00  0.00     0.205 C 
BRANCH  14  15
ATOM     15  C   UNL d   1      28.526 -15.933  -4.875  0.00  0.00     0.193 C 
BRANCH  15  16
ATOM     16  O   UNL d   1      27.766 -15.202  -5.799  0.00  0.00    -0.394 OA
ATOM     17  C   UNL d   1      28.359 -14.143  -6.407  0.00  0.00     0.201 C 
ENDBRANCH  15  16
ENDBRANCH  14  15
ENDBRANCH  13  14
ENDBRANCH  11  13
ENDBRANCH   6  11
BRANCH   8  18
ATOM     18  C   UNL d   1      26.727  -9.090  -3.436  0.00  0.00     0.256 C 
ATOM     19  N   UNL d   1      25.655  -8.261  -3.185  0.00  0.00    -0.365 N 
ATOM     20  H   UNL d   1      24.780  -8.470  -2.757  0.00  0.00     0.159 HD
ATOM     21  H   UNL d   1      25.729  -7.293  -3.465  0.00  0.00     0.159 HD
ATOM     22  O   UNL d   1      27.697  -8.564  -3.969  0.00  0.00    -0.267 OA
ENDBRANCH   8  18
ENDBRANCH   1   5
BRANCH   2  23
ATOM     23  C   UNL d   1      28.080 -13.860   1.590  0.00  0.00     0.335 C 
BRANCH  23  24
ATOM     24  N   UNL d   1      28.488 -15.571   1.345  0.00  0.00    -0.058 N 
ATOM     25  H   UNL d   1      28.164 -16.037   2.218  0.00  0.00     0.278 HD
ATOM     26  H   UNL d   1      29.476 -15.836   1.391  0.00  0.00     0.278 HD
BRANCH  24  27
ATOM     27  C   UNL d   1      28.057 -16.445   0.121  0.00  0.00     0.223 C 
BRANCH  27  28
ATOM     28  C   UNL d   1      29.304 -16.667  -0.625  0.00  0.00    -0.028 C 
ATOM     29  C   UNL d   1      30.079 -15.617  -1.113  0.00  0.00     0.009 C 
ATOM     30  C   UNL d   1      31.004 -15.746  -2.095  0.00  0.00     0.001 C 
ATOM     31  C   UNL d   1      31.441 -17.027  -2.280  0.00  0.00     0.000 C 
ATOM     32  C   UNL d   1      30.799 -18.119  -1.668  0.00  0.00     0.001 C 
ATOM     33  C   UNL d   1      29.669 -17.952  -0.899  0.00  0.00     0.009 C 
ENDBRANCH  27  28
BRANCH  27  34
ATOM     34  C   UNL d   1      27.118 -17.794   0.169  0.00  0.00     0.076 C 
BRANCH  34  35
ATOM     35  C   UNL d   1      25.629 -17.728  -0.385  0.00  0.00    -0.056 C 
ATOM     36  C   UNL d   1      25.142 -16.618  -1.127  0.00  0.00     0.007 C 
ATOM     37  C   UNL d   1      23.764 -16.350  -1.267  0.00  0.00     0.001 C 
ATOM     38  C   UNL d   1      22.820 -17.257  -0.810  0.00  0.00     0.000 C 
ATOM     39  C   UNL d   1      23.247 -18.346  -0.057  0.00  0.00     0.001 C 
ATOM     40  C   UNL d   1      24.626 -18.575   0.169  0.00  0.00     0.007 C 
ENDBRANCH  34  35
ENDBRANCH  27  34
ENDBRANCH  24  27
ENDBRANCH  23  24
ENDBRANCH   2  23
TORSDOF 13
ENDMDL
MODEL 8
REMARK VINA RESULT:    -9.041      3.449      9.900
REMARK INTER + INTRA:         -16.782
REMARK INTER:                 -12.919
REMARK INTRA:                  -3.863
REMARK CONF_INDEPENDENT:        3.878
REMARK UNBOUND:                -3.863
REMARK  13 active torsions:
REMARK  status: ('A' for Active; 'I' for Inactive)
REMARK    1  A    between atoms: O_2  and  C_3 
REMARK    2  A    between atoms: C_3  and  C_4 
REMARK    3  A    between atoms: C_4  and  O_5 
REMARK    4  A    between atoms: O_5  and  C_6 
REMARK    5  A    between atoms: C_6  and  C_8 
REMARK    6  A    between atoms: C_9  and  N_10 
REMARK       I    between atoms: N_10  and  C_11 
REMARK    7  A    between atoms: C_11  and  C_13 
REMARK    8  A    between atoms: C_13  and  N_14 
REMARK    9  A    between atoms: C_15  and  N_14 
REMARK   10  A    between atoms: C_15  and  C_23 
REMARK   11  A    between atoms: C_15  and  C_16 
REMARK   12  A    between atoms: C_16  and  C_17 
REMARK   13  A    between atoms: C_30  and  C_31 
REMARK       I    between atoms: C_31  and  N_32 
ROOT
ATOM      1  N   UNL d   1      29.046 -14.461   3.324  0.00  0.00    -0.319 N 
ATOM      2  C   UNL d   1      28.078 -13.859   2.510  0.00  0.00     0.248 C 
ATOM      3  O   UNL d   1      27.766 -12.671   2.559  0.00  0.00    -0.271 OA
ATOM      4  H   UNL d   1      29.602 -15.269   3.031  0.00  0.00     0.169 HD
ENDROOT
BRANCH   1   5
ATOM      5  C   UNL d   1      29.328 -13.920   4.589  0.00  0.00     0.094 C 
ATOM      6  C   UNL d   1      30.266 -13.001   5.025  0.00  0.00     0.080 C 
ATOM      7  C   UNL d   1      30.232 -12.856   6.477  0.00  0.00    -0.020 C 
ATOM      8  C   UNL d   1      29.212 -13.566   7.089  0.00  0.00     0.081 C 
ATOM      9  C   UNL d   1      31.260 -11.979   7.106  0.00  0.00     0.051 C 
ATOM     10  S   UNL d   1      28.290 -14.408   5.866  0.00  0.00    -0.065 SA
BRANCH   6  11
ATOM     11  C   UNL d   1      31.288 -12.203   4.294  0.00  0.00     0.296 C 
ATOM     12  O   UNL d   1      31.407 -11.011   4.393  0.00  0.00    -0.259 OA
BRANCH  11  13
ATOM     13  O   UNL d   1      32.050 -12.761   3.333  0.00  0.00    -0.315 OA
BRANCH  13  14
ATOM     14  C   UNL d   1      31.595 -13.203   2.103  0.00  0.00     0.205 C 
BRANCH  14  15
ATOM     15  C   UNL d   1      31.832 -14.644   2.235  0.00  0.00     0.193 C 
BRANCH  15  16
ATOM     16  O   UNL d   1      30.858 -15.038   1.306  0.00  0.00    -0.394 OA
ATOM     17  C   UNL d   1      30.832 -14.398   0.109  0.00  0.00     0.201 C 
ENDBRANCH  15  16
ENDBRANCH  14  15
ENDBRANCH  13  14
ENDBRANCH  11  13
ENDBRANCH   6  11
BRANCH   8  18
ATOM     18  C   UNL d   1      28.827 -13.690   8.509  0.00  0.00     0.256 C 
ATOM     19  N   UNL d   1      29.221 -14.797   9.230  0.00  0.00    -0.365 N 
ATOM     20  H   UNL d   1      29.767 -15.579   8.940  0.00  0.00     0.159 HD
ATOM     21  H   UNL d   1      28.932 -14.861  10.195  0.00  0.00     0.159 HD
ATOM     22  O   UNL d   1      28.164 -12.861   9.122  0.00  0.00    -0.267 OA
ENDBRANCH   8  18
ENDBRANCH   1   5
BRANCH   2  23
ATOM     23  C   UNL d   1      27.405 -14.754   1.464  0.00  0.00     0.335 C 
BRANCH  23  24
ATOM     24  N   UNL d   1      28.153 -16.262   0.896  0.00  0.00    -0.058 N 
ATOM     25  H   UNL d   1      27.898 -16.962   1.624  0.00  0.00     0.278 HD
ATOM     26  H   UNL d   1      29.171 -16.343   0.960  0.00  0.00     0.278 HD
BRANCH  24  27
ATOM     27  C   UNL d   1      27.945 -16.909  -0.513  0.00  0.00     0.223 C 
BRANCH  27  28
ATOM     28  C   UNL d   1      26.534 -17.320  -0.520  0.00  0.00    -0.028 C 
ATOM     29  C   UNL d   1      25.691 -17.075  -1.602  0.00  0.00     0.009 C 
ATOM     30  C   UNL d   1      24.337 -17.088  -1.531  0.00  0.00     0.001 C 
ATOM     31  C   UNL d   1      23.845 -17.772  -0.456  0.00  0.00     0.000 C 
ATOM     32  C   UNL d   1      24.683 -18.200   0.591  0.00  0.00     0.001 C 
ATOM     33  C   UNL d   1      26.027 -17.902   0.605  0.00  0.00     0.009 C 
ENDBRANCH  27  28
BRANCH  27  34
ATOM     34  C   UNL d   1      28.410 -16.273  -1.957  0.00  0.00     0.076 C 
BRANCH  34  35
ATOM     35  C   UNL d   1      27.568 -15.084  -2.593  0.00  0.00    -0.056 C 
ATOM     36  C   UNL d   1      26.964 -14.071  -1.799  0.00  0.00     0.007 C 
ATOM     37  C   UNL d   1      25.905 -13.271  -2.277  0.00  0.00     0.001 C 
ATOM     38  C   UNL d   1      25.513 -13.340  -3.605  0.00  0.00     0.000 C 
ATOM     39  C   UNL d   1      26.059 -14.331  -4.414  0.00  0.00     0.001 C 
ATOM     40  C   UNL d   1      27.058 -15.202  -3.918  0.00  0.00     0.007 C 
ENDBRANCH  34  35
ENDBRANCH  27  34
ENDBRANCH  24  27
ENDBRANCH  23  24
ENDBRANCH   2  23
TORSDOF 13
ENDMDL
