MODEL 1
REMARK VINA RESULT:   -35.685      0.000      0.000
REMARK INTER + INTRA:         -40.274
REMARK INTER:                 -38.071
REMARK INTRA:                  -2.203
REMARK CONF_INDEPENDENT:        2.386
REMARK UNBOUND:                -2.203
REMARK  8 active torsions:
REMARK  status: ('A' for Active; 'I' for Inactive)
REMARK    1  A    between atoms: C_9  and  C_10 
REMARK    2  A    between atoms: C_10  and  C_11 
REMARK    3  A    between atoms: C_11  and  C_12 
REMARK    4  A    between atoms: C_11  and  N_29 
REMARK    5  A    between atoms: C_12  and  O_13 
REMARK    6  A    between atoms: O_13  and  C_14 
REMARK    7  A    between atoms: C_18  and  C_19 
REMARK    8  A    between atoms: N_29  and  C_30 
ROOT
ATOM      1  C   UNL d   1      28.391 -12.773   0.242  0.00  0.00     0.110 C 
ENDROOT
BRANCH   1   2
ATOM      2  C   UNL d   1      27.567 -11.670   0.948  0.00  0.00     0.064 C 
BRANCH   2   3
ATOM      3  C   UNL d   1      27.762 -11.616   2.472  0.00  0.00    -0.048 A 
ATOM      4  C   UNL d   1      27.288 -10.389   3.221  0.00  0.00     0.155 A 
ATOM      5  N   UNL d   1      27.398 -10.820   4.626  0.00  0.00    -0.385 N 
ATOM      6  C   UNL d   1      27.841 -12.034   4.679  0.00  0.00     0.038 A 
ATOM      7  H   UNL d   1      27.145 -10.299   5.454  0.00  0.00     0.160 HD
ATOM      8  C   UNL d   1      28.178 -12.568   3.346  0.00  0.00    -0.006 A 
ATOM      9  C   UNL d   1      27.960 -12.907   5.858  0.00  0.00     0.030 C 
ATOM     10  C   UNL d   1      28.603 -13.950   3.257  0.00  0.00     0.014 C 
ATOM     11  C   UNL d   1      28.578 -14.732   4.344  0.00  0.00     0.001 C 
ATOM     12  C   UNL d   1      28.296 -14.196   5.653  0.00  0.00     0.002 C 
ENDBRANCH   2   3
ENDBRANCH   1   2
BRANCH   1  13
ATOM     13  C   UNL d   1      27.733 -14.169   0.521  0.00  0.00     0.201 C 
BRANCH  13  14
ATOM     14  O   UNL d   1      27.958 -15.185  -0.442  0.00  0.00    -0.348 OA
BRANCH  14  15
ATOM     15  C   UNL d   1      27.217 -16.325  -0.403  0.00  0.00     0.087 C 
ATOM     16  C   UNL d   1      27.928 -17.416   0.077  0.00  0.00     0.152 C 
ATOM     17  N   UNL d   1      27.396 -18.603   0.396  0.00  0.00    -0.269 NA
ATOM     18  C   UNL d   1      26.063 -18.702   0.218  0.00  0.00     0.128 C 
ATOM     19  C   UNL d   1      25.278 -17.728  -0.405  0.00  0.00    -0.006 C 
ATOM     20  C   UNL d   1      25.895 -16.526  -0.770  0.00  0.00     0.052 C 
BRANCH  19  21
ATOM     21  C   UNL d   1      23.827 -17.836  -0.465  0.00  0.00    -0.023 C 
ATOM     22  C   UNL d   1      22.980 -16.735  -0.739  0.00  0.00     0.014 C 
ATOM     23  C   UNL d   1      21.600 -16.931  -0.901  0.00  0.00     0.028 C 
ATOM     24  C   UNL d   1      21.120 -18.196  -0.638  0.00  0.00     0.059 C 
ATOM     25  C   UNL d   1      21.918 -19.190  -0.085  0.00  0.00     0.060 C 
ATOM     26  N   UNL d   1      19.905 -18.829  -1.007  0.00  0.00    -0.149 NA
ATOM     27  C   UNL d   1      23.271 -19.092  -0.181  0.00  0.00     0.040 C 
ATOM     28  N   UNL d   1      21.115 -20.326   0.173  0.00  0.00    -0.149 NA
ATOM     29  O   UNL d   1      20.071 -20.233  -0.782  0.00  0.00    -0.202 OA
ATOM     30  H   UNL d   1      20.604 -20.102   1.038  0.00  0.00     0.162 HD
ATOM     31  H   UNL d   1      19.140 -18.516  -0.422  0.00  0.00     0.162 HD
ENDBRANCH  19  21
ENDBRANCH  14  15
ENDBRANCH  13  14
ENDBRANCH   1  13
BRANCH   1  32
ATOM     32  N   UNL d   1      28.626 -12.564  -1.217  0.00  0.00    -0.383 N 
ATOM     33  H   UNL d   1      29.484 -12.118  -1.531  0.00  0.00     0.160 HD
BRANCH  32  34
ATOM     34  C   UNL d   1      27.776 -13.133  -2.187  0.00  0.00     0.030 C 
ATOM     35  C   UNL d   1      26.361 -12.998  -2.031  0.00  0.00     0.031 C 
ATOM     36  C   UNL d   1      25.352 -13.518  -2.842  0.00  0.00     0.039 C 
ATOM     37  C   UNL d   1      25.846 -14.302  -3.863  0.00  0.00     0.117 C 
ATOM     38  N   UNL d   1      25.147 -14.940  -4.800  0.00  0.00    -0.103 NA
ATOM     39  C   UNL d   1      27.265 -14.551  -4.055  0.00  0.00     0.119 C 
ATOM     40  O   UNL d   1      26.051 -15.818  -5.363  0.00  0.00    -0.106 OA
ATOM     41  N   UNL d   1      27.357 -15.522  -4.978  0.00  0.00    -0.103 NA
ATOM     42  C   UNL d   1      28.267 -13.872  -3.292  0.00  0.00     0.065 C 
ENDBRANCH  32  34
ENDBRANCH   1  32
TORSDOF 8
ENDMDL
MODEL 2
REMARK VINA RESULT:   -35.549      1.337      1.672
REMARK INTER + INTRA:         -40.708
REMARK INTER:                 -37.935
REMARK INTRA:                  -2.772
REMARK CONF_INDEPENDENT:        2.386
REMARK UNBOUND:                -2.772
REMARK  8 active torsions:
REMARK  status: ('A' for Active; 'I' for Inactive)
REMARK    1  A    between atoms: C_9  and  C_10 
REMARK    2  A    between atoms: C_10  and  C_11 
REMARK    3  A    between atoms: C_11  and  C_12 
REMARK    4  A    between atoms: C_11  and  N_29 
REMARK    5  A    between atoms: C_12  and  O_13 
REMARK    6  A    between atoms: O_13  and  C_14 
REMARK    7  A    between atoms: C_18  and  C_19 
REMARK    8  A    between atoms: N_29  and  C_30 
ROOT
ATOM      1  C   UNL d   1      29.414 -13.332  -0.606  0.00  0.00     0.110 C 
ENDROOT
BRANCH   1   2
ATOM      2  C   UNL d   1      29.980 -12.623   0.648  0.00  0.00     0.064 C 
BRANCH   2   3
ATOM      3  C   UNL d   1      30.054 -13.516   1.898  0.00  0.00    -0.048 A 
ATOM      4  C   UNL d   1      31.411 -13.992   2.370  0.00  0.00     0.155 A 
ATOM      5  N   UNL d   1      31.097 -14.567   3.690  0.00  0.00    -0.385 N 
ATOM      6  C   UNL d   1      29.832 -14.451   3.930  0.00  0.00     0.038 A 
ATOM      7  H   UNL d   1      31.741 -14.969   4.357  0.00  0.00     0.160 HD
ATOM      8  C   UNL d   1      29.095 -13.871   2.791  0.00  0.00    -0.006 A 
ATOM      9  C   UNL d   1      29.112 -14.749   5.178  0.00  0.00     0.030 C 
ATOM     10  C   UNL d   1      27.681 -13.607   2.963  0.00  0.00     0.014 C 
ATOM     11  C   UNL d   1      27.104 -13.784   4.158  0.00  0.00     0.001 C 
ATOM     12  C   UNL d   1      27.814 -14.396   5.254  0.00  0.00     0.002 C 
ENDBRANCH   2   3
ENDBRANCH   1   2
BRANCH   1  13
ATOM     13  C   UNL d   1      28.876 -14.749  -0.201  0.00  0.00     0.201 C 
BRANCH  13  14
ATOM     14  O   UNL d   1      27.490 -14.850   0.074  0.00  0.00    -0.348 OA
BRANCH  14  15
ATOM     15  C   UNL d   1      26.854 -16.041  -0.097  0.00  0.00     0.087 C 
ATOM     16  C   UNL d   1      27.644 -17.129   0.243  0.00  0.00     0.152 C 
ATOM     17  N   UNL d   1      27.212 -18.392   0.351  0.00  0.00    -0.269 NA
ATOM     18  C   UNL d   1      25.900 -18.574   0.097  0.00  0.00     0.128 C 
ATOM     19  C   UNL d   1      25.051 -17.584  -0.406  0.00  0.00    -0.006 C 
ATOM     20  C   UNL d   1      25.569 -16.292  -0.553  0.00  0.00     0.052 C 
BRANCH  19  21
ATOM     21  C   UNL d   1      23.619 -17.804  -0.551  0.00  0.00    -0.023 C 
ATOM     22  C   UNL d   1      22.728 -16.810  -1.025  0.00  0.00     0.014 C 
ATOM     23  C   UNL d   1      21.380 -17.124  -1.254  0.00  0.00     0.028 C 
ATOM     24  C   UNL d   1      20.962 -18.377  -0.861  0.00  0.00     0.059 C 
ATOM     25  C   UNL d   1      21.775 -19.232  -0.128  0.00  0.00     0.060 C 
ATOM     26  N   UNL d   1      19.821 -19.137  -1.226  0.00  0.00    -0.149 NA
ATOM     27  C   UNL d   1      23.122 -19.050  -0.142  0.00  0.00     0.040 C 
ATOM     28  N   UNL d   1      21.027 -20.381   0.221  0.00  0.00    -0.149 NA
ATOM     29  O   UNL d   1      20.056 -20.486  -0.807  0.00  0.00    -0.202 OA
ATOM     30  H   UNL d   1      20.438 -20.087   1.013  0.00  0.00     0.162 HD
ATOM     31  H   UNL d   1      18.994 -18.809  -0.742  0.00  0.00     0.162 HD
ENDBRANCH  19  21
ENDBRANCH  14  15
ENDBRANCH  13  14
ENDBRANCH   1  13
BRANCH   1  32
ATOM     32  N   UNL d   1      28.393 -12.561  -1.373  0.00  0.00    -0.383 N 
ATOM     33  H   UNL d   1      28.357 -11.548  -1.289  0.00  0.00     0.160 HD
BRANCH  32  34
ATOM     34  C   UNL d   1      27.593 -13.177  -2.357  0.00  0.00     0.030 C 
ATOM     35  C   UNL d   1      26.196 -13.342  -2.107  0.00  0.00     0.031 C 
ATOM     36  C   UNL d   1      25.243 -13.961  -2.918  0.00  0.00     0.039 C 
ATOM     37  C   UNL d   1      25.795 -14.514  -4.054  0.00  0.00     0.117 C 
ATOM     38  N   UNL d   1      25.158 -15.171  -5.022  0.00  0.00    -0.103 NA
ATOM     39  C   UNL d   1      27.216 -14.455  -4.354  0.00  0.00     0.119 C 
ATOM     40  O   UNL d   1      26.166 -15.786  -5.738  0.00  0.00    -0.106 OA
ATOM     41  N   UNL d   1      27.418 -15.281  -5.393  0.00  0.00    -0.103 NA
ATOM     42  C   UNL d   1      28.128 -13.678  -3.571  0.00  0.00     0.065 C 
ENDBRANCH  32  34
ENDBRANCH   1  32
TORSDOF 8
ENDMDL
MODEL 3
REMARK VINA RESULT:   -34.436      1.861      8.352
REMARK INTER + INTRA:         -38.794
REMARK INTER:                 -36.823
REMARK INTRA:                  -1.971
REMARK CONF_INDEPENDENT:        2.386
REMARK UNBOUND:                -1.971
REMARK  8 active torsions:
REMARK  status: ('A' for Active; 'I' for Inactive)
REMARK    1  A    between atoms: C_9  and  C_10 
REMARK    2  A    between atoms: C_10  and  C_11 
REMARK    3  A    between atoms: C_11  and  C_12 
REMARK    4  A    between atoms: C_11  and  N_29 
REMARK    5  A    between atoms: C_12  and  O_13 
REMARK    6  A    between atoms: O_13  and  C_14 
REMARK    7  A    between atoms: C_18  and  C_19 
REMARK    8  A    between atoms: N_29  and  C_30 
ROOT
ATOM      1  C   UNL d   1      26.149 -17.005  -0.671  0.00  0.00     0.110 C 
ENDROOT
BRANCH   1   2
ATOM      2  C   UNL d   1      25.687 -15.555  -0.953  0.00  0.00     0.064 C 
BRANCH   2   3
ATOM      3  C   UNL d   1      25.665 -15.179  -2.444  0.00  0.00    -0.048 A 
ATOM      4  C   UNL d   1      24.457 -14.448  -2.990  0.00  0.00     0.155 A 
ATOM      5  N   UNL d   1      24.919 -14.043  -4.330  0.00  0.00    -0.385 N 
ATOM      6  C   UNL d   1      26.130 -14.453  -4.520  0.00  0.00     0.038 A 
ATOM      7  H   UNL d   1      24.417 -13.499  -5.018  0.00  0.00     0.160 HD
ATOM      8  C   UNL d   1      26.633 -15.260  -3.392  0.00  0.00    -0.006 A 
ATOM      9  C   UNL d   1      27.028 -14.146  -5.644  0.00  0.00     0.030 C 
ATOM     10  C   UNL d   1      28.010 -15.707  -3.440  0.00  0.00     0.014 C 
ATOM     11  C   UNL d   1      28.816 -15.298  -4.428  0.00  0.00     0.001 C 
ATOM     12  C   UNL d   1      28.310 -14.550  -5.553  0.00  0.00     0.002 C 
ENDBRANCH   2   3
ENDBRANCH   1   2
BRANCH   1  13
ATOM     13  C   UNL d   1      27.611 -16.981  -0.103  0.00  0.00     0.201 C 
BRANCH  13  14
ATOM     14  O   UNL d   1      28.449 -15.927  -0.544  0.00  0.00    -0.348 OA
BRANCH  14  15
ATOM     15  C   UNL d   1      28.448 -14.741   0.123  0.00  0.00     0.087 C 
ATOM     16  C   UNL d   1      28.220 -13.654  -0.708  0.00  0.00     0.152 C 
ATOM     17  N   UNL d   1      27.980 -12.402  -0.293  0.00  0.00    -0.269 NA
ATOM     18  C   UNL d   1      27.971 -12.233   1.045  0.00  0.00     0.128 C 
ATOM     19  C   UNL d   1      28.343 -13.217   1.965  0.00  0.00    -0.006 C 
ATOM     20  C   UNL d   1      28.639 -14.493   1.473  0.00  0.00     0.052 C 
BRANCH  19  21
ATOM     21  C   UNL d   1      28.203 -13.015   3.400  0.00  0.00    -0.023 C 
ATOM     22  C   UNL d   1      27.788 -14.038   4.288  0.00  0.00     0.014 C 
ATOM     23  C   UNL d   1      27.788 -13.811   5.673  0.00  0.00     0.028 C 
ATOM     24  C   UNL d   1      28.068 -12.528   6.089  0.00  0.00     0.059 C 
ATOM     25  C   UNL d   1      28.181 -11.469   5.198  0.00  0.00     0.060 C 
ATOM     26  N   UNL d   1      28.478 -12.025   7.351  0.00  0.00    -0.149 NA
ATOM     27  C   UNL d   1      28.446 -11.723   3.888  0.00  0.00     0.040 C 
ATOM     28  N   UNL d   1      28.351 -10.273   5.932  0.00  0.00    -0.149 NA
ATOM     29  O   UNL d   1      28.963 -10.694   7.140  0.00  0.00    -0.202 OA
ATOM     30  H   UNL d   1      27.409 -10.030   6.270  0.00  0.00     0.162 HD
ATOM     31  H   UNL d   1      27.697 -11.966   7.991  0.00  0.00     0.162 HD
ENDBRANCH  19  21
ENDBRANCH  14  15
ENDBRANCH  13  14
ENDBRANCH   1  13
BRANCH   1  32
ATOM     32  N   UNL d   1      25.241 -17.810   0.196  0.00  0.00    -0.383 N 
ATOM     33  H   UNL d   1      25.539 -18.077   1.130  0.00  0.00     0.160 HD
BRANCH  32  34
ATOM     34  C   UNL d   1      23.902 -18.058  -0.172  0.00  0.00     0.030 C 
ATOM     35  C   UNL d   1      23.073 -16.955  -0.546  0.00  0.00     0.031 C 
ATOM     36  C   UNL d   1      21.722 -16.973  -0.897  0.00  0.00     0.039 C 
ATOM     37  C   UNL d   1      21.165 -18.229  -0.786  0.00  0.00     0.117 C 
ATOM     38  N   UNL d   1      19.905 -18.577  -1.044  0.00  0.00    -0.103 NA
ATOM     39  C   UNL d   1      21.915 -19.393  -0.346  0.00  0.00     0.119 C 
ATOM     40  O   UNL d   1      19.775 -19.831  -0.480  0.00  0.00    -0.106 OA
ATOM     41  N   UNL d   1      21.015 -20.367  -0.138  0.00  0.00    -0.103 NA
ATOM     42  C   UNL d   1      23.331 -19.355  -0.146  0.00  0.00     0.065 C 
ENDBRANCH  32  34
ENDBRANCH   1  32
TORSDOF 8
ENDMDL
MODEL 4
REMARK VINA RESULT:   -33.698      1.888      7.912
REMARK INTER + INTRA:         -38.759
REMARK INTER:                 -36.084
REMARK INTRA:                  -2.675
REMARK CONF_INDEPENDENT:        2.386
REMARK UNBOUND:                -2.675
REMARK  8 active torsions:
REMARK  status: ('A' for Active; 'I' for Inactive)
REMARK    1  A    between atoms: C_9  and  C_10 
REMARK    2  A    between atoms: C_10  and  C_11 
REMARK    3  A    between atoms: C_11  and  C_12 
REMARK    4  A    between atoms: C_11  and  N_29 
REMARK    5  A    between atoms: C_12  and  O_13 
REMARK    6  A    between atoms: O_13  and  C_14 
REMARK    7  A    between atoms: C_18  and  C_19 
REMARK    8  A    between atoms: N_29  and  C_30 
ROOT
ATOM      1  C   UNL d   1      26.038 -16.762  -0.923  0.00  0.00     0.110 C 
ENDROOT
BRANCH   1   2
ATOM      2  C   UNL d   1      25.813 -15.245  -0.714  0.00  0.00     0.064 C 
BRANCH   2   3
ATOM      3  C   UNL d   1      25.782 -14.427  -2.017  0.00  0.00    -0.048 A 
ATOM      4  C   UNL d   1      24.872 -14.882  -3.137  0.00  0.00     0.155 A 
ATOM      5  N   UNL d   1      24.921 -13.735  -4.061  0.00  0.00    -0.385 N 
ATOM      6  C   UNL d   1      25.693 -12.816  -3.582  0.00  0.00     0.038 A 
ATOM      7  H   UNL d   1      24.418 -13.621  -4.931  0.00  0.00     0.160 HD
ATOM      8  C   UNL d   1      26.345 -13.230  -2.324  0.00  0.00    -0.006 A 
ATOM      9  C   UNL d   1      25.912 -11.454  -4.093  0.00  0.00     0.030 C 
ATOM     10  C   UNL d   1      27.170 -12.259  -1.637  0.00  0.00     0.014 C 
ATOM     11  C   UNL d   1      27.237 -10.998  -2.082  0.00  0.00     0.001 C 
ATOM     12  C   UNL d   1      26.639 -10.608  -3.336  0.00  0.00     0.002 C 
ENDBRANCH   2   3
ENDBRANCH   1   2
BRANCH   1  13
ATOM     13  C   UNL d   1      27.572 -17.076  -0.824  0.00  0.00     0.201 C 
BRANCH  13  14
ATOM     14  O   UNL d   1      28.205 -16.783   0.409  0.00  0.00    -0.348 OA
BRANCH  14  15
ATOM     15  C   UNL d   1      28.698 -15.535   0.632  0.00  0.00     0.087 C 
ATOM     16  C   UNL d   1      29.589 -15.122  -0.348  0.00  0.00     0.152 C 
ATOM     17  N   UNL d   1      30.072 -13.879  -0.478  0.00  0.00    -0.269 NA
ATOM     18  C   UNL d   1      29.634 -12.994   0.440  0.00  0.00     0.128 C 
ATOM     19  C   UNL d   1      28.868 -13.335   1.559  0.00  0.00    -0.006 C 
ATOM     20  C   UNL d   1      28.436 -14.660   1.676  0.00  0.00     0.052 C 
BRANCH  19  21
ATOM     21  C   UNL d   1      28.326 -12.322   2.453  0.00  0.00    -0.023 C 
ATOM     22  C   UNL d   1      28.632 -12.265   3.835  0.00  0.00     0.014 C 
ATOM     23  C   UNL d   1      28.172 -11.194   4.616  0.00  0.00     0.028 C 
ATOM     24  C   UNL d   1      27.310 -10.310   4.005  0.00  0.00     0.059 C 
ATOM     25  C   UNL d   1      26.785 -10.543   2.740  0.00  0.00     0.060 C 
ATOM     26  N   UNL d   1      26.931  -8.986   4.350  0.00  0.00    -0.149 NA
ATOM     27  C   UNL d   1      27.418 -11.405   1.902  0.00  0.00     0.040 C 
ATOM     28  N   UNL d   1      25.850  -9.524   2.442  0.00  0.00    -0.149 NA
ATOM     29  O   UNL d   1      26.297  -8.413   3.202  0.00  0.00    -0.202 OA
ATOM     30  H   UNL d   1      24.999  -9.781   2.961  0.00  0.00     0.162 HD
ATOM     31  H   UNL d   1      26.255  -8.985   5.103  0.00  0.00     0.162 HD
ENDBRANCH  19  21
ENDBRANCH  14  15
ENDBRANCH  13  14
ENDBRANCH   1  13
BRANCH   1  32
ATOM     32  N   UNL d   1      25.240 -17.657  -0.035  0.00  0.00    -0.383 N 
ATOM     33  H   UNL d   1      25.627 -17.961   0.854  0.00  0.00     0.160 HD
BRANCH  32  34
ATOM     34  C   UNL d   1      23.887 -17.945  -0.307  0.00  0.00     0.030 C 
ATOM     35  C   UNL d   1      23.006 -16.870  -0.641  0.00  0.00     0.031 C 
ATOM     36  C   UNL d   1      21.635 -16.929  -0.898  0.00  0.00     0.039 C 
ATOM     37  C   UNL d   1      21.120 -18.197  -0.730  0.00  0.00     0.117 C 
ATOM     38  N   UNL d   1      19.855 -18.582  -0.896  0.00  0.00    -0.103 NA
ATOM     39  C   UNL d   1      21.929 -19.334  -0.324  0.00  0.00     0.119 C 
ATOM     40  O   UNL d   1      19.798 -19.829  -0.305  0.00  0.00    -0.106 OA
ATOM     41  N   UNL d   1      21.072 -20.327  -0.040  0.00  0.00    -0.103 NA
ATOM     42  C   UNL d   1      23.354 -19.256  -0.222  0.00  0.00     0.065 C 
ENDBRANCH  32  34
ENDBRANCH   1  32
TORSDOF 8
ENDMDL
MODEL 5
REMARK VINA RESULT:   -33.339      2.492      4.202
REMARK INTER + INTRA:         -39.093
REMARK INTER:                 -35.726
REMARK INTRA:                  -3.367
REMARK CONF_INDEPENDENT:        2.386
REMARK UNBOUND:                -3.367
REMARK  8 active torsions:
REMARK  status: ('A' for Active; 'I' for Inactive)
REMARK    1  A    between atoms: C_9  and  C_10 
REMARK    2  A    between atoms: C_10  and  C_11 
REMARK    3  A    between atoms: C_11  and  C_12 
REMARK    4  A    between atoms: C_11  and  N_29 
REMARK    5  A    between atoms: C_12  and  O_13 
REMARK    6  A    between atoms: O_13  and  C_14 
REMARK    7  A    between atoms: C_18  and  C_19 
REMARK    8  A    between atoms: N_29  and  C_30 
ROOT
ATOM      1  C   UNL d   1      29.518 -13.614  -0.344  0.00  0.00     0.110 C 
ENDROOT
BRANCH   1   2
ATOM      2  C   UNL d   1      28.552 -12.406  -0.272  0.00  0.00     0.064 C 
BRANCH   2   3
ATOM      3  C   UNL d   1      28.498 -11.565  -1.558  0.00  0.00    -0.048 A 
ATOM      4  C   UNL d   1      29.745 -10.826  -1.994  0.00  0.00     0.155 A 
ATOM      5  N   UNL d   1      29.383 -10.382  -3.352  0.00  0.00    -0.385 N 
ATOM      6  C   UNL d   1      28.185 -10.776  -3.639  0.00  0.00     0.038 A 
ATOM      7  H   UNL d   1      29.959  -9.875  -4.011  0.00  0.00     0.160 HD
ATOM      8  C   UNL d   1      27.532 -11.458  -2.506  0.00  0.00    -0.006 A 
ATOM      9  C   UNL d   1      27.483 -10.686  -4.929  0.00  0.00     0.030 C 
ATOM     10  C   UNL d   1      26.217 -12.026  -2.724  0.00  0.00     0.014 C 
ATOM     11  C   UNL d   1      25.678 -12.021  -3.949  0.00  0.00     0.001 C 
ATOM     12  C   UNL d   1      26.295 -11.312  -5.043  0.00  0.00     0.002 C 
ENDBRANCH   2   3
ENDBRANCH   1   2
BRANCH   1  13
ATOM     13  C   UNL d   1      28.898 -14.820   0.444  0.00  0.00     0.201 C 
BRANCH  13  14
ATOM     14  O   UNL d   1      27.483 -14.886   0.499  0.00  0.00    -0.348 OA
BRANCH  14  15
ATOM     15  C   UNL d   1      26.854 -16.064   0.237  0.00  0.00     0.087 C 
ATOM     16  C   UNL d   1      27.634 -17.172   0.535  0.00  0.00     0.152 C 
ATOM     17  N   UNL d   1      27.200 -18.439   0.553  0.00  0.00    -0.269 NA
ATOM     18  C   UNL d   1      25.896 -18.604   0.250  0.00  0.00     0.128 C 
ATOM     19  C   UNL d   1      25.062 -17.584  -0.218  0.00  0.00    -0.006 C 
ATOM     20  C   UNL d   1      25.584 -16.287  -0.271  0.00  0.00     0.052 C 
BRANCH  19  21
ATOM     21  C   UNL d   1      23.635 -17.793  -0.419  0.00  0.00    -0.023 C 
ATOM     22  C   UNL d   1      22.763 -16.779  -0.884  0.00  0.00     0.014 C 
ATOM     23  C   UNL d   1      21.422 -17.080  -1.170  0.00  0.00     0.028 C 
ATOM     24  C   UNL d   1      20.989 -18.345  -0.839  0.00  0.00     0.059 C 
ATOM     25  C   UNL d   1      21.775 -19.230  -0.112  0.00  0.00     0.060 C 
ATOM     26  N   UNL d   1      19.858 -19.087  -1.270  0.00  0.00    -0.149 NA
ATOM     27  C   UNL d   1      23.122 -19.052  -0.075  0.00  0.00     0.040 C 
ATOM     28  N   UNL d   1      21.014 -20.389   0.168  0.00  0.00    -0.149 NA
ATOM     29  O   UNL d   1      20.077 -20.451  -0.895  0.00  0.00    -0.202 OA
ATOM     30  H   UNL d   1      20.399 -20.123   0.950  0.00  0.00     0.162 HD
ATOM     31  H   UNL d   1      19.017 -18.774  -0.801  0.00  0.00     0.162 HD
ENDBRANCH  19  21
ENDBRANCH  14  15
ENDBRANCH  13  14
ENDBRANCH   1  13
BRANCH   1  32
ATOM     32  N   UNL d   1      29.937 -14.018  -1.717  0.00  0.00    -0.383 N 
ATOM     33  H   UNL d   1      30.926 -14.094  -1.942  0.00  0.00     0.160 HD
BRANCH  32  34
ATOM     34  C   UNL d   1      29.001 -14.478  -2.666  0.00  0.00     0.030 C 
ATOM     35  C   UNL d   1      29.397 -14.575  -4.036  0.00  0.00     0.031 C 
ATOM     36  C   UNL d   1      28.621 -14.959  -5.131  0.00  0.00     0.039 C 
ATOM     37  C   UNL d   1      27.307 -15.197  -4.790  0.00  0.00     0.117 C 
ATOM     38  N   UNL d   1      26.319 -15.576  -5.600  0.00  0.00    -0.103 NA
ATOM     39  C   UNL d   1      26.802 -15.055  -3.435  0.00  0.00     0.119 C 
ATOM     40  O   UNL d   1      25.172 -15.364  -4.862  0.00  0.00    -0.106 OA
ATOM     41  N   UNL d   1      25.464 -15.137  -3.519  0.00  0.00    -0.103 NA
ATOM     42  C   UNL d   1      27.666 -14.810  -2.322  0.00  0.00     0.065 C 
ENDBRANCH  32  34
ENDBRANCH   1  32
TORSDOF 8
ENDMDL
MODEL 6
REMARK VINA RESULT:   -33.332      3.354      8.732
REMARK INTER + INTRA:         -38.841
REMARK INTER:                 -35.718
REMARK INTRA:                  -3.122
REMARK CONF_INDEPENDENT:        2.386
REMARK UNBOUND:                -3.122
REMARK  8 active torsions:
REMARK  status: ('A' for Active; 'I' for Inactive)
REMARK    1  A    between atoms: C_9  and  C_10 
REMARK    2  A    between atoms: C_10  and  C_11 
REMARK    3  A    between atoms: C_11  and  C_12 
REMARK    4  A    between atoms: C_11  and  N_29 
REMARK    5  A    between atoms: C_12  and  O_13 
REMARK    6  A    between atoms: O_13  and  C_14 
REMARK    7  A    between atoms: C_18  and  C_19 
REMARK    8  A    between atoms: N_29  and  C_30 
ROOT
ATOM      1  C   UNL d   1      25.505 -16.058  -1.309  0.00  0.00     0.110 C 
ENDROOT
BRANCH   1   2
ATOM      2  C   UNL d   1      26.014 -16.293  -2.753  0.00  0.00     0.064 C 
BRANCH   2   3
ATOM      3  C   UNL d   1      25.882 -15.069  -3.674  0.00  0.00    -0.048 A 
ATOM      4  C   UNL d   1      24.826 -14.032  -3.357  0.00  0.00     0.155 A 
ATOM      5  N   UNL d   1      25.186 -12.933  -4.270  0.00  0.00    -0.385 N 
ATOM      6  C   UNL d   1      26.225 -13.261  -4.965  0.00  0.00     0.038 A 
ATOM      7  H   UNL d   1      24.743 -12.028  -4.351  0.00  0.00     0.160 HD
ATOM      8  C   UNL d   1      26.665 -14.644  -4.699  0.00  0.00    -0.006 A 
ATOM      9  C   UNL d   1      27.010 -12.418  -5.881  0.00  0.00     0.030 C 
ATOM     10  C   UNL d   1      27.873 -15.108  -5.351  0.00  0.00     0.014 C 
ATOM     11  C   UNL d   1      28.612 -14.261  -6.077  0.00  0.00     0.001 C 
ATOM     12  C   UNL d   1      28.156 -12.926  -6.376  0.00  0.00     0.002 C 
ENDBRANCH   2   3
ENDBRANCH   1   2
BRANCH   1  13
ATOM     13  C   UNL d   1      26.267 -14.838  -0.684  0.00  0.00     0.201 C 
BRANCH  13  14
ATOM     14  O   UNL d   1      27.609 -14.644  -1.096  0.00  0.00    -0.348 OA
BRANCH  14  15
ATOM     15  C   UNL d   1      27.981 -13.455  -1.643  0.00  0.00     0.087 C 
ATOM     16  C   UNL d   1      29.096 -13.561  -2.461  0.00  0.00     0.152 C 
ATOM     17  N   UNL d   1      29.557 -12.594  -3.266  0.00  0.00    -0.269 NA
ATOM     18  C   UNL d   1      28.851 -11.445  -3.246  0.00  0.00     0.128 C 
ATOM     19  C   UNL d   1      27.814 -11.174  -2.349  0.00  0.00    -0.006 C 
ATOM     20  C   UNL d   1      27.409 -12.202  -1.489  0.00  0.00     0.052 C 
BRANCH  19  21
ATOM     21  C   UNL d   1      27.011  -9.964  -2.449  0.00  0.00    -0.023 C 
ATOM     22  C   UNL d   1      26.992  -8.963  -1.447  0.00  0.00     0.014 C 
ATOM     23  C   UNL d   1      26.291  -7.766  -1.660  0.00  0.00     0.028 C 
ATOM     24  C   UNL d   1      25.527  -7.693  -2.804  0.00  0.00     0.059 C 
ATOM     25  C   UNL d   1      25.320  -8.792  -3.627  0.00  0.00     0.060 C 
ATOM     26  N   UNL d   1      24.984  -6.578  -3.494  0.00  0.00    -0.149 NA
ATOM     27  C   UNL d   1      26.187  -9.838  -3.577  0.00  0.00     0.040 C 
ATOM     28  N   UNL d   1      24.405  -8.432  -4.644  0.00  0.00    -0.149 NA
ATOM     29  O   UNL d   1      24.586  -7.034  -4.791  0.00  0.00    -0.202 OA
ATOM     30  H   UNL d   1      23.479  -8.459  -4.193  0.00  0.00     0.162 HD
ATOM     31  H   UNL d   1      24.157  -6.228  -3.028  0.00  0.00     0.162 HD
ENDBRANCH  19  21
ENDBRANCH  14  15
ENDBRANCH  13  14
ENDBRANCH   1  13
BRANCH   1  32
ATOM     32  N   UNL d   1      24.028 -15.909  -1.167  0.00  0.00    -0.383 N 
ATOM     33  H   UNL d   1      23.579 -15.038  -1.437  0.00  0.00     0.160 HD
BRANCH  32  34
ATOM     34  C   UNL d   1      23.207 -17.008  -0.841  0.00  0.00     0.030 C 
ATOM     35  C   UNL d   1      23.822 -18.248  -0.482  0.00  0.00     0.031 C 
ATOM     36  C   UNL d   1      23.202 -19.459  -0.171  0.00  0.00     0.039 C 
ATOM     37  C   UNL d   1      21.831 -19.401  -0.310  0.00  0.00     0.117 C 
ATOM     38  N   UNL d   1      20.957 -20.383  -0.092  0.00  0.00    -0.103 NA
ATOM     39  C   UNL d   1      21.128 -18.204  -0.737  0.00  0.00     0.119 C 
ATOM     40  O   UNL d   1      19.787 -19.932  -0.670  0.00  0.00    -0.106 OA
ATOM     41  N   UNL d   1      19.860 -18.575  -0.980  0.00  0.00    -0.103 NA
ATOM     42  C   UNL d   1      21.791 -16.946  -0.895  0.00  0.00     0.065 C 
ENDBRANCH  32  34
ENDBRANCH   1  32
TORSDOF 8
ENDMDL
MODEL 7
REMARK VINA RESULT:   -33.299      1.976      2.972
REMARK INTER + INTRA:         -38.978
REMARK INTER:                 -35.685
REMARK INTRA:                  -3.293
REMARK CONF_INDEPENDENT:        2.386
REMARK UNBOUND:                -3.293
REMARK  8 active torsions:
REMARK  status: ('A' for Active; 'I' for Inactive)
REMARK    1  A    between atoms: C_9  and  C_10 
REMARK    2  A    between atoms: C_10  and  C_11 
REMARK    3  A    between atoms: C_11  and  C_12 
REMARK    4  A    between atoms: C_11  and  N_29 
REMARK    5  A    between atoms: C_12  and  O_13 
REMARK    6  A    between atoms: O_13  and  C_14 
REMARK    7  A    between atoms: C_18  and  C_19 
REMARK    8  A    between atoms: N_29  and  C_30 
ROOT
ATOM      1  C   UNL d   1      30.328 -15.422  -3.021  0.00  0.00     0.110 C 
ENDROOT
BRANCH   1   2
ATOM      2  C   UNL d   1      30.617 -14.301  -1.993  0.00  0.00     0.064 C 
BRANCH   2   3
ATOM      3  C   UNL d   1      30.282 -14.677  -0.540  0.00  0.00    -0.048 A 
ATOM      4  C   UNL d   1      31.359 -15.316   0.311  0.00  0.00     0.155 A 
ATOM      5  N   UNL d   1      30.758 -15.273   1.655  0.00  0.00    -0.385 N 
ATOM      6  C   UNL d   1      29.586 -14.730   1.597  0.00  0.00     0.038 A 
ATOM      7  H   UNL d   1      31.171 -15.577   2.527  0.00  0.00     0.160 HD
ATOM      8  C   UNL d   1      29.185 -14.408   0.214  0.00  0.00    -0.006 A 
ATOM      9  C   UNL d   1      28.702 -14.352   2.711  0.00  0.00     0.030 C 
ATOM     10  C   UNL d   1      27.929 -13.715   0.017  0.00  0.00     0.014 C 
ATOM     11  C   UNL d   1      27.223 -13.288   1.072  0.00  0.00     0.001 C 
ATOM     12  C   UNL d   1      27.592 -13.646   2.420  0.00  0.00     0.002 C 
ENDBRANCH   2   3
ENDBRANCH   1   2
BRANCH   1  13
ATOM     13  C   UNL d   1      29.424 -16.515  -2.354  0.00  0.00     0.201 C 
BRANCH  13  14
ATOM     14  O   UNL d   1      28.158 -16.093  -1.878  0.00  0.00    -0.348 OA
BRANCH  14  15
ATOM     15  C   UNL d   1      27.345 -16.982  -1.246  0.00  0.00     0.087 C 
ATOM     16  C   UNL d   1      27.996 -17.702  -0.255  0.00  0.00     0.152 C 
ATOM     17  N   UNL d   1      27.397 -18.498   0.640  0.00  0.00    -0.269 NA
ATOM     18  C   UNL d   1      26.055 -18.579   0.530  0.00  0.00     0.128 C 
ATOM     19  C   UNL d   1      25.318 -18.028  -0.522  0.00  0.00    -0.006 C 
ATOM     20  C   UNL d   1      26.002 -17.251  -1.463  0.00  0.00     0.052 C 
BRANCH  19  21
ATOM     21  C   UNL d   1      23.861 -18.046  -0.528  0.00  0.00    -0.023 C 
ATOM     22  C   UNL d   1      23.075 -16.898  -0.787  0.00  0.00     0.014 C 
ATOM     23  C   UNL d   1      21.680 -17.009  -0.895  0.00  0.00     0.028 C 
ATOM     24  C   UNL d   1      21.133 -18.238  -0.598  0.00  0.00     0.059 C 
ATOM     25  C   UNL d   1      21.887 -19.273  -0.060  0.00  0.00     0.060 C 
ATOM     26  N   UNL d   1      19.868 -18.797  -0.914  0.00  0.00    -0.149 NA
ATOM     27  C   UNL d   1      23.239 -19.261  -0.206  0.00  0.00     0.040 C 
ATOM     28  N   UNL d   1      21.026 -20.353   0.243  0.00  0.00    -0.149 NA
ATOM     29  O   UNL d   1      19.954 -20.206  -0.675  0.00  0.00    -0.202 OA
ATOM     30  H   UNL d   1      20.562 -20.088   1.123  0.00  0.00     0.162 HD
ATOM     31  H   UNL d   1      19.146 -18.430  -0.306  0.00  0.00     0.162 HD
ENDBRANCH  19  21
ENDBRANCH  14  15
ENDBRANCH  13  14
ENDBRANCH   1  13
BRANCH   1  32
ATOM     32  N   UNL d   1      29.762 -14.966  -4.324  0.00  0.00    -0.383 N 
ATOM     33  H   UNL d   1      30.235 -15.204  -5.191  0.00  0.00     0.160 HD
BRANCH  32  34
ATOM     34  C   UNL d   1      28.485 -14.372  -4.402  0.00  0.00     0.030 C 
ATOM     35  C   UNL d   1      28.348 -12.986  -4.079  0.00  0.00     0.031 C 
ATOM     36  C   UNL d   1      27.181 -12.220  -4.047  0.00  0.00     0.039 C 
ATOM     37  C   UNL d   1      26.052 -12.968  -4.305  0.00  0.00     0.117 C 
ATOM     38  N   UNL d   1      24.792 -12.537  -4.347  0.00  0.00    -0.103 NA
ATOM     39  C   UNL d   1      26.092 -14.396  -4.575  0.00  0.00     0.119 C 
ATOM     40  O   UNL d   1      24.035 -13.692  -4.316  0.00  0.00    -0.106 OA
ATOM     41  N   UNL d   1      24.818 -14.821  -4.547  0.00  0.00    -0.103 NA
ATOM     42  C   UNL d   1      27.322 -15.104  -4.748  0.00  0.00     0.065 C 
ENDBRANCH  32  34
ENDBRANCH   1  32
TORSDOF 8
ENDMDL
MODEL 8
REMARK VINA RESULT:   -33.028      2.675      7.871
REMARK INTER + INTRA:         -38.961
REMARK INTER:                 -35.414
REMARK INTRA:                  -3.547
REMARK CONF_INDEPENDENT:        2.386
REMARK UNBOUND:                -3.547
REMARK  8 active torsions:
REMARK  status: ('A' for Active; 'I' for Inactive)
REMARK    1  A    between atoms: C_9  and  C_10 
REMARK    2  A    between atoms: C_10  and  C_11 
REMARK    3  A    between atoms: C_11  and  C_12 
REMARK    4  A    between atoms: C_11  and  N_29 
REMARK    5  A    between atoms: C_12  and  O_13 
REMARK    6  A    between atoms: O_13  and  C_14 
REMARK    7  A    between atoms: C_18  and  C_19 
REMARK    8  A    between atoms: N_29  and  C_30 
ROOT
ATOM      1  C   UNL d   1      25.989 -17.173  -0.682  0.00  0.00     0.110 C 
ENDROOT
BRANCH   1   2
ATOM      2  C   UNL d   1      25.500 -15.726  -0.934  0.00  0.00     0.064 C 
BRANCH   2   3
ATOM      3  C   UNL d   1      25.577 -15.281  -2.404  0.00  0.00    -0.048 A 
ATOM      4  C   UNL d   1      24.449 -14.444  -2.968  0.00  0.00     0.155 A 
ATOM      5  N   UNL d   1      25.002 -14.012  -4.264  0.00  0.00    -0.385 N 
ATOM      6  C   UNL d   1      26.191 -14.495  -4.418  0.00  0.00     0.038 A 
ATOM      7  H   UNL d   1      24.572 -13.403  -4.947  0.00  0.00     0.160 HD
ATOM      8  C   UNL d   1      26.583 -15.386  -3.309  0.00  0.00    -0.006 A 
ATOM      9  C   UNL d   1      27.161 -14.200  -5.484  0.00  0.00     0.030 C 
ATOM     10  C   UNL d   1      27.927 -15.925  -3.316  0.00  0.00     0.014 C 
ATOM     11  C   UNL d   1      28.806 -15.528  -4.245  0.00  0.00     0.001 C 
ATOM     12  C   UNL d   1      28.408 -14.697  -5.354  0.00  0.00     0.002 C 
ENDBRANCH   2   3
ENDBRANCH   1   2
BRANCH   1  13
ATOM     13  C   UNL d   1      27.438 -17.133  -0.082  0.00  0.00     0.201 C 
BRANCH  13  14
ATOM     14  O   UNL d   1      27.711 -16.108   0.858  0.00  0.00    -0.348 OA
BRANCH  14  15
ATOM     15  C   UNL d   1      28.208 -14.917   0.430  0.00  0.00     0.087 C 
ATOM     16  C   UNL d   1      29.595 -14.872   0.447  0.00  0.00     0.152 C 
ATOM     17  N   UNL d   1      30.342 -13.901  -0.096  0.00  0.00    -0.269 NA
ATOM     18  C   UNL d   1      29.650 -12.909  -0.692  0.00  0.00     0.128 C 
ATOM     19  C   UNL d   1      28.260 -12.771  -0.629  0.00  0.00    -0.006 C 
ATOM     20  C   UNL d   1      27.531 -13.786  -0.000  0.00  0.00     0.052 C 
BRANCH  19  21
ATOM     21  C   UNL d   1      27.558 -11.746  -1.388  0.00  0.00    -0.023 C 
ATOM     22  C   UNL d   1      27.389 -10.419  -0.924  0.00  0.00     0.014 C 
ATOM     23  C   UNL d   1      26.807  -9.450  -1.755  0.00  0.00     0.028 C 
ATOM     24  C   UNL d   1      26.294  -9.893  -2.955  0.00  0.00     0.059 C 
ATOM     25  C   UNL d   1      26.201 -11.244  -3.266  0.00  0.00     0.060 C 
ATOM     26  N   UNL d   1      25.960  -9.193  -4.143  0.00  0.00    -0.149 NA
ATOM     27  C   UNL d   1      26.986 -12.137  -2.608  0.00  0.00     0.040 C 
ATOM     28  N   UNL d   1      25.530 -11.380  -4.504  0.00  0.00    -0.149 NA
ATOM     29  O   UNL d   1      25.809 -10.166  -5.182  0.00  0.00    -0.202 OA
ATOM     30  H   UNL d   1      24.532 -11.250  -4.283  0.00  0.00     0.162 HD
ATOM     31  H   UNL d   1      25.075  -8.712  -4.046  0.00  0.00     0.162 HD
ENDBRANCH  19  21
ENDBRANCH  14  15
ENDBRANCH  13  14
ENDBRANCH   1  13
BRANCH   1  32
ATOM     32  N   UNL d   1      25.081 -18.022   0.143  0.00  0.00    -0.383 N 
ATOM     33  H   UNL d   1      25.391 -18.360   1.050  0.00  0.00     0.160 HD
BRANCH  32  34
ATOM     34  C   UNL d   1      23.732 -18.218  -0.215  0.00  0.00     0.030 C 
ATOM     35  C   UNL d   1      22.936 -17.082  -0.558  0.00  0.00     0.031 C 
ATOM     36  C   UNL d   1      21.581 -17.049  -0.895  0.00  0.00     0.039 C 
ATOM     37  C   UNL d   1      20.984 -18.288  -0.803  0.00  0.00     0.117 C 
ATOM     38  N   UNL d   1      19.711 -18.590  -1.054  0.00  0.00    -0.103 NA
ATOM     39  C   UNL d   1      21.701 -19.485  -0.394  0.00  0.00     0.119 C 
ATOM     40  O   UNL d   1      19.546 -19.850  -0.515  0.00  0.00    -0.106 OA
ATOM     41  N   UNL d   1      20.771 -20.434  -0.196  0.00  0.00    -0.103 NA
ATOM     42  C   UNL d   1      23.119 -19.497  -0.209  0.00  0.00     0.065 C 
ENDBRANCH  32  34
ENDBRANCH   1  32
TORSDOF 8
ENDMDL
MODEL 9
REMARK VINA RESULT:   -32.818      3.159      8.045
REMARK INTER + INTRA:         -38.877
REMARK INTER:                 -35.205
REMARK INTRA:                  -3.673
REMARK CONF_INDEPENDENT:        2.386
REMARK UNBOUND:                -3.673
REMARK  8 active torsions:
REMARK  status: ('A' for Active; 'I' for Inactive)
REMARK    1  A    between atoms: C_9  and  C_10 
REMARK    2  A    between atoms: C_10  and  C_11 
REMARK    3  A    between atoms: C_11  and  C_12 
REMARK    4  A    between atoms: C_11  and  N_29 
REMARK    5  A    between atoms: C_12  and  O_13 
REMARK    6  A    between atoms: O_13  and  C_14 
REMARK    7  A    between atoms: C_18  and  C_19 
REMARK    8  A    between atoms: N_29  and  C_30 
ROOT
ATOM      1  C   UNL d   1      26.065 -16.897  -0.462  0.00  0.00     0.110 C 
ENDROOT
BRANCH   1   2
ATOM      2  C   UNL d   1      27.578 -17.209  -0.370  0.00  0.00     0.064 C 
BRANCH   2   3
ATOM      3  C   UNL d   1      28.475 -16.203  -1.110  0.00  0.00    -0.048 A 
ATOM      4  C   UNL d   1      29.559 -16.733  -2.024  0.00  0.00     0.155 A 
ATOM      5  N   UNL d   1      29.997 -15.513  -2.726  0.00  0.00    -0.385 N 
ATOM      6  C   UNL d   1      29.316 -14.497  -2.308  0.00  0.00     0.038 A 
ATOM      7  H   UNL d   1      30.694 -15.437  -3.455  0.00  0.00     0.160 HD
ATOM      8  C   UNL d   1      28.391 -14.852  -1.214  0.00  0.00    -0.006 A 
ATOM      9  C   UNL d   1      29.316 -13.123  -2.836  0.00  0.00     0.030 C 
ATOM     10  C   UNL d   1      27.506 -13.821  -0.714  0.00  0.00     0.014 C 
ATOM     11  C   UNL d   1      27.463 -12.623  -1.312  0.00  0.00     0.001 C 
ATOM     12  C   UNL d   1      28.401 -12.263  -2.347  0.00  0.00     0.002 C 
ENDBRANCH   2   3
ENDBRANCH   1   2
BRANCH   1  13
ATOM     13  C   UNL d   1      25.647 -16.797  -1.970  0.00  0.00     0.201 C 
BRANCH  13  14
ATOM     14  O   UNL d   1      24.961 -15.622  -2.365  0.00  0.00    -0.348 OA
BRANCH  14  15
ATOM     15  C   UNL d   1      25.441 -14.877  -3.397  0.00  0.00     0.087 C 
ATOM     16  C   UNL d   1      24.792 -13.658  -3.532  0.00  0.00     0.152 C 
ATOM     17  N   UNL d   1      25.185 -12.659  -4.334  0.00  0.00    -0.269 NA
ATOM     18  C   UNL d   1      26.302 -12.903  -5.050  0.00  0.00     0.128 C 
ATOM     19  C   UNL d   1      26.941 -14.145  -5.113  0.00  0.00    -0.006 C 
ATOM     20  C   UNL d   1      26.455 -15.172  -4.295  0.00  0.00     0.052 C 
BRANCH  19  21
ATOM     21  C   UNL d   1      28.208 -14.320  -5.808  0.00  0.00    -0.023 C 
ATOM     22  C   UNL d   1      28.796 -13.311  -6.610  0.00  0.00     0.014 C 
ATOM     23  C   UNL d   1      30.075 -13.500  -7.155  0.00  0.00     0.028 C 
ATOM     24  C   UNL d   1      30.640 -14.746  -6.988  0.00  0.00     0.059 C 
ATOM     25  C   UNL d   1      29.930 -15.815  -6.458  0.00  0.00     0.060 C 
ATOM     26  N   UNL d   1      31.986 -15.182  -7.092  0.00  0.00    -0.149 NA
ATOM     27  C   UNL d   1      28.824 -15.575  -5.703  0.00  0.00     0.040 C 
ATOM     28  N   UNL d   1      30.737 -16.975  -6.525  0.00  0.00    -0.149 NA
ATOM     29  O   UNL d   1      32.063 -16.474  -6.481  0.00  0.00    -0.202 OA
ATOM     30  H   UNL d   1      30.681 -17.283  -7.505  0.00  0.00     0.162 HD
ATOM     31  H   UNL d   1      32.262 -15.286  -8.060  0.00  0.00     0.162 HD
ENDBRANCH  19  21
ENDBRANCH  14  15
ENDBRANCH  13  14
ENDBRANCH   1  13
BRANCH   1  32
ATOM     32  N   UNL d   1      25.172 -17.827   0.290  0.00  0.00    -0.383 N 
ATOM     33  H   UNL d   1      25.467 -18.193   1.191  0.00  0.00     0.160 HD
BRANCH  32  34
ATOM     34  C   UNL d   1      23.846 -18.069  -0.125  0.00  0.00     0.030 C 
ATOM     35  C   UNL d   1      23.027 -16.959  -0.501  0.00  0.00     0.031 C 
ATOM     36  C   UNL d   1      21.688 -16.972  -0.895  0.00  0.00     0.039 C 
ATOM     37  C   UNL d   1      21.130 -18.231  -0.828  0.00  0.00     0.117 C 
ATOM     38  N   UNL d   1      19.880 -18.575  -1.133  0.00  0.00    -0.103 NA
ATOM     39  C   UNL d   1      21.869 -19.403  -0.390  0.00  0.00     0.119 C 
ATOM     40  O   UNL d   1      19.735 -19.841  -0.601  0.00  0.00    -0.106 OA
ATOM     41  N   UNL d   1      20.965 -20.383  -0.231  0.00  0.00    -0.103 NA
ATOM     42  C   UNL d   1      23.278 -19.367  -0.145  0.00  0.00     0.065 C 
ENDBRANCH  32  34
ENDBRANCH   1  32
TORSDOF 8
ENDMDL
