MODEL 1
REMARK VINA RESULT:    -9.521      0.000      0.000
REMARK INTER + INTRA:         -12.206
REMARK INTER:                 -11.311
REMARK INTRA:                  -0.894
REMARK CONF_INDEPENDENT:        1.790
REMARK UNBOUND:                -0.894
REMARK  6 active torsions:
REMARK  status: ('A' for Active; 'I' for Inactive)
REMARK    1  A    between atoms: O_2  and  C_3 
REMARK       I    between atoms: C_3  and  N_5 
REMARK    2  A    between atoms: N_5  and  C_6 
REMARK    3  A    between atoms: C_9  and  C_10 
REMARK    4  A    between atoms: C_10  and  N_11 
REMARK       I    between atoms: N_11  and  C_12 
REMARK    5  A    between atoms: C_12  and  C_14 
REMARK       I    between atoms: C_14  and  N_16 
REMARK    6  A    between atoms: N_16  and  C_17 
ROOT
ATOM      1  N   UNL d   1      26.297 -15.709  -2.329  0.00  0.00    -0.349 N 
ATOM      2  C   UNL d   1      25.907 -15.130  -3.522  0.00  0.00     0.309 C 
ATOM      3  O   UNL d   1      24.906 -14.453  -3.700  0.00  0.00    -0.262 OA
ATOM      4  H   UNL d   1      27.184 -16.199  -2.374  0.00  0.00     0.163 HD
ENDROOT
BRANCH   1   5
ATOM      5  C   UNL d   1      25.568 -15.591  -1.074  0.00  0.00     0.161 C 
BRANCH   5   6
ATOM      6  C   UNL d   1      24.506 -16.653  -0.821  0.00  0.00    -0.040 A 
ATOM      7  C   UNL d   1      23.134 -16.324  -0.867  0.00  0.00     0.011 A 
ATOM      8  C   UNL d   1      22.136 -17.267  -0.522  0.00  0.00     0.030 A 
ATOM      9  C   UNL d   1      22.490 -18.568  -0.155  0.00  0.00     0.036 A 
ATOM     10  C   UNL d   1      23.842 -18.903  -0.145  0.00  0.00     0.030 A 
ATOM     11  C   UNL d   1      24.826 -17.973  -0.486  0.00  0.00     0.011 A 
BRANCH   9  12
ATOM     12  N   UNL d   1      21.521 -19.555   0.136  0.00  0.00    -0.303 N 
ATOM     13  C   UNL d   1      20.459 -19.850  -0.693  0.00  0.00     0.364 C 
ATOM     14  O   UNL d   1      20.291 -19.398  -1.828  0.00  0.00    -0.238 OA
ATOM     15  H   UNL d   1      21.624 -20.113   0.974  0.00  0.00     0.171 HD
BRANCH  13  16
ATOM     16  O   UNL d   1      19.614 -20.761  -0.135  0.00  0.00    -0.309 OA
ATOM     17  C   UNL d   1      18.898 -20.243   1.002  0.00  0.00     0.215 C 
ENDBRANCH  13  16
ENDBRANCH   9  12
ENDBRANCH   5   6
ENDBRANCH   1   5
BRANCH   2  18
ATOM     18  C   UNL d   1      26.888 -15.424  -4.694  0.00  0.00     0.313 C 
ATOM     19  O   UNL d   1      26.412 -15.513  -5.822  0.00  0.00    -0.262 OA
ATOM     20  N   UNL d   1      28.224 -15.603  -4.345  0.00  0.00    -0.319 N 
ATOM     21  H   UNL d   1      28.449 -15.648  -3.354  0.00  0.00     0.169 HD
BRANCH  20  22
ATOM     22  C   UNL d   1      29.271 -15.731  -5.292  0.00  0.00     0.036 A 
ATOM     23  C   UNL d   1      29.524 -14.724  -6.233  0.00  0.00     0.029 A 
ATOM     24  C   UNL d   1      30.498 -14.911  -7.230  0.00  0.00     0.004 A 
ATOM     25  C   UNL d   1      31.238 -16.092  -7.278  0.00  0.00     0.024 A 
ATOM     26  C   UNL d   1      30.985 -17.092  -6.345  0.00  0.00     0.036 A 
ATOM     27 CL   UNL d   1      31.820 -18.593  -6.444  0.00  0.00    -0.084 Cl
ATOM     28  C   UNL d   1      30.018 -16.911  -5.356  0.00  0.00     0.053 A 
ENDBRANCH  20  22
ENDBRANCH   2  18
TORSDOF 6
ENDMDL
MODEL 2
REMARK VINA RESULT:    -9.029      5.303      7.384
REMARK INTER + INTRA:         -12.463
REMARK INTER:                 -10.819
REMARK INTRA:                  -1.643
REMARK CONF_INDEPENDENT:        1.790
REMARK UNBOUND:                -1.643
REMARK  6 active torsions:
REMARK  status: ('A' for Active; 'I' for Inactive)
REMARK    1  A    between atoms: O_2  and  C_3 
REMARK       I    between atoms: C_3  and  N_5 
REMARK    2  A    between atoms: N_5  and  C_6 
REMARK    3  A    between atoms: C_9  and  C_10 
REMARK    4  A    between atoms: C_10  and  N_11 
REMARK       I    between atoms: N_11  and  C_12 
REMARK    5  A    between atoms: C_12  and  C_14 
REMARK       I    between atoms: C_14  and  N_16 
REMARK    6  A    between atoms: N_16  and  C_17 
ROOT
ATOM      1  N   UNL d   1      26.273 -15.034   0.014  0.00  0.00    -0.349 N 
ATOM      2  C   UNL d   1      27.407 -15.278   0.766  0.00  0.00     0.309 C 
ATOM      3  O   UNL d   1      28.200 -16.191   0.597  0.00  0.00    -0.262 OA
ATOM      4  H   UNL d   1      25.764 -14.200   0.284  0.00  0.00     0.163 HD
ENDROOT
BRANCH   1   5
ATOM      5  C   UNL d   1      25.845 -15.839  -1.122  0.00  0.00     0.161 C 
BRANCH   5   6
ATOM      6  C   UNL d   1      24.683 -16.789  -0.863  0.00  0.00    -0.040 A 
ATOM      7  C   UNL d   1      23.351 -16.321  -0.887  0.00  0.00     0.011 A 
ATOM      8  C   UNL d   1      22.267 -17.159  -0.534  0.00  0.00     0.030 A 
ATOM      9  C   UNL d   1      22.491 -18.493  -0.182  0.00  0.00     0.036 A 
ATOM     10  C   UNL d   1      23.801 -18.964  -0.193  0.00  0.00     0.030 A 
ATOM     11  C   UNL d   1      24.871 -18.137  -0.541  0.00  0.00     0.011 A 
BRANCH   9  12
ATOM     12  N   UNL d   1      21.429 -19.378   0.115  0.00  0.00    -0.303 N 
ATOM     13  C   UNL d   1      20.440 -19.713  -0.785  0.00  0.00     0.364 C 
ATOM     14  O   UNL d   1      20.421 -19.398  -1.977  0.00  0.00    -0.238 OA
ATOM     15  H   UNL d   1      21.406 -19.831   1.020  0.00  0.00     0.171 HD
BRANCH  13  16
ATOM     16  O   UNL d   1      19.479 -20.496  -0.219  0.00  0.00    -0.309 OA
ATOM     17  C   UNL d   1      19.010 -19.989   1.044  0.00  0.00     0.215 C 
ENDBRANCH  13  16
ENDBRANCH   9  12
ENDBRANCH   5   6
ENDBRANCH   1   5
BRANCH   2  18
ATOM     18  C   UNL d   1      27.612 -14.247   1.914  0.00  0.00     0.313 C 
ATOM     19  O   UNL d   1      27.119 -13.133   1.770  0.00  0.00    -0.262 OA
ATOM     20  N   UNL d   1      28.382 -14.676   2.993  0.00  0.00    -0.319 N 
ATOM     21  H   UNL d   1      28.850 -15.575   2.908  0.00  0.00     0.169 HD
BRANCH  20  22
ATOM     22  C   UNL d   1      28.547 -13.926   4.184  0.00  0.00     0.036 A 
ATOM     23  C   UNL d   1      28.642 -14.559   5.431  0.00  0.00     0.029 A 
ATOM     24  C   UNL d   1      28.702 -13.797   6.612  0.00  0.00     0.004 A 
ATOM     25  C   UNL d   1      28.692 -12.403   6.551  0.00  0.00     0.024 A 
ATOM     26  C   UNL d   1      28.597 -11.777   5.313  0.00  0.00     0.036 A 
ATOM     27 CL   UNL d   1      28.488 -10.062   5.223  0.00  0.00    -0.084 Cl
ATOM     28  C   UNL d   1      28.535 -12.529   4.141  0.00  0.00     0.053 A 
ENDBRANCH  20  22
ENDBRANCH   2  18
TORSDOF 6
ENDMDL
MODEL 3
REMARK VINA RESULT:    -8.873      5.395      7.370
REMARK INTER + INTRA:         -12.460
REMARK INTER:                 -10.663
REMARK INTRA:                  -1.797
REMARK CONF_INDEPENDENT:        1.790
REMARK UNBOUND:                -1.797
REMARK  6 active torsions:
REMARK  status: ('A' for Active; 'I' for Inactive)
REMARK    1  A    between atoms: O_2  and  C_3 
REMARK       I    between atoms: C_3  and  N_5 
REMARK    2  A    between atoms: N_5  and  C_6 
REMARK    3  A    between atoms: C_9  and  C_10 
REMARK    4  A    between atoms: C_10  and  N_11 
REMARK       I    between atoms: N_11  and  C_12 
REMARK    5  A    between atoms: C_12  and  C_14 
REMARK       I    between atoms: C_14  and  N_16 
REMARK    6  A    between atoms: N_16  and  C_17 
ROOT
ATOM      1  N   UNL d   1      26.437 -15.019  -0.149  0.00  0.00    -0.349 N 
ATOM      2  C   UNL d   1      27.153 -15.436   0.958  0.00  0.00     0.309 C 
ATOM      3  O   UNL d   1      27.534 -16.574   1.181  0.00  0.00    -0.262 OA
ATOM      4  H   UNL d   1      26.250 -14.022  -0.174  0.00  0.00     0.163 HD
ENDROOT
BRANCH   1   5
ATOM      5  C   UNL d   1      26.026 -15.886  -1.244  0.00  0.00     0.161 C 
BRANCH   5   6
ATOM      6  C   UNL d   1      24.851 -16.811  -0.953  0.00  0.00    -0.040 A 
ATOM      7  C   UNL d   1      23.523 -16.341  -1.054  0.00  0.00     0.011 A 
ATOM      8  C   UNL d   1      22.423 -17.147  -0.677  0.00  0.00     0.030 A 
ATOM      9  C   UNL d   1      22.627 -18.452  -0.221  0.00  0.00     0.036 A 
ATOM     10  C   UNL d   1      23.934 -18.928  -0.155  0.00  0.00     0.030 A 
ATOM     11  C   UNL d   1      25.020 -18.132  -0.528  0.00  0.00     0.011 A 
BRANCH   9  12
ATOM     12  N   UNL d   1      21.552 -19.309   0.106  0.00  0.00    -0.303 N 
ATOM     13  C   UNL d   1      20.586 -19.700  -0.797  0.00  0.00     0.364 C 
ATOM     14  O   UNL d   1      20.603 -19.468  -2.008  0.00  0.00    -0.238 OA
ATOM     15  H   UNL d   1      21.500 -19.699   1.039  0.00  0.00     0.171 HD
BRANCH  13  16
ATOM     16  O   UNL d   1      19.604 -20.438  -0.206  0.00  0.00    -0.309 OA
ATOM     17  C   UNL d   1      19.129 -19.861   1.024  0.00  0.00     0.215 C 
ENDBRANCH  13  16
ENDBRANCH   9  12
ENDBRANCH   5   6
ENDBRANCH   1   5
BRANCH   2  18
ATOM     18  C   UNL d   1      27.454 -14.284   1.961  0.00  0.00     0.313 C 
ATOM     19  O   UNL d   1      27.105 -13.151   1.644  0.00  0.00    -0.262 OA
ATOM     20  N   UNL d   1      28.137 -14.644   3.120  0.00  0.00    -0.319 N 
ATOM     21  H   UNL d   1      28.493 -15.595   3.180  0.00  0.00     0.169 HD
BRANCH  20  22
ATOM     22  C   UNL d   1      28.362 -13.758   4.203  0.00  0.00     0.036 A 
ATOM     23  C   UNL d   1      28.517 -12.381   3.992  0.00  0.00     0.029 A 
ATOM     24  C   UNL d   1      28.842 -11.529   5.063  0.00  0.00     0.004 A 
ATOM     25  C   UNL d   1      28.990 -12.045   6.351  0.00  0.00     0.024 A 
ATOM     26  C   UNL d   1      28.838 -13.411   6.559  0.00  0.00     0.036 A 
ATOM     27 CL   UNL d   1      29.109 -14.080   8.122  0.00  0.00    -0.084 Cl
ATOM     28  C   UNL d   1      28.518 -14.258   5.499  0.00  0.00     0.053 A 
ENDBRANCH  20  22
ENDBRANCH   2  18
TORSDOF 6
ENDMDL
MODEL 4
REMARK VINA RESULT:    -8.751      2.189      2.696
REMARK INTER + INTRA:         -11.327
REMARK INTER:                 -10.541
REMARK INTRA:                  -0.786
REMARK CONF_INDEPENDENT:        1.790
REMARK UNBOUND:                -0.786
REMARK  6 active torsions:
REMARK  status: ('A' for Active; 'I' for Inactive)
REMARK    1  A    between atoms: O_2  and  C_3 
REMARK       I    between atoms: C_3  and  N_5 
REMARK    2  A    between atoms: N_5  and  C_6 
REMARK    3  A    between atoms: C_9  and  C_10 
REMARK    4  A    between atoms: C_10  and  N_11 
REMARK       I    between atoms: N_11  and  C_12 
REMARK    5  A    between atoms: C_12  and  C_14 
REMARK       I    between atoms: C_14  and  N_16 
REMARK    6  A    between atoms: N_16  and  C_17 
ROOT
ATOM      1  N   UNL d   1      26.887 -15.094  -2.431  0.00  0.00    -0.349 N 
ATOM      2  C   UNL d   1      26.115 -14.781  -3.535  0.00  0.00     0.309 C 
ATOM      3  O   UNL d   1      24.919 -14.534  -3.529  0.00  0.00    -0.262 OA
ATOM      4  H   UNL d   1      27.871 -15.226  -2.635  0.00  0.00     0.163 HD
ENDROOT
BRANCH   1   5
ATOM      5  C   UNL d   1      26.386 -15.170  -1.066  0.00  0.00     0.161 C 
BRANCH   5   6
ATOM      6  C   UNL d   1      25.329 -16.235  -0.804  0.00  0.00    -0.040 A 
ATOM      7  C   UNL d   1      25.692 -17.497  -0.286  0.00  0.00     0.011 A 
ATOM      8  C   UNL d   1      24.745 -18.539  -0.145  0.00  0.00     0.030 A 
ATOM      9  C   UNL d   1      23.407 -18.328  -0.490  0.00  0.00     0.036 A 
ATOM     10  C   UNL d   1      23.042 -17.072  -0.968  0.00  0.00     0.030 A 
ATOM     11  C   UNL d   1      23.977 -16.044  -1.106  0.00  0.00     0.011 A 
BRANCH   9  12
ATOM     12  N   UNL d   1      22.419 -19.322  -0.306  0.00  0.00    -0.303 N 
ATOM     13  C   UNL d   1      21.095 -19.156  -0.651  0.00  0.00     0.364 C 
ATOM     14  O   UNL d   1      20.632 -18.195  -1.270  0.00  0.00    -0.238 OA
ATOM     15  H   UNL d   1      22.694 -20.226   0.058  0.00  0.00     0.171 HD
BRANCH  13  16
ATOM     16  O   UNL d   1      20.332 -20.220  -0.273  0.00  0.00    -0.309 OA
ATOM     17  C   UNL d   1      19.006 -19.843   0.143  0.00  0.00     0.215 C 
ENDBRANCH  13  16
ENDBRANCH   9  12
ENDBRANCH   5   6
ENDBRANCH   1   5
BRANCH   2  18
ATOM     18  C   UNL d   1      26.924 -14.771  -4.864  0.00  0.00     0.313 C 
ATOM     19  O   UNL d   1      26.601 -15.578  -5.731  0.00  0.00    -0.262 OA
ATOM     20  N   UNL d   1      27.980 -13.865  -4.931  0.00  0.00    -0.319 N 
ATOM     21  H   UNL d   1      28.224 -13.364  -4.081  0.00  0.00     0.169 HD
BRANCH  20  22
ATOM     22  C   UNL d   1      28.726 -13.619  -6.112  0.00  0.00     0.036 A 
ATOM     23  C   UNL d   1      30.080 -13.971  -6.200  0.00  0.00     0.029 A 
ATOM     24  C   UNL d   1      30.831 -13.626  -7.338  0.00  0.00     0.004 A 
ATOM     25  C   UNL d   1      30.229 -12.952  -8.401  0.00  0.00     0.024 A 
ATOM     26  C   UNL d   1      28.886 -12.602  -8.311  0.00  0.00     0.036 A 
ATOM     27 CL   UNL d   1      28.149 -11.688  -9.569  0.00  0.00    -0.084 Cl
ATOM     28  C   UNL d   1      28.139 -12.939  -7.183  0.00  0.00     0.053 A 
ENDBRANCH  20  22
ENDBRANCH   2  18
TORSDOF 6
ENDMDL
MODEL 5
REMARK VINA RESULT:    -8.536      4.217      5.245
REMARK INTER + INTRA:         -12.172
REMARK INTER:                 -10.326
REMARK INTRA:                  -1.846
REMARK CONF_INDEPENDENT:        1.790
REMARK UNBOUND:                -1.846
REMARK  6 active torsions:
REMARK  status: ('A' for Active; 'I' for Inactive)
REMARK    1  A    between atoms: O_2  and  C_3 
REMARK       I    between atoms: C_3  and  N_5 
REMARK    2  A    between atoms: N_5  and  C_6 
REMARK    3  A    between atoms: C_9  and  C_10 
REMARK    4  A    between atoms: C_10  and  N_11 
REMARK       I    between atoms: N_11  and  C_12 
REMARK    5  A    between atoms: C_12  and  C_14 
REMARK       I    between atoms: C_14  and  N_16 
REMARK    6  A    between atoms: N_16  and  C_17 
ROOT
ATOM      1  N   UNL d   1      26.314 -14.946  -1.930  0.00  0.00    -0.349 N 
ATOM      2  C   UNL d   1      25.735 -14.298  -3.006  0.00  0.00     0.309 C 
ATOM      3  O   UNL d   1      25.119 -14.827  -3.917  0.00  0.00    -0.262 OA
ATOM      4  H   UNL d   1      26.747 -14.327  -1.254  0.00  0.00     0.163 HD
ENDROOT
BRANCH   1   5
ATOM      5  C   UNL d   1      26.270 -16.385  -1.709  0.00  0.00     0.161 C 
BRANCH   5   6
ATOM      6  C   UNL d   1      24.946 -16.937  -1.196  0.00  0.00    -0.040 A 
ATOM      7  C   UNL d   1      24.868 -18.244  -0.669  0.00  0.00     0.011 A 
ATOM      8  C   UNL d   1      23.629 -18.817  -0.295  0.00  0.00     0.030 A 
ATOM      9  C   UNL d   1      22.447 -18.081  -0.410  0.00  0.00     0.036 A 
ATOM     10  C   UNL d   1      22.529 -16.779  -0.896  0.00  0.00     0.030 A 
ATOM     11  C   UNL d   1      23.751 -16.213  -1.264  0.00  0.00     0.011 A 
BRANCH   9  12
ATOM     12  N   UNL d   1      21.199 -18.595   0.011  0.00  0.00    -0.303 N 
ATOM     13  C   UNL d   1      20.352 -19.311  -0.810  0.00  0.00     0.364 C 
ATOM     14  O   UNL d   1      20.619 -19.699  -1.948  0.00  0.00    -0.238 OA
ATOM     15  H   UNL d   1      20.919 -18.477   0.977  0.00  0.00     0.171 HD
BRANCH  13  16
ATOM     16  O   UNL d   1      19.170 -19.598  -0.195  0.00  0.00    -0.309 OA
ATOM     17  C   UNL d   1      19.309 -20.550   0.876  0.00  0.00     0.215 C 
ENDBRANCH  13  16
ENDBRANCH   9  12
ENDBRANCH   5   6
ENDBRANCH   1   5
BRANCH   2  18
ATOM     18  C   UNL d   1      25.940 -12.755  -2.973  0.00  0.00     0.313 C 
ATOM     19  O   UNL d   1      26.548 -12.285  -2.016  0.00  0.00    -0.262 OA
ATOM     20  N   UNL d   1      25.372 -12.039  -4.023  0.00  0.00    -0.319 N 
ATOM     21  H   UNL d   1      24.770 -12.547  -4.667  0.00  0.00     0.169 HD
BRANCH  20  22
ATOM     22  C   UNL d   1      25.584 -10.653  -4.231  0.00  0.00     0.036 A 
ATOM     23  C   UNL d   1      25.905 -10.151  -5.499  0.00  0.00     0.029 A 
ATOM     24  C   UNL d   1      26.213  -8.789  -5.668  0.00  0.00     0.004 A 
ATOM     25  C   UNL d   1      26.179  -7.920  -4.577  0.00  0.00     0.024 A 
ATOM     26  C   UNL d   1      25.862  -8.419  -3.319  0.00  0.00     0.036 A 
ATOM     27 CL   UNL d   1      25.906  -7.384  -1.945  0.00  0.00    -0.084 Cl
ATOM     28  C   UNL d   1      25.558  -9.770  -3.148  0.00  0.00     0.053 A 
ENDBRANCH  20  22
ENDBRANCH   2  18
TORSDOF 6
ENDMDL
MODEL 6
REMARK VINA RESULT:    -8.415      2.901      3.529
REMARK INTER + INTRA:         -11.796
REMARK INTER:                 -10.205
REMARK INTRA:                  -1.591
REMARK CONF_INDEPENDENT:        1.790
REMARK UNBOUND:                -1.591
REMARK  6 active torsions:
REMARK  status: ('A' for Active; 'I' for Inactive)
REMARK    1  A    between atoms: O_2  and  C_3 
REMARK       I    between atoms: C_3  and  N_5 
REMARK    2  A    between atoms: N_5  and  C_6 
REMARK    3  A    between atoms: C_9  and  C_10 
REMARK    4  A    between atoms: C_10  and  N_11 
REMARK       I    between atoms: N_11  and  C_12 
REMARK    5  A    between atoms: C_12  and  C_14 
REMARK       I    between atoms: C_14  and  N_16 
REMARK    6  A    between atoms: N_16  and  C_17 
ROOT
ATOM      1  N   UNL d   1      25.690 -15.429  -2.298  0.00  0.00    -0.349 N 
ATOM      2  C   UNL d   1      26.730 -15.118  -3.154  0.00  0.00     0.309 C 
ATOM      3  O   UNL d   1      27.878 -15.527  -3.070  0.00  0.00    -0.262 OA
ATOM      4  H   UNL d   1      24.799 -15.023  -2.560  0.00  0.00     0.163 HD
ENDROOT
BRANCH   1   5
ATOM      5  C   UNL d   1      25.801 -16.314  -1.147  0.00  0.00     0.161 C 
BRANCH   5   6
ATOM      6  C   UNL d   1      24.588 -17.191  -0.864  0.00  0.00    -0.040 A 
ATOM      7  C   UNL d   1      23.285 -16.647  -0.893  0.00  0.00     0.011 A 
ATOM      8  C   UNL d   1      22.156 -17.413  -0.520  0.00  0.00     0.030 A 
ATOM      9  C   UNL d   1      22.304 -18.751  -0.142  0.00  0.00     0.036 A 
ATOM     10  C   UNL d   1      23.584 -19.297  -0.148  0.00  0.00     0.030 A 
ATOM     11  C   UNL d   1      24.699 -18.541  -0.517  0.00  0.00     0.011 A 
BRANCH   9  12
ATOM     12  N   UNL d   1      21.194 -19.567   0.177  0.00  0.00    -0.303 N 
ATOM     13  C   UNL d   1      20.224 -19.926  -0.735  0.00  0.00     0.364 C 
ATOM     14  O   UNL d   1      20.262 -19.700  -1.946  0.00  0.00    -0.238 OA
ATOM     15  H   UNL d   1      21.119 -19.951   1.111  0.00  0.00     0.171 HD
BRANCH  13  16
ATOM     16  O   UNL d   1      19.210 -20.625  -0.151  0.00  0.00    -0.309 OA
ATOM     17  C   UNL d   1      18.867 -20.133   1.157  0.00  0.00     0.215 C 
ENDBRANCH  13  16
ENDBRANCH   9  12
ENDBRANCH   5   6
ENDBRANCH   1   5
BRANCH   2  18
ATOM     18  C   UNL d   1      26.312 -14.150  -4.299  0.00  0.00     0.313 C 
ATOM     19  O   UNL d   1      25.136 -14.164  -4.651  0.00  0.00    -0.262 OA
ATOM     20  N   UNL d   1      27.331 -13.380  -4.853  0.00  0.00    -0.319 N 
ATOM     21  H   UNL d   1      28.284 -13.582  -4.563  0.00  0.00     0.169 HD
BRANCH  20  22
ATOM     22  C   UNL d   1      27.106 -12.346  -5.797  0.00  0.00     0.036 A 
ATOM     23  C   UNL d   1      26.180 -11.325  -5.545  0.00  0.00     0.029 A 
ATOM     24  C   UNL d   1      25.894 -10.365  -6.534  0.00  0.00     0.004 A 
ATOM     25  C   UNL d   1      26.547 -10.408  -7.766  0.00  0.00     0.024 A 
ATOM     26  C   UNL d   1      27.465 -11.423  -8.015  0.00  0.00     0.036 A 
ATOM     27 CL   UNL d   1      28.211 -11.549  -9.560  0.00  0.00    -0.084 Cl
ATOM     28  C   UNL d   1      27.749 -12.377  -7.038  0.00  0.00     0.053 A 
ENDBRANCH  20  22
ENDBRANCH   2  18
TORSDOF 6
ENDMDL
MODEL 7
REMARK VINA RESULT:    -8.034      4.474      9.704
REMARK INTER + INTRA:         -11.622
REMARK INTER:                  -9.824
REMARK INTRA:                  -1.798
REMARK CONF_INDEPENDENT:        1.790
REMARK UNBOUND:                -1.798
REMARK  6 active torsions:
REMARK  status: ('A' for Active; 'I' for Inactive)
REMARK    1  A    between atoms: O_2  and  C_3 
REMARK       I    between atoms: C_3  and  N_5 
REMARK    2  A    between atoms: N_5  and  C_6 
REMARK    3  A    between atoms: C_9  and  C_10 
REMARK    4  A    between atoms: C_10  and  N_11 
REMARK       I    between atoms: N_11  and  C_12 
REMARK    5  A    between atoms: C_12  and  C_14 
REMARK       I    between atoms: C_14  and  N_16 
REMARK    6  A    between atoms: N_16  and  C_17 
ROOT
ATOM      1  N   UNL d   1      25.551 -17.466  -0.878  0.00  0.00    -0.349 N 
ATOM      2  C   UNL d   1      24.217 -17.192  -1.118  0.00  0.00     0.309 C 
ATOM      3  O   UNL d   1      23.774 -16.188  -1.654  0.00  0.00    -0.262 OA
ATOM      4  H   UNL d   1      25.721 -18.374  -0.459  0.00  0.00     0.163 HD
ENDROOT
BRANCH   1   5
ATOM      5  C   UNL d   1      26.654 -16.589  -1.242  0.00  0.00     0.161 C 
BRANCH   5   6
ATOM      6  C   UNL d   1      26.296 -15.407  -2.134  0.00  0.00    -0.040 A 
ATOM      7  C   UNL d   1      26.149 -15.576  -3.528  0.00  0.00     0.011 A 
ATOM      8  C   UNL d   1      25.932 -14.472  -4.387  0.00  0.00     0.030 A 
ATOM      9  C   UNL d   1      25.824 -13.180  -3.865  0.00  0.00     0.036 A 
ATOM     10  C   UNL d   1      25.933 -13.018  -2.486  0.00  0.00     0.030 A 
ATOM     11  C   UNL d   1      26.147 -14.108  -1.638  0.00  0.00     0.011 A 
BRANCH   9  12
ATOM     12  N   UNL d   1      25.545 -12.062  -4.683  0.00  0.00    -0.303 N 
ATOM     13  C   UNL d   1      26.331 -10.929  -4.721  0.00  0.00     0.364 C 
ATOM     14  O   UNL d   1      27.422 -10.797  -4.162  0.00  0.00    -0.238 OA
ATOM     15  H   UNL d   1      24.753 -12.098  -5.312  0.00  0.00     0.171 HD
BRANCH  13  16
ATOM     16  O   UNL d   1      25.787  -9.957  -5.506  0.00  0.00    -0.309 OA
ATOM     17  C   UNL d   1      24.948  -9.045  -4.775  0.00  0.00     0.215 C 
ENDBRANCH  13  16
ENDBRANCH   9  12
ENDBRANCH   5   6
ENDBRANCH   1   5
BRANCH   2  18
ATOM     18  C   UNL d   1      23.262 -18.318  -0.623  0.00  0.00     0.313 C 
ATOM     19  O   UNL d   1      23.775 -19.326  -0.146  0.00  0.00    -0.262 OA
ATOM     20  N   UNL d   1      21.901 -18.093  -0.809  0.00  0.00    -0.319 N 
ATOM     21  H   UNL d   1      21.629 -17.278  -1.354  0.00  0.00     0.169 HD
BRANCH  20  22
ATOM     22  C   UNL d   1      20.889 -18.939  -0.289  0.00  0.00     0.036 A 
ATOM     23  C   UNL d   1      19.802 -19.337  -1.079  0.00  0.00     0.029 A 
ATOM     24  C   UNL d   1      18.755 -20.092  -0.518  0.00  0.00     0.004 A 
ATOM     25  C   UNL d   1      18.802 -20.471   0.824  0.00  0.00     0.024 A 
ATOM     26  C   UNL d   1      19.881 -20.074   1.606  0.00  0.00     0.036 A 
ATOM     27 CL   UNL d   1      19.911 -20.450   3.285  0.00  0.00    -0.084 Cl
ATOM     28  C   UNL d   1      20.919 -19.323   1.054  0.00  0.00     0.053 A 
ENDBRANCH  20  22
ENDBRANCH   2  18
TORSDOF 6
ENDMDL
MODEL 8
REMARK VINA RESULT:    -7.982      6.275      8.322
REMARK INTER + INTRA:         -11.686
REMARK INTER:                  -9.772
REMARK INTRA:                  -1.915
REMARK CONF_INDEPENDENT:        1.790
REMARK UNBOUND:                -1.915
REMARK  6 active torsions:
REMARK  status: ('A' for Active; 'I' for Inactive)
REMARK    1  A    between atoms: O_2  and  C_3 
REMARK       I    between atoms: C_3  and  N_5 
REMARK    2  A    between atoms: N_5  and  C_6 
REMARK    3  A    between atoms: C_9  and  C_10 
REMARK    4  A    between atoms: C_10  and  N_11 
REMARK       I    between atoms: N_11  and  C_12 
REMARK    5  A    between atoms: C_12  and  C_14 
REMARK       I    between atoms: C_14  and  N_16 
REMARK    6  A    between atoms: N_16  and  C_17 
ROOT
ATOM      1  N   UNL d   1      28.164 -15.492   1.355  0.00  0.00    -0.349 N 
ATOM      2  C   UNL d   1      27.545 -14.426   1.982  0.00  0.00     0.309 C 
ATOM      3  O   UNL d   1      26.614 -13.772   1.538  0.00  0.00    -0.262 OA
ATOM      4  H   UNL d   1      28.892 -15.934   1.906  0.00  0.00     0.163 HD
ENDROOT
BRANCH   1   5
ATOM      5  C   UNL d   1      27.789 -16.015   0.049  0.00  0.00     0.161 C 
BRANCH   5   6
ATOM      6  C   UNL d   1      26.379 -16.580  -0.060  0.00  0.00    -0.040 A 
ATOM      7  C   UNL d   1      25.372 -15.874  -0.753  0.00  0.00     0.011 A 
ATOM      8  C   UNL d   1      24.030 -16.323  -0.767  0.00  0.00     0.030 A 
ATOM      9  C   UNL d   1      23.675 -17.507  -0.115  0.00  0.00     0.036 A 
ATOM     10  C   UNL d   1      24.675 -18.223   0.538  0.00  0.00     0.030 A 
ATOM     11  C   UNL d   1      26.000 -17.780   0.551  0.00  0.00     0.011 A 
BRANCH   9  12
ATOM     12  N   UNL d   1      22.359 -18.022  -0.158  0.00  0.00    -0.303 N 
ATOM     13  C   UNL d   1      21.892 -18.840  -1.166  0.00  0.00     0.364 C 
ATOM     14  O   UNL d   1      22.578 -19.326  -2.068  0.00  0.00    -0.238 OA
ATOM     15  H   UNL d   1      21.727 -17.822   0.607  0.00  0.00     0.171 HD
BRANCH  13  16
ATOM     16  O   UNL d   1      20.563 -19.109  -1.030  0.00  0.00    -0.309 OA
ATOM     17  C   UNL d   1      20.277 -19.995   0.068  0.00  0.00     0.215 C 
ENDBRANCH  13  16
ENDBRANCH   9  12
ENDBRANCH   5   6
ENDBRANCH   1   5
BRANCH   2  18
ATOM     18  C   UNL d   1      28.157 -14.097   3.375  0.00  0.00     0.313 C 
ATOM     19  O   UNL d   1      29.111 -14.773   3.749  0.00  0.00    -0.262 OA
ATOM     20  N   UNL d   1      27.531 -13.082   4.095  0.00  0.00    -0.319 N 
ATOM     21  H   UNL d   1      26.660 -12.711   3.724  0.00  0.00     0.169 HD
BRANCH  20  22
ATOM     22  C   UNL d   1      28.041 -12.554   5.308  0.00  0.00     0.036 A 
ATOM     23  C   UNL d   1      28.297 -11.184   5.450  0.00  0.00     0.029 A 
ATOM     24  C   UNL d   1      28.898 -10.691   6.623  0.00  0.00     0.004 A 
ATOM     25  C   UNL d   1      29.223 -11.560   7.665  0.00  0.00     0.024 A 
ATOM     26  C   UNL d   1      28.969 -12.919   7.522  0.00  0.00     0.036 A 
ATOM     27 CL   UNL d   1      29.448 -14.019   8.756  0.00  0.00    -0.084 Cl
ATOM     28  C   UNL d   1      28.375 -13.411   6.360  0.00  0.00     0.053 A 
ENDBRANCH  20  22
ENDBRANCH   2  18
TORSDOF 6
ENDMDL
MODEL 9
REMARK VINA RESULT:    -7.872      6.345      8.488
REMARK INTER + INTRA:         -11.497
REMARK INTER:                  -9.662
REMARK INTRA:                  -1.835
REMARK CONF_INDEPENDENT:        1.790
REMARK UNBOUND:                -1.835
REMARK  6 active torsions:
REMARK  status: ('A' for Active; 'I' for Inactive)
REMARK    1  A    between atoms: O_2  and  C_3 
REMARK       I    between atoms: C_3  and  N_5 
REMARK    2  A    between atoms: N_5  and  C_6 
REMARK    3  A    between atoms: C_9  and  C_10 
REMARK    4  A    between atoms: C_10  and  N_11 
REMARK       I    between atoms: N_11  and  C_12 
REMARK    5  A    between atoms: C_12  and  C_14 
REMARK       I    between atoms: C_14  and  N_16 
REMARK    6  A    between atoms: N_16  and  C_17 
ROOT
ATOM      1  N   UNL d   1      28.183 -15.204   1.354  0.00  0.00    -0.349 N 
ATOM      2  C   UNL d   1      27.511 -14.181   1.997  0.00  0.00     0.309 C 
ATOM      3  O   UNL d   1      26.646 -13.470   1.509  0.00  0.00    -0.262 OA
ATOM      4  H   UNL d   1      28.838 -15.707   1.942  0.00  0.00     0.163 HD
ENDROOT
BRANCH   1   5
ATOM      5  C   UNL d   1      27.953 -15.605  -0.027  0.00  0.00     0.161 C 
BRANCH   5   6
ATOM      6  C   UNL d   1      26.687 -16.414  -0.280  0.00  0.00    -0.040 A 
ATOM      7  C   UNL d   1      26.364 -17.520   0.536  0.00  0.00     0.011 A 
ATOM      8  C   UNL d   1      25.258 -18.354   0.247  0.00  0.00     0.030 A 
ATOM      9  C   UNL d   1      24.431 -18.078  -0.846  0.00  0.00     0.036 A 
ATOM     10  C   UNL d   1      24.729 -16.966  -1.629  0.00  0.00     0.030 A 
ATOM     11  C   UNL d   1      25.820 -16.143  -1.344  0.00  0.00     0.011 A 
BRANCH   9  12
ATOM     12  N   UNL d   1      23.281 -18.849  -1.130  0.00  0.00    -0.303 N 
ATOM     13  C   UNL d   1      21.995 -18.355  -1.065  0.00  0.00     0.364 C 
ATOM     14  O   UNL d   1      21.692 -17.173  -0.884  0.00  0.00    -0.238 OA
ATOM     15  H   UNL d   1      23.396 -19.806  -1.441  0.00  0.00     0.171 HD
BRANCH  13  16
ATOM     16  O   UNL d   1      21.064 -19.326  -1.280  0.00  0.00    -0.309 OA
ATOM     17  C   UNL d   1      19.906 -19.193  -0.437  0.00  0.00     0.215 C 
ENDBRANCH  13  16
ENDBRANCH   9  12
ENDBRANCH   5   6
ENDBRANCH   1   5
BRANCH   2  18
ATOM     18  C   UNL d   1      27.965 -13.984   3.473  0.00  0.00     0.313 C 
ATOM     19  O   UNL d   1      28.596 -14.897   3.998  0.00  0.00    -0.262 OA
ATOM     20  N   UNL d   1      27.571 -12.795   4.082  0.00  0.00    -0.319 N 
ATOM     21  H   UNL d   1      26.925 -12.197   3.572  0.00  0.00     0.169 HD
BRANCH  20  22
ATOM     22  C   UNL d   1      28.018 -12.387   5.364  0.00  0.00     0.036 A 
ATOM     23  C   UNL d   1      28.407 -11.063   5.608  0.00  0.00     0.029 A 
ATOM     24  C   UNL d   1      28.944 -10.698   6.856  0.00  0.00     0.004 A 
ATOM     25  C   UNL d   1      29.072 -11.647   7.871  0.00  0.00     0.024 A 
ATOM     26  C   UNL d   1      28.687 -12.961   7.627  0.00  0.00     0.036 A 
ATOM     27 CL   UNL d   1      28.924 -14.165   8.833  0.00  0.00    -0.084 Cl
ATOM     28  C   UNL d   1      28.156 -13.326   6.390  0.00  0.00     0.053 A 
ENDBRANCH  20  22
ENDBRANCH   2  18
TORSDOF 6
ENDMDL
