MODEL 1
REMARK VINA RESULT:    -8.611      0.000      0.000
REMARK INTER + INTRA:         -15.856
REMARK INTER:                 -12.788
REMARK INTRA:                  -3.068
REMARK CONF_INDEPENDENT:        4.176
REMARK UNBOUND:                -3.068
REMARK  14 active torsions:
REMARK  status: ('A' for Active; 'I' for Inactive)
REMARK    1  A    between atoms: C_2  and  C_3 
REMARK    2  A    between atoms: C_3  and  C_4 
REMARK    3  A    between atoms: C_4  and  C_5 
REMARK    4  A    between atoms: C_5  and  C_6 
REMARK    5  A    between atoms: C_6  and  N_7 
REMARK       I    between atoms: N_7  and  C_8 
REMARK    6  A    between atoms: C_18  and  N_7 
REMARK    7  A    between atoms: C_8  and  C_10 
REMARK    8  A    between atoms: C_11  and  C_12 
REMARK    9  A    between atoms: C_18  and  C_28 
REMARK   10  A    between atoms: C_18  and  C_19 
REMARK       I    between atoms: C_19  and  N_21 
REMARK   11  A    between atoms: N_21  and  C_22 
REMARK   12  A    between atoms: C_29  and  O_30 
REMARK   13  A    between atoms: C_32  and  O_33 
REMARK   14  A    between atoms: C_35  and  O_36 
ROOT
ATOM      1  C   UNL d   1      27.288 -16.384   0.081  0.00  0.00     0.219 C 
ENDROOT
BRANCH   1   2
ATOM      2  C   UNL d   1      28.391 -15.998  -0.915  0.00  0.00     0.040 C 
ATOM      3  C   UNL d   1      28.557 -14.685  -1.411  0.00  0.00     0.080 C 
ATOM      4  C   UNL d   1      29.447 -14.386  -2.432  0.00  0.00     0.073 C 
ATOM      5  C   UNL d   1      30.365 -15.337  -2.817  0.00  0.00     0.071 C 
ATOM      6  C   UNL d   1      30.353 -16.600  -2.239  0.00  0.00     0.073 C 
ATOM      7  C   UNL d   1      29.351 -16.938  -1.321  0.00  0.00     0.080 C 
BRANCH   3   8
ATOM      8  O   UNL d   1      27.852 -13.581  -1.014  0.00  0.00    -0.360 OA
ATOM      9  H   UNL d   1      26.935 -13.791  -0.769  0.00  0.00     0.217 HD
ENDBRANCH   3   8
BRANCH   5  10
ATOM     10  O   UNL d   1      31.322 -15.043  -3.741  0.00  0.00    -0.361 OA
ATOM     11  H   UNL d   1      31.863 -15.841  -3.877  0.00  0.00     0.217 HD
ENDBRANCH   5  10
BRANCH   7  12
ATOM     12  O   UNL d   1      29.331 -18.200  -0.786  0.00  0.00    -0.360 OA
ATOM     13  H   UNL d   1      29.521 -18.126   0.167  0.00  0.00     0.217 HD
ENDBRANCH   7  12
ENDBRANCH   1   2
BRANCH   1  14
ATOM     14  C   UNL d   1      27.034 -15.106   0.983  0.00  0.00     0.245 C 
ATOM     15  O   UNL d   1      26.168 -14.280   0.684  0.00  0.00    -0.271 OA
ATOM     16  N   UNL d   1      27.788 -14.939   2.144  0.00  0.00    -0.354 N 
ATOM     17  H   UNL d   1      28.444 -15.649   2.440  0.00  0.00     0.162 HD
BRANCH  16  18
ATOM     18  C   UNL d   1      27.565 -13.781   3.027  0.00  0.00     0.084 C 
ATOM     19  C   UNL d   1      27.892 -14.101   4.500  0.00  0.00     0.025 C 
ATOM     20  C   UNL d   1      27.781 -12.867   5.404  0.00  0.00     0.002 C 
ATOM     21  C   UNL d   1      28.633 -11.712   4.891  0.00  0.00     0.000 C 
ATOM     22  C   UNL d   1      28.266 -11.376   3.457  0.00  0.00     0.002 C 
ATOM     23  C   UNL d   1      28.412 -12.590   2.557  0.00  0.00     0.025 C 
ENDBRANCH  16  18
ENDBRANCH   1  14
BRANCH   1  24
ATOM     24  N   UNL d   1      26.026 -16.890  -0.568  0.00  0.00    -0.324 N 
ATOM     25  C   UNL d   1      25.241 -16.168  -1.476  0.00  0.00     0.299 C 
ATOM     26  O   UNL d   1      24.037 -16.006  -1.302  0.00  0.00    -0.258 OA
BRANCH  24  27
ATOM     27  C   UNL d   1      25.533 -18.211  -0.192  0.00  0.00     0.128 C 
BRANCH  27  28
ATOM     28  C   UNL d   1      24.097 -18.193   0.284  0.00  0.00     0.020 C 
BRANCH  28  29
ATOM     29  C   UNL d   1      23.160 -18.895  -0.644  0.00  0.00     0.002 C 
BRANCH  29  30
ATOM     30  C   UNL d   1      21.810 -18.208  -0.529  0.00  0.00    -0.000 C 
BRANCH  30  31
ATOM     31  C   UNL d   1      20.732 -19.161  -0.993  0.00  0.00    -0.005 C 
ATOM     32  C   UNL d   1      20.024 -19.765   0.198  0.00  0.00     0.005 C 
ENDBRANCH  30  31
ENDBRANCH  29  30
ENDBRANCH  28  29
ENDBRANCH  27  28
ENDBRANCH  24  27
BRANCH  25  33
ATOM     33  C   UNL d   1      25.817 -15.416  -2.547  0.00  0.00     0.000 C 
ATOM     34  C   UNL d   1      26.383 -14.996  -3.505  0.00  0.00    -0.057 C 
BRANCH  34  35
ATOM     35  C   UNL d   1      27.024 -14.463  -4.652  0.00  0.00     0.018 A 
ATOM     36  C   UNL d   1      27.920 -15.200  -5.430  0.00  0.00     0.020 A 
ATOM     37  C   UNL d   1      28.560 -14.575  -6.499  0.00  0.00     0.001 A 
ATOM     38  C   UNL d   1      28.301 -13.229  -6.771  0.00  0.00     0.000 A 
ATOM     39  C   UNL d   1      27.390 -12.512  -5.997  0.00  0.00     0.001 A 
ATOM     40  C   UNL d   1      26.740 -13.136  -4.945  0.00  0.00     0.020 A 
ENDBRANCH  34  35
ENDBRANCH  25  33
ENDBRANCH   1  24
TORSDOF 14
ENDMDL
MODEL 2
REMARK VINA RESULT:    -7.784      2.160      5.727
REMARK INTER + INTRA:         -15.654
REMARK INTER:                 -11.960
REMARK INTRA:                  -3.694
REMARK CONF_INDEPENDENT:        4.176
REMARK UNBOUND:                -3.694
REMARK  14 active torsions:
REMARK  status: ('A' for Active; 'I' for Inactive)
REMARK    1  A    between atoms: C_2  and  C_3 
REMARK    2  A    between atoms: C_3  and  C_4 
REMARK    3  A    between atoms: C_4  and  C_5 
REMARK    4  A    between atoms: C_5  and  C_6 
REMARK    5  A    between atoms: C_6  and  N_7 
REMARK       I    between atoms: N_7  and  C_8 
REMARK    6  A    between atoms: C_18  and  N_7 
REMARK    7  A    between atoms: C_8  and  C_10 
REMARK    8  A    between atoms: C_11  and  C_12 
REMARK    9  A    between atoms: C_18  and  C_28 
REMARK   10  A    between atoms: C_18  and  C_19 
REMARK       I    between atoms: C_19  and  N_21 
REMARK   11  A    between atoms: N_21  and  C_22 
REMARK   12  A    between atoms: C_29  and  O_30 
REMARK   13  A    between atoms: C_32  and  O_33 
REMARK   14  A    between atoms: C_35  and  O_36 
ROOT
ATOM      1  C   UNL d   1      27.122 -16.275  -2.393  0.00  0.00     0.219 C 
ENDROOT
BRANCH   1   2
ATOM      2  C   UNL d   1      26.655 -14.934  -2.977  0.00  0.00     0.040 C 
ATOM      3  C   UNL d   1      26.401 -14.740  -4.354  0.00  0.00     0.080 C 
ATOM      4  C   UNL d   1      26.142 -13.486  -4.890  0.00  0.00     0.073 C 
ATOM      5  C   UNL d   1      25.892 -12.435  -4.038  0.00  0.00     0.071 C 
ATOM      6  C   UNL d   1      25.964 -12.612  -2.662  0.00  0.00     0.073 C 
ATOM      7  C   UNL d   1      26.378 -13.843  -2.138  0.00  0.00     0.080 C 
BRANCH   3   8
ATOM      8  O   UNL d   1      26.431 -15.708  -5.321  0.00  0.00    -0.360 OA
ATOM      9  H   UNL d   1      26.025 -15.416  -6.155  0.00  0.00     0.217 HD
ENDBRANCH   3   8
BRANCH   5  10
ATOM     10  O   UNL d   1      25.530 -11.216  -4.528  0.00  0.00    -0.361 OA
ATOM     11  H   UNL d   1      24.801 -11.351  -5.159  0.00  0.00     0.217 HD
ENDBRANCH   5  10
BRANCH   7  12
ATOM     12  O   UNL d   1      26.479 -13.992  -0.779  0.00  0.00    -0.360 OA
ATOM     13  H   UNL d   1      27.423 -14.094  -0.557  0.00  0.00     0.217 HD
ENDBRANCH   7  12
ENDBRANCH   1   2
BRANCH   1  14
ATOM     14  C   UNL d   1      28.586 -16.034  -1.837  0.00  0.00     0.245 C 
ATOM     15  O   UNL d   1      29.049 -14.895  -1.739  0.00  0.00    -0.271 OA
ATOM     16  N   UNL d   1      29.342 -17.134  -1.430  0.00  0.00    -0.354 N 
ATOM     17  H   UNL d   1      28.944 -18.063  -1.430  0.00  0.00     0.162 HD
BRANCH  16  18
ATOM     18  C   UNL d   1      30.696 -16.954  -0.880  0.00  0.00     0.084 C 
ATOM     19  C   UNL d   1      30.704 -16.040   0.361  0.00  0.00     0.025 C 
ATOM     20  C   UNL d   1      32.092 -15.948   1.011  0.00  0.00     0.002 C 
ATOM     21  C   UNL d   1      32.652 -17.327   1.342  0.00  0.00     0.000 C 
ATOM     22  C   UNL d   1      32.684 -18.200   0.100  0.00  0.00     0.002 C 
ATOM     23  C   UNL d   1      31.303 -18.318  -0.521  0.00  0.00     0.025 C 
ENDBRANCH  16  18
ENDBRANCH   1  14
BRANCH   1  24
ATOM     24  N   UNL d   1      26.196 -16.843  -1.349  0.00  0.00    -0.324 N 
ATOM     25  C   UNL d   1      26.548 -17.113  -0.020  0.00  0.00     0.299 C 
ATOM     26  O   UNL d   1      26.366 -18.216   0.486  0.00  0.00    -0.258 OA
BRANCH  24  27
ATOM     27  C   UNL d   1      24.839 -17.204  -1.746  0.00  0.00     0.128 C 
BRANCH  27  28
ATOM     28  C   UNL d   1      23.785 -16.311  -1.128  0.00  0.00     0.020 C 
BRANCH  28  29
ATOM     29  C   UNL d   1      22.706 -17.072  -0.427  0.00  0.00     0.002 C 
BRANCH  29  30
ATOM     30  C   UNL d   1      22.873 -18.537  -0.794  0.00  0.00    -0.000 C 
BRANCH  30  31
ATOM     31  C   UNL d   1      21.724 -19.325  -0.207  0.00  0.00    -0.005 C 
ATOM     32  C   UNL d   1      20.432 -18.952  -0.895  0.00  0.00     0.005 C 
ENDBRANCH  30  31
ENDBRANCH  29  30
ENDBRANCH  28  29
ENDBRANCH  27  28
ENDBRANCH  24  27
BRANCH  25  33
ATOM     33  C   UNL d   1      27.312 -16.192   0.763  0.00  0.00     0.000 C 
ATOM     34  C   UNL d   1      27.746 -15.384   1.521  0.00  0.00    -0.057 C 
BRANCH  34  35
ATOM     35  C   UNL d   1      28.303 -14.444   2.425  0.00  0.00     0.018 A 
ATOM     36  C   UNL d   1      29.341 -13.579   2.073  0.00  0.00     0.020 A 
ATOM     37  C   UNL d   1      29.878 -12.737   3.045  0.00  0.00     0.001 A 
ATOM     38  C   UNL d   1      29.376 -12.774   4.349  0.00  0.00     0.000 A 
ATOM     39  C   UNL d   1      28.326 -13.630   4.679  0.00  0.00     0.001 A 
ATOM     40  C   UNL d   1      27.780 -14.455   3.711  0.00  0.00     0.020 A 
ENDBRANCH  34  35
ENDBRANCH  25  33
ENDBRANCH   1  24
TORSDOF 14
ENDMDL
MODEL 3
REMARK VINA RESULT:    -7.742      2.030      5.769
REMARK INTER + INTRA:         -15.912
REMARK INTER:                 -11.918
REMARK INTRA:                  -3.993
REMARK CONF_INDEPENDENT:        4.176
REMARK UNBOUND:                -3.993
REMARK  14 active torsions:
REMARK  status: ('A' for Active; 'I' for Inactive)
REMARK    1  A    between atoms: C_2  and  C_3 
REMARK    2  A    between atoms: C_3  and  C_4 
REMARK    3  A    between atoms: C_4  and  C_5 
REMARK    4  A    between atoms: C_5  and  C_6 
REMARK    5  A    between atoms: C_6  and  N_7 
REMARK       I    between atoms: N_7  and  C_8 
REMARK    6  A    between atoms: C_18  and  N_7 
REMARK    7  A    between atoms: C_8  and  C_10 
REMARK    8  A    between atoms: C_11  and  C_12 
REMARK    9  A    between atoms: C_18  and  C_28 
REMARK   10  A    between atoms: C_18  and  C_19 
REMARK       I    between atoms: C_19  and  N_21 
REMARK   11  A    between atoms: N_21  and  C_22 
REMARK   12  A    between atoms: C_29  and  O_30 
REMARK   13  A    between atoms: C_32  and  O_33 
REMARK   14  A    between atoms: C_35  and  O_36 
ROOT
ATOM      1  C   UNL d   1      26.619 -16.165  -2.540  0.00  0.00     0.219 C 
ENDROOT
BRANCH   1   2
ATOM      2  C   UNL d   1      26.372 -14.678  -2.831  0.00  0.00     0.040 C 
ATOM      3  C   UNL d   1      26.933 -13.637  -2.056  0.00  0.00     0.080 C 
ATOM      4  C   UNL d   1      26.570 -12.309  -2.227  0.00  0.00     0.073 C 
ATOM      5  C   UNL d   1      25.824 -11.956  -3.329  0.00  0.00     0.071 C 
ATOM      6  C   UNL d   1      25.385 -12.927  -4.219  0.00  0.00     0.073 C 
ATOM      7  C   UNL d   1      25.627 -14.280  -3.952  0.00  0.00     0.080 C 
BRANCH   3   8
ATOM      8  O   UNL d   1      27.830 -13.790  -1.034  0.00  0.00    -0.360 OA
ATOM      9  H   UNL d   1      28.742 -13.904  -1.351  0.00  0.00     0.217 HD
ENDBRANCH   3   8
BRANCH   5  10
ATOM     10  O   UNL d   1      25.540 -10.648  -3.584  0.00  0.00    -0.361 OA
ATOM     11  H   UNL d   1      24.775 -10.620  -4.185  0.00  0.00     0.217 HD
ENDBRANCH   5  10
BRANCH   7  12
ATOM     12  O   UNL d   1      25.155 -15.228  -4.822  0.00  0.00    -0.360 OA
ATOM     13  H   UNL d   1      24.489 -14.807  -5.396  0.00  0.00     0.217 HD
ENDBRANCH   7  12
ENDBRANCH   1   2
BRANCH   1  14
ATOM     14  C   UNL d   1      28.161 -16.304  -2.204  0.00  0.00     0.245 C 
ATOM     15  O   UNL d   1      28.989 -15.533  -2.696  0.00  0.00    -0.271 OA
ATOM     16  N   UNL d   1      28.571 -17.297  -1.315  0.00  0.00    -0.354 N 
ATOM     17  H   UNL d   1      27.893 -17.881  -0.845  0.00  0.00     0.162 HD
BRANCH  16  18
ATOM     18  C   UNL d   1      29.991 -17.444  -0.952  0.00  0.00     0.084 C 
ATOM     19  C   UNL d   1      30.890 -17.649  -2.188  0.00  0.00     0.025 C 
ATOM     20  C   UNL d   1      32.381 -17.679  -1.826  0.00  0.00     0.002 C 
ATOM     21  C   UNL d   1      32.797 -16.438  -1.045  0.00  0.00     0.000 C 
ATOM     22  C   UNL d   1      31.936 -16.276   0.195  0.00  0.00     0.002 C 
ATOM     23  C   UNL d   1      30.463 -16.211  -0.168  0.00  0.00     0.025 C 
ENDBRANCH  16  18
ENDBRANCH   1  14
BRANCH   1  24
ATOM     24  N   UNL d   1      25.740 -16.731  -1.455  0.00  0.00    -0.324 N 
ATOM     25  C   UNL d   1      26.126 -16.918  -0.122  0.00  0.00     0.299 C 
ATOM     26  O   UNL d   1      26.009 -18.004   0.438  0.00  0.00    -0.258 OA
BRANCH  24  27
ATOM     27  C   UNL d   1      24.398 -17.180  -1.812  0.00  0.00     0.128 C 
BRANCH  27  28
ATOM     28  C   UNL d   1      23.338 -16.704  -0.843  0.00  0.00     0.020 C 
BRANCH  28  29
ATOM     29  C   UNL d   1      22.785 -17.798   0.011  0.00  0.00     0.002 C 
BRANCH  29  30
ATOM     30  C   UNL d   1      22.321 -18.907  -0.918  0.00  0.00    -0.000 C 
BRANCH  30  31
ATOM     31  C   UNL d   1      20.811 -18.966  -0.898  0.00  0.00    -0.005 C 
ATOM     32  C   UNL d   1      20.341 -19.930   0.167  0.00  0.00     0.005 C 
ENDBRANCH  30  31
ENDBRANCH  29  30
ENDBRANCH  28  29
ENDBRANCH  27  28
ENDBRANCH  24  27
BRANCH  25  33
ATOM     33  C   UNL d   1      26.851 -15.923   0.605  0.00  0.00     0.000 C 
ATOM     34  C   UNL d   1      27.475 -15.261   1.372  0.00  0.00    -0.057 C 
BRANCH  34  35
ATOM     35  C   UNL d   1      28.239 -14.450   2.248  0.00  0.00     0.018 A 
ATOM     36  C   UNL d   1      29.401 -13.788   1.848  0.00  0.00     0.020 A 
ATOM     37  C   UNL d   1      30.131 -13.069   2.794  0.00  0.00     0.001 A 
ATOM     38  C   UNL d   1      29.694 -13.027   4.121  0.00  0.00     0.000 A 
ATOM     39  C   UNL d   1      28.521 -13.678   4.501  0.00  0.00     0.001 A 
ATOM     40  C   UNL d   1      27.786 -14.378   3.559  0.00  0.00     0.020 A 
ENDBRANCH  34  35
ENDBRANCH  25  33
ENDBRANCH   1  24
TORSDOF 14
ENDMDL
MODEL 4
REMARK VINA RESULT:    -7.681      2.117      5.962
REMARK INTER + INTRA:         -15.974
REMARK INTER:                 -11.858
REMARK INTRA:                  -4.117
REMARK CONF_INDEPENDENT:        4.176
REMARK UNBOUND:                -4.117
REMARK  14 active torsions:
REMARK  status: ('A' for Active; 'I' for Inactive)
REMARK    1  A    between atoms: C_2  and  C_3 
REMARK    2  A    between atoms: C_3  and  C_4 
REMARK    3  A    between atoms: C_4  and  C_5 
REMARK    4  A    between atoms: C_5  and  C_6 
REMARK    5  A    between atoms: C_6  and  N_7 
REMARK       I    between atoms: N_7  and  C_8 
REMARK    6  A    between atoms: C_18  and  N_7 
REMARK    7  A    between atoms: C_8  and  C_10 
REMARK    8  A    between atoms: C_11  and  C_12 
REMARK    9  A    between atoms: C_18  and  C_28 
REMARK   10  A    between atoms: C_18  and  C_19 
REMARK       I    between atoms: C_19  and  N_21 
REMARK   11  A    between atoms: N_21  and  C_22 
REMARK   12  A    between atoms: C_29  and  O_30 
REMARK   13  A    between atoms: C_32  and  O_33 
REMARK   14  A    between atoms: C_35  and  O_36 
ROOT
ATOM      1  C   UNL d   1      28.944 -14.771  -1.949  0.00  0.00     0.219 C 
ENDROOT
BRANCH   1   2
ATOM      2  C   UNL d   1      27.576 -14.494  -2.587  0.00  0.00     0.040 C 
ATOM      3  C   UNL d   1      26.423 -14.178  -1.832  0.00  0.00     0.080 C 
ATOM      4  C   UNL d   1      25.163 -14.095  -2.406  0.00  0.00     0.073 C 
ATOM      5  C   UNL d   1      25.052 -14.085  -3.778  0.00  0.00     0.071 C 
ATOM      6  C   UNL d   1      26.181 -14.226  -4.574  0.00  0.00     0.073 C 
ATOM      7  C   UNL d   1      27.427 -14.464  -3.983  0.00  0.00     0.080 C 
BRANCH   3   8
ATOM      8  O   UNL d   1      26.379 -13.976  -0.479  0.00  0.00    -0.360 OA
ATOM      9  H   UNL d   1      26.722 -13.104  -0.220  0.00  0.00     0.217 HD
ENDBRANCH   3   8
BRANCH   5  10
ATOM     10  O   UNL d   1      23.842 -13.898  -4.375  0.00  0.00    -0.361 OA
ATOM     11  H   UNL d   1      23.934 -13.175  -5.020  0.00  0.00     0.217 HD
ENDBRANCH   5  10
BRANCH   7  12
ATOM     12  O   UNL d   1      28.526 -14.637  -4.783  0.00  0.00    -0.360 OA
ATOM     13  H   UNL d   1      28.893 -13.756  -4.986  0.00  0.00     0.217 HD
ENDBRANCH   7  12
ENDBRANCH   1   2
BRANCH   1  14
ATOM     14  C   UNL d   1      28.952 -14.008  -0.560  0.00  0.00     0.245 C 
ATOM     15  O   UNL d   1      28.841 -12.781  -0.510  0.00  0.00    -0.271 OA
ATOM     16  N   UNL d   1      29.057 -14.750   0.617  0.00  0.00    -0.354 N 
ATOM     17  H   UNL d   1      29.067 -15.760   0.591  0.00  0.00     0.162 HD
BRANCH  16  18
ATOM     18  C   UNL d   1      29.038 -14.085   1.931  0.00  0.00     0.084 C 
ATOM     19  C   UNL d   1      27.786 -14.453   2.752  0.00  0.00     0.025 C 
ATOM     20  C   UNL d   1      27.822 -13.862   4.167  0.00  0.00     0.002 C 
ATOM     21  C   UNL d   1      29.097 -14.247   4.908  0.00  0.00     0.000 C 
ATOM     22  C   UNL d   1      30.322 -13.834   4.110  0.00  0.00     0.002 C 
ATOM     23  C   UNL d   1      30.302 -14.449   2.722  0.00  0.00     0.025 C 
ENDBRANCH  16  18
ENDBRANCH   1  14
BRANCH   1  24
ATOM     24  N   UNL d   1      29.268 -16.235  -1.804  0.00  0.00    -0.324 N 
ATOM     25  C   UNL d   1      28.589 -17.131  -0.967  0.00  0.00     0.299 C 
ATOM     26  O   UNL d   1      29.183 -17.823  -0.145  0.00  0.00    -0.258 OA
BRANCH  24  27
ATOM     27  C   UNL d   1      30.410 -16.770  -2.537  0.00  0.00     0.128 C 
BRANCH  27  28
ATOM     28  C   UNL d   1      30.020 -17.415  -3.850  0.00  0.00     0.020 C 
BRANCH  28  29
ATOM     29  C   UNL d   1      30.624 -16.741  -5.039  0.00  0.00     0.002 C 
BRANCH  29  30
ATOM     30  C   UNL d   1      30.473 -17.684  -6.220  0.00  0.00    -0.000 C 
BRANCH  30  31
ATOM     31  C   UNL d   1      30.405 -19.105  -5.709  0.00  0.00    -0.005 C 
ATOM     32  C   UNL d   1      30.880 -20.066  -6.774  0.00  0.00     0.005 C 
ENDBRANCH  30  31
ENDBRANCH  29  30
ENDBRANCH  28  29
ENDBRANCH  27  28
ENDBRANCH  24  27
BRANCH  25  33
ATOM     33  C   UNL d   1      27.162 -17.156  -0.881  0.00  0.00     0.000 C 
ATOM     34  C   UNL d   1      26.003 -17.405  -0.782  0.00  0.00    -0.057 C 
BRANCH  34  35
ATOM     35  C   UNL d   1      24.616 -17.661  -0.644  0.00  0.00     0.018 A 
ATOM     36  C   UNL d   1      24.092 -18.950  -0.520  0.00  0.00     0.020 A 
ATOM     37  C   UNL d   1      22.709 -19.115  -0.461  0.00  0.00     0.001 A 
ATOM     38  C   UNL d   1      21.873 -17.997  -0.532  0.00  0.00     0.000 A 
ATOM     39  C   UNL d   1      22.413 -16.715  -0.635  0.00  0.00     0.001 A 
ATOM     40  C   UNL d   1      23.786 -16.547  -0.677  0.00  0.00     0.020 A 
ENDBRANCH  34  35
ENDBRANCH  25  33
ENDBRANCH   1  24
TORSDOF 14
ENDMDL
MODEL 5
REMARK VINA RESULT:    -7.633      2.892      4.448
REMARK INTER + INTRA:         -15.727
REMARK INTER:                 -11.809
REMARK INTRA:                  -3.918
REMARK CONF_INDEPENDENT:        4.176
REMARK UNBOUND:                -3.918
REMARK  14 active torsions:
REMARK  status: ('A' for Active; 'I' for Inactive)
REMARK    1  A    between atoms: C_2  and  C_3 
REMARK    2  A    between atoms: C_3  and  C_4 
REMARK    3  A    between atoms: C_4  and  C_5 
REMARK    4  A    between atoms: C_5  and  C_6 
REMARK    5  A    between atoms: C_6  and  N_7 
REMARK       I    between atoms: N_7  and  C_8 
REMARK    6  A    between atoms: C_18  and  N_7 
REMARK    7  A    between atoms: C_8  and  C_10 
REMARK    8  A    between atoms: C_11  and  C_12 
REMARK    9  A    between atoms: C_18  and  C_28 
REMARK   10  A    between atoms: C_18  and  C_19 
REMARK       I    between atoms: C_19  and  N_21 
REMARK   11  A    between atoms: N_21  and  C_22 
REMARK   12  A    between atoms: C_29  and  O_30 
REMARK   13  A    between atoms: C_32  and  O_33 
REMARK   14  A    between atoms: C_35  and  O_36 
ROOT
ATOM      1  C   UNL d   1      26.298 -14.561  -1.475  0.00  0.00     0.219 C 
ENDROOT
BRANCH   1   2
ATOM      2  C   UNL d   1      27.469 -15.536  -1.285  0.00  0.00     0.040 C 
ATOM      3  C   UNL d   1      28.686 -15.426  -1.994  0.00  0.00     0.080 C 
ATOM      4  C   UNL d   1      29.668 -16.405  -1.936  0.00  0.00     0.073 C 
ATOM      5  C   UNL d   1      29.567 -17.396  -0.986  0.00  0.00     0.071 C 
ATOM      6  C   UNL d   1      28.464 -17.454  -0.145  0.00  0.00     0.073 C 
ATOM      7  C   UNL d   1      27.407 -16.552  -0.318  0.00  0.00     0.080 C 
BRANCH   3   8
ATOM      8  O   UNL d   1      29.031 -14.413  -2.847  0.00  0.00    -0.360 OA
ATOM      9  H   UNL d   1      29.251 -13.590  -2.380  0.00  0.00     0.217 HD
ENDBRANCH   3   8
BRANCH   5  10
ATOM     10  O   UNL d   1      30.565 -18.311  -0.830  0.00  0.00    -0.361 OA
ATOM     11  H   UNL d   1      30.406 -18.789   0.003  0.00  0.00     0.217 HD
ENDBRANCH   5  10
BRANCH   7  12
ATOM     12  O   UNL d   1      26.308 -16.644   0.497  0.00  0.00    -0.360 OA
ATOM     13  H   UNL d   1      26.025 -17.577   0.517  0.00  0.00     0.217 HD
ENDBRANCH   7  12
ENDBRANCH   1   2
BRANCH   1  14
ATOM     14  C   UNL d   1      26.936 -13.177  -1.908  0.00  0.00     0.245 C 
ATOM     15  O   UNL d   1      27.966 -12.758  -1.374  0.00  0.00    -0.271 OA
ATOM     16  N   UNL d   1      26.329 -12.444  -2.928  0.00  0.00    -0.354 N 
ATOM     17  H   UNL d   1      25.532 -12.815  -3.427  0.00  0.00     0.162 HD
BRANCH  16  18
ATOM     18  C   UNL d   1      26.905 -11.166  -3.382  0.00  0.00     0.084 C 
ATOM     19  C   UNL d   1      26.326 -10.717  -4.739  0.00  0.00     0.025 C 
ATOM     20  C   UNL d   1      26.829  -9.329  -5.157  0.00  0.00     0.002 C 
ATOM     21  C   UNL d   1      26.569  -8.285  -4.077  0.00  0.00     0.000 C 
ATOM     22  C   UNL d   1      27.186  -8.718  -2.759  0.00  0.00     0.002 C 
ATOM     23  C   UNL d   1      26.660 -10.076  -2.329  0.00  0.00     0.025 C 
ENDBRANCH  16  18
ENDBRANCH   1  14
BRANCH   1  24
ATOM     24  N   UNL d   1      25.252 -15.042  -2.448  0.00  0.00    -0.324 N 
ATOM     25  C   UNL d   1      25.317 -14.894  -3.839  0.00  0.00     0.299 C 
ATOM     26  O   UNL d   1      24.405 -14.376  -4.477  0.00  0.00    -0.258 OA
BRANCH  24  27
ATOM     27  C   UNL d   1      24.043 -15.661  -1.916  0.00  0.00     0.128 C 
BRANCH  27  28
ATOM     28  C   UNL d   1      24.210 -17.138  -1.631  0.00  0.00     0.020 C 
BRANCH  28  29
ATOM     29  C   UNL d   1      23.344 -17.624  -0.514  0.00  0.00     0.002 C 
BRANCH  29  30
ATOM     30  C   UNL d   1      22.658 -18.892  -0.992  0.00  0.00    -0.000 C 
BRANCH  30  31
ATOM     31  C   UNL d   1      21.483 -19.186  -0.087  0.00  0.00    -0.005 C 
ATOM     32  C   UNL d   1      20.207 -19.247  -0.894  0.00  0.00     0.005 C 
ENDBRANCH  30  31
ENDBRANCH  29  30
ENDBRANCH  28  29
ENDBRANCH  27  28
ENDBRANCH  24  27
BRANCH  25  33
ATOM     33  C   UNL d   1      26.515 -15.154  -4.575  0.00  0.00     0.000 C 
ATOM     34  C   UNL d   1      27.579 -15.162  -5.107  0.00  0.00    -0.057 C 
BRANCH  34  35
ATOM     35  C   UNL d   1      28.848 -15.220  -5.736  0.00  0.00     0.018 A 
ATOM     36  C   UNL d   1      29.288 -14.254  -6.645  0.00  0.00     0.020 A 
ATOM     37  C   UNL d   1      30.521 -14.427  -7.271  0.00  0.00     0.001 A 
ATOM     38  C   UNL d   1      31.291 -15.557  -6.986  0.00  0.00     0.000 A 
ATOM     39  C   UNL d   1      30.847 -16.502  -6.063  0.00  0.00     0.001 A 
ATOM     40  C   UNL d   1      29.631 -16.325  -5.426  0.00  0.00     0.020 A 
ENDBRANCH  34  35
ENDBRANCH  25  33
ENDBRANCH   1  24
TORSDOF 14
ENDMDL
MODEL 6
REMARK VINA RESULT:    -7.628      2.181      6.120
REMARK INTER + INTRA:         -15.782
REMARK INTER:                 -11.804
REMARK INTRA:                  -3.978
REMARK CONF_INDEPENDENT:        4.176
REMARK UNBOUND:                -3.978
REMARK  14 active torsions:
REMARK  status: ('A' for Active; 'I' for Inactive)
REMARK    1  A    between atoms: C_2  and  C_3 
REMARK    2  A    between atoms: C_3  and  C_4 
REMARK    3  A    between atoms: C_4  and  C_5 
REMARK    4  A    between atoms: C_5  and  C_6 
REMARK    5  A    between atoms: C_6  and  N_7 
REMARK       I    between atoms: N_7  and  C_8 
REMARK    6  A    between atoms: C_18  and  N_7 
REMARK    7  A    between atoms: C_8  and  C_10 
REMARK    8  A    between atoms: C_11  and  C_12 
REMARK    9  A    between atoms: C_18  and  C_28 
REMARK   10  A    between atoms: C_18  and  C_19 
REMARK       I    between atoms: C_19  and  N_21 
REMARK   11  A    between atoms: N_21  and  C_22 
REMARK   12  A    between atoms: C_29  and  O_30 
REMARK   13  A    between atoms: C_32  and  O_33 
REMARK   14  A    between atoms: C_35  and  O_36 
ROOT
ATOM      1  C   UNL d   1      26.579 -13.827  -2.404  0.00  0.00     0.219 C 
ENDROOT
BRANCH   1   2
ATOM      2  C   UNL d   1      27.098 -13.776  -3.848  0.00  0.00     0.040 C 
ATOM      3  C   UNL d   1      26.865 -14.806  -4.787  0.00  0.00     0.080 C 
ATOM      4  C   UNL d   1      27.477 -14.825  -6.032  0.00  0.00     0.073 C 
ATOM      5  C   UNL d   1      28.144 -13.702  -6.465  0.00  0.00     0.071 C 
ATOM      6  C   UNL d   1      28.260 -12.591  -5.640  0.00  0.00     0.073 C 
ATOM      7  C   UNL d   1      27.771 -12.642  -4.329  0.00  0.00     0.080 C 
BRANCH   3   8
ATOM      8  O   UNL d   1      26.084 -15.913  -4.590  0.00  0.00    -0.360 OA
ATOM      9  H   UNL d   1      25.134 -15.706  -4.599  0.00  0.00     0.217 HD
ENDBRANCH   3   8
BRANCH   5  10
ATOM     10  O   UNL d   1      28.666 -13.647  -7.723  0.00  0.00    -0.361 OA
ATOM     11  H   UNL d   1      29.071 -14.511  -7.917  0.00  0.00     0.217 HD
ENDBRANCH   5  10
BRANCH   7  12
ATOM     12  O   UNL d   1      27.926 -11.551  -3.514  0.00  0.00    -0.360 OA
ATOM     13  H   UNL d   1      28.785 -11.632  -3.060  0.00  0.00     0.217 HD
ENDBRANCH   7  12
ENDBRANCH   1   2
BRANCH   1  14
ATOM     14  C   UNL d   1      25.388 -14.872  -2.394  0.00  0.00     0.245 C 
ATOM     15  O   UNL d   1      24.424 -14.742  -3.152  0.00  0.00    -0.271 OA
ATOM     16  N   UNL d   1      25.457 -15.966  -1.531  0.00  0.00    -0.354 N 
ATOM     17  H   UNL d   1      26.279 -16.125  -0.964  0.00  0.00     0.162 HD
BRANCH  16  18
ATOM     18  C   UNL d   1      24.387 -16.977  -1.510  0.00  0.00     0.084 C 
ATOM     19  C   UNL d   1      24.759 -18.200  -0.647  0.00  0.00     0.025 C 
ATOM     20  C   UNL d   1      23.601 -19.200  -0.521  0.00  0.00     0.002 C 
ATOM     21  C   UNL d   1      22.331 -18.531  -0.007  0.00  0.00     0.000 C 
ATOM     22  C   UNL d   1      21.950 -17.359  -0.894  0.00  0.00     0.002 C 
ATOM     23  C   UNL d   1      23.084 -16.354  -0.988  0.00  0.00     0.025 C 
ENDBRANCH  16  18
ENDBRANCH   1  14
BRANCH   1  24
ATOM     24  N   UNL d   1      27.639 -14.152  -1.383  0.00  0.00    -0.324 N 
ATOM     25  C   UNL d   1      28.372 -15.344  -1.335  0.00  0.00     0.299 C 
ATOM     26  O   UNL d   1      28.432 -16.025  -0.316  0.00  0.00    -0.258 OA
BRANCH  24  27
ATOM     27  C   UNL d   1      27.895 -13.188  -0.318  0.00  0.00     0.128 C 
BRANCH  27  28
ATOM     28  C   UNL d   1      26.689 -12.946   0.564  0.00  0.00     0.020 C 
BRANCH  28  29
ATOM     29  C   UNL d   1      27.050 -12.532   1.954  0.00  0.00     0.002 C 
BRANCH  29  30
ATOM     30  C   UNL d   1      27.802 -13.688   2.591  0.00  0.00    -0.000 C 
BRANCH  30  31
ATOM     31  C   UNL d   1      27.778 -13.522   4.093  0.00  0.00    -0.005 C 
ATOM     32  C   UNL d   1      28.126 -14.829   4.767  0.00  0.00     0.005 C 
ENDBRANCH  30  31
ENDBRANCH  29  30
ENDBRANCH  28  29
ENDBRANCH  27  28
ENDBRANCH  24  27
BRANCH  25  33
ATOM     33  C   UNL d   1      28.932 -15.939  -2.509  0.00  0.00     0.000 C 
ATOM     34  C   UNL d   1      29.423 -16.214  -3.557  0.00  0.00    -0.057 C 
BRANCH  34  35
ATOM     35  C   UNL d   1      30.029 -16.579  -4.785  0.00  0.00     0.018 A 
ATOM     36  C   UNL d   1      30.561 -15.643  -5.675  0.00  0.00     0.020 A 
ATOM     37  C   UNL d   1      31.074 -16.084  -6.894  0.00  0.00     0.001 A 
ATOM     38  C   UNL d   1      31.041 -17.446  -7.208  0.00  0.00     0.000 A 
ATOM     39  C   UNL d   1      30.524 -18.370  -6.301  0.00  0.00     0.001 A 
ATOM     40  C   UNL d   1      30.030 -17.936  -5.082  0.00  0.00     0.020 A 
ENDBRANCH  34  35
ENDBRANCH  25  33
ENDBRANCH   1  24
TORSDOF 14
ENDMDL
MODEL 7
REMARK VINA RESULT:    -7.224      2.551      5.063
REMARK INTER + INTRA:         -15.320
REMARK INTER:                 -11.400
REMARK INTRA:                  -3.919
REMARK CONF_INDEPENDENT:        4.176
REMARK UNBOUND:                -3.919
REMARK  14 active torsions:
REMARK  status: ('A' for Active; 'I' for Inactive)
REMARK    1  A    between atoms: C_2  and  C_3 
REMARK    2  A    between atoms: C_3  and  C_4 
REMARK    3  A    between atoms: C_4  and  C_5 
REMARK    4  A    between atoms: C_5  and  C_6 
REMARK    5  A    between atoms: C_6  and  N_7 
REMARK       I    between atoms: N_7  and  C_8 
REMARK    6  A    between atoms: C_18  and  N_7 
REMARK    7  A    between atoms: C_8  and  C_10 
REMARK    8  A    between atoms: C_11  and  C_12 
REMARK    9  A    between atoms: C_18  and  C_28 
REMARK   10  A    between atoms: C_18  and  C_19 
REMARK       I    between atoms: C_19  and  N_21 
REMARK   11  A    between atoms: N_21  and  C_22 
REMARK   12  A    between atoms: C_29  and  O_30 
REMARK   13  A    between atoms: C_32  and  O_33 
REMARK   14  A    between atoms: C_35  and  O_36 
ROOT
ATOM      1  C   UNL d   1      26.178 -13.734  -1.650  0.00  0.00     0.219 C 
ENDROOT
BRANCH   1   2
ATOM      2  C   UNL d   1      27.432 -14.413  -1.081  0.00  0.00     0.040 C 
ATOM      3  C   UNL d   1      28.006 -15.572  -1.650  0.00  0.00     0.080 C 
ATOM      4  C   UNL d   1      29.036 -16.268  -1.032  0.00  0.00     0.073 C 
ATOM      5  C   UNL d   1      29.679 -15.695   0.041  0.00  0.00     0.071 C 
ATOM      6  C   UNL d   1      29.259 -14.469   0.540  0.00  0.00     0.073 C 
ATOM      7  C   UNL d   1      28.122 -13.851   0.005  0.00  0.00     0.080 C 
BRANCH   3   8
ATOM      8  O   UNL d   1      27.608 -16.180  -2.810  0.00  0.00    -0.360 OA
ATOM      9  H   UNL d   1      27.196 -17.047  -2.655  0.00  0.00     0.217 HD
ENDBRANCH   3   8
BRANCH   5  10
ATOM     10  O   UNL d   1      30.762 -16.301   0.604  0.00  0.00    -0.361 OA
ATOM     11  H   UNL d   1      30.481 -16.688   1.452  0.00  0.00     0.217 HD
ENDBRANCH   5  10
BRANCH   7  12
ATOM     12  O   UNL d   1      27.698 -12.658   0.531  0.00  0.00    -0.360 OA
ATOM     13  H   UNL d   1      27.618 -12.017  -0.199  0.00  0.00     0.217 HD
ENDBRANCH   7  12
ENDBRANCH   1   2
BRANCH   1  14
ATOM     14  C   UNL d   1      26.673 -12.410  -2.366  0.00  0.00     0.245 C 
ATOM     15  O   UNL d   1      27.728 -11.865  -2.033  0.00  0.00    -0.271 OA
ATOM     16  N   UNL d   1      25.909 -11.879  -3.405  0.00  0.00    -0.354 N 
ATOM     17  H   UNL d   1      25.085 -12.361  -3.739  0.00  0.00     0.162 HD
BRANCH  16  18
ATOM     18  C   UNL d   1      26.346 -10.666  -4.118  0.00  0.00     0.084 C 
ATOM     19  C   UNL d   1      26.176 -10.795  -5.645  0.00  0.00     0.025 C 
ATOM     20  C   UNL d   1      26.513  -9.492  -6.382  0.00  0.00     0.002 C 
ATOM     21  C   UNL d   1      25.714  -8.313  -5.839  0.00  0.00     0.000 C 
ATOM     22  C   UNL d   1      25.930  -8.168  -4.342  0.00  0.00     0.002 C 
ATOM     23  C   UNL d   1      25.561  -9.447  -3.611  0.00  0.00     0.025 C 
ENDBRANCH  16  18
ENDBRANCH   1  14
BRANCH   1  24
ATOM     24  N   UNL d   1      25.367 -14.615  -2.565  0.00  0.00    -0.324 N 
ATOM     25  C   UNL d   1      25.417 -14.585  -3.965  0.00  0.00     0.299 C 
ATOM     26  O   UNL d   1      24.404 -14.450  -4.645  0.00  0.00    -0.258 OA
BRANCH  24  27
ATOM     27  C   UNL d   1      24.405 -15.536  -1.969  0.00  0.00     0.128 C 
BRANCH  27  28
ATOM     28  C   UNL d   1      24.923 -16.955  -1.878  0.00  0.00     0.020 C 
BRANCH  28  29
ATOM     29  C   UNL d   1      25.112 -17.424  -0.472  0.00  0.00     0.002 C 
BRANCH  29  30
ATOM     30  C   UNL d   1      23.797 -18.034  -0.017  0.00  0.00    -0.000 C 
BRANCH  30  31
ATOM     31  C   UNL d   1      23.068 -18.585  -1.221  0.00  0.00    -0.005 C 
ATOM     32  C   UNL d   1      21.607 -18.791  -0.896  0.00  0.00     0.005 C 
ENDBRANCH  30  31
ENDBRANCH  29  30
ENDBRANCH  28  29
ENDBRANCH  27  28
ENDBRANCH  24  27
BRANCH  25  33
ATOM     33  C   UNL d   1      26.654 -14.515  -4.678  0.00  0.00     0.000 C 
ATOM     34  C   UNL d   1      27.590 -14.268  -5.370  0.00  0.00    -0.057 C 
BRANCH  34  35
ATOM     35  C   UNL d   1      28.733 -13.991  -6.161  0.00  0.00     0.018 A 
ATOM     36  C   UNL d   1      29.944 -14.668  -6.005  0.00  0.00     0.020 A 
ATOM     37  C   UNL d   1      31.040 -14.282  -6.776  0.00  0.00     0.001 A 
ATOM     38  C   UNL d   1      30.912 -13.227  -7.683  0.00  0.00     0.000 A 
ATOM     39  C   UNL d   1      29.691 -12.573  -7.840  0.00  0.00     0.001 A 
ATOM     40  C   UNL d   1      28.597 -12.966  -7.088  0.00  0.00     0.020 A 
ENDBRANCH  34  35
ENDBRANCH  25  33
ENDBRANCH   1  24
TORSDOF 14
ENDMDL
MODEL 8
REMARK VINA RESULT:    -7.214      3.418      8.361
REMARK INTER + INTRA:         -15.946
REMARK INTER:                 -11.390
REMARK INTRA:                  -4.556
REMARK CONF_INDEPENDENT:        4.176
REMARK UNBOUND:                -4.556
REMARK  14 active torsions:
REMARK  status: ('A' for Active; 'I' for Inactive)
REMARK    1  A    between atoms: C_2  and  C_3 
REMARK    2  A    between atoms: C_3  and  C_4 
REMARK    3  A    between atoms: C_4  and  C_5 
REMARK    4  A    between atoms: C_5  and  C_6 
REMARK    5  A    between atoms: C_6  and  N_7 
REMARK       I    between atoms: N_7  and  C_8 
REMARK    6  A    between atoms: C_18  and  N_7 
REMARK    7  A    between atoms: C_8  and  C_10 
REMARK    8  A    between atoms: C_11  and  C_12 
REMARK    9  A    between atoms: C_18  and  C_28 
REMARK   10  A    between atoms: C_18  and  C_19 
REMARK       I    between atoms: C_19  and  N_21 
REMARK   11  A    between atoms: N_21  and  C_22 
REMARK   12  A    between atoms: C_29  and  O_30 
REMARK   13  A    between atoms: C_32  and  O_33 
REMARK   14  A    between atoms: C_35  and  O_36 
ROOT
ATOM      1  C   UNL d   1      27.648 -15.096  -4.416  0.00  0.00     0.219 C 
ENDROOT
BRANCH   1   2
ATOM      2  C   UNL d   1      27.058 -13.760  -3.941  0.00  0.00     0.040 C 
ATOM      3  C   UNL d   1      25.675 -13.471  -3.981  0.00  0.00     0.080 C 
ATOM      4  C   UNL d   1      25.175 -12.206  -3.707  0.00  0.00     0.073 C 
ATOM      5  C   UNL d   1      26.011 -11.264  -3.152  0.00  0.00     0.071 C 
ATOM      6  C   UNL d   1      27.352 -11.554  -2.935  0.00  0.00     0.073 C 
ATOM      7  C   UNL d   1      27.878 -12.780  -3.359  0.00  0.00     0.080 C 
BRANCH   3   8
ATOM      8  O   UNL d   1      24.682 -14.342  -4.338  0.00  0.00    -0.360 OA
ATOM      9  H   UNL d   1      24.092 -13.978  -5.020  0.00  0.00     0.217 HD
ENDBRANCH   3   8
BRANCH   5  10
ATOM     10  O   UNL d   1      25.529 -10.047  -2.772  0.00  0.00    -0.361 OA
ATOM     11  H   UNL d   1      25.676  -9.424  -3.505  0.00  0.00     0.217 HD
ENDBRANCH   5  10
BRANCH   7  12
ATOM     12  O   UNL d   1      29.211 -13.038  -3.171  0.00  0.00    -0.360 OA
ATOM     13  H   UNL d   1      29.302 -13.585  -2.369  0.00  0.00     0.217 HD
ENDBRANCH   7  12
ENDBRANCH   1   2
BRANCH   1  14
ATOM     14  C   UNL d   1      28.314 -14.814  -5.826  0.00  0.00     0.245 C 
ATOM     15  O   UNL d   1      27.780 -15.200  -6.869  0.00  0.00    -0.271 OA
ATOM     16  N   UNL d   1      29.506 -14.091  -5.877  0.00  0.00    -0.354 N 
ATOM     17  H   UNL d   1      29.910 -13.701  -5.036  0.00  0.00     0.162 HD
BRANCH  16  18
ATOM     18  C   UNL d   1      30.144 -13.781  -7.168  0.00  0.00     0.084 C 
ATOM     19  C   UNL d   1      29.435 -12.628  -7.905  0.00  0.00     0.025 C 
ATOM     20  C   UNL d   1      30.167 -12.218  -9.190  0.00  0.00     0.002 C 
ATOM     21  C   UNL d   1      31.630 -11.881  -8.923  0.00  0.00     0.000 C 
ATOM     22  C   UNL d   1      32.328 -13.044  -8.241  0.00  0.00     0.002 C 
ATOM     23  C   UNL d   1      31.622 -13.424  -6.951  0.00  0.00     0.025 C 
ENDBRANCH  16  18
ENDBRANCH   1  14
BRANCH   1  24
ATOM     24  N   UNL d   1      28.610 -15.722  -3.440  0.00  0.00    -0.324 N 
ATOM     25  C   UNL d   1      28.394 -15.843  -2.061  0.00  0.00     0.299 C 
ATOM     26  O   UNL d   1      29.208 -15.430  -1.241  0.00  0.00    -0.258 OA
BRANCH  24  27
ATOM     27  C   UNL d   1      29.898 -16.193  -3.939  0.00  0.00     0.128 C 
BRANCH  27  28
ATOM     28  C   UNL d   1      30.032 -17.700  -3.901  0.00  0.00     0.020 C 
BRANCH  28  29
ATOM     29  C   UNL d   1      30.669 -18.266  -5.128  0.00  0.00     0.002 C 
BRANCH  29  30
ATOM     30  C   UNL d   1      30.589 -17.203  -6.211  0.00  0.00    -0.000 C 
BRANCH  30  31
ATOM     31  C   UNL d   1      31.152 -17.767  -7.496  0.00  0.00    -0.005 C 
ATOM     32  C   UNL d   1      32.164 -16.811  -8.085  0.00  0.00     0.005 C 
ENDBRANCH  30  31
ENDBRANCH  29  30
ENDBRANCH  28  29
ENDBRANCH  27  28
ENDBRANCH  24  27
BRANCH  25  33
ATOM     33  C   UNL d   1      27.140 -16.274  -1.525  0.00  0.00     0.000 C 
ATOM     34  C   UNL d   1      26.035 -16.653  -1.302  0.00  0.00    -0.057 C 
BRANCH  34  35
ATOM     35  C   UNL d   1      24.734 -17.126  -0.997  0.00  0.00     0.018 A 
ATOM     36  C   UNL d   1      23.594 -16.325  -1.098  0.00  0.00     0.020 A 
ATOM     37  C   UNL d   1      22.362 -16.850  -0.709  0.00  0.00     0.001 A 
ATOM     38  C   UNL d   1      22.288 -18.158  -0.222  0.00  0.00     0.000 A 
ATOM     39  C   UNL d   1      23.433 -18.950  -0.144  0.00  0.00     0.001 A 
ATOM     40  C   UNL d   1      24.654 -18.437  -0.546  0.00  0.00     0.020 A 
ENDBRANCH  34  35
ENDBRANCH  25  33
ENDBRANCH   1  24
TORSDOF 14
ENDMDL
MODEL 9
REMARK VINA RESULT:    -6.959      3.587      8.321
REMARK INTER + INTRA:         -15.775
REMARK INTER:                 -11.135
REMARK INTRA:                  -4.640
REMARK CONF_INDEPENDENT:        4.176
REMARK UNBOUND:                -4.640
REMARK  14 active torsions:
REMARK  status: ('A' for Active; 'I' for Inactive)
REMARK    1  A    between atoms: C_2  and  C_3 
REMARK    2  A    between atoms: C_3  and  C_4 
REMARK    3  A    between atoms: C_4  and  C_5 
REMARK    4  A    between atoms: C_5  and  C_6 
REMARK    5  A    between atoms: C_6  and  N_7 
REMARK       I    between atoms: N_7  and  C_8 
REMARK    6  A    between atoms: C_18  and  N_7 
REMARK    7  A    between atoms: C_8  and  C_10 
REMARK    8  A    between atoms: C_11  and  C_12 
REMARK    9  A    between atoms: C_18  and  C_28 
REMARK   10  A    between atoms: C_18  and  C_19 
REMARK       I    between atoms: C_19  and  N_21 
REMARK   11  A    between atoms: N_21  and  C_22 
REMARK   12  A    between atoms: C_29  and  O_30 
REMARK   13  A    between atoms: C_32  and  O_33 
REMARK   14  A    between atoms: C_35  and  O_36 
ROOT
ATOM      1  C   UNL d   1      28.782 -15.950  -4.544  0.00  0.00     0.219 C 
ENDROOT
BRANCH   1   2
ATOM      2  C   UNL d   1      27.830 -14.797  -4.195  0.00  0.00     0.040 C 
ATOM      3  C   UNL d   1      28.242 -13.647  -3.483  0.00  0.00     0.080 C 
ATOM      4  C   UNL d   1      27.340 -12.694  -3.031  0.00  0.00     0.073 C 
ATOM      5  C   UNL d   1      26.040 -12.737  -3.483  0.00  0.00     0.071 C 
ATOM      6  C   UNL d   1      25.622 -13.760  -4.325  0.00  0.00     0.073 C 
ATOM      7  C   UNL d   1      26.502 -14.800  -4.649  0.00  0.00     0.080 C 
BRANCH   3   8
ATOM      8  O   UNL d   1      29.523 -13.352  -3.104  0.00  0.00    -0.360 OA
ATOM      9  H   UNL d   1      29.882 -13.995  -2.469  0.00  0.00     0.217 HD
ENDBRANCH   3   8
BRANCH   5  10
ATOM     10  O   UNL d   1      25.156 -11.758  -3.145  0.00  0.00    -0.361 OA
ATOM     11  H   UNL d   1      24.760 -11.415  -3.965  0.00  0.00     0.217 HD
ENDBRANCH   5  10
BRANCH   7  12
ATOM     12  O   UNL d   1      26.064 -15.821  -5.452  0.00  0.00    -0.360 OA
ATOM     13  H   UNL d   1      25.495 -15.437  -6.145  0.00  0.00     0.217 HD
ENDBRANCH   7  12
ENDBRANCH   1   2
BRANCH   1  14
ATOM     14  C   UNL d   1      29.700 -15.429  -5.726  0.00  0.00     0.245 C 
ATOM     15  O   UNL d   1      29.473 -15.751  -6.895  0.00  0.00    -0.271 OA
ATOM     16  N   UNL d   1      30.760 -14.571  -5.430  0.00  0.00    -0.354 N 
ATOM     17  H   UNL d   1      30.905 -14.238  -4.487  0.00  0.00     0.162 HD
BRANCH  16  18
ATOM     18  C   UNL d   1      31.620 -14.039  -6.500  0.00  0.00     0.084 C 
ATOM     19  C   UNL d   1      32.278 -15.161  -7.330  0.00  0.00     0.025 C 
ATOM     20  C   UNL d   1      33.076 -14.614  -8.521  0.00  0.00     0.002 C 
ATOM     21  C   UNL d   1      32.225 -13.707  -9.402  0.00  0.00     0.000 C 
ATOM     22  C   UNL d   1      31.624 -12.579  -8.581  0.00  0.00     0.002 C 
ATOM     23  C   UNL d   1      30.805 -13.123  -7.424  0.00  0.00     0.025 C 
ENDBRANCH  16  18
ENDBRANCH   1  14
BRANCH   1  24
ATOM     24  N   UNL d   1      29.583 -16.459  -3.374  0.00  0.00    -0.324 N 
ATOM     25  C   UNL d   1      29.255 -16.262  -2.027  0.00  0.00     0.299 C 
ATOM     26  O   UNL d   1      30.054 -15.777  -1.231  0.00  0.00    -0.258 OA
BRANCH  24  27
ATOM     27  C   UNL d   1      30.832 -17.163  -3.642  0.00  0.00     0.128 C 
BRANCH  27  28
ATOM     28  C   UNL d   1      30.629 -18.470  -4.377  0.00  0.00     0.020 C 
BRANCH  28  29
ATOM     29  C   UNL d   1      30.833 -18.354  -5.853  0.00  0.00     0.002 C 
BRANCH  29  30
ATOM     30  C   UNL d   1      30.706 -19.749  -6.440  0.00  0.00    -0.000 C 
BRANCH  30  31
ATOM     31  C   UNL d   1      30.780 -19.658  -7.947  0.00  0.00    -0.005 C 
ATOM     32  C   UNL d   1      31.866 -18.692  -8.357  0.00  0.00     0.005 C 
ENDBRANCH  30  31
ENDBRANCH  29  30
ENDBRANCH  28  29
ENDBRANCH  27  28
ENDBRANCH  24  27
BRANCH  25  33
ATOM     33  C   UNL d   1      27.921 -16.428  -1.539  0.00  0.00     0.000 C 
ATOM     34  C   UNL d   1      26.772 -16.662  -1.341  0.00  0.00    -0.057 C 
BRANCH  34  35
ATOM     35  C   UNL d   1      25.412 -16.948  -1.059  0.00  0.00     0.018 A 
ATOM     36  C   UNL d   1      24.385 -16.025  -1.267  0.00  0.00     0.020 A 
ATOM     37  C   UNL d   1      23.085 -16.364  -0.895  0.00  0.00     0.001 A 
ATOM     38  C   UNL d   1      22.832 -17.612  -0.318  0.00  0.00     0.000 A 
ATOM     39  C   UNL d   1      23.865 -18.530  -0.135  0.00  0.00     0.001 A 
ATOM     40  C   UNL d   1      25.154 -18.202  -0.519  0.00  0.00     0.020 A 
ENDBRANCH  34  35
ENDBRANCH  25  33
ENDBRANCH   1  24
TORSDOF 14
ENDMDL
