MODEL 1
REMARK VINA RESULT:   -28.744      0.000      0.000
REMARK INTER + INTRA:         -35.110
REMARK INTER:                 -32.025
REMARK INTRA:                  -3.085
REMARK CONF_INDEPENDENT:        3.281
REMARK UNBOUND:                -3.085
REMARK  11 active torsions:
REMARK  status: ('A' for Active; 'I' for Inactive)
REMARK    1  A    between atoms: C_2  and  C_3 
REMARK    2  A    between atoms: C_3  and  C_4 
REMARK    3  A    between atoms: C_3  and  N_17 
REMARK    4  A    between atoms: N_8  and  C_9 
REMARK    5  A    between atoms: C_9  and  C_10 
REMARK    6  A    between atoms: C_10  and  C_11 
REMARK    7  A    between atoms: N_17  and  C_18 
REMARK    8  A    between atoms: N_17  and  C_24 
REMARK    9  A    between atoms: C_18  and  C_19 
REMARK   10  A    between atoms: C_24  and  C_25 
REMARK   11  A    between atoms: C_35  and  O_36 
ROOT
ATOM      1  N   UNL d   1      24.196 -17.102  -1.693  0.00  0.00    -0.053 N 
ATOM      2  H   UNL d   1      23.416 -16.444  -1.600  0.00  0.00     0.281 HD
ENDROOT
BRANCH   1   3
ATOM      3  C   UNL d   1      24.978 -17.234  -0.352  0.00  0.00     0.260 C 
BRANCH   3   4
ATOM      4  C   UNL d   1      25.371 -18.692  -0.138  0.00  0.00     0.037 C 
ATOM      5  C   UNL d   1      26.615 -18.903   0.674  0.00  0.00     0.007 C 
ENDBRANCH   3   4
BRANCH   3   6
ATOM      6  C   UNL d   1      26.069 -16.160  -0.154  0.00  0.00     0.179 A 
ATOM      7  N   UNL d   1      25.806 -14.965   0.361  0.00  0.00    -0.112 NA
ATOM      8  N   UNL d   1      26.959 -14.227   0.302  0.00  0.00    -0.023 NA
ATOM      9  N   UNL d   1      27.930 -14.924  -0.251  0.00  0.00    -0.044 NA
ATOM     10  N   UNL d   1      27.405 -16.125  -0.530  0.00  0.00    -0.232 N 
BRANCH  10  11
ATOM     11  C   UNL d   1      28.297 -17.067  -1.169  0.00  0.00     0.159 C 
BRANCH  11  12
ATOM     12  C   UNL d   1      29.312 -16.368  -1.984  0.00  0.00     0.060 C 
BRANCH  12  13
ATOM     13  C   UNL d   1      29.188 -16.117  -3.421  0.00  0.00    -0.057 C 
ATOM     14  C   UNL d   1      29.810 -16.986  -4.306  0.00  0.00     0.007 C 
ATOM     15  C   UNL d   1      30.016 -16.710  -5.641  0.00  0.00     0.001 C 
ATOM     16  C   UNL d   1      29.414 -15.575  -6.124  0.00  0.00     0.000 C 
ATOM     17  C   UNL d   1      28.684 -14.751  -5.257  0.00  0.00     0.001 C 
ATOM     18  C   UNL d   1      28.565 -15.018  -3.907  0.00  0.00     0.007 C 
ENDBRANCH  12  13
ENDBRANCH  11  12
ENDBRANCH  10  11
ENDBRANCH   3   6
ENDBRANCH   1   3
BRANCH   1  19
ATOM     19  C   UNL d   1      25.068 -16.651  -2.908  0.00  0.00     0.300 C 
BRANCH  19  20
ATOM     20  C   UNL d   1      25.251 -15.209  -3.287  0.00  0.00     0.078 C 
ATOM     21  C   UNL d   1      25.690 -14.119  -2.553  0.00  0.00     0.036 C 
ATOM     22  C   UNL d   1      25.405 -12.967  -3.312  0.00  0.00     0.027 C 
ATOM     23  C   UNL d   1      25.119 -13.431  -4.569  0.00  0.00     0.142 C 
ATOM     24  O   UNL d   1      24.989 -14.802  -4.566  0.00  0.00    -0.325 OA
ENDBRANCH  19  20
ENDBRANCH   1  19
BRANCH   1  25
ATOM     25  C   UNL d   1      23.495 -18.473  -1.924  0.00  0.00     0.252 C 
BRANCH  25  26
ATOM     26  C   UNL d   1      22.308 -18.774  -1.096  0.00  0.00     0.060 C 
ATOM     27  C   UNL d   1      21.891 -19.962  -0.537  0.00  0.00     0.024 C 
ATOM     28  C   UNL d   1      20.703 -19.932   0.391  0.00  0.00     0.031 C 
ATOM     29  C   UNL d   1      20.276 -19.019   1.504  0.00  0.00    -0.013 C 
ATOM     30  C   UNL d   1      19.602 -19.913  -0.334  0.00  0.00     0.119 C 
ATOM     31  C   UNL d   1      19.014 -18.949   2.105  0.00  0.00    -0.003 C 
ATOM     32  C   UNL d   1      18.112 -19.849   1.660  0.00  0.00     0.005 C 
ATOM     33  C   UNL d   1      18.445 -20.490   0.464  0.00  0.00    -0.050 C 
ATOM     34  C   UNL d   1      17.678 -21.830   0.349  0.00  0.00     0.046 C 
ATOM     35  N   UNL d   1      19.905 -18.628  -0.978  0.00  0.00    -0.267 NA
ATOM     36  C   UNL d   1      21.235 -17.960  -1.019  0.00  0.00     0.212 C 
BRANCH  36  37
ATOM     37  O   UNL d   1      21.780 -17.303   0.251  0.00  0.00    -0.365 OA
ATOM     38  H   UNL d   1      21.871 -17.748   1.103  0.00  0.00     0.212 HD
ENDBRANCH  36  37
ENDBRANCH  25  26
ENDBRANCH   1  25
TORSDOF 11
ENDMDL
MODEL 2
REMARK VINA RESULT:   -28.264      2.496      4.222
REMARK INTER + INTRA:         -33.568
REMARK INTER:                 -31.546
REMARK INTRA:                  -2.022
REMARK CONF_INDEPENDENT:        3.281
REMARK UNBOUND:                -2.022
REMARK  11 active torsions:
REMARK  status: ('A' for Active; 'I' for Inactive)
REMARK    1  A    between atoms: C_2  and  C_3 
REMARK    2  A    between atoms: C_3  and  C_4 
REMARK    3  A    between atoms: C_3  and  N_17 
REMARK    4  A    between atoms: N_8  and  C_9 
REMARK    5  A    between atoms: C_9  and  C_10 
REMARK    6  A    between atoms: C_10  and  C_11 
REMARK    7  A    between atoms: N_17  and  C_18 
REMARK    8  A    between atoms: N_17  and  C_24 
REMARK    9  A    between atoms: C_18  and  C_19 
REMARK   10  A    between atoms: C_24  and  C_25 
REMARK   11  A    between atoms: C_35  and  O_36 
ROOT
ATOM      1  N   UNL d   1      24.089 -16.972  -1.656  0.00  0.00    -0.053 N 
ATOM      2  H   UNL d   1      23.257 -16.388  -1.522  0.00  0.00     0.281 HD
ENDROOT
BRANCH   1   3
ATOM      3  C   UNL d   1      24.970 -16.994  -0.372  0.00  0.00     0.260 C 
BRANCH   3   4
ATOM      4  C   UNL d   1      24.982 -18.404   0.209  0.00  0.00     0.037 C 
ATOM      5  C   UNL d   1      26.336 -18.922   0.596  0.00  0.00     0.007 C 
ENDBRANCH   3   4
BRANCH   3   6
ATOM      6  C   UNL d   1      26.325 -16.271  -0.529  0.00  0.00     0.179 A 
ATOM      7  N   UNL d   1      27.325 -16.777  -1.239  0.00  0.00    -0.112 NA
ATOM      8  N   UNL d   1      28.402 -15.945  -1.088  0.00  0.00    -0.023 NA
ATOM      9  N   UNL d   1      28.106 -14.941  -0.289  0.00  0.00    -0.044 NA
ATOM     10  N   UNL d   1      26.825 -15.116   0.060  0.00  0.00    -0.232 N 
BRANCH  10  11
ATOM     11  C   UNL d   1      26.279 -14.129   0.965  0.00  0.00     0.159 C 
BRANCH  11  12
ATOM     12  C   UNL d   1      27.350 -13.294   1.549  0.00  0.00     0.060 C 
BRANCH  12  13
ATOM     13  C   UNL d   1      27.676 -13.250   2.975  0.00  0.00    -0.057 C 
ATOM     14  C   UNL d   1      27.545 -14.409   3.726  0.00  0.00     0.007 C 
ATOM     15  C   UNL d   1      27.537 -14.439   5.105  0.00  0.00     0.001 C 
ATOM     16  C   UNL d   1      27.842 -13.259   5.736  0.00  0.00     0.000 C 
ATOM     17  C   UNL d   1      28.090 -12.107   4.979  0.00  0.00     0.001 C 
ATOM     18  C   UNL d   1      28.012 -12.097   3.600  0.00  0.00     0.007 C 
ENDBRANCH  12  13
ENDBRANCH  11  12
ENDBRANCH  10  11
ENDBRANCH   3   6
ENDBRANCH   1   3
BRANCH   1  19
ATOM     19  C   UNL d   1      24.828 -16.476  -2.938  0.00  0.00     0.300 C 
BRANCH  19  20
ATOM     20  C   UNL d   1      25.148 -15.029  -3.185  0.00  0.00     0.078 C 
ATOM     21  C   UNL d   1      25.424 -13.991  -2.308  0.00  0.00     0.036 C 
ATOM     22  C   UNL d   1      25.377 -12.797  -3.054  0.00  0.00     0.027 C 
ATOM     23  C   UNL d   1      25.400 -13.194  -4.365  0.00  0.00     0.142 C 
ATOM     24  O   UNL d   1      25.229 -14.556  -4.465  0.00  0.00    -0.325 OA
ENDBRANCH  19  20
ENDBRANCH   1  19
BRANCH   1  25
ATOM     25  C   UNL d   1      23.507 -18.409  -1.807  0.00  0.00     0.252 C 
BRANCH  25  26
ATOM     26  C   UNL d   1      22.307 -18.741  -1.009  0.00  0.00     0.060 C 
ATOM     27  C   UNL d   1      21.872 -19.953  -0.519  0.00  0.00     0.024 C 
ATOM     28  C   UNL d   1      20.675 -19.959   0.396  0.00  0.00     0.031 C 
ATOM     29  C   UNL d   1      20.244 -19.103   1.552  0.00  0.00    -0.013 C 
ATOM     30  C   UNL d   1      19.582 -19.890  -0.339  0.00  0.00     0.119 C 
ATOM     31  C   UNL d   1      18.977 -19.051   2.142  0.00  0.00    -0.003 C 
ATOM     32  C   UNL d   1      18.070 -19.917   1.640  0.00  0.00     0.005 C 
ATOM     33  C   UNL d   1      18.410 -20.496   0.415  0.00  0.00    -0.050 C 
ATOM     34  C   UNL d   1      17.631 -21.820   0.220  0.00  0.00     0.046 C 
ATOM     35  N   UNL d   1      19.905 -18.576  -0.910  0.00  0.00    -0.267 NA
ATOM     36  C   UNL d   1      21.242 -17.921  -0.901  0.00  0.00     0.212 C 
BRANCH  36  37
ATOM     37  O   UNL d   1      21.779 -17.338   0.409  0.00  0.00    -0.365 OA
ATOM     38  H   UNL d   1      21.442 -17.559   1.286  0.00  0.00     0.212 HD
ENDBRANCH  36  37
ENDBRANCH  25  26
ENDBRANCH   1  25
TORSDOF 11
ENDMDL
