MODEL 1
REMARK VINA RESULT:    -8.778      0.000      0.000
REMARK INTER + INTRA:         -11.976
REMARK INTER:                 -10.866
REMARK INTRA:                  -1.111
REMARK CONF_INDEPENDENT:        2.088
REMARK UNBOUND:                -1.111
REMARK  7 active torsions:
REMARK  status: ('A' for Active; 'I' for Inactive)
REMARK    1  A    between atoms: O_2  and  C_3 
REMARK    2  A    between atoms: C_6  and  C_7 
REMARK       I    between atoms: C_7  and  N_9 
REMARK       I    between atoms: C_10  and  N_11 
REMARK       I    between atoms: C_10  and  N_23 
REMARK    3  A    between atoms: N_11  and  C_12 
REMARK    4  A    between atoms: C_12  and  C_13 
REMARK    5  A    between atoms: C_13  and  C_14 
REMARK    6  A    between atoms: N_23  and  C_24 
REMARK    7  A    between atoms: C_33  and  O_34 
ROOT
ATOM      1  C   UNL d   1      25.726 -12.857  -4.044  0.00  0.00     0.294 C 
ATOM      2  O   UNL d   1      25.123 -13.817  -4.490  0.00  0.00    -0.265 OA
ATOM      3  N   UNL d   1      26.241 -12.770  -2.759  0.00  0.00    -0.023 NA
ATOM      4  C   UNL d   1      26.174 -13.808  -1.968  0.00  0.00     0.704 C 
ATOM      5  N   UNL d   1      26.707 -13.726  -0.703  0.00  0.00    -0.224 N 
ATOM      6  N   UNL d   1      25.664 -15.044  -2.289  0.00  0.00    -0.190 N 
ATOM      7  H   UNL d   1      26.770 -14.590  -0.177  0.00  0.00     0.177 HD
ATOM      8  H   UNL d   1      25.237 -15.084  -3.219  0.00  0.00     0.184 HD
ENDROOT
BRANCH   5   9
ATOM      9  C   UNL d   1      27.434 -12.584  -0.214  0.00  0.00     0.142 C 
BRANCH   9  10
ATOM     10  C   UNL d   1      26.982 -12.214   1.190  0.00  0.00     0.057 C 
BRANCH  10  11
ATOM     11  C   UNL d   1      27.467 -13.109   2.289  0.00  0.00    -0.048 A 
ATOM     12  C   UNL d   1      27.627 -12.642   3.527  0.00  0.00    -0.006 A 
ATOM     13  C   UNL d   1      27.415 -11.348   4.066  0.00  0.00     0.014 A 
ATOM     14  C   UNL d   1      28.159 -13.751   4.324  0.00  0.00     0.038 A 
ATOM     15  C   UNL d   1      27.825 -11.112   5.316  0.00  0.00     0.001 A 
ATOM     16  C   UNL d   1      28.339 -12.185   6.154  0.00  0.00     0.002 A 
ATOM     17  C   UNL d   1      28.510 -13.455   5.730  0.00  0.00     0.030 A 
ATOM     18  N   UNL d   1      28.244 -14.826   3.635  0.00  0.00    -0.385 N 
ATOM     19  C   UNL d   1      27.862 -14.557   2.213  0.00  0.00     0.155 A 
ATOM     20  H   UNL d   1      28.533 -15.716   4.040  0.00  0.00     0.160 HD
ENDBRANCH  10  11
ENDBRANCH   9  10
ENDBRANCH   5   9
BRANCH   6  21
ATOM     21  C   UNL d   1      25.305 -16.137  -1.478  0.00  0.00     0.050 A 
ATOM     22  C   UNL d   1      26.287 -16.785  -0.714  0.00  0.00     0.036 A 
ATOM     23  C   UNL d   1      25.958 -17.885   0.092  0.00  0.00    -0.059 A 
ATOM     24  C   UNL d   1      27.015 -18.755   0.705  0.00  0.00     0.048 C 
ATOM     25  C   UNL d   1      24.619 -18.254   0.243  0.00  0.00     0.013 A 
ATOM     26  C   UNL d   1      23.631 -17.631  -0.514  0.00  0.00    -0.059 A 
ATOM     27  C   UNL d   1      22.208 -18.086  -0.468  0.00  0.00     0.048 C 
ATOM     28  C   UNL d   1      23.990 -16.602  -1.389  0.00  0.00     0.036 A 
ENDBRANCH   6  21
BRANCH   1  29
ATOM     29  C   UNL d   1      25.974 -11.677  -4.951  0.00  0.00     0.037 A 
ATOM     30  C   UNL d   1      26.699 -11.844  -6.133  0.00  0.00     0.020 A 
ATOM     31  C   UNL d   1      27.041 -10.730  -6.928  0.00  0.00     0.040 A 
ATOM     32  C   UNL d   1      26.607  -9.422  -6.616  0.00  0.00     0.101 A 
ATOM     33  C   UNL d   1      25.815  -9.271  -5.454  0.00  0.00     0.102 A 
ATOM     34  C   UNL d   1      25.530 -10.394  -4.637  0.00  0.00     0.056 A 
BRANCH  32  35
ATOM     35  O   UNL d   1      26.800  -8.530  -7.649  0.00  0.00    -0.353 OA
ATOM     36  C   UNL d   1      26.654  -8.905  -9.022  0.00  0.00     0.210 C 
ENDBRANCH  32  35
BRANCH  33  37
ATOM     37  O   UNL d   1      25.164  -8.175  -4.934  0.00  0.00    -0.353 OA
ATOM     38  C   UNL d   1      24.011  -7.783  -5.624  0.00  0.00     0.210 C 
ENDBRANCH  33  37
ENDBRANCH   1  29
TORSDOF 7
ENDMDL
MODEL 2
REMARK VINA RESULT:    -8.684      4.083      7.160
REMARK INTER + INTRA:         -12.589
REMARK INTER:                 -10.772
REMARK INTRA:                  -1.817
REMARK CONF_INDEPENDENT:        2.088
REMARK UNBOUND:                -1.817
REMARK  7 active torsions:
REMARK  status: ('A' for Active; 'I' for Inactive)
REMARK    1  A    between atoms: O_2  and  C_3 
REMARK    2  A    between atoms: C_6  and  C_7 
REMARK       I    between atoms: C_7  and  N_9 
REMARK       I    between atoms: C_10  and  N_11 
REMARK       I    between atoms: C_10  and  N_23 
REMARK    3  A    between atoms: N_11  and  C_12 
REMARK    4  A    between atoms: C_12  and  C_13 
REMARK    5  A    between atoms: C_13  and  C_14 
REMARK    6  A    between atoms: N_23  and  C_24 
REMARK    7  A    between atoms: C_33  and  O_34 
ROOT
ATOM      1  C   UNL d   1      27.206 -17.289  -0.007  0.00  0.00     0.294 C 
ATOM      2  O   UNL d   1      27.768 -18.351   0.193  0.00  0.00    -0.265 OA
ATOM      3  N   UNL d   1      27.836 -16.053  -0.044  0.00  0.00    -0.023 NA
ATOM      4  C   UNL d   1      29.138 -15.992   0.047  0.00  0.00     0.704 C 
ATOM      5  N   UNL d   1      29.760 -14.767  -0.015  0.00  0.00    -0.224 N 
ATOM      6  N   UNL d   1      29.997 -17.060   0.142  0.00  0.00    -0.190 N 
ATOM      7  H   UNL d   1      30.770 -14.772  -0.091  0.00  0.00     0.177 HD
ATOM      8  H   UNL d   1      29.523 -17.964   0.224  0.00  0.00     0.184 HD
ENDROOT
BRANCH   5   9
ATOM      9  C   UNL d   1      29.070 -13.531  -0.275  0.00  0.00     0.142 C 
BRANCH   9  10
ATOM     10  C   UNL d   1      28.665 -12.852   1.024  0.00  0.00     0.057 C 
BRANCH  10  11
ATOM     11  C   UNL d   1      29.502 -13.182   2.221  0.00  0.00    -0.048 A 
ATOM     12  C   UNL d   1      28.947 -13.686   3.323  0.00  0.00    -0.006 A 
ATOM     13  C   UNL d   1      27.596 -13.998   3.623  0.00  0.00     0.014 A 
ATOM     14  C   UNL d   1      30.027 -13.835   4.302  0.00  0.00     0.038 A 
ATOM     15  C   UNL d   1      27.292 -14.333   4.881  0.00  0.00     0.001 A 
ATOM     16  C   UNL d   1      28.331 -14.515   5.883  0.00  0.00     0.002 A 
ATOM     17  C   UNL d   1      29.643 -14.297   5.655  0.00  0.00     0.030 A 
ATOM     18  N   UNL d   1      31.161 -13.515   3.803  0.00  0.00    -0.385 N 
ATOM     19  C   UNL d   1      30.982 -12.998   2.410  0.00  0.00     0.155 A 
ATOM     20  H   UNL d   1      32.035 -13.617   4.318  0.00  0.00     0.160 HD
ENDBRANCH  10  11
ENDBRANCH   9  10
ENDBRANCH   5   9
BRANCH   6  21
ATOM     21  C   UNL d   1      31.358 -17.125   0.496  0.00  0.00     0.050 A 
ATOM     22  C   UNL d   1      32.186 -18.084  -0.105  0.00  0.00     0.036 A 
ATOM     23  C   UNL d   1      33.543 -18.179   0.239  0.00  0.00    -0.059 A 
ATOM     24  C   UNL d   1      34.381 -19.349  -0.181  0.00  0.00     0.048 C 
ATOM     25  C   UNL d   1      34.107 -17.223   1.088  0.00  0.00     0.013 A 
ATOM     26  C   UNL d   1      33.301 -16.269   1.703  0.00  0.00    -0.059 A 
ATOM     27  C   UNL d   1      33.853 -15.313   2.710  0.00  0.00     0.048 C 
ATOM     28  C   UNL d   1      31.932 -16.252   1.425  0.00  0.00     0.036 A 
ENDBRANCH   6  21
BRANCH   1  29
ATOM     29  C   UNL d   1      25.720 -17.297  -0.271  0.00  0.00     0.037 A 
ATOM     30  C   UNL d   1      24.927 -18.332   0.227  0.00  0.00     0.020 A 
ATOM     31  C   UNL d   1      23.561 -18.417  -0.113  0.00  0.00     0.040 A 
ATOM     32  C   UNL d   1      22.919 -17.432  -0.896  0.00  0.00     0.101 A 
ATOM     33  C   UNL d   1      23.714 -16.349  -1.341  0.00  0.00     0.102 A 
ATOM     34  C   UNL d   1      25.099 -16.312  -1.036  0.00  0.00     0.056 A 
BRANCH  32  35
ATOM     35  O   UNL d   1      21.545 -17.541  -0.880  0.00  0.00    -0.353 OA
ATOM     36  C   UNL d   1      20.878 -18.808  -0.896  0.00  0.00     0.210 C 
ENDBRANCH  32  35
BRANCH  33  37
ATOM     37  O   UNL d   1      23.384 -15.200  -2.022  0.00  0.00    -0.353 OA
ATOM     38  C   UNL d   1      24.420 -14.634  -2.774  0.00  0.00     0.210 C 
ENDBRANCH  33  37
ENDBRANCH   1  29
TORSDOF 7
ENDMDL
MODEL 3
REMARK VINA RESULT:    -8.353      5.015      9.112
REMARK INTER + INTRA:         -12.020
REMARK INTER:                 -10.442
REMARK INTRA:                  -1.579
REMARK CONF_INDEPENDENT:        2.088
REMARK UNBOUND:                -1.579
REMARK  7 active torsions:
REMARK  status: ('A' for Active; 'I' for Inactive)
REMARK    1  A    between atoms: O_2  and  C_3 
REMARK    2  A    between atoms: C_6  and  C_7 
REMARK       I    between atoms: C_7  and  N_9 
REMARK       I    between atoms: C_10  and  N_11 
REMARK       I    between atoms: C_10  and  N_23 
REMARK    3  A    between atoms: N_11  and  C_12 
REMARK    4  A    between atoms: C_12  and  C_13 
REMARK    5  A    between atoms: C_13  and  C_14 
REMARK    6  A    between atoms: N_23  and  C_24 
REMARK    7  A    between atoms: C_33  and  O_34 
ROOT
ATOM      1  C   UNL d   1      27.250 -17.595  -0.388  0.00  0.00     0.294 C 
ATOM      2  O   UNL d   1      27.718 -18.541   0.221  0.00  0.00    -0.265 OA
ATOM      3  N   UNL d   1      27.994 -16.594  -0.996  0.00  0.00    -0.023 NA
ATOM      4  C   UNL d   1      29.297 -16.687  -1.018  0.00  0.00     0.704 C 
ATOM      5  N   UNL d   1      30.031 -15.706  -1.643  0.00  0.00    -0.224 N 
ATOM      6  N   UNL d   1      30.048 -17.725  -0.519  0.00  0.00    -0.190 N 
ATOM      7  H   UNL d   1      31.020 -15.886  -1.770  0.00  0.00     0.177 HD
ATOM      8  H   UNL d   1      29.496 -18.431  -0.024  0.00  0.00     0.184 HD
ENDROOT
BRANCH   5   9
ATOM      9  C   UNL d   1      29.446 -14.612  -2.373  0.00  0.00     0.142 C 
BRANCH   9  10
ATOM     10  C   UNL d   1      28.430 -15.117  -3.385  0.00  0.00     0.057 C 
BRANCH  10  11
ATOM     11  C   UNL d   1      28.943 -15.325  -4.777  0.00  0.00    -0.048 A 
ATOM     12  C   UNL d   1      29.639 -16.417  -5.090  0.00  0.00    -0.006 A 
ATOM     13  C   UNL d   1      30.033 -17.526  -4.299  0.00  0.00     0.014 A 
ATOM     14  C   UNL d   1      30.027 -16.273  -6.496  0.00  0.00     0.038 A 
ATOM     15  C   UNL d   1      30.884 -18.409  -4.832  0.00  0.00     0.001 A 
ATOM     16  C   UNL d   1      31.281 -18.321  -6.229  0.00  0.00     0.002 A 
ATOM     17  C   UNL d   1      30.895 -17.330  -7.061  0.00  0.00     0.030 A 
ATOM     18  N   UNL d   1      29.538 -15.209  -7.012  0.00  0.00    -0.385 N 
ATOM     19  C   UNL d   1      28.815 -14.417  -5.969  0.00  0.00     0.155 A 
ATOM     20  H   UNL d   1      29.649 -14.976  -7.999  0.00  0.00     0.160 HD
ENDBRANCH  10  11
ENDBRANCH   9  10
ENDBRANCH   5   9
BRANCH   6  21
ATOM     21  C   UNL d   1      31.426 -17.827  -0.253  0.00  0.00     0.050 A 
ATOM     22  C   UNL d   1      32.192 -18.790  -0.924  0.00  0.00     0.036 A 
ATOM     23  C   UNL d   1      33.566 -18.922  -0.668  0.00  0.00    -0.059 A 
ATOM     24  C   UNL d   1      34.349 -20.101  -1.163  0.00  0.00     0.048 C 
ATOM     25  C   UNL d   1      34.204 -17.996   0.162  0.00  0.00     0.013 A 
ATOM     26  C   UNL d   1      33.460 -17.039   0.845  0.00  0.00    -0.059 A 
ATOM     27  C   UNL d   1      34.096 -16.116   1.834  0.00  0.00     0.048 C 
ATOM     28  C   UNL d   1      32.077 -16.986   0.655  0.00  0.00     0.036 A 
ENDBRANCH   6  21
BRANCH   1  29
ATOM     29  C   UNL d   1      25.750 -17.503  -0.534  0.00  0.00     0.037 A 
ATOM     30  C   UNL d   1      24.934 -18.508  -0.011  0.00  0.00     0.020 A 
ATOM     31  C   UNL d   1      23.543 -18.496  -0.244  0.00  0.00     0.040 A 
ATOM     32  C   UNL d   1      22.906 -17.443  -0.939  0.00  0.00     0.101 A 
ATOM     33  C   UNL d   1      23.732 -16.394  -1.407  0.00  0.00     0.102 A 
ATOM     34  C   UNL d   1      25.135 -16.453  -1.212  0.00  0.00     0.056 A 
BRANCH  32  35
ATOM     35  O   UNL d   1      21.533 -17.471  -0.818  0.00  0.00    -0.353 OA
ATOM     36  C   UNL d   1      20.782 -18.686  -0.895  0.00  0.00     0.210 C 
ENDBRANCH  32  35
BRANCH  33  37
ATOM     37  O   UNL d   1      23.424 -15.201  -2.020  0.00  0.00    -0.353 OA
ATOM     38  C   UNL d   1      24.459 -14.630  -2.770  0.00  0.00     0.210 C 
ENDBRANCH  33  37
ENDBRANCH   1  29
TORSDOF 7
ENDMDL
MODEL 4
REMARK VINA RESULT:    -8.284      3.520      8.936
REMARK INTER + INTRA:         -12.038
REMARK INTER:                 -10.372
REMARK INTRA:                  -1.666
REMARK CONF_INDEPENDENT:        2.088
REMARK UNBOUND:                -1.666
REMARK  7 active torsions:
REMARK  status: ('A' for Active; 'I' for Inactive)
REMARK    1  A    between atoms: O_2  and  C_3 
REMARK    2  A    between atoms: C_6  and  C_7 
REMARK       I    between atoms: C_7  and  N_9 
REMARK       I    between atoms: C_10  and  N_11 
REMARK       I    between atoms: C_10  and  N_23 
REMARK    3  A    between atoms: N_11  and  C_12 
REMARK    4  A    between atoms: C_12  and  C_13 
REMARK    5  A    between atoms: C_13  and  C_14 
REMARK    6  A    between atoms: N_23  and  C_24 
REMARK    7  A    between atoms: C_33  and  O_34 
ROOT
ATOM      1  C   UNL d   1      27.558 -13.187   2.163  0.00  0.00     0.294 C 
ATOM      2  O   UNL d   1      26.906 -12.205   1.859  0.00  0.00    -0.265 OA
ATOM      3  N   UNL d   1      28.036 -14.132   1.266  0.00  0.00    -0.023 NA
ATOM      4  C   UNL d   1      27.873 -13.940  -0.017  0.00  0.00     0.704 C 
ATOM      5  N   UNL d   1      28.370 -14.866  -0.904  0.00  0.00    -0.224 N 
ATOM      6  N   UNL d   1      27.290 -12.844  -0.608  0.00  0.00    -0.190 N 
ATOM      7  H   UNL d   1      28.356 -14.611  -1.884  0.00  0.00     0.177 HD
ATOM      8  H   UNL d   1      26.891 -12.179   0.061  0.00  0.00     0.184 HD
ENDROOT
BRANCH   5   9
ATOM      9  C   UNL d   1      29.157 -16.006  -0.514  0.00  0.00     0.142 C 
BRANCH   9  10
ATOM     10  C   UNL d   1      28.511 -17.299  -0.986  0.00  0.00     0.057 C 
BRANCH  10  11
ATOM     11  C   UNL d   1      27.228 -17.673  -0.309  0.00  0.00    -0.048 A 
ATOM     12  C   UNL d   1      26.057 -17.261  -0.793  0.00  0.00    -0.006 A 
ATOM     13  C   UNL d   1      25.748 -16.461  -1.922  0.00  0.00     0.014 A 
ATOM     14  C   UNL d   1      25.030 -17.752   0.130  0.00  0.00     0.038 A 
ATOM     15  C   UNL d   1      24.485 -16.052  -2.078  0.00  0.00     0.001 A 
ATOM     16  C   UNL d   1      23.427 -16.530  -1.201  0.00  0.00     0.002 A 
ATOM     17  C   UNL d   1      23.635 -17.343  -0.144  0.00  0.00     0.030 A 
ATOM     18  N   UNL d   1      25.538 -18.470   1.060  0.00  0.00    -0.385 N 
ATOM     19  C   UNL d   1      27.030 -18.480   0.944  0.00  0.00     0.155 A 
ATOM     20  H   UNL d   1      24.969 -18.950   1.756  0.00  0.00     0.160 HD
ENDBRANCH  10  11
ENDBRANCH   9  10
ENDBRANCH   5   9
BRANCH   6  21
ATOM     21  C   UNL d   1      26.832 -12.635  -1.922  0.00  0.00     0.050 A 
ATOM     22  C   UNL d   1      26.651 -11.327  -2.393  0.00  0.00     0.036 A 
ATOM     23  C   UNL d   1      26.182 -11.091  -3.695  0.00  0.00    -0.059 A 
ATOM     24  C   UNL d   1      25.729  -9.731  -4.133  0.00  0.00     0.048 C 
ATOM     25  C   UNL d   1      26.024 -12.165  -4.576  0.00  0.00     0.013 A 
ATOM     26  C   UNL d   1      26.188 -13.471  -4.124  0.00  0.00    -0.059 A 
ATOM     27  C   UNL d   1      25.905 -14.644  -5.007  0.00  0.00     0.048 C 
ATOM     28  C   UNL d   1      26.558 -13.692  -2.795  0.00  0.00     0.036 A 
ENDBRANCH   6  21
BRANCH   1  29
ATOM     29  C   UNL d   1      27.916 -13.395   3.614  0.00  0.00     0.037 A 
ATOM     30  C   UNL d   1      28.367 -14.642   4.052  0.00  0.00     0.020 A 
ATOM     31  C   UNL d   1      28.590 -14.884   5.423  0.00  0.00     0.040 A 
ATOM     32  C   UNL d   1      28.446 -13.871   6.398  0.00  0.00     0.101 A 
ATOM     33  C   UNL d   1      28.054 -12.591   5.938  0.00  0.00     0.102 A 
ATOM     34  C   UNL d   1      27.780 -12.383   4.563  0.00  0.00     0.056 A 
BRANCH  32  35
ATOM     35  O   UNL d   1      28.975 -14.222   7.622  0.00  0.00    -0.353 OA
ATOM     36  C   UNL d   1      30.365 -14.075   7.925  0.00  0.00     0.210 C 
ENDBRANCH  32  35
BRANCH  33  37
ATOM     37  O   UNL d   1      27.923 -11.391   6.598  0.00  0.00    -0.353 OA
ATOM     38  C   UNL d   1      28.922 -11.114   7.538  0.00  0.00     0.210 C 
ENDBRANCH  33  37
ENDBRANCH   1  29
TORSDOF 7
ENDMDL
MODEL 5
REMARK VINA RESULT:    -7.939      2.395      6.153
REMARK INTER + INTRA:         -11.983
REMARK INTER:                 -10.027
REMARK INTRA:                  -1.956
REMARK CONF_INDEPENDENT:        2.088
REMARK UNBOUND:                -1.956
REMARK  7 active torsions:
REMARK  status: ('A' for Active; 'I' for Inactive)
REMARK    1  A    between atoms: O_2  and  C_3 
REMARK    2  A    between atoms: C_6  and  C_7 
REMARK       I    between atoms: C_7  and  N_9 
REMARK       I    between atoms: C_10  and  N_11 
REMARK       I    between atoms: C_10  and  N_23 
REMARK    3  A    between atoms: N_11  and  C_12 
REMARK    4  A    between atoms: C_12  and  C_13 
REMARK    5  A    between atoms: C_13  and  C_14 
REMARK    6  A    between atoms: N_23  and  C_24 
REMARK    7  A    between atoms: C_33  and  O_34 
ROOT
ATOM      1  C   UNL d   1      27.867 -12.947  -1.711  0.00  0.00     0.294 C 
ATOM      2  O   UNL d   1      27.331 -12.045  -1.092  0.00  0.00    -0.265 OA
ATOM      3  N   UNL d   1      28.499 -14.039  -1.134  0.00  0.00    -0.023 NA
ATOM      4  C   UNL d   1      28.457 -14.196   0.162  0.00  0.00     0.704 C 
ATOM      5  N   UNL d   1      29.064 -15.293   0.728  0.00  0.00    -0.224 N 
ATOM      6  N   UNL d   1      27.799 -13.387   1.058  0.00  0.00    -0.190 N 
ATOM      7  H   UNL d   1      28.884 -15.458   1.711  0.00  0.00     0.177 HD
ATOM      8  H   UNL d   1      27.382 -12.554   0.632  0.00  0.00     0.184 HD
ENDROOT
BRANCH   5   9
ATOM      9  C   UNL d   1      29.671 -16.352  -0.034  0.00  0.00     0.142 C 
BRANCH   9  10
ATOM     10  C   UNL d   1      28.698 -16.909  -1.060  0.00  0.00     0.057 C 
BRANCH  10  11
ATOM     11  C   UNL d   1      27.356 -17.315  -0.534  0.00  0.00    -0.048 A 
ATOM     12  C   UNL d   1      26.238 -16.815  -1.059  0.00  0.00    -0.006 A 
ATOM     13  C   UNL d   1      26.041 -15.886  -2.113  0.00  0.00     0.014 A 
ATOM     14  C   UNL d   1      25.127 -17.373  -0.283  0.00  0.00     0.038 A 
ATOM     15  C   UNL d   1      24.805 -15.424  -2.322  0.00  0.00     0.001 A 
ATOM     16  C   UNL d   1      23.667 -15.962  -1.591  0.00  0.00     0.002 A 
ATOM     17  C   UNL d   1      23.769 -16.892  -0.619  0.00  0.00     0.030 A 
ATOM     18  N   UNL d   1      25.541 -18.205   0.598  0.00  0.00    -0.385 N 
ATOM     19  C   UNL d   1      27.036 -18.249   0.601  0.00  0.00     0.155 A 
ATOM     20  H   UNL d   1      24.905 -18.740   1.189  0.00  0.00     0.160 HD
ENDBRANCH  10  11
ENDBRANCH   9  10
ENDBRANCH   5   9
BRANCH   6  21
ATOM     21  C   UNL d   1      27.885 -13.296   2.460  0.00  0.00     0.050 A 
ATOM     22  C   UNL d   1      27.826 -12.039   3.078  0.00  0.00     0.036 A 
ATOM     23  C   UNL d   1      27.923 -11.919   4.473  0.00  0.00    -0.059 A 
ATOM     24  C   UNL d   1      28.129 -10.590   5.136  0.00  0.00     0.048 C 
ATOM     25  C   UNL d   1      27.940 -13.071   5.264  0.00  0.00     0.013 A 
ATOM     26  C   UNL d   1      28.010 -14.328   4.670  0.00  0.00    -0.059 A 
ATOM     27  C   UNL d   1      28.155 -15.571   5.487  0.00  0.00     0.048 C 
ATOM     28  C   UNL d   1      28.014 -14.424   3.276  0.00  0.00     0.036 A 
ENDBRANCH   6  21
BRANCH   1  29
ATOM     29  C   UNL d   1      27.824 -12.911  -3.219  0.00  0.00     0.037 A 
ATOM     30  C   UNL d   1      27.567 -11.710  -3.883  0.00  0.00     0.020 A 
ATOM     31  C   UNL d   1      27.405 -11.685  -5.284  0.00  0.00     0.040 A 
ATOM     32  C   UNL d   1      27.569 -12.841  -6.080  0.00  0.00     0.101 A 
ATOM     33  C   UNL d   1      27.895 -14.041  -5.406  0.00  0.00     0.102 A 
ATOM     34  C   UNL d   1      27.998 -14.057  -3.992  0.00  0.00     0.056 A 
BRANCH  32  35
ATOM     35  O   UNL d   1      27.649 -12.560  -7.427  0.00  0.00    -0.353 OA
ATOM     36  C   UNL d   1      28.775 -12.942  -8.223  0.00  0.00     0.210 C 
ENDBRANCH  32  35
BRANCH  33  37
ATOM     37  O   UNL d   1      28.212 -15.293  -5.883  0.00  0.00    -0.353 OA
ATOM     38  C   UNL d   1      29.110 -16.022  -5.095  0.00  0.00     0.210 C 
ENDBRANCH  33  37
ENDBRANCH   1  29
TORSDOF 7
ENDMDL
MODEL 6
REMARK VINA RESULT:    -7.934      1.951      6.386
REMARK INTER + INTRA:         -12.298
REMARK INTER:                 -10.022
REMARK INTRA:                  -2.276
REMARK CONF_INDEPENDENT:        2.088
REMARK UNBOUND:                -2.276
REMARK  7 active torsions:
REMARK  status: ('A' for Active; 'I' for Inactive)
REMARK    1  A    between atoms: O_2  and  C_3 
REMARK    2  A    between atoms: C_6  and  C_7 
REMARK       I    between atoms: C_7  and  N_9 
REMARK       I    between atoms: C_10  and  N_11 
REMARK       I    between atoms: C_10  and  N_23 
REMARK    3  A    between atoms: N_11  and  C_12 
REMARK    4  A    between atoms: C_12  and  C_13 
REMARK    5  A    between atoms: C_13  and  C_14 
REMARK    6  A    between atoms: N_23  and  C_24 
REMARK    7  A    between atoms: C_33  and  O_34 
ROOT
ATOM      1  C   UNL d   1      27.460 -12.463  -0.863  0.00  0.00     0.294 C 
ATOM      2  O   UNL d   1      27.219 -11.596  -0.042  0.00  0.00    -0.265 OA
ATOM      3  N   UNL d   1      28.167 -13.628  -0.602  0.00  0.00    -0.023 NA
ATOM      4  C   UNL d   1      28.540 -13.893   0.622  0.00  0.00     0.704 C 
ATOM      5  N   UNL d   1      29.219 -15.061   0.881  0.00  0.00    -0.224 N 
ATOM      6  N   UNL d   1      28.268 -13.137   1.737  0.00  0.00    -0.190 N 
ATOM      7  H   UNL d   1      29.358 -15.302   1.855  0.00  0.00     0.177 HD
ATOM      8  H   UNL d   1      27.795 -12.253   1.529  0.00  0.00     0.184 HD
ENDROOT
BRANCH   5   9
ATOM      9  C   UNL d   1      29.468 -16.077  -0.107  0.00  0.00     0.142 C 
BRANCH   9  10
ATOM     10  C   UNL d   1      28.380 -17.138  -0.081  0.00  0.00     0.057 C 
BRANCH  10  11
ATOM     11  C   UNL d   1      27.190 -16.874  -0.952  0.00  0.00    -0.048 A 
ATOM     12  C   UNL d   1      25.974 -17.275  -0.584  0.00  0.00    -0.006 A 
ATOM     13  C   UNL d   1      25.535 -17.971   0.572  0.00  0.00     0.014 A 
ATOM     14  C   UNL d   1      25.067 -16.910  -1.676  0.00  0.00     0.038 A 
ATOM     15  C   UNL d   1      24.271 -18.403   0.604  0.00  0.00     0.001 A 
ATOM     16  C   UNL d   1      23.328 -18.048  -0.445  0.00  0.00     0.002 A 
ATOM     17  C   UNL d   1      23.656 -17.335  -1.543  0.00  0.00     0.030 A 
ATOM     18  N   UNL d   1      25.679 -16.270  -2.600  0.00  0.00    -0.385 N 
ATOM     19  C   UNL d   1      27.142 -16.200  -2.295  0.00  0.00     0.155 A 
ATOM     20  H   UNL d   1      25.196 -15.879  -3.409  0.00  0.00     0.160 HD
ENDBRANCH  10  11
ENDBRANCH   9  10
ENDBRANCH   5   9
BRANCH   6  21
ATOM     21  C   UNL d   1      28.812 -13.170   3.034  0.00  0.00     0.050 A 
ATOM     22  C   UNL d   1      29.732 -12.187   3.426  0.00  0.00     0.036 A 
ATOM     23  C   UNL d   1      30.300 -12.205   4.709  0.00  0.00    -0.059 A 
ATOM     24  C   UNL d   1      31.470 -11.336   5.064  0.00  0.00     0.048 C 
ATOM     25  C   UNL d   1      29.844 -13.131   5.652  0.00  0.00     0.013 A 
ATOM     26  C   UNL d   1      28.940 -14.122   5.280  0.00  0.00    -0.059 A 
ATOM     27  C   UNL d   1      28.530 -15.200   6.230  0.00  0.00     0.048 C 
ATOM     28  C   UNL d   1      28.460 -14.150   3.968  0.00  0.00     0.036 A 
ENDBRANCH   6  21
BRANCH   1  29
ATOM     29  C   UNL d   1      26.929 -12.296  -2.266  0.00  0.00     0.037 A 
ATOM     30  C   UNL d   1      27.074 -11.075  -2.927  0.00  0.00     0.020 A 
ATOM     31  C   UNL d   1      26.478 -10.868  -4.189  0.00  0.00     0.040 A 
ATOM     32  C   UNL d   1      25.785 -11.893  -4.870  0.00  0.00     0.101 A 
ATOM     33  C   UNL d   1      25.700 -13.149  -4.223  0.00  0.00     0.102 A 
ATOM     34  C   UNL d   1      26.257 -13.320  -2.930  0.00  0.00     0.056 A 
BRANCH  32  35
ATOM     35  O   UNL d   1      25.527 -11.585  -6.189  0.00  0.00    -0.353 OA
ATOM     36  C   UNL d   1      25.535 -10.239  -6.676  0.00  0.00     0.210 C 
ENDBRANCH  32  35
BRANCH  33  37
ATOM     37  O   UNL d   1      25.193 -14.356  -4.646  0.00  0.00    -0.353 OA
ATOM     38  C   UNL d   1      26.093 -15.171  -5.342  0.00  0.00     0.210 C 
ENDBRANCH  33  37
ENDBRANCH   1  29
TORSDOF 7
ENDMDL
MODEL 7
REMARK VINA RESULT:    -7.294      4.033      6.650
REMARK INTER + INTRA:         -11.891
REMARK INTER:                  -9.382
REMARK INTRA:                  -2.509
REMARK CONF_INDEPENDENT:        2.088
REMARK UNBOUND:                -2.509
REMARK  7 active torsions:
REMARK  status: ('A' for Active; 'I' for Inactive)
REMARK    1  A    between atoms: O_2  and  C_3 
REMARK    2  A    between atoms: C_6  and  C_7 
REMARK       I    between atoms: C_7  and  N_9 
REMARK       I    between atoms: C_10  and  N_11 
REMARK       I    between atoms: C_10  and  N_23 
REMARK    3  A    between atoms: N_11  and  C_12 
REMARK    4  A    between atoms: C_12  and  C_13 
REMARK    5  A    between atoms: C_13  and  C_14 
REMARK    6  A    between atoms: N_23  and  C_24 
REMARK    7  A    between atoms: C_33  and  O_34 
ROOT
ATOM      1  C   UNL d   1      29.899 -17.134  -3.340  0.00  0.00     0.294 C 
ATOM      2  O   UNL d   1      30.412 -18.183  -3.685  0.00  0.00    -0.265 OA
ATOM      3  N   UNL d   1      29.778 -16.704  -2.026  0.00  0.00    -0.023 NA
ATOM      4  C   UNL d   1      30.323 -17.405  -1.068  0.00  0.00     0.704 C 
ATOM      5  N   UNL d   1      30.221 -16.963   0.231  0.00  0.00    -0.224 N 
ATOM      6  N   UNL d   1      31.067 -18.551  -1.220  0.00  0.00    -0.190 N 
ATOM      7  H   UNL d   1      30.779 -17.449   0.923  0.00  0.00     0.177 HD
ATOM      8  H   UNL d   1      31.106 -18.891  -2.185  0.00  0.00     0.184 HD
ENDROOT
BRANCH   5   9
ATOM      9  C   UNL d   1      29.628 -15.706   0.604  0.00  0.00     0.142 C 
BRANCH   9  10
ATOM     10  C   UNL d   1      28.155 -15.880   0.940  0.00  0.00     0.057 C 
BRANCH  10  11
ATOM     11  C   UNL d   1      27.204 -15.745  -0.209  0.00  0.00    -0.048 A 
ATOM     12  C   UNL d   1      26.183 -16.591  -0.352  0.00  0.00    -0.006 A 
ATOM     13  C   UNL d   1      25.779 -17.699   0.436  0.00  0.00     0.014 A 
ATOM     14  C   UNL d   1      25.499 -16.212  -1.591  0.00  0.00     0.038 A 
ATOM     15  C   UNL d   1      24.809 -18.487  -0.039  0.00  0.00     0.001 A 
ATOM     16  C   UNL d   1      24.086 -18.142  -1.253  0.00  0.00     0.002 A 
ATOM     17  C   UNL d   1      24.372 -17.069  -2.020  0.00  0.00     0.030 A 
ATOM     18  N   UNL d   1      26.023 -15.170  -2.117  0.00  0.00    -0.385 N 
ATOM     19  C   UNL d   1      27.228 -14.749  -1.336  0.00  0.00     0.155 A 
ATOM     20  H   UNL d   1      25.639 -14.723  -2.950  0.00  0.00     0.160 HD
ENDBRANCH  10  11
ENDBRANCH   9  10
ENDBRANCH   5   9
BRANCH   6  21
ATOM     21  C   UNL d   1      31.480 -19.518  -0.285  0.00  0.00     0.050 A 
ATOM     22  C   UNL d   1      32.397 -19.167   0.717  0.00  0.00     0.036 A 
ATOM     23  C   UNL d   1      32.835 -20.115   1.654  0.00  0.00    -0.059 A 
ATOM     24  C   UNL d   1      33.999 -19.847   2.560  0.00  0.00     0.048 C 
ATOM     25  C   UNL d   1      32.251 -21.385   1.674  0.00  0.00     0.013 A 
ATOM     26  C   UNL d   1      31.347 -21.756   0.682  0.00  0.00    -0.059 A 
ATOM     27  C   UNL d   1      30.801 -23.145   0.605  0.00  0.00     0.048 C 
ATOM     28  C   UNL d   1      30.998 -20.830  -0.303  0.00  0.00     0.036 A 
ENDBRANCH   6  21
BRANCH   1  29
ATOM     29  C   UNL d   1      29.382 -16.199  -4.406  0.00  0.00     0.037 A 
ATOM     30  C   UNL d   1      30.168 -15.908  -5.522  0.00  0.00     0.020 A 
ATOM     31  C   UNL d   1      29.749 -14.945  -6.464  0.00  0.00     0.040 A 
ATOM     32  C   UNL d   1      28.497 -14.297  -6.369  0.00  0.00     0.101 A 
ATOM     33  C   UNL d   1      27.676 -14.647  -5.271  0.00  0.00     0.102 A 
ATOM     34  C   UNL d   1      28.140 -15.575  -4.305  0.00  0.00     0.056 A 
BRANCH  32  35
ATOM     35  O   UNL d   1      28.155 -13.615  -7.517  0.00  0.00    -0.353 OA
ATOM     36  C   UNL d   1      28.619 -12.288  -7.786  0.00  0.00     0.210 C 
ENDBRANCH  32  35
BRANCH  33  37
ATOM     37  O   UNL d   1      26.389 -14.282  -4.947  0.00  0.00    -0.353 OA
ATOM     38  C   UNL d   1      26.140 -12.905  -4.955  0.00  0.00     0.210 C 
ENDBRANCH  33  37
ENDBRANCH   1  29
TORSDOF 7
ENDMDL
MODEL 8
REMARK VINA RESULT:    -7.162      2.560      8.610
REMARK INTER + INTRA:         -11.980
REMARK INTER:                  -9.250
REMARK INTRA:                  -2.730
REMARK CONF_INDEPENDENT:        2.088
REMARK UNBOUND:                -2.730
REMARK  7 active torsions:
REMARK  status: ('A' for Active; 'I' for Inactive)
REMARK    1  A    between atoms: O_2  and  C_3 
REMARK    2  A    between atoms: C_6  and  C_7 
REMARK       I    between atoms: C_7  and  N_9 
REMARK       I    between atoms: C_10  and  N_11 
REMARK       I    between atoms: C_10  and  N_23 
REMARK    3  A    between atoms: N_11  and  C_12 
REMARK    4  A    between atoms: C_12  and  C_13 
REMARK    5  A    between atoms: C_13  and  C_14 
REMARK    6  A    between atoms: N_23  and  C_24 
REMARK    7  A    between atoms: C_33  and  O_34 
ROOT
ATOM      1  C   UNL d   1      27.031 -11.966  -0.991  0.00  0.00     0.294 C 
ATOM      2  O   UNL d   1      27.437 -10.825  -1.117  0.00  0.00    -0.265 OA
ATOM      3  N   UNL d   1      26.225 -12.628  -1.907  0.00  0.00    -0.023 NA
ATOM      4  C   UNL d   1      25.934 -12.049  -3.042  0.00  0.00     0.704 C 
ATOM      5  N   UNL d   1      25.155 -12.717  -3.958  0.00  0.00    -0.224 N 
ATOM      6  N   UNL d   1      26.385 -10.823  -3.469  0.00  0.00    -0.190 N 
ATOM      7  H   UNL d   1      25.076 -12.302  -4.879  0.00  0.00     0.177 HD
ATOM      8  H   UNL d   1      26.933 -10.318  -2.766  0.00  0.00     0.184 HD
ENDROOT
BRANCH   5   9
ATOM      9  C   UNL d   1      24.709 -14.075  -3.789  0.00  0.00     0.142 C 
BRANCH   9  10
ATOM     10  C   UNL d   1      25.825 -15.056  -4.106  0.00  0.00     0.057 C 
BRANCH  10  11
ATOM     11  C   UNL d   1      26.598 -15.568  -2.929  0.00  0.00    -0.048 A 
ATOM     12  C   UNL d   1      26.017 -16.351  -2.020  0.00  0.00    -0.006 A 
ATOM     13  C   UNL d   1      24.689 -16.841  -1.930  0.00  0.00     0.014 A 
ATOM     14  C   UNL d   1      27.027 -16.617  -0.993  0.00  0.00     0.038 A 
ATOM     15  C   UNL d   1      24.326 -17.472  -0.809  0.00  0.00     0.001 A 
ATOM     16  C   UNL d   1      25.298 -17.779   0.230  0.00  0.00     0.002 A 
ATOM     17  C   UNL d   1      26.593 -17.400   0.185  0.00  0.00     0.030 A 
ATOM     18  N   UNL d   1      28.156 -16.095  -1.297  0.00  0.00    -0.385 N 
ATOM     19  C   UNL d   1      28.030 -15.300  -2.559  0.00  0.00     0.155 A 
ATOM     20  H   UNL d   1      28.993 -16.230  -0.732  0.00  0.00     0.160 HD
ENDBRANCH  10  11
ENDBRANCH   9  10
ENDBRANCH   5   9
BRANCH   6  21
ATOM     21  C   UNL d   1      25.956  -9.994  -4.522  0.00  0.00     0.050 A 
ATOM     22  C   UNL d   1      24.997  -9.000  -4.276  0.00  0.00     0.036 A 
ATOM     23  C   UNL d   1      24.542  -8.169  -5.312  0.00  0.00    -0.059 A 
ATOM     24  C   UNL d   1      23.341  -7.288  -5.143  0.00  0.00     0.048 C 
ATOM     25  C   UNL d   1      25.148  -8.240  -6.570  0.00  0.00     0.013 A 
ATOM     26  C   UNL d   1      26.094  -9.226  -6.837  0.00  0.00    -0.059 A 
ATOM     27  C   UNL d   1      26.668  -9.407  -8.205  0.00  0.00     0.048 C 
ATOM     28  C   UNL d   1      26.462 -10.111  -5.820  0.00  0.00     0.036 A 
ENDBRANCH   6  21
BRANCH   1  29
ATOM     29  C   UNL d   1      27.451 -12.752   0.227  0.00  0.00     0.037 A 
ATOM     30  C   UNL d   1      26.796 -12.559   1.445  0.00  0.00     0.020 A 
ATOM     31  C   UNL d   1      27.255 -13.195   2.616  0.00  0.00     0.040 A 
ATOM     32  C   UNL d   1      28.335 -14.107   2.602  0.00  0.00     0.101 A 
ATOM     33  C   UNL d   1      28.951 -14.350   1.351  0.00  0.00     0.102 A 
ATOM     34  C   UNL d   1      28.511 -13.656   0.196  0.00  0.00     0.056 A 
BRANCH  32  35
ATOM     35  O   UNL d   1      28.447 -14.827   3.772  0.00  0.00    -0.353 OA
ATOM     36  C   UNL d   1      29.384 -14.480   4.797  0.00  0.00     0.210 C 
ENDBRANCH  32  35
BRANCH  33  37
ATOM     37  O   UNL d   1      29.940 -15.233   0.983  0.00  0.00    -0.353 OA
ATOM     38  C   UNL d   1      31.158 -15.079   1.654  0.00  0.00     0.210 C 
ENDBRANCH  33  37
ENDBRANCH   1  29
TORSDOF 7
ENDMDL
MODEL 9
REMARK VINA RESULT:    -6.797      3.602      8.826
REMARK INTER + INTRA:         -11.925
REMARK INTER:                  -8.885
REMARK INTRA:                  -3.040
REMARK CONF_INDEPENDENT:        2.088
REMARK UNBOUND:                -3.040
REMARK  7 active torsions:
REMARK  status: ('A' for Active; 'I' for Inactive)
REMARK    1  A    between atoms: O_2  and  C_3 
REMARK    2  A    between atoms: C_6  and  C_7 
REMARK       I    between atoms: C_7  and  N_9 
REMARK       I    between atoms: C_10  and  N_11 
REMARK       I    between atoms: C_10  and  N_23 
REMARK    3  A    between atoms: N_11  and  C_12 
REMARK    4  A    between atoms: C_12  and  C_13 
REMARK    5  A    between atoms: C_13  and  C_14 
REMARK    6  A    between atoms: N_23  and  C_24 
REMARK    7  A    between atoms: C_33  and  O_34 
ROOT
ATOM      1  C   UNL d   1      25.363 -13.891  -3.299  0.00  0.00     0.294 C 
ATOM      2  O   UNL d   1      24.618 -13.785  -4.256  0.00  0.00    -0.265 OA
ATOM      3  N   UNL d   1      26.299 -12.943  -2.911  0.00  0.00    -0.023 NA
ATOM      4  C   UNL d   1      26.354 -11.799  -3.541  0.00  0.00     0.704 C 
ATOM      5  N   UNL d   1      27.267 -10.853  -3.140  0.00  0.00    -0.224 N 
ATOM      6  N   UNL d   1      25.530 -11.394  -4.564  0.00  0.00    -0.190 N 
ATOM      7  H   UNL d   1      27.179  -9.930  -3.550  0.00  0.00     0.177 HD
ATOM      8  H   UNL d   1      24.879 -12.118  -4.880  0.00  0.00     0.184 HD
ENDROOT
BRANCH   5   9
ATOM      9  C   UNL d   1      28.118 -11.000  -1.988  0.00  0.00     0.142 C 
BRANCH   9  10
ATOM     10  C   UNL d   1      29.410 -11.711  -2.356  0.00  0.00     0.057 C 
BRANCH  10  11
ATOM     11  C   UNL d   1      29.300 -13.187  -2.587  0.00  0.00    -0.048 A 
ATOM     12  C   UNL d   1      29.170 -13.676  -3.820  0.00  0.00    -0.006 A 
ATOM     13  C   UNL d   1      29.105 -13.021  -5.077  0.00  0.00     0.014 A 
ATOM     14  C   UNL d   1      29.034 -15.128  -3.680  0.00  0.00     0.038 A 
ATOM     15  C   UNL d   1      28.795 -13.752  -6.152  0.00  0.00     0.001 A 
ATOM     16  C   UNL d   1      28.671 -15.199  -6.067  0.00  0.00     0.002 A 
ATOM     17  C   UNL d   1      28.783 -15.898  -4.918  0.00  0.00     0.030 A 
ATOM     18  N   UNL d   1      29.149 -15.495  -2.459  0.00  0.00    -0.385 N 
ATOM     19  C   UNL d   1      29.282 -14.296  -1.573  0.00  0.00     0.155 A 
ATOM     20  H   UNL d   1      29.146 -16.475  -2.178  0.00  0.00     0.160 HD
ENDBRANCH  10  11
ENDBRANCH   9  10
ENDBRANCH   5   9
BRANCH   6  21
ATOM     21  C   UNL d   1      25.641 -10.327  -5.476  0.00  0.00     0.050 A 
ATOM     22  C   UNL d   1      24.864  -9.175  -5.293  0.00  0.00     0.036 A 
ATOM     23  C   UNL d   1      24.946  -8.103  -6.195  0.00  0.00    -0.059 A 
ATOM     24  C   UNL d   1      23.948  -6.983  -6.179  0.00  0.00     0.048 C 
ATOM     25  C   UNL d   1      25.910  -8.126  -7.207  0.00  0.00     0.013 A 
ATOM     26  C   UNL d   1      26.684  -9.264  -7.412  0.00  0.00    -0.059 A 
ATOM     27  C   UNL d   1      27.633  -9.366  -8.561  0.00  0.00     0.048 C 
ATOM     28  C   UNL d   1      26.518 -10.363  -6.565  0.00  0.00     0.036 A 
ENDBRANCH   6  21
BRANCH   1  29
ATOM     29  C   UNL d   1      25.252 -15.122  -2.432  0.00  0.00     0.037 A 
ATOM     30  C   UNL d   1      23.998 -15.576  -2.020  0.00  0.00     0.020 A 
ATOM     31  C   UNL d   1      23.886 -16.651  -1.113  0.00  0.00     0.040 A 
ATOM     32  C   UNL d   1      25.015 -17.361  -0.647  0.00  0.00     0.101 A 
ATOM     33  C   UNL d   1      26.278 -16.938  -1.123  0.00  0.00     0.102 A 
ATOM     34  C   UNL d   1      26.374 -15.819  -1.988  0.00  0.00     0.056 A 
BRANCH  32  35
ATOM     35  O   UNL d   1      24.685 -18.536  -0.005  0.00  0.00    -0.353 OA
ATOM     36  C   UNL d   1      23.400 -19.150  -0.146  0.00  0.00     0.210 C 
ENDBRANCH  32  35
BRANCH  33  37
ATOM     37  O   UNL d   1      27.538 -17.464  -0.945  0.00  0.00    -0.353 OA
ATOM     38  C   UNL d   1      28.189 -17.071   0.230  0.00  0.00     0.210 C 
ENDBRANCH  33  37
ENDBRANCH   1  29
TORSDOF 7
ENDMDL
