MODEL 1
REMARK VINA RESULT:    -9.361      0.000      0.000
REMARK INTER + INTRA:         -13.380
REMARK INTER:                 -11.748
REMARK INTRA:                  -1.632
REMARK CONF_INDEPENDENT:        2.386
REMARK UNBOUND:                -1.632
REMARK  8 active torsions:
REMARK  status: ('A' for Active; 'I' for Inactive)
REMARK    1  A    between atoms: O_2  and  C_3 
REMARK    2  A    between atoms: C_6  and  O_7 
REMARK    3  A    between atoms: C_10  and  C_9 
REMARK    4  A    between atoms: C_10  and  N_24 
REMARK    5  A    between atoms: C_10  and  C_11 
REMARK    6  A    between atoms: C_11  and  N_12 
REMARK       I    between atoms: N_12  and  C_13 
REMARK    7  A    between atoms: C_13  and  C_15 
REMARK    8  A    between atoms: C_18  and  S_19 
ROOT
ATOM      1  C   UNL d   1      27.699 -16.449   0.639  0.00  0.00     0.241 C 
ENDROOT
BRANCH   1   2
ATOM      2  N   UNL d   1      29.231 -16.671   0.229  0.00  0.00    -0.061 N 
ATOM      3  C   UNL d   1      29.274 -17.825  -0.770  0.00  0.00     0.236 C 
ATOM      4  C   UNL d   1      30.636 -18.037  -1.350  0.00  0.00     0.028 C 
ATOM      5  C   UNL d   1      31.223 -16.720  -1.799  0.00  0.00     0.003 C 
ATOM      6  C   UNL d   1      31.459 -15.806  -0.621  0.00  0.00     0.028 C 
ATOM      7  C   UNL d   1      30.126 -15.424   0.025  0.00  0.00     0.236 C 
ATOM      8  H   UNL d   1      29.663 -17.074   1.078  0.00  0.00     0.280 HD
ENDBRANCH   1   2
BRANCH   1   9
ATOM      9  C   UNL d   1      27.396 -15.033   1.146  0.00  0.00     0.161 C 
BRANCH   9  10
ATOM     10  N   UNL d   1      27.817 -14.872   2.532  0.00  0.00    -0.354 N 
ATOM     11  C   UNL d   1      27.669 -13.758   3.279  0.00  0.00     0.256 C 
ATOM     12  O   UNL d   1      27.005 -12.792   2.889  0.00  0.00    -0.268 OA
ATOM     13  H   UNL d   1      28.559 -15.459   2.855  0.00  0.00     0.162 HD
BRANCH  11  14
ATOM     14  C   UNL d   1      28.289 -13.795   4.613  0.00  0.00     0.090 C 
ATOM     15  C   UNL d   1      27.663 -13.194   5.666  0.00  0.00     0.139 C 
ATOM     16  N   UNL d   1      28.155 -13.181   6.931  0.00  0.00    -0.234 NA
ATOM     17  C   UNL d   1      29.309 -13.831   7.154  0.00  0.00     0.189 C 
ATOM     18  N   UNL d   1      30.001 -14.447   6.191  0.00  0.00    -0.210 NA
ATOM     19  C   UNL d   1      29.524 -14.296   4.944  0.00  0.00     0.146 C 
ATOM     20 CL   UNL d   1      30.778 -14.491   3.774  0.00  0.00    -0.061 Cl
BRANCH  17  21
ATOM     21  S   UNL d   1      30.093 -13.803   8.743  0.00  0.00    -0.095 SA
ATOM     22  C   UNL d   1      28.981 -14.825   9.742  0.00  0.00     0.099 C 
ENDBRANCH  17  21
ENDBRANCH  11  14
ENDBRANCH   9  10
ENDBRANCH   1   9
BRANCH   1  23
ATOM     23  C   UNL d   1      26.852 -17.150  -0.409  0.00  0.00     0.010 C 
ATOM     24  C   UNL d   1      26.573 -16.324  -1.519  0.00  0.00     0.076 C 
ATOM     25  C   UNL d   1      25.229 -16.251  -1.901  0.00  0.00     0.040 C 
ATOM     26  C   UNL d   1      24.242 -17.024  -1.249  0.00  0.00     0.039 C 
ATOM     27  C   UNL d   1      24.586 -18.013  -0.322  0.00  0.00     0.069 C 
ATOM     28  C   UNL d   1      25.924 -18.136   0.038  0.00  0.00     0.049 C 
BRANCH  24  29
ATOM     29  O   UNL d   1      27.383 -15.301  -1.985  0.00  0.00    -0.355 OA
ATOM     30  C   UNL d   1      27.774 -15.169  -3.371  0.00  0.00     0.210 C 
ENDBRANCH  24  29
BRANCH  27  31
ATOM     31  O   UNL d   1      23.554 -18.727   0.218  0.00  0.00    -0.356 OA
ATOM     32  C   UNL d   1      22.245 -18.566  -0.338  0.00  0.00     0.210 C 
ENDBRANCH  27  31
ENDBRANCH   1  23
TORSDOF 8
ENDMDL
MODEL 2
REMARK VINA RESULT:    -9.147      5.156      7.997
REMARK INTER + INTRA:         -13.650
REMARK INTER:                 -11.534
REMARK INTRA:                  -2.117
REMARK CONF_INDEPENDENT:        2.386
REMARK UNBOUND:                -2.117
REMARK  8 active torsions:
REMARK  status: ('A' for Active; 'I' for Inactive)
REMARK    1  A    between atoms: O_2  and  C_3 
REMARK    2  A    between atoms: C_6  and  O_7 
REMARK    3  A    between atoms: C_10  and  C_9 
REMARK    4  A    between atoms: C_10  and  N_24 
REMARK    5  A    between atoms: C_10  and  C_11 
REMARK    6  A    between atoms: C_11  and  N_12 
REMARK       I    between atoms: N_12  and  C_13 
REMARK    7  A    between atoms: C_13  and  C_15 
REMARK    8  A    between atoms: C_18  and  S_19 
ROOT
ATOM      1  C   UNL d   1      24.871 -16.014  -1.233  0.00  0.00     0.241 C 
ENDROOT
BRANCH   1   2
ATOM      2  N   UNL d   1      26.201 -15.740  -0.383  0.00  0.00    -0.061 N 
ATOM      3  C   UNL d   1      27.386 -16.212  -1.224  0.00  0.00     0.236 C 
ATOM      4  C   UNL d   1      28.705 -15.873  -0.606  0.00  0.00     0.028 C 
ATOM      5  C   UNL d   1      28.715 -14.431  -0.157  0.00  0.00     0.003 C 
ATOM      6  C   UNL d   1      27.716 -14.205   0.952  0.00  0.00     0.028 C 
ATOM      7  C   UNL d   1      26.294 -14.427   0.434  0.00  0.00     0.236 C 
ATOM      8  H   UNL d   1      26.159 -16.434   0.382  0.00  0.00     0.280 HD
ENDBRANCH   1   2
BRANCH   1   9
ATOM      9  C   UNL d   1      25.132 -16.248  -2.726  0.00  0.00     0.161 C 
BRANCH   9  10
ATOM     10  N   UNL d   1      25.524 -15.010  -3.389  0.00  0.00    -0.354 N 
ATOM     11  C   UNL d   1      25.974 -14.900  -4.656  0.00  0.00     0.256 C 
ATOM     12  O   UNL d   1      25.950 -15.851  -5.444  0.00  0.00    -0.268 OA
ATOM     13  H   UNL d   1      25.819 -14.253  -2.806  0.00  0.00     0.162 HD
BRANCH  11  14
ATOM     14  C   UNL d   1      26.427 -13.559  -5.060  0.00  0.00     0.090 C 
ATOM     15  C   UNL d   1      25.566 -12.504  -4.987  0.00  0.00     0.139 C 
ATOM     16  N   UNL d   1      25.895 -11.233  -5.333  0.00  0.00    -0.234 NA
ATOM     17  C   UNL d   1      27.157 -11.008  -5.734  0.00  0.00     0.189 C 
ATOM     18  N   UNL d   1      28.075 -11.972  -5.843  0.00  0.00    -0.210 NA
ATOM     19  C   UNL d   1      27.635 -13.222  -5.620  0.00  0.00     0.146 C 
ATOM     20 CL   UNL d   1      28.625 -14.381  -6.431  0.00  0.00    -0.061 Cl
BRANCH  17  21
ATOM     21  S   UNL d   1      27.675  -9.409  -6.297  0.00  0.00    -0.095 SA
ATOM     22  C   UNL d   1      26.103  -8.522  -6.442  0.00  0.00     0.099 C 
ENDBRANCH  17  21
ENDBRANCH  11  14
ENDBRANCH   9  10
ENDBRANCH   1   9
BRANCH   1  23
ATOM     23  C   UNL d   1      23.989 -16.925  -0.396  0.00  0.00     0.010 C 
ATOM     24  C   UNL d   1      24.572 -18.191  -0.179  0.00  0.00     0.076 C 
ATOM     25  C   UNL d   1      23.756 -19.293  -0.460  0.00  0.00     0.040 C 
ATOM     26  C   UNL d   1      22.412 -19.122  -0.862  0.00  0.00     0.039 C 
ATOM     27  C   UNL d   1      21.796 -17.868  -0.828  0.00  0.00     0.069 C 
ATOM     28  C   UNL d   1      22.576 -16.763  -0.504  0.00  0.00     0.049 C 
BRANCH  24  29
ATOM     29  O   UNL d   1      25.931 -18.454  -0.123  0.00  0.00    -0.355 OA
ATOM     30  C   UNL d   1      26.665 -18.572   1.116  0.00  0.00     0.210 C 
ENDBRANCH  24  29
BRANCH  27  31
ATOM     31  O   UNL d   1      20.481 -17.824  -1.200  0.00  0.00    -0.356 OA
ATOM     32  C   UNL d   1      19.646 -18.946  -0.895  0.00  0.00     0.210 C 
ENDBRANCH  27  31
ENDBRANCH   1  23
TORSDOF 8
ENDMDL
MODEL 3
REMARK VINA RESULT:    -9.141      5.216      8.080
REMARK INTER + INTRA:         -13.801
REMARK INTER:                 -11.527
REMARK INTRA:                  -2.273
REMARK CONF_INDEPENDENT:        2.386
REMARK UNBOUND:                -2.273
REMARK  8 active torsions:
REMARK  status: ('A' for Active; 'I' for Inactive)
REMARK    1  A    between atoms: O_2  and  C_3 
REMARK    2  A    between atoms: C_6  and  O_7 
REMARK    3  A    between atoms: C_10  and  C_9 
REMARK    4  A    between atoms: C_10  and  N_24 
REMARK    5  A    between atoms: C_10  and  C_11 
REMARK    6  A    between atoms: C_11  and  N_12 
REMARK       I    between atoms: N_12  and  C_13 
REMARK    7  A    between atoms: C_13  and  C_15 
REMARK    8  A    between atoms: C_18  and  S_19 
ROOT
ATOM      1  C   UNL d   1      24.922 -16.238  -1.384  0.00  0.00     0.241 C 
ENDROOT
BRANCH   1   2
ATOM      2  N   UNL d   1      26.271 -15.886  -0.596  0.00  0.00    -0.061 N 
ATOM      3  C   UNL d   1      27.419 -16.585  -1.321  0.00  0.00     0.236 C 
ATOM      4  C   UNL d   1      28.760 -16.214  -0.773  0.00  0.00     0.028 C 
ATOM      5  C   UNL d   1      28.863 -14.716  -0.614  0.00  0.00     0.003 C 
ATOM      6  C   UNL d   1      27.886 -14.216   0.423  0.00  0.00     0.028 C 
ATOM      7  C   UNL d   1      26.450 -14.447  -0.050  0.00  0.00     0.236 C 
ATOM      8  H   UNL d   1      26.191 -16.413   0.290  0.00  0.00     0.280 HD
ENDBRANCH   1   2
BRANCH   1   9
ATOM      9  C   UNL d   1      25.155 -16.700  -2.828  0.00  0.00     0.161 C 
BRANCH   9  10
ATOM     10  N   UNL d   1      26.008 -15.761  -3.546  0.00  0.00    -0.354 N 
ATOM     11  C   UNL d   1      25.586 -14.708  -4.276  0.00  0.00     0.256 C 
ATOM     12  O   UNL d   1      24.406 -14.344  -4.277  0.00  0.00    -0.268 OA
ATOM     13  H   UNL d   1      26.913 -16.085  -3.822  0.00  0.00     0.162 HD
BRANCH  11  14
ATOM     14  C   UNL d   1      26.631 -13.980  -5.013  0.00  0.00     0.090 C 
ATOM     15  C   UNL d   1      27.532 -14.672  -5.768  0.00  0.00     0.139 C 
ATOM     16  N   UNL d   1      28.527 -14.088  -6.484  0.00  0.00    -0.234 NA
ATOM     17  C   UNL d   1      28.594 -12.746  -6.470  0.00  0.00     0.189 C 
ATOM     18  N   UNL d   1      27.762 -11.978  -5.761  0.00  0.00    -0.210 NA
ATOM     19  C   UNL d   1      26.898 -12.633  -4.968  0.00  0.00     0.146 C 
ATOM     20 CL   UNL d   1      26.398 -11.643  -3.646  0.00  0.00    -0.061 Cl
BRANCH  17  21
ATOM     21  S   UNL d   1      29.903 -11.879  -7.292  0.00  0.00    -0.095 SA
ATOM     22  C   UNL d   1      29.345 -11.877  -9.014  0.00  0.00     0.099 C 
ENDBRANCH  17  21
ENDBRANCH  11  14
ENDBRANCH   9  10
ENDBRANCH   1   9
BRANCH   1  23
ATOM     23  C   UNL d   1      24.022 -16.984  -0.413  0.00  0.00     0.010 C 
ATOM     24  C   UNL d   1      24.555 -18.234  -0.034  0.00  0.00     0.076 C 
ATOM     25  C   UNL d   1      23.687 -19.325  -0.145  0.00  0.00     0.040 C 
ATOM     26  C   UNL d   1      22.342 -19.150  -0.542  0.00  0.00     0.039 C 
ATOM     27  C   UNL d   1      21.781 -17.876  -0.671  0.00  0.00     0.069 C 
ATOM     28  C   UNL d   1      22.615 -16.774  -0.517  0.00  0.00     0.049 C 
BRANCH  24  29
ATOM     29  O   UNL d   1      25.903 -18.548   0.033  0.00  0.00    -0.355 OA
ATOM     30  C   UNL d   1      26.652 -18.569   1.269  0.00  0.00     0.210 C 
ENDBRANCH  24  29
BRANCH  27  31
ATOM     31  O   UNL d   1      20.461 -17.824  -1.022  0.00  0.00    -0.356 OA
ATOM     32  C   UNL d   1      19.632 -18.954  -0.733  0.00  0.00     0.210 C 
ENDBRANCH  27  31
ENDBRANCH   1  23
TORSDOF 8
ENDMDL
MODEL 4
REMARK VINA RESULT:    -8.838      3.885      7.627
REMARK INTER + INTRA:         -13.352
REMARK INTER:                 -11.225
REMARK INTRA:                  -2.127
REMARK CONF_INDEPENDENT:        2.386
REMARK UNBOUND:                -2.127
REMARK  8 active torsions:
REMARK  status: ('A' for Active; 'I' for Inactive)
REMARK    1  A    between atoms: O_2  and  C_3 
REMARK    2  A    between atoms: C_6  and  O_7 
REMARK    3  A    between atoms: C_10  and  C_9 
REMARK    4  A    between atoms: C_10  and  N_24 
REMARK    5  A    between atoms: C_10  and  C_11 
REMARK    6  A    between atoms: C_11  and  N_12 
REMARK       I    between atoms: N_12  and  C_13 
REMARK    7  A    between atoms: C_13  and  C_15 
REMARK    8  A    between atoms: C_18  and  S_19 
ROOT
ATOM      1  C   UNL d   1      28.657 -14.044   1.644  0.00  0.00     0.241 C 
ENDROOT
BRANCH   1   2
ATOM      2  N   UNL d   1      29.032 -14.434   3.151  0.00  0.00    -0.061 N 
ATOM      3  C   UNL d   1      30.058 -13.417   3.645  0.00  0.00     0.236 C 
ATOM      4  C   UNL d   1      30.381 -13.579   5.096  0.00  0.00     0.028 C 
ATOM      5  C   UNL d   1      29.110 -13.717   5.902  0.00  0.00     0.003 C 
ATOM      6  C   UNL d   1      28.378 -14.986   5.540  0.00  0.00     0.028 C 
ATOM      7  C   UNL d   1      27.899 -14.922   4.088  0.00  0.00     0.236 C 
ATOM      8  H   UNL d   1      29.583 -15.304   3.056  0.00  0.00     0.280 HD
ENDBRANCH   1   2
BRANCH   1   9
ATOM      9  C   UNL d   1      28.675 -15.234   0.676  0.00  0.00     0.161 C 
BRANCH   9  10
ATOM     10  N   UNL d   1      27.332 -15.765   0.474  0.00  0.00    -0.354 N 
ATOM     11  C   UNL d   1      27.029 -17.011   0.054  0.00  0.00     0.256 C 
ATOM     12  O   UNL d   1      27.888 -17.891  -0.056  0.00  0.00    -0.268 OA
ATOM     13  H   UNL d   1      26.604 -15.105   0.288  0.00  0.00     0.162 HD
BRANCH  11  14
ATOM     14  C   UNL d   1      25.602 -17.272  -0.196  0.00  0.00     0.090 C 
ATOM     15  C   UNL d   1      24.972 -18.278   0.476  0.00  0.00     0.139 C 
ATOM     16  N   UNL d   1      23.660 -18.590   0.314  0.00  0.00    -0.234 NA
ATOM     17  C   UNL d   1      22.943 -17.832  -0.533  0.00  0.00     0.189 C 
ATOM     18  N   UNL d   1      23.467 -16.827  -1.240  0.00  0.00    -0.210 NA
ATOM     19  C   UNL d   1      24.798 -16.672  -1.134  0.00  0.00     0.146 C 
ATOM     20 CL   UNL d   1      25.443 -15.887  -2.529  0.00  0.00    -0.061 Cl
BRANCH  17  21
ATOM     21  S   UNL d   1      21.248 -18.203  -0.893  0.00  0.00    -0.095 SA
ATOM     22  C   UNL d   1      20.906 -19.582   0.229  0.00  0.00     0.099 C 
ENDBRANCH  17  21
ENDBRANCH  11  14
ENDBRANCH   9  10
ENDBRANCH   1   9
BRANCH   1  23
ATOM     23  C   UNL d   1      27.506 -13.055   1.714  0.00  0.00     0.010 C 
ATOM     24  C   UNL d   1      27.133 -12.568   0.443  0.00  0.00     0.076 C 
ATOM     25  C   UNL d   1      27.029 -11.178   0.330  0.00  0.00     0.040 C 
ATOM     26  C   UNL d   1      27.216 -10.338   1.451  0.00  0.00     0.039 C 
ATOM     27  C   UNL d   1      27.338 -10.863   2.741  0.00  0.00     0.069 C 
ATOM     28  C   UNL d   1      27.396 -12.245   2.883  0.00  0.00     0.049 C 
BRANCH  24  29
ATOM     29  O   UNL d   1      27.263 -13.256  -0.753  0.00  0.00    -0.355 OA
ATOM     30  C   UNL d   1      26.646 -12.825  -1.987  0.00  0.00     0.210 C 
ENDBRANCH  24  29
BRANCH  27  31
ATOM     31  O   UNL d   1      27.475  -9.958   3.756  0.00  0.00    -0.356 OA
ATOM     32  C   UNL d   1      28.195 -10.351   4.929  0.00  0.00     0.210 C 
ENDBRANCH  27  31
ENDBRANCH   1  23
TORSDOF 8
ENDMDL
MODEL 5
REMARK VINA RESULT:    -8.325      4.910      7.152
REMARK INTER + INTRA:         -12.643
REMARK INTER:                 -10.711
REMARK INTRA:                  -1.932
REMARK CONF_INDEPENDENT:        2.386
REMARK UNBOUND:                -1.932
REMARK  8 active torsions:
REMARK  status: ('A' for Active; 'I' for Inactive)
REMARK    1  A    between atoms: O_2  and  C_3 
REMARK    2  A    between atoms: C_6  and  O_7 
REMARK    3  A    between atoms: C_10  and  C_9 
REMARK    4  A    between atoms: C_10  and  N_24 
REMARK    5  A    between atoms: C_10  and  C_11 
REMARK    6  A    between atoms: C_11  and  N_12 
REMARK       I    between atoms: N_12  and  C_13 
REMARK    7  A    between atoms: C_13  and  C_15 
REMARK    8  A    between atoms: C_18  and  S_19 
ROOT
ATOM      1  C   UNL d   1      28.147 -15.887  -1.255  0.00  0.00     0.241 C 
ENDROOT
BRANCH   1   2
ATOM      2  N   UNL d   1      29.720 -16.190  -1.204  0.00  0.00    -0.061 N 
ATOM      3  C   UNL d   1      30.159 -16.080   0.254  0.00  0.00     0.236 C 
ATOM      4  C   UNL d   1      31.583 -16.489   0.461  0.00  0.00     0.028 C 
ATOM      5  C   UNL d   1      31.856 -17.799  -0.240  0.00  0.00     0.003 C 
ATOM      6  C   UNL d   1      31.727 -17.646  -1.736  0.00  0.00     0.028 C 
ATOM      7  C   UNL d   1      30.281 -17.314  -2.109  0.00  0.00     0.236 C 
ATOM      8  H   UNL d   1      30.150 -15.361  -1.647  0.00  0.00     0.280 HD
ENDBRANCH   1   2
BRANCH   1   9
ATOM      9  C   UNL d   1      27.474 -15.896   0.124  0.00  0.00     0.161 C 
BRANCH   9  10
ATOM     10  N   UNL d   1      26.110 -16.404   0.037  0.00  0.00    -0.354 N 
ATOM     11  C   UNL d   1      25.756 -17.681  -0.217  0.00  0.00     0.256 C 
ATOM     12  O   UNL d   1      26.585 -18.595  -0.250  0.00  0.00    -0.268 OA
ATOM     13  H   UNL d   1      25.393 -15.748  -0.202  0.00  0.00     0.162 HD
BRANCH  11  14
ATOM     14  C   UNL d   1      24.314 -17.924  -0.383  0.00  0.00     0.090 C 
ATOM     15  C   UNL d   1      23.816 -19.181  -0.202  0.00  0.00     0.139 C 
ATOM     16  N   UNL d   1      22.502 -19.500  -0.329  0.00  0.00    -0.234 NA
ATOM     17  C   UNL d   1      21.648 -18.503  -0.613  0.00  0.00     0.189 C 
ATOM     18  N   UNL d   1      22.035 -17.240  -0.812  0.00  0.00    -0.210 NA
ATOM     19  C   UNL d   1      23.363 -17.031  -0.810  0.00  0.00     0.146 C 
ATOM     20 CL   UNL d   1      23.769 -15.626  -1.727  0.00  0.00    -0.061 Cl
BRANCH  17  21
ATOM     21  S   UNL d   1      19.926 -18.815  -0.893  0.00  0.00    -0.095 SA
ATOM     22  C   UNL d   1      19.571 -20.128   0.302  0.00  0.00     0.099 C 
ENDBRANCH  17  21
ENDBRANCH  11  14
ENDBRANCH   9  10
ENDBRANCH   1   9
BRANCH   1  23
ATOM     23  C   UNL d   1      27.941 -14.773  -2.266  0.00  0.00     0.010 C 
ATOM     24  C   UNL d   1      26.805 -13.987  -1.981  0.00  0.00     0.076 C 
ATOM     25  C   UNL d   1      25.922 -13.783  -3.046  0.00  0.00     0.040 C 
ATOM     26  C   UNL d   1      26.210 -14.280  -4.338  0.00  0.00     0.039 C 
ATOM     27  C   UNL d   1      27.455 -14.837  -4.642  0.00  0.00     0.069 C 
ATOM     28  C   UNL d   1      28.368 -15.006  -3.607  0.00  0.00     0.049 C 
BRANCH  24  29
ATOM     29  O   UNL d   1      26.280 -13.758  -0.719  0.00  0.00    -0.355 OA
ATOM     30  C   UNL d   1      26.785 -12.742   0.177  0.00  0.00     0.210 C 
ENDBRANCH  24  29
BRANCH  27  31
ATOM     31  O   UNL d   1      27.639 -15.250  -5.933  0.00  0.00    -0.356 OA
ATOM     32  C   UNL d   1      28.955 -15.183  -6.491  0.00  0.00     0.210 C 
ENDBRANCH  27  31
ENDBRANCH   1  23
TORSDOF 8
ENDMDL
MODEL 6
REMARK VINA RESULT:    -8.249      3.697      7.548
REMARK INTER + INTRA:         -12.809
REMARK INTER:                 -10.635
REMARK INTRA:                  -2.174
REMARK CONF_INDEPENDENT:        2.386
REMARK UNBOUND:                -2.174
REMARK  8 active torsions:
REMARK  status: ('A' for Active; 'I' for Inactive)
REMARK    1  A    between atoms: O_2  and  C_3 
REMARK    2  A    between atoms: C_6  and  O_7 
REMARK    3  A    between atoms: C_10  and  C_9 
REMARK    4  A    between atoms: C_10  and  N_24 
REMARK    5  A    between atoms: C_10  and  C_11 
REMARK    6  A    between atoms: C_11  and  N_12 
REMARK       I    between atoms: N_12  and  C_13 
REMARK    7  A    between atoms: C_13  and  C_15 
REMARK    8  A    between atoms: C_18  and  S_19 
ROOT
ATOM      1  C   UNL d   1      30.279 -13.930   2.694  0.00  0.00     0.241 C 
ENDROOT
BRANCH   1   2
ATOM      2  N   UNL d   1      31.683 -13.515   3.343  0.00  0.00    -0.061 N 
ATOM      3  C   UNL d   1      32.783 -14.010   2.406  0.00  0.00     0.236 C 
ATOM      4  C   UNL d   1      34.145 -13.553   2.823  0.00  0.00     0.028 C 
ATOM      5  C   UNL d   1      34.127 -12.076   3.138  0.00  0.00     0.003 C 
ATOM      6  C   UNL d   1      33.257 -11.793   4.339  0.00  0.00     0.028 C 
ATOM      7  C   UNL d   1      31.798 -12.129   4.023  0.00  0.00     0.236 C 
ATOM      8  H   UNL d   1      31.773 -14.135   4.166  0.00  0.00     0.280 HD
ENDBRANCH   1   2
BRANCH   1   9
ATOM      9  C   UNL d   1      30.408 -14.576   1.308  0.00  0.00     0.161 C 
BRANCH   9  10
ATOM     10  N   UNL d   1      29.236 -15.386   0.998  0.00  0.00    -0.354 N 
ATOM     11  C   UNL d   1      28.556 -15.378  -0.167  0.00  0.00     0.256 C 
ATOM     12  O   UNL d   1      28.969 -14.774  -1.162  0.00  0.00    -0.268 OA
ATOM     13  H   UNL d   1      28.682 -15.702   1.768  0.00  0.00     0.162 HD
BRANCH  11  14
ATOM     14  C   UNL d   1      27.329 -16.191  -0.197  0.00  0.00     0.090 C 
ATOM     15  C   UNL d   1      27.317 -17.417   0.399  0.00  0.00     0.139 C 
ATOM     16  N   UNL d   1      26.233 -18.235   0.426  0.00  0.00    -0.234 NA
ATOM     17  C   UNL d   1      25.101 -17.782  -0.140  0.00  0.00     0.189 C 
ATOM     18  N   UNL d   1      25.011 -16.598  -0.752  0.00  0.00    -0.210 NA
ATOM     19  C   UNL d   1      26.161 -15.910  -0.862  0.00  0.00     0.146 C 
ATOM     20 CL   UNL d   1      26.104 -14.821  -2.199  0.00  0.00    -0.061 Cl
BRANCH  17  21
ATOM     21  S   UNL d   1      23.652 -18.797  -0.246  0.00  0.00    -0.095 SA
ATOM     22  C   UNL d   1      22.344 -17.576  -0.520  0.00  0.00     0.099 C 
ENDBRANCH  17  21
ENDBRANCH  11  14
ENDBRANCH   9  10
ENDBRANCH   1   9
BRANCH   1  23
ATOM     23  C   UNL d   1      29.432 -14.524   3.806  0.00  0.00     0.010 C 
ATOM     24  C   UNL d   1      28.058 -14.251   3.644  0.00  0.00     0.076 C 
ATOM     25  C   UNL d   1      27.405 -13.726   4.765  0.00  0.00     0.040 C 
ATOM     26  C   UNL d   1      28.083 -13.561   5.994  0.00  0.00     0.039 C 
ATOM     27  C   UNL d   1      29.370 -14.070   6.188  0.00  0.00     0.069 C 
ATOM     28  C   UNL d   1      30.022 -14.640   5.100  0.00  0.00     0.049 C 
BRANCH  24  29
ATOM     29  O   UNL d   1      27.412 -14.060   2.433  0.00  0.00    -0.355 OA
ATOM     30  C   UNL d   1      26.893 -12.780   2.006  0.00  0.00     0.210 C 
ENDBRANCH  24  29
BRANCH  27  31
ATOM     31  O   UNL d   1      29.916 -13.887   7.428  0.00  0.00    -0.356 OA
ATOM     32  C   UNL d   1      30.989 -12.951   7.572  0.00  0.00     0.210 C 
ENDBRANCH  27  31
ENDBRANCH   1  23
TORSDOF 8
ENDMDL
MODEL 7
REMARK VINA RESULT:    -7.454      4.562      6.401
REMARK INTER + INTRA:         -12.477
REMARK INTER:                  -9.840
REMARK INTRA:                  -2.637
REMARK CONF_INDEPENDENT:        2.386
REMARK UNBOUND:                -2.637
REMARK  8 active torsions:
REMARK  status: ('A' for Active; 'I' for Inactive)
REMARK    1  A    between atoms: O_2  and  C_3 
REMARK    2  A    between atoms: C_6  and  O_7 
REMARK    3  A    between atoms: C_10  and  C_9 
REMARK    4  A    between atoms: C_10  and  N_24 
REMARK    5  A    between atoms: C_10  and  C_11 
REMARK    6  A    between atoms: C_11  and  N_12 
REMARK       I    between atoms: N_12  and  C_13 
REMARK    7  A    between atoms: C_13  and  C_15 
REMARK    8  A    between atoms: C_18  and  S_19 
ROOT
ATOM      1  C   UNL d   1      27.405 -16.274   0.580  0.00  0.00     0.241 C 
ENDROOT
BRANCH   1   2
ATOM      2  N   UNL d   1      28.953 -16.499   0.234  0.00  0.00    -0.061 N 
ATOM      3  C   UNL d   1      29.064 -17.823  -0.520  0.00  0.00     0.236 C 
ATOM      4  C   UNL d   1      30.445 -18.079  -1.035  0.00  0.00     0.028 C 
ATOM      5  C   UNL d   1      30.980 -16.849  -1.728  0.00  0.00     0.003 C 
ATOM      6  C   UNL d   1      31.154 -15.712  -0.750  0.00  0.00     0.028 C 
ATOM      7  C   UNL d   1      29.794 -15.275  -0.203  0.00  0.00     0.236 C 
ATOM      8  H   UNL d   1      29.387 -16.708   1.149  0.00  0.00     0.280 HD
ENDBRANCH   1   2
BRANCH   1   9
ATOM      9  C   UNL d   1      27.035 -14.805   0.820  0.00  0.00     0.161 C 
BRANCH   9  10
ATOM     10  N   UNL d   1      26.902 -14.086  -0.442  0.00  0.00    -0.354 N 
ATOM     11  C   UNL d   1      26.945 -12.747  -0.597  0.00  0.00     0.256 C 
ATOM     12  O   UNL d   1      27.262 -11.991   0.327  0.00  0.00    -0.268 OA
ATOM     13  H   UNL d   1      26.408 -14.546  -1.179  0.00  0.00     0.162 HD
BRANCH  11  14
ATOM     14  C   UNL d   1      26.658 -12.250  -1.952  0.00  0.00     0.090 C 
ATOM     15  C   UNL d   1      25.813 -12.949  -2.763  0.00  0.00     0.139 C 
ATOM     16  N   UNL d   1      25.487 -12.568  -4.025  0.00  0.00    -0.234 NA
ATOM     17  C   UNL d   1      26.005 -11.413  -4.476  0.00  0.00     0.189 C 
ATOM     18  N   UNL d   1      26.844 -10.657  -3.762  0.00  0.00    -0.210 NA
ATOM     19  C   UNL d   1      27.230 -11.172  -2.582  0.00  0.00     0.146 C 
ATOM     20 CL   UNL d   1      28.756 -10.528  -2.096  0.00  0.00    -0.061 Cl
BRANCH  17  21
ATOM     21  S   UNL d   1      25.723 -10.862  -6.137  0.00  0.00    -0.095 SA
ATOM     22  C   UNL d   1      25.028  -9.209  -5.884  0.00  0.00     0.099 C 
ENDBRANCH  17  21
ENDBRANCH  11  14
ENDBRANCH   9  10
ENDBRANCH   1   9
BRANCH   1  23
ATOM     23  C   UNL d   1      26.607 -17.187  -0.335  0.00  0.00     0.010 C 
ATOM     24  C   UNL d   1      26.493 -16.675  -1.645  0.00  0.00     0.076 C 
ATOM     25  C   UNL d   1      25.199 -16.641  -2.175  0.00  0.00     0.040 C 
ATOM     26  C   UNL d   1      24.102 -17.165  -1.455  0.00  0.00     0.039 C 
ATOM     27  C   UNL d   1      24.285 -17.887  -0.272  0.00  0.00     0.069 C 
ATOM     28  C   UNL d   1      25.572 -17.974   0.250  0.00  0.00     0.049 C 
BRANCH  24  29
ATOM     29  O   UNL d   1      27.416 -15.852  -2.271  0.00  0.00    -0.355 OA
ATOM     30  C   UNL d   1      27.396 -15.575  -3.690  0.00  0.00     0.210 C 
ENDBRANCH  24  29
BRANCH  27  31
ATOM     31  O   UNL d   1      23.157 -18.382   0.321  0.00  0.00    -0.356 OA
ATOM     32  C   UNL d   1      22.115 -18.896  -0.514  0.00  0.00     0.210 C 
ENDBRANCH  27  31
ENDBRANCH   1  23
TORSDOF 8
ENDMDL
MODEL 8
REMARK VINA RESULT:    -7.343      5.053      7.744
REMARK INTER + INTRA:         -12.387
REMARK INTER:                  -9.730
REMARK INTRA:                  -2.657
REMARK CONF_INDEPENDENT:        2.386
REMARK UNBOUND:                -2.657
REMARK  8 active torsions:
REMARK  status: ('A' for Active; 'I' for Inactive)
REMARK    1  A    between atoms: O_2  and  C_3 
REMARK    2  A    between atoms: C_6  and  O_7 
REMARK    3  A    between atoms: C_10  and  C_9 
REMARK    4  A    between atoms: C_10  and  N_24 
REMARK    5  A    between atoms: C_10  and  C_11 
REMARK    6  A    between atoms: C_11  and  N_12 
REMARK       I    between atoms: N_12  and  C_13 
REMARK    7  A    between atoms: C_13  and  C_15 
REMARK    8  A    between atoms: C_18  and  S_19 
ROOT
ATOM      1  C   UNL d   1      25.109 -15.155  -1.635  0.00  0.00     0.241 C 
ENDROOT
BRANCH   1   2
ATOM      2  N   UNL d   1      26.369 -14.442  -0.952  0.00  0.00    -0.061 N 
ATOM      3  C   UNL d   1      26.753 -13.253  -1.829  0.00  0.00     0.236 C 
ATOM      4  C   UNL d   1      27.826 -12.408  -1.221  0.00  0.00     0.028 C 
ATOM      5  C   UNL d   1      27.505 -12.117   0.226  0.00  0.00     0.003 C 
ATOM      6  C   UNL d   1      27.519 -13.384   1.047  0.00  0.00     0.028 C 
ATOM      7  C   UNL d   1      26.396 -14.319   0.592  0.00  0.00     0.236 C 
ATOM      8  H   UNL d   1      27.146 -15.109  -1.099  0.00  0.00     0.280 HD
ENDBRANCH   1   2
BRANCH   1   9
ATOM      9  C   UNL d   1      25.319 -15.489  -3.118  0.00  0.00     0.161 C 
BRANCH   9  10
ATOM     10  N   UNL d   1      26.736 -15.649  -3.422  0.00  0.00    -0.354 N 
ATOM     11  C   UNL d   1      27.295 -15.574  -4.648  0.00  0.00     0.256 C 
ATOM     12  O   UNL d   1      26.656 -15.201  -5.636  0.00  0.00    -0.268 OA
ATOM     13  H   UNL d   1      27.284 -16.184  -2.779  0.00  0.00     0.162 HD
BRANCH  11  14
ATOM     14  C   UNL d   1      28.729 -15.898  -4.718  0.00  0.00     0.090 C 
ATOM     15  C   UNL d   1      29.349 -16.458  -3.639  0.00  0.00     0.139 C 
ATOM     16  N   UNL d   1      30.664 -16.793  -3.612  0.00  0.00    -0.234 NA
ATOM     17  C   UNL d   1      31.378 -16.591  -4.732  0.00  0.00     0.189 C 
ATOM     18  N   UNL d   1      30.866 -16.047  -5.839  0.00  0.00    -0.210 NA
ATOM     19  C   UNL d   1      29.599 -15.611  -5.741  0.00  0.00     0.146 C 
ATOM     20 CL   UNL d   1      29.283 -14.363  -6.890  0.00  0.00    -0.061 Cl
BRANCH  17  21
ATOM     21  S   UNL d   1      33.121 -16.905  -4.784  0.00  0.00    -0.095 SA
ATOM     22  C   UNL d   1      33.448 -16.985  -6.563  0.00  0.00     0.099 C 
ENDBRANCH  17  21
ENDBRANCH  11  14
ENDBRANCH   9  10
ENDBRANCH   1   9
BRANCH   1  23
ATOM     23  C   UNL d   1      24.567 -16.159  -0.632  0.00  0.00     0.010 C 
ATOM     24  C   UNL d   1      25.449 -17.240  -0.419  0.00  0.00     0.076 C 
ATOM     25  C   UNL d   1      24.883 -18.516  -0.519  0.00  0.00     0.040 C 
ATOM     26  C   UNL d   1      23.498 -18.685  -0.743  0.00  0.00     0.039 C 
ATOM     27  C   UNL d   1      22.617 -17.601  -0.703  0.00  0.00     0.069 C 
ATOM     28  C   UNL d   1      23.153 -16.325  -0.557  0.00  0.00     0.049 C 
BRANCH  24  29
ATOM     29  O   UNL d   1      26.829 -17.188  -0.534  0.00  0.00    -0.355 OA
ATOM     30  C   UNL d   1      27.709 -18.180   0.042  0.00  0.00     0.210 C 
ENDBRANCH  24  29
BRANCH  27  31
ATOM     31  O   UNL d   1      21.293 -17.884  -0.895  0.00  0.00    -0.356 OA
ATOM     32  C   UNL d   1      20.867 -19.247  -0.814  0.00  0.00     0.210 C 
ENDBRANCH  27  31
ENDBRANCH   1  23
TORSDOF 8
ENDMDL
MODEL 9
REMARK VINA RESULT:    -6.965      4.093      7.372
REMARK INTER + INTRA:         -12.895
REMARK INTER:                  -9.351
REMARK INTRA:                  -3.543
REMARK CONF_INDEPENDENT:        2.386
REMARK UNBOUND:                -3.543
REMARK  8 active torsions:
REMARK  status: ('A' for Active; 'I' for Inactive)
REMARK    1  A    between atoms: O_2  and  C_3 
REMARK    2  A    between atoms: C_6  and  O_7 
REMARK    3  A    between atoms: C_10  and  C_9 
REMARK    4  A    between atoms: C_10  and  N_24 
REMARK    5  A    between atoms: C_10  and  C_11 
REMARK    6  A    between atoms: C_11  and  N_12 
REMARK       I    between atoms: N_12  and  C_13 
REMARK    7  A    between atoms: C_13  and  C_15 
REMARK    8  A    between atoms: C_18  and  S_19 
ROOT
ATOM      1  C   UNL d   1      27.600 -14.619   1.496  0.00  0.00     0.241 C 
ENDROOT
BRANCH   1   2
ATOM      2  N   UNL d   1      28.660 -14.660   2.696  0.00  0.00    -0.061 N 
ATOM      3  C   UNL d   1      29.613 -13.482   2.503  0.00  0.00     0.236 C 
ATOM      4  C   UNL d   1      30.565 -13.316   3.644  0.00  0.00     0.028 C 
ATOM      5  C   UNL d   1      29.822 -13.388   4.958  0.00  0.00     0.003 C 
ATOM      6  C   UNL d   1      29.228 -14.760   5.166  0.00  0.00     0.028 C 
ATOM      7  C   UNL d   1      28.155 -15.035   4.111  0.00  0.00     0.236 C 
ATOM      8  H   UNL d   1      29.250 -15.482   2.483  0.00  0.00     0.280 HD
ENDBRANCH   1   2
BRANCH   1   9
ATOM      9  C   UNL d   1      27.683 -13.346   0.643  0.00  0.00     0.161 C 
BRANCH   9  10
ATOM     10  N   UNL d   1      28.081 -13.658  -0.725  0.00  0.00    -0.354 N 
ATOM     11  C   UNL d   1      27.297 -13.557  -1.818  0.00  0.00     0.256 C 
ATOM     12  O   UNL d   1      26.181 -13.030  -1.776  0.00  0.00    -0.268 OA
ATOM     13  H   UNL d   1      28.833 -14.306  -0.845  0.00  0.00     0.162 HD
BRANCH  11  14
ATOM     14  C   UNL d   1      27.884 -14.051  -3.074  0.00  0.00     0.090 C 
ATOM     15  C   UNL d   1      29.198 -13.805  -3.348  0.00  0.00     0.139 C 
ATOM     16  N   UNL d   1      29.827 -14.223  -4.476  0.00  0.00    -0.234 NA
ATOM     17  C   UNL d   1      29.112 -14.952  -5.349  0.00  0.00     0.189 C 
ATOM     18  N   UNL d   1      27.820 -15.244  -5.176  0.00  0.00    -0.210 NA
ATOM     19  C   UNL d   1      27.233 -14.676  -4.109  0.00  0.00     0.146 C 
ATOM     20 CL   UNL d   1      25.530 -14.523  -4.347  0.00  0.00    -0.061 Cl
BRANCH  17  21
ATOM     21  S   UNL d   1      29.800 -15.473  -6.897  0.00  0.00    -0.095 SA
ATOM     22  C   UNL d   1      30.648 -17.008  -6.447  0.00  0.00     0.099 C 
ENDBRANCH  17  21
ENDBRANCH  11  14
ENDBRANCH   9  10
ENDBRANCH   1   9
BRANCH   1  23
ATOM     23  C   UNL d   1      27.554 -16.013   0.895  0.00  0.00     0.010 C 
ATOM     24  C   UNL d   1      28.720 -16.325   0.164  0.00  0.00     0.076 C 
ATOM     25  C   UNL d   1      28.514 -16.830  -1.124  0.00  0.00     0.040 C 
ATOM     26  C   UNL d   1      27.211 -17.075  -1.613  0.00  0.00     0.039 C 
ATOM     27  C   UNL d   1      26.093 -16.989  -0.778  0.00  0.00     0.069 C 
ATOM     28  C   UNL d   1      26.280 -16.535   0.524  0.00  0.00     0.049 C 
BRANCH  24  29
ATOM     29  O   UNL d   1      29.986 -15.817   0.411  0.00  0.00    -0.355 OA
ATOM     30  C   UNL d   1      31.180 -16.632   0.409  0.00  0.00     0.210 C 
ENDBRANCH  24  29
BRANCH  27  31
ATOM     31  O   UNL d   1      24.885 -17.285  -1.345  0.00  0.00    -0.356 OA
ATOM     32  C   UNL d   1      23.861 -17.848  -0.518  0.00  0.00     0.210 C 
ENDBRANCH  27  31
ENDBRANCH   1  23
TORSDOF 8
ENDMDL
