MODEL 1
REMARK VINA RESULT:   -23.082      0.000      0.000
REMARK INTER + INTRA:         -24.898
REMARK INTER:                 -24.275
REMARK INTRA:                  -0.622
REMARK CONF_INDEPENDENT:        1.193
REMARK UNBOUND:                -0.622
REMARK  4 active torsions:
REMARK  status: ('A' for Active; 'I' for Inactive)
REMARK    1  A    between atoms: C_11  and  N_12 
REMARK    2  A    between atoms: N_12  and  N_13 
REMARK    3  A    between atoms: N_17  and  C_18 
REMARK    4  A    between atoms: C_23  and  N_24 
ROOT
ATOM      1  N   UNL d   1      22.516 -16.876  -1.270  0.00  0.00    -0.182 NA
ATOM      2  C   UNL d   1      23.817 -16.789  -1.362  0.00  0.00     0.035 C 
ATOM      3  C   UNL d   1      24.542 -15.469  -1.084  0.00  0.00     0.076 C 
ATOM      4  C   UNL d   1      25.744 -15.719  -0.154  0.00  0.00     0.130 C 
ATOM      5  N   UNL d   1      26.593 -16.802  -0.689  0.00  0.00    -0.365 N 
ATOM      6  C   UNL d   1      25.914 -18.073  -0.910  0.00  0.00     0.130 C 
ATOM      7  C   UNL d   1      24.708 -17.920  -1.831  0.00  0.00     0.076 C 
ENDROOT
BRANCH   1   8
ATOM      8  N   UNL d   1      21.929 -18.121  -1.452  0.00  0.00    -0.257 N 
ATOM      9  H   UNL d   1      22.230 -18.648  -2.273  0.00  0.00     0.191 HD
BRANCH   8  10
ATOM     10  C   UNL d   1      20.954 -18.762  -0.680  0.00  0.00     0.213 C 
ATOM     11  N   UNL d   1      19.905 -19.325  -1.224  0.00  0.00    -0.223 NA
ATOM     12  C   UNL d   1      19.107 -20.170  -0.416  0.00  0.00     0.086 A 
ATOM     13  C   UNL d   1      17.868 -20.601  -0.878  0.00  0.00     0.034 A 
ATOM     14  C   UNL d   1      19.530 -20.640   0.839  0.00  0.00     0.064 A 
ATOM     15  C   UNL d   1      17.082 -21.471  -0.110  0.00  0.00     0.002 A 
ATOM     16  C   UNL d   1      17.540 -21.951   1.118  0.00  0.00     0.002 A 
ATOM     17  C   UNL d   1      18.778 -21.541   1.598  0.00  0.00     0.032 A 
ATOM     18  N   UNL d   1      20.681 -20.091   1.396  0.00  0.00    -0.318 N 
ATOM     19  C   UNL d   1      21.205 -18.945   0.846  0.00  0.00     0.293 C 
ATOM     20  H   UNL d   1      20.951 -20.340   2.336  0.00  0.00     0.169 HD
ATOM     21  O   UNL d   1      21.978 -18.225   1.480  0.00  0.00    -0.264 OA
ENDBRANCH   8  10
ENDBRANCH   1   8
BRANCH   5  22
ATOM     22  C   UNL d   1      27.914 -16.726  -1.020  0.00  0.00     0.137 A 
ATOM     23  N   UNL d   1      28.782 -17.250  -0.123  0.00  0.00    -0.350 N 
ATOM     24  C   UNL d   1      30.099 -17.399  -0.347  0.00  0.00     0.090 A 
ATOM     25  H   UNL d   1      28.383 -17.589   0.751  0.00  0.00     0.166 HD
ATOM     26  C   UNL d   1      30.648 -17.021  -1.564  0.00  0.00     0.020 A 
ATOM     27  C   UNL d   1      29.818 -16.494  -2.538  0.00  0.00     0.041 A 
ATOM     28  C   UNL d   1      28.456 -16.336  -2.266  0.00  0.00     0.146 A 
BRANCH  28  29
ATOM     29  N   UNL d   1      27.664 -15.650  -3.280  0.00  0.00    -0.112 N 
ATOM     30  O   UNL d   1      26.879 -14.783  -2.906  0.00  0.00    -0.532 OA
ATOM     31  O   UNL d   1      27.883 -15.931  -4.464  0.00  0.00    -0.532 OA
ENDBRANCH  28  29
ENDBRANCH   5  22
TORSDOF 4
ENDMDL
