MODEL 1
REMARK VINA RESULT:    -8.041      0.000      0.000
REMARK INTER + INTRA:         -13.937
REMARK INTER:                 -10.129
REMARK INTRA:                  -3.809
REMARK CONF_INDEPENDENT:        2.088
REMARK UNBOUND:                -3.809
REMARK  7 active torsions:
REMARK  status: ('A' for Active; 'I' for Inactive)
REMARK    1  A    between atoms: O_2  and  C_3 
REMARK    2  A    between atoms: C_6  and  O_7 
REMARK    3  A    between atoms: C_9  and  N_10 
REMARK       I    between atoms: N_10  and  C_11 
REMARK    4  A    between atoms: C_11  and  C_13 
REMARK    5  A    between atoms: C_13  and  S_14 
REMARK    6  A    between atoms: S_14  and  C_15 
REMARK    7  A    between atoms: C_25  and  C_26 
ROOT
ATOM      1  C   UNL d   1      25.843 -13.166  -4.208  0.00  0.00     0.211 C 
ATOM      2  N   UNL d   1      24.886 -14.090  -4.477  0.00  0.00    -0.122 NA
ATOM      3  N   UNL d   1      25.281 -15.381  -4.639  0.00  0.00    -0.144 NA
ATOM      4  C   UNL d   1      26.633 -15.542  -4.868  0.00  0.00     0.131 C 
ATOM      5  C   UNL d   1      27.103 -14.376  -5.463  0.00  0.00     0.142 C 
ATOM      6  N   UNL d   1      27.077 -13.225  -4.746  0.00  0.00    -0.207 NA
ATOM      7  N   UNL d   1      27.988 -14.970  -6.316  0.00  0.00    -0.241 NA
ATOM      8  C   UNL d   1      28.861 -15.489  -5.385  0.00  0.00     0.026 C 
ATOM      9  C   UNL d   1      30.229 -15.356  -5.453  0.00  0.00     0.025 C 
ATOM     10  C   UNL d   1      30.991 -15.679  -4.363  0.00  0.00     0.009 C 
ATOM     11  C   UNL d   1      30.400 -16.102  -3.170  0.00  0.00    -0.054 C 
ATOM     12  C   UNL d   1      28.907 -16.324  -3.146  0.00  0.00     0.023 C 
ATOM     13  C   UNL d   1      28.056 -15.934  -4.317  0.00  0.00     0.020 C 
ATOM     14  H   UNL d   1      27.636 -15.633  -6.992  0.00  0.00     0.135 HD
ENDROOT
BRANCH   1  15
ATOM     15  S   UNL d   1      25.535 -12.198  -2.770  0.00  0.00    -0.079 SA
BRANCH  15  16
ATOM     16  C   UNL d   1      26.850 -12.801  -1.654  0.00  0.00     0.185 C 
BRANCH  16  17
ATOM     17  C   UNL d   1      26.280 -13.979  -0.855  0.00  0.00     0.232 C 
ATOM     18  N   UNL d   1      25.725 -14.978  -1.673  0.00  0.00    -0.324 N 
ATOM     19  H   UNL d   1      25.801 -14.814  -2.655  0.00  0.00     0.169 HD
ATOM     20  O   UNL d   1      26.320 -13.993   0.342  0.00  0.00    -0.272 OA
BRANCH  18  21
ATOM     21  C   UNL d   1      25.146 -16.204  -1.218  0.00  0.00     0.071 A 
ATOM     22  C   UNL d   1      25.875 -17.293  -0.697  0.00  0.00     0.095 A 
ATOM     23  C   UNL d   1      25.158 -18.404  -0.185  0.00  0.00     0.042 A 
ATOM     24  C   UNL d   1      23.760 -18.487  -0.257  0.00  0.00     0.039 A 
ATOM     25  C   UNL d   1      23.045 -17.435  -0.794  0.00  0.00     0.070 A 
ATOM     26  C   UNL d   1      23.747 -16.329  -1.247  0.00  0.00     0.069 A 
BRANCH  22  27
ATOM     27  O   UNL d   1      27.231 -17.479  -0.597  0.00  0.00    -0.354 OA
ATOM     28  C   UNL d   1      27.990 -16.617   0.230  0.00  0.00     0.210 C 
ENDBRANCH  22  27
BRANCH  25  29
ATOM     29  O   UNL d   1      21.679 -17.489  -0.755  0.00  0.00    -0.356 OA
ATOM     30  C   UNL d   1      21.102 -18.792  -0.895  0.00  0.00     0.210 C 
ENDBRANCH  25  29
ENDBRANCH  18  21
ENDBRANCH  16  17
ENDBRANCH  15  16
ENDBRANCH   1  15
BRANCH  11  31
ATOM     31  C   UNL d   1      31.519 -16.198  -2.056  0.00  0.00     0.010 C 
ATOM     32  C   UNL d   1      31.589 -14.961  -1.088  0.00  0.00     0.015 C 
ATOM     33  C   UNL d   1      31.540 -17.446  -1.196  0.00  0.00     0.015 C 
ENDBRANCH  11  31
TORSDOF 7
ENDMDL
MODEL 2
REMARK VINA RESULT:    -7.813      3.084      6.708
REMARK INTER + INTRA:         -12.500
REMARK INTER:                  -9.901
REMARK INTRA:                  -2.599
REMARK CONF_INDEPENDENT:        2.088
REMARK UNBOUND:                -2.599
REMARK  7 active torsions:
REMARK  status: ('A' for Active; 'I' for Inactive)
REMARK    1  A    between atoms: O_2  and  C_3 
REMARK    2  A    between atoms: C_6  and  O_7 
REMARK    3  A    between atoms: C_9  and  N_10 
REMARK       I    between atoms: N_10  and  C_11 
REMARK    4  A    between atoms: C_11  and  C_13 
REMARK    5  A    between atoms: C_13  and  S_14 
REMARK    6  A    between atoms: S_14  and  C_15 
REMARK    7  A    between atoms: C_25  and  C_26 
ROOT
ATOM      1  C   UNL d   1      30.065 -16.821  -2.914  0.00  0.00     0.211 C 
ATOM      2  N   UNL d   1      30.910 -17.526  -2.120  0.00  0.00    -0.122 NA
ATOM      3  N   UNL d   1      30.438 -17.960  -0.922  0.00  0.00    -0.144 NA
ATOM      4  C   UNL d   1      29.283 -17.331  -0.500  0.00  0.00     0.131 C 
ATOM      5  C   UNL d   1      29.258 -16.064  -1.069  0.00  0.00     0.142 C 
ATOM      6  N   UNL d   1      29.155 -15.959  -2.418  0.00  0.00    -0.207 NA
ATOM      7  N   UNL d   1      28.716 -15.410  -0.001  0.00  0.00    -0.241 NA
ATOM      8  C   UNL d   1      27.480 -16.020   0.012  0.00  0.00     0.026 C 
ATOM      9  C   UNL d   1      26.286 -15.340   0.105  0.00  0.00     0.025 C 
ATOM     10  C   UNL d   1      25.116 -16.001  -0.145  0.00  0.00     0.009 C 
ATOM     11  C   UNL d   1      25.113 -17.343  -0.533  0.00  0.00    -0.054 C 
ATOM     12  C   UNL d   1      26.424 -18.091  -0.543  0.00  0.00     0.023 C 
ATOM     13  C   UNL d   1      27.719 -17.370  -0.313  0.00  0.00     0.020 C 
ATOM     14  H   UNL d   1      29.213 -15.428   0.879  0.00  0.00     0.135 HD
ENDROOT
BRANCH   1  15
ATOM     15  S   UNL d   1      29.902 -17.457  -4.548  0.00  0.00    -0.079 SA
BRANCH  15  16
ATOM     16  C   UNL d   1      30.192 -15.951  -5.540  0.00  0.00     0.185 C 
BRANCH  16  17
ATOM     17  C   UNL d   1      28.875 -15.167  -5.597  0.00  0.00     0.232 C 
ATOM     18  N   UNL d   1      28.683 -14.337  -4.480  0.00  0.00    -0.324 N 
ATOM     19  H   UNL d   1      29.430 -14.335  -3.818  0.00  0.00     0.169 HD
ATOM     20  O   UNL d   1      28.118 -15.294  -6.518  0.00  0.00    -0.272 OA
BRANCH  18  21
ATOM     21  C   UNL d   1      27.567 -13.470  -4.267  0.00  0.00     0.071 A 
ATOM     22  C   UNL d   1      26.221 -13.889  -4.207  0.00  0.00     0.095 A 
ATOM     23  C   UNL d   1      25.227 -12.931  -3.883  0.00  0.00     0.042 A 
ATOM     24  C   UNL d   1      25.530 -11.574  -3.703  0.00  0.00     0.039 A 
ATOM     25  C   UNL d   1      26.842 -11.155  -3.790  0.00  0.00     0.070 A 
ATOM     26  C   UNL d   1      27.817 -12.103  -4.057  0.00  0.00     0.069 A 
BRANCH  22  27
ATOM     27  O   UNL d   1      25.675 -15.129  -4.425  0.00  0.00    -0.354 OA
ATOM     28  C   UNL d   1      25.530 -16.024  -3.339  0.00  0.00     0.210 C 
ENDBRANCH  22  27
BRANCH  25  29
ATOM     29  O   UNL d   1      27.129  -9.848  -3.503  0.00  0.00    -0.356 OA
ATOM     30  C   UNL d   1      26.030  -8.935  -3.590  0.00  0.00     0.210 C 
ENDBRANCH  25  29
ENDBRANCH  18  21
ENDBRANCH  16  17
ENDBRANCH  15  16
ENDBRANCH   1  15
BRANCH  11  31
ATOM     31  C   UNL d   1      23.640 -17.751  -0.940  0.00  0.00     0.010 C 
ATOM     32  C   UNL d   1      23.224 -19.208  -0.521  0.00  0.00     0.015 C 
ATOM     33  C   UNL d   1      22.519 -16.822  -0.520  0.00  0.00     0.015 C 
ENDBRANCH  11  31
TORSDOF 7
ENDMDL
MODEL 3
REMARK VINA RESULT:    -7.346      3.305      6.507
REMARK INTER + INTRA:         -12.816
REMARK INTER:                  -9.434
REMARK INTRA:                  -3.382
REMARK CONF_INDEPENDENT:        2.088
REMARK UNBOUND:                -3.382
REMARK  7 active torsions:
REMARK  status: ('A' for Active; 'I' for Inactive)
REMARK    1  A    between atoms: O_2  and  C_3 
REMARK    2  A    between atoms: C_6  and  O_7 
REMARK    3  A    between atoms: C_9  and  N_10 
REMARK       I    between atoms: N_10  and  C_11 
REMARK    4  A    between atoms: C_11  and  C_13 
REMARK    5  A    between atoms: C_13  and  S_14 
REMARK    6  A    between atoms: S_14  and  C_15 
REMARK    7  A    between atoms: C_25  and  C_26 
ROOT
ATOM      1  C   UNL d   1      28.270 -13.815   1.173  0.00  0.00     0.211 C 
ATOM      2  N   UNL d   1      29.095 -13.520   0.136  0.00  0.00    -0.122 NA
ATOM      3  N   UNL d   1      28.976 -14.260  -0.997  0.00  0.00    -0.144 NA
ATOM      4  C   UNL d   1      28.286 -15.446  -0.837  0.00  0.00     0.131 C 
ATOM      5  C   UNL d   1      28.435 -15.847   0.485  0.00  0.00     0.142 C 
ATOM      6  N   UNL d   1      27.893 -15.076   1.462  0.00  0.00    -0.207 NA
ATOM      7  N   UNL d   1      28.527 -17.187   0.245  0.00  0.00    -0.241 NA
ATOM      8  C   UNL d   1      27.255 -17.400  -0.244  0.00  0.00     0.026 C 
ATOM      9  C   UNL d   1      26.430 -18.420   0.174  0.00  0.00     0.025 C 
ATOM     10  C   UNL d   1      25.108 -18.400  -0.175  0.00  0.00     0.009 C 
ATOM     11  C   UNL d   1      24.573 -17.341  -0.914  0.00  0.00    -0.054 C 
ATOM     12  C   UNL d   1      25.512 -16.281  -1.435  0.00  0.00     0.023 C 
ATOM     13  C   UNL d   1      26.955 -16.266  -1.025  0.00  0.00     0.020 C 
ATOM     14  H   UNL d   1      29.276 -17.521  -0.345  0.00  0.00     0.135 HD
ENDROOT
BRANCH   1  15
ATOM     15  S   UNL d   1      27.357 -12.441   1.788  0.00  0.00    -0.079 SA
BRANCH  15  16
ATOM     16  C   UNL d   1      28.167 -11.060   0.909  0.00  0.00     0.185 C 
BRANCH  16  17
ATOM     17  C   UNL d   1      27.375 -10.795  -0.377  0.00  0.00     0.232 C 
ATOM     18  N   UNL d   1      27.450 -11.857  -1.294  0.00  0.00    -0.324 N 
ATOM     19  H   UNL d   1      27.971 -12.651  -0.984  0.00  0.00     0.169 HD
ATOM     20  O   UNL d   1      26.778  -9.768  -0.537  0.00  0.00    -0.272 OA
BRANCH  18  21
ATOM     21  C   UNL d   1      26.794 -11.912  -2.563  0.00  0.00     0.071 A 
ATOM     22  C   UNL d   1      26.783 -10.865  -3.509  0.00  0.00     0.095 A 
ATOM     23  C   UNL d   1      26.182 -11.100  -4.771  0.00  0.00     0.042 A 
ATOM     24  C   UNL d   1      25.530 -12.303  -5.075  0.00  0.00     0.039 A 
ATOM     25  C   UNL d   1      25.512 -13.319  -4.140  0.00  0.00     0.070 A 
ATOM     26  C   UNL d   1      26.146 -13.104  -2.926  0.00  0.00     0.069 A 
BRANCH  22  27
ATOM     27  O   UNL d   1      27.276  -9.587  -3.415  0.00  0.00    -0.354 OA
ATOM     28  C   UNL d   1      26.398  -8.491  -3.588  0.00  0.00     0.210 C 
ENDBRANCH  22  27
BRANCH  25  29
ATOM     29  O   UNL d   1      24.967 -14.523  -4.496  0.00  0.00    -0.356 OA
ATOM     30  C   UNL d   1      25.888 -15.504  -4.984  0.00  0.00     0.210 C 
ENDBRANCH  25  29
ENDBRANCH  18  21
ENDBRANCH  16  17
ENDBRANCH  15  16
ENDBRANCH   1  15
BRANCH  11  31
ATOM     31  C   UNL d   1      23.001 -17.510  -0.978  0.00  0.00     0.010 C 
ATOM     32  C   UNL d   1      22.419 -18.600  -0.006  0.00  0.00     0.015 C 
ATOM     33  C   UNL d   1      22.160 -16.261  -0.812  0.00  0.00     0.015 C 
ENDBRANCH  11  31
TORSDOF 7
ENDMDL
MODEL 4
REMARK VINA RESULT:    -7.270      2.988      7.153
REMARK INTER + INTRA:         -12.655
REMARK INTER:                  -9.358
REMARK INTRA:                  -3.297
REMARK CONF_INDEPENDENT:        2.088
REMARK UNBOUND:                -3.297
REMARK  7 active torsions:
REMARK  status: ('A' for Active; 'I' for Inactive)
REMARK    1  A    between atoms: O_2  and  C_3 
REMARK    2  A    between atoms: C_6  and  O_7 
REMARK    3  A    between atoms: C_9  and  N_10 
REMARK       I    between atoms: N_10  and  C_11 
REMARK    4  A    between atoms: C_11  and  C_13 
REMARK    5  A    between atoms: C_13  and  S_14 
REMARK    6  A    between atoms: S_14  and  C_15 
REMARK    7  A    between atoms: C_25  and  C_26 
ROOT
ATOM      1  C   UNL d   1      28.577 -13.962  -0.617  0.00  0.00     0.211 C 
ATOM      2  N   UNL d   1      29.436 -14.320  -1.604  0.00  0.00    -0.122 NA
ATOM      3  N   UNL d   1      29.220 -15.505  -2.232  0.00  0.00    -0.144 NA
ATOM      4  C   UNL d   1      28.377 -16.366  -1.556  0.00  0.00     0.131 C 
ATOM      5  C   UNL d   1      28.468 -16.070  -0.201  0.00  0.00     0.142 C 
ATOM      6  N   UNL d   1      28.034 -14.859   0.230  0.00  0.00    -0.207 NA
ATOM      7  N   UNL d   1      28.379 -17.353   0.257  0.00  0.00    -0.241 NA
ATOM      8  C   UNL d   1      27.092 -17.631  -0.149  0.00  0.00     0.026 C 
ATOM      9  C   UNL d   1      26.136 -18.205   0.659  0.00  0.00     0.025 C 
ATOM     10  C   UNL d   1      24.830 -18.208   0.256  0.00  0.00     0.009 C 
ATOM     11  C   UNL d   1      24.442 -17.603  -0.942  0.00  0.00    -0.054 C 
ATOM     12  C   UNL d   1      25.517 -17.059  -1.852  0.00  0.00     0.023 C 
ATOM     13  C   UNL d   1      26.947 -17.010  -1.405  0.00  0.00     0.020 C 
ATOM     14  H   UNL d   1      29.077 -18.020  -0.039  0.00  0.00     0.135 HD
ENDROOT
BRANCH   1  15
ATOM     15  S   UNL d   1      27.856 -12.369  -0.821  0.00  0.00    -0.079 SA
BRANCH  15  16
ATOM     16  C   UNL d   1      26.290 -12.799  -1.659  0.00  0.00     0.185 C 
BRANCH  16  17
ATOM     17  C   UNL d   1      26.552 -12.797  -3.170  0.00  0.00     0.232 C 
ATOM     18  N   UNL d   1      27.833 -13.270  -3.503  0.00  0.00    -0.324 N 
ATOM     19  H   UNL d   1      28.388 -13.575  -2.732  0.00  0.00     0.169 HD
ATOM     20  O   UNL d   1      25.721 -12.413  -3.942  0.00  0.00    -0.272 OA
BRANCH  18  21
ATOM     21  C   UNL d   1      28.351 -13.411  -4.828  0.00  0.00     0.071 A 
ATOM     22  C   UNL d   1      28.020 -14.456  -5.716  0.00  0.00     0.095 A 
ATOM     23  C   UNL d   1      28.529 -14.409  -7.038  0.00  0.00     0.042 A 
ATOM     24  C   UNL d   1      29.414 -13.407  -7.461  0.00  0.00     0.039 A 
ATOM     25  C   UNL d   1      29.764 -12.398  -6.585  0.00  0.00     0.070 A 
ATOM     26  C   UNL d   1      29.223 -12.420  -5.309  0.00  0.00     0.069 A 
BRANCH  22  27
ATOM     27  O   UNL d   1      27.251 -15.575  -5.511  0.00  0.00    -0.354 OA
ATOM     28  C   UNL d   1      25.932 -15.430  -5.020  0.00  0.00     0.210 C 
ENDBRANCH  22  27
BRANCH  25  29
ATOM     29  O   UNL d   1      30.540 -11.372  -7.051  0.00  0.00    -0.356 OA
ATOM     30  C   UNL d   1      30.731 -11.329  -8.469  0.00  0.00     0.210 C 
ENDBRANCH  25  29
ENDBRANCH  18  21
ENDBRANCH  16  17
ENDBRANCH  15  16
ENDBRANCH   1  15
BRANCH  11  31
ATOM     31  C   UNL d   1      22.863 -17.598  -1.021  0.00  0.00     0.010 C 
ATOM     32  C   UNL d   1      22.153 -18.594  -0.034  0.00  0.00     0.015 C 
ATOM     33  C   UNL d   1      22.163 -16.259  -0.892  0.00  0.00     0.015 C 
ENDBRANCH  11  31
TORSDOF 7
ENDMDL
MODEL 5
REMARK VINA RESULT:    -6.969      2.996      4.667
REMARK INTER + INTRA:         -12.370
REMARK INTER:                  -9.057
REMARK INTRA:                  -3.312
REMARK CONF_INDEPENDENT:        2.088
REMARK UNBOUND:                -3.312
REMARK  7 active torsions:
REMARK  status: ('A' for Active; 'I' for Inactive)
REMARK    1  A    between atoms: O_2  and  C_3 
REMARK    2  A    between atoms: C_6  and  O_7 
REMARK    3  A    between atoms: C_9  and  N_10 
REMARK       I    between atoms: N_10  and  C_11 
REMARK    4  A    between atoms: C_11  and  C_13 
REMARK    5  A    between atoms: C_13  and  S_14 
REMARK    6  A    between atoms: S_14  and  C_15 
REMARK    7  A    between atoms: C_25  and  C_26 
ROOT
ATOM      1  C   UNL d   1      28.226 -12.867  -2.151  0.00  0.00     0.211 C 
ATOM      2  N   UNL d   1      28.381 -14.049  -2.798  0.00  0.00    -0.122 NA
ATOM      3  N   UNL d   1      28.805 -15.117  -2.072  0.00  0.00    -0.144 NA
ATOM      4  C   UNL d   1      29.370 -14.793  -0.854  0.00  0.00     0.131 C 
ATOM      5  C   UNL d   1      29.898 -13.511  -0.960  0.00  0.00     0.142 C 
ATOM      6  N   UNL d   1      29.047 -12.472  -1.157  0.00  0.00    -0.207 NA
ATOM      7  N   UNL d   1      31.009 -13.724  -0.197  0.00  0.00    -0.241 NA
ATOM      8  C   UNL d   1      30.392 -13.954   1.014  0.00  0.00     0.026 C 
ATOM      9  C   UNL d   1      30.767 -13.357   2.196  0.00  0.00     0.025 C 
ATOM     10  C   UNL d   1      29.944 -13.448   3.285  0.00  0.00     0.009 C 
ATOM     11  C   UNL d   1      28.712 -14.103   3.206  0.00  0.00    -0.054 C 
ATOM     12  C   UNL d   1      28.363 -14.825   1.927  0.00  0.00     0.023 C 
ATOM     13  C   UNL d   1      29.233 -14.698   0.713  0.00  0.00     0.020 C 
ATOM     14  H   UNL d   1      31.665 -14.435  -0.488  0.00  0.00     0.135 HD
ENDROOT
BRANCH   1  15
ATOM     15  S   UNL d   1      26.640 -12.130  -2.351  0.00  0.00    -0.079 SA
BRANCH  15  16
ATOM     16  C   UNL d   1      25.965 -13.120  -3.731  0.00  0.00     0.185 C 
BRANCH  16  17
ATOM     17  C   UNL d   1      25.115 -14.245  -3.127  0.00  0.00     0.232 C 
ATOM     18  N   UNL d   1      25.793 -14.969  -2.132  0.00  0.00    -0.324 N 
ATOM     19  H   UNL d   1      26.714 -14.645  -1.922  0.00  0.00     0.169 HD
ATOM     20  O   UNL d   1      23.998 -14.449  -3.507  0.00  0.00    -0.272 OA
BRANCH  18  21
ATOM     21  C   UNL d   1      25.251 -16.053  -1.373  0.00  0.00     0.071 A 
ATOM     22  C   UNL d   1      25.981 -16.837  -0.455  0.00  0.00     0.095 A 
ATOM     23  C   UNL d   1      25.286 -17.811   0.306  0.00  0.00     0.042 A 
ATOM     24  C   UNL d   1      23.922 -18.072   0.115  0.00  0.00     0.039 A 
ATOM     25  C   UNL d   1      23.211 -17.326  -0.803  0.00  0.00     0.070 A 
ATOM     26  C   UNL d   1      23.883 -16.341  -1.509  0.00  0.00     0.069 A 
BRANCH  22  27
ATOM     27  O   UNL d   1      27.321 -16.826  -0.157  0.00  0.00    -0.354 OA
ATOM     28  C   UNL d   1      28.039 -18.045  -0.146  0.00  0.00     0.210 C 
ENDBRANCH  22  27
BRANCH  25  29
ATOM     29  O   UNL d   1      21.859 -17.522  -0.895  0.00  0.00    -0.356 OA
ATOM     30  C   UNL d   1      21.394 -18.831  -0.550  0.00  0.00     0.210 C 
ENDBRANCH  25  29
ENDBRANCH  18  21
ENDBRANCH  16  17
ENDBRANCH  15  16
ENDBRANCH   1  15
BRANCH  11  31
ATOM     31  C   UNL d   1      27.921 -13.861   4.554  0.00  0.00     0.010 C 
ATOM     32  C   UNL d   1      28.427 -14.713   5.774  0.00  0.00     0.015 C 
ATOM     33  C   UNL d   1      27.780 -12.429   5.031  0.00  0.00     0.015 C 
ENDBRANCH  11  31
TORSDOF 7
ENDMDL
MODEL 6
REMARK VINA RESULT:    -6.514      3.059      5.252
REMARK INTER + INTRA:         -12.249
REMARK INTER:                  -8.602
REMARK INTRA:                  -3.647
REMARK CONF_INDEPENDENT:        2.088
REMARK UNBOUND:                -3.647
REMARK  7 active torsions:
REMARK  status: ('A' for Active; 'I' for Inactive)
REMARK    1  A    between atoms: O_2  and  C_3 
REMARK    2  A    between atoms: C_6  and  O_7 
REMARK    3  A    between atoms: C_9  and  N_10 
REMARK       I    between atoms: N_10  and  C_11 
REMARK    4  A    between atoms: C_11  and  C_13 
REMARK    5  A    between atoms: C_13  and  S_14 
REMARK    6  A    between atoms: S_14  and  C_15 
REMARK    7  A    between atoms: C_25  and  C_26 
ROOT
ATOM      1  C   UNL d   1      30.531 -15.246  -3.346  0.00  0.00     0.211 C 
ATOM      2  N   UNL d   1      30.165 -16.531  -3.582  0.00  0.00    -0.122 NA
ATOM      3  N   UNL d   1      29.648 -17.242  -2.546  0.00  0.00    -0.144 NA
ATOM      4  C   UNL d   1      29.891 -16.697  -1.300  0.00  0.00     0.131 C 
ATOM      5  C   UNL d   1      31.062 -15.952  -1.385  0.00  0.00     0.142 C 
ATOM      6  N   UNL d   1      31.076 -14.852  -2.178  0.00  0.00    -0.207 NA
ATOM      7  N   UNL d   1      31.548 -16.264  -0.148  0.00  0.00    -0.241 NA
ATOM      8  C   UNL d   1      30.577 -15.656   0.619  0.00  0.00     0.026 C 
ATOM      9  C   UNL d   1      30.844 -14.829   1.685  0.00  0.00     0.025 C 
ATOM     10  C   UNL d   1      29.835 -14.076   2.220  0.00  0.00     0.009 C 
ATOM     11  C   UNL d   1      28.548 -14.102   1.676  0.00  0.00    -0.054 C 
ATOM     12  C   UNL d   1      28.258 -15.082   0.564  0.00  0.00     0.023 C 
ATOM     13  C   UNL d   1      29.363 -15.881  -0.060  0.00  0.00     0.020 C 
ATOM     14  H   UNL d   1      31.724 -17.235   0.071  0.00  0.00     0.135 HD
ENDROOT
BRANCH   1  15
ATOM     15  S   UNL d   1      29.815 -14.072  -4.445  0.00  0.00    -0.079 SA
BRANCH  15  16
ATOM     16  C   UNL d   1      28.880 -15.168  -5.568  0.00  0.00     0.185 C 
BRANCH  16  17
ATOM     17  C   UNL d   1      27.497 -15.402  -4.948  0.00  0.00     0.232 C 
ATOM     18  N   UNL d   1      27.545 -15.585  -3.556  0.00  0.00    -0.324 N 
ATOM     19  H   UNL d   1      28.453 -15.507  -3.148  0.00  0.00     0.169 HD
ATOM     20  O   UNL d   1      26.510 -15.426  -5.627  0.00  0.00    -0.272 OA
BRANCH  18  21
ATOM     21  C   UNL d   1      26.418 -15.795  -2.702  0.00  0.00     0.071 A 
ATOM     22  C   UNL d   1      25.155 -15.189  -2.873  0.00  0.00     0.095 A 
ATOM     23  C   UNL d   1      24.098 -15.573  -2.010  0.00  0.00     0.042 A 
ATOM     24  C   UNL d   1      24.290 -16.467  -0.947  0.00  0.00     0.039 A 
ATOM     25  C   UNL d   1      25.532 -17.038  -0.758  0.00  0.00     0.070 A 
ATOM     26  C   UNL d   1      26.550 -16.699  -1.635  0.00  0.00     0.069 A 
BRANCH  22  27
ATOM     27  O   UNL d   1      24.749 -14.238  -3.776  0.00  0.00    -0.354 OA
ATOM     28  C   UNL d   1      25.209 -12.907  -3.635  0.00  0.00     0.210 C 
ENDBRANCH  22  27
BRANCH  25  29
ATOM     29  O   UNL d   1      25.670 -17.990   0.216  0.00  0.00    -0.356 OA
ATOM     30  C   UNL d   1      26.957 -18.061   0.840  0.00  0.00     0.210 C 
ENDBRANCH  25  29
ENDBRANCH  18  21
ENDBRANCH  16  17
ENDBRANCH  15  16
ENDBRANCH   1  15
BRANCH  11  31
ATOM     31  C   UNL d   1      27.676 -12.986   2.379  0.00  0.00     0.010 C 
ATOM     32  C   UNL d   1      26.306 -12.682   1.671  0.00  0.00     0.015 C 
ATOM     33  C   UNL d   1      27.393 -13.152   3.858  0.00  0.00     0.015 C 
ENDBRANCH  11  31
TORSDOF 7
ENDMDL
MODEL 7
REMARK VINA RESULT:    -6.345      1.102      2.696
REMARK INTER + INTRA:         -12.226
REMARK INTER:                  -8.433
REMARK INTRA:                  -3.793
REMARK CONF_INDEPENDENT:        2.088
REMARK UNBOUND:                -3.793
REMARK  7 active torsions:
REMARK  status: ('A' for Active; 'I' for Inactive)
REMARK    1  A    between atoms: O_2  and  C_3 
REMARK    2  A    between atoms: C_6  and  O_7 
REMARK    3  A    between atoms: C_9  and  N_10 
REMARK       I    between atoms: N_10  and  C_11 
REMARK    4  A    between atoms: C_11  and  C_13 
REMARK    5  A    between atoms: C_13  and  S_14 
REMARK    6  A    between atoms: S_14  and  C_15 
REMARK    7  A    between atoms: C_25  and  C_26 
ROOT
ATOM      1  C   UNL d   1      25.651 -13.308  -4.630  0.00  0.00     0.211 C 
ATOM      2  N   UNL d   1      24.891 -14.432  -4.645  0.00  0.00    -0.122 NA
ATOM      3  N   UNL d   1      25.530 -15.630  -4.582  0.00  0.00    -0.144 NA
ATOM      4  C   UNL d   1      26.879 -15.575  -4.873  0.00  0.00     0.131 C 
ATOM      5  C   UNL d   1      27.087 -14.488  -5.715  0.00  0.00     0.142 C 
ATOM      6  N   UNL d   1      26.854 -13.241  -5.235  0.00  0.00    -0.207 NA
ATOM      7  N   UNL d   1      28.044 -15.064  -6.498  0.00  0.00    -0.241 NA
ATOM      8  C   UNL d   1      29.033 -15.208  -5.549  0.00  0.00     0.026 C 
ATOM      9  C   UNL d   1      30.344 -14.835  -5.740  0.00  0.00     0.025 C 
ATOM     10  C   UNL d   1      31.190 -14.778  -4.667  0.00  0.00     0.009 C 
ATOM     11  C   UNL d   1      30.735 -15.053  -3.374  0.00  0.00    -0.054 C 
ATOM     12  C   UNL d   1      29.318 -15.544  -3.200  0.00  0.00     0.023 C 
ATOM     13  C   UNL d   1      28.368 -15.570  -4.361  0.00  0.00     0.020 C 
ATOM     14  H   UNL d   1      27.810 -15.906  -7.006  0.00  0.00     0.135 HD
ENDROOT
BRANCH   1  15
ATOM     15  S   UNL d   1      25.204 -12.143  -3.389  0.00  0.00    -0.079 SA
BRANCH  15  16
ATOM     16  C   UNL d   1      26.747 -12.057  -2.416  0.00  0.00     0.185 C 
BRANCH  16  17
ATOM     17  C   UNL d   1      26.774 -13.267  -1.474  0.00  0.00     0.232 C 
ATOM     18  N   UNL d   1      26.064 -14.370  -1.979  0.00  0.00    -0.324 N 
ATOM     19  H   UNL d   1      25.668 -14.241  -2.887  0.00  0.00     0.169 HD
ATOM     20  O   UNL d   1      27.346 -13.222  -0.422  0.00  0.00    -0.272 OA
BRANCH  18  21
ATOM     21  C   UNL d   1      25.935 -15.643  -1.342  0.00  0.00     0.071 A 
ATOM     22  C   UNL d   1      24.710 -16.293  -1.081  0.00  0.00     0.095 A 
ATOM     23  C   UNL d   1      24.740 -17.602  -0.538  0.00  0.00     0.042 A 
ATOM     24  C   UNL d   1      25.939 -18.232  -0.177  0.00  0.00     0.039 A 
ATOM     25  C   UNL d   1      27.139 -17.587  -0.403  0.00  0.00     0.070 A 
ATOM     26  C   UNL d   1      27.108 -16.328  -0.981  0.00  0.00     0.069 A 
BRANCH  22  27
ATOM     27  O   UNL d   1      23.423 -15.853  -1.268  0.00  0.00    -0.354 OA
ATOM     28  C   UNL d   1      22.350 -16.597  -0.722  0.00  0.00     0.210 C 
ENDBRANCH  22  27
BRANCH  25  29
ATOM     29  O   UNL d   1      28.301 -18.263  -0.145  0.00  0.00    -0.356 OA
ATOM     30  C   UNL d   1      29.508 -17.592  -0.521  0.00  0.00     0.210 C 
ENDBRANCH  25  29
ENDBRANCH  18  21
ENDBRANCH  16  17
ENDBRANCH  15  16
ENDBRANCH   1  15
BRANCH  11  31
ATOM     31  C   UNL d   1      31.886 -14.706  -2.347  0.00  0.00     0.010 C 
ATOM     32  C   UNL d   1      31.934 -13.200  -1.898  0.00  0.00     0.015 C 
ATOM     33  C   UNL d   1      31.979 -15.553  -1.093  0.00  0.00     0.015 C 
ENDBRANCH  11  31
TORSDOF 7
ENDMDL
MODEL 8
REMARK VINA RESULT:    -6.255      2.582      5.521
REMARK INTER + INTRA:         -12.342
REMARK INTER:                  -8.343
REMARK INTRA:                  -3.998
REMARK CONF_INDEPENDENT:        2.088
REMARK UNBOUND:                -3.998
REMARK  7 active torsions:
REMARK  status: ('A' for Active; 'I' for Inactive)
REMARK    1  A    between atoms: O_2  and  C_3 
REMARK    2  A    between atoms: C_6  and  O_7 
REMARK    3  A    between atoms: C_9  and  N_10 
REMARK       I    between atoms: N_10  and  C_11 
REMARK    4  A    between atoms: C_11  and  C_13 
REMARK    5  A    between atoms: C_13  and  S_14 
REMARK    6  A    between atoms: S_14  and  C_15 
REMARK    7  A    between atoms: C_25  and  C_26 
ROOT
ATOM      1  C   UNL d   1      27.821 -14.677  -5.808  0.00  0.00     0.211 C 
ATOM      2  N   UNL d   1      28.103 -13.355  -5.693  0.00  0.00    -0.122 NA
ATOM      3  N   UNL d   1      27.687 -12.714  -4.570  0.00  0.00    -0.144 NA
ATOM      4  C   UNL d   1      26.721 -13.389  -3.850  0.00  0.00     0.131 C 
ATOM      5  C   UNL d   1      26.018 -14.195  -4.738  0.00  0.00     0.142 C 
ATOM      6  N   UNL d   1      26.672 -15.214  -5.349  0.00  0.00    -0.207 NA
ATOM      7  N   UNL d   1      24.786 -14.033  -4.171  0.00  0.00    -0.241 NA
ATOM      8  C   UNL d   1      25.030 -14.648  -2.962  0.00  0.00     0.026 C 
ATOM      9  C   UNL d   1      24.200 -15.588  -2.395  0.00  0.00     0.025 C 
ATOM     10  C   UNL d   1      24.645 -16.323  -1.331  0.00  0.00     0.009 C 
ATOM     11  C   UNL d   1      25.942 -16.163  -0.836  0.00  0.00    -0.054 C 
ATOM     12  C   UNL d   1      26.802 -15.066  -1.415  0.00  0.00     0.023 C 
ATOM     13  C   UNL d   1      26.344 -14.283  -2.609  0.00  0.00     0.020 C 
ATOM     14  H   UNL d   1      24.403 -13.100  -4.110  0.00  0.00     0.135 HD
ENDROOT
BRANCH   1  15
ATOM     15  S   UNL d   1      29.219 -15.694  -6.138  0.00  0.00    -0.079 SA
BRANCH  15  16
ATOM     16  C   UNL d   1      30.586 -14.560  -5.709  0.00  0.00     0.185 C 
BRANCH  16  17
ATOM     17  C   UNL d   1      30.890 -14.738  -4.216  0.00  0.00     0.232 C 
ATOM     18  N   UNL d   1      29.766 -14.526  -3.400  0.00  0.00    -0.324 N 
ATOM     19  H   UNL d   1      28.918 -14.324  -3.887  0.00  0.00     0.169 HD
ATOM     20  O   UNL d   1      31.991 -15.019  -3.838  0.00  0.00    -0.272 OA
BRANCH  18  21
ATOM     21  C   UNL d   1      29.734 -14.647  -1.976  0.00  0.00     0.071 A 
ATOM     22  C   UNL d   1      29.919 -15.852  -1.266  0.00  0.00     0.095 A 
ATOM     23  C   UNL d   1      29.968 -15.803   0.150  0.00  0.00     0.042 A 
ATOM     24  C   UNL d   1      29.755 -14.615   0.863  0.00  0.00     0.039 A 
ATOM     25  C   UNL d   1      29.543 -13.438   0.172  0.00  0.00     0.070 A 
ATOM     26  C   UNL d   1      29.548 -13.482  -1.213  0.00  0.00     0.069 A 
BRANCH  22  27
ATOM     27  O   UNL d   1      30.064 -17.135  -1.732  0.00  0.00    -0.354 OA
ATOM     28  C   UNL d   1      30.785 -18.076  -0.960  0.00  0.00     0.210 C 
ENDBRANCH  22  27
BRANCH  25  29
ATOM     29  O   UNL d   1      29.448 -12.273   0.883  0.00  0.00    -0.356 OA
ATOM     30  C   UNL d   1      28.196 -12.044   1.539  0.00  0.00     0.210 C 
ENDBRANCH  25  29
ENDBRANCH  18  21
ENDBRANCH  16  17
ENDBRANCH  15  16
ENDBRANCH   1  15
BRANCH  11  31
ATOM     31  C   UNL d   1      26.214 -17.284   0.247  0.00  0.00     0.010 C 
ATOM     32  C   UNL d   1      24.978 -18.200   0.567  0.00  0.00     0.015 C 
ATOM     33  C   UNL d   1      27.405 -18.194   0.022  0.00  0.00     0.015 C 
ENDBRANCH  11  31
TORSDOF 7
ENDMDL
MODEL 9
REMARK VINA RESULT:    -5.962      2.783      5.801
REMARK INTER + INTRA:         -12.244
REMARK INTER:                  -8.050
REMARK INTRA:                  -4.194
REMARK CONF_INDEPENDENT:        2.088
REMARK UNBOUND:                -4.194
REMARK  7 active torsions:
REMARK  status: ('A' for Active; 'I' for Inactive)
REMARK    1  A    between atoms: O_2  and  C_3 
REMARK    2  A    between atoms: C_6  and  O_7 
REMARK    3  A    between atoms: C_9  and  N_10 
REMARK       I    between atoms: N_10  and  C_11 
REMARK    4  A    between atoms: C_11  and  C_13 
REMARK    5  A    between atoms: C_13  and  S_14 
REMARK    6  A    between atoms: S_14  and  C_15 
REMARK    7  A    between atoms: C_25  and  C_26 
ROOT
ATOM      1  C   UNL d   1      27.781 -14.622  -6.002  0.00  0.00     0.211 C 
ATOM      2  N   UNL d   1      27.995 -13.282  -5.953  0.00  0.00    -0.122 NA
ATOM      3  N   UNL d   1      27.592 -12.618  -4.838  0.00  0.00    -0.144 NA
ATOM      4  C   UNL d   1      26.697 -13.314  -4.049  0.00  0.00     0.131 C 
ATOM      5  C   UNL d   1      26.002 -14.193  -4.871  0.00  0.00     0.142 C 
ATOM      6  N   UNL d   1      26.686 -15.200  -5.471  0.00  0.00    -0.207 NA
ATOM      7  N   UNL d   1      24.789 -14.075  -4.256  0.00  0.00    -0.241 NA
ATOM      8  C   UNL d   1      25.119 -14.624  -3.036  0.00  0.00     0.026 C 
ATOM      9  C   UNL d   1      24.368 -15.583  -2.395  0.00  0.00     0.025 C 
ATOM     10  C   UNL d   1      24.899 -16.248  -1.324  0.00  0.00     0.009 C 
ATOM     11  C   UNL d   1      26.205 -15.998  -0.895  0.00  0.00    -0.054 C 
ATOM     12  C   UNL d   1      26.977 -14.881  -1.555  0.00  0.00     0.023 C 
ATOM     13  C   UNL d   1      26.425 -14.174  -2.757  0.00  0.00     0.020 C 
ATOM     14  H   UNL d   1      24.357 -13.162  -4.215  0.00  0.00     0.135 HD
ENDROOT
BRANCH   1  15
ATOM     15  S   UNL d   1      29.219 -15.575  -6.354  0.00  0.00    -0.079 SA
BRANCH  15  16
ATOM     16  C   UNL d   1      30.536 -14.344  -6.059  0.00  0.00     0.185 C 
BRANCH  16  17
ATOM     17  C   UNL d   1      30.944 -14.440  -4.583  0.00  0.00     0.232 C 
ATOM     18  N   UNL d   1      29.905 -14.088  -3.705  0.00  0.00    -0.324 N 
ATOM     19  H   UNL d   1      29.038 -13.857  -4.142  0.00  0.00     0.169 HD
ATOM     20  O   UNL d   1      32.049 -14.777  -4.267  0.00  0.00    -0.272 OA
BRANCH  18  21
ATOM     21  C   UNL d   1      29.977 -14.108  -2.277  0.00  0.00     0.071 A 
ATOM     22  C   UNL d   1      29.634 -13.027  -1.439  0.00  0.00     0.095 A 
ATOM     23  C   UNL d   1      29.653 -13.225  -0.035  0.00  0.00     0.042 A 
ATOM     24  C   UNL d   1      30.080 -14.430   0.542  0.00  0.00     0.039 A 
ATOM     25  C   UNL d   1      30.446 -15.481  -0.275  0.00  0.00     0.070 A 
ATOM     26  C   UNL d   1      30.377 -15.299  -1.648  0.00  0.00     0.069 A 
BRANCH  22  27
ATOM     27  O   UNL d   1      29.268 -11.743  -1.762  0.00  0.00    -0.354 OA
ATOM     28  C   UNL d   1      27.932 -11.329  -1.549  0.00  0.00     0.210 C 
ENDBRANCH  22  27
BRANCH  25  29
ATOM     29  O   UNL d   1      30.754 -16.681   0.305  0.00  0.00    -0.356 OA
ATOM     30  C   UNL d   1      31.940 -16.699   1.107  0.00  0.00     0.210 C 
ENDBRANCH  25  29
ENDBRANCH  18  21
ENDBRANCH  16  17
ENDBRANCH  15  16
ENDBRANCH   1  15
BRANCH  11  31
ATOM     31  C   UNL d   1      26.586 -17.056   0.218  0.00  0.00     0.010 C 
ATOM     32  C   UNL d   1      25.433 -18.056   0.593  0.00  0.00     0.015 C 
ATOM     33  C   UNL d   1      27.842 -17.875  -0.001  0.00  0.00     0.015 C 
ENDBRANCH  11  31
TORSDOF 7
ENDMDL
