MODEL 1
REMARK VINA RESULT:    -9.838      0.000      0.000
REMARK INTER + INTRA:         -12.217
REMARK INTER:                 -11.330
REMARK INTRA:                  -0.887
REMARK CONF_INDEPENDENT:        1.492
REMARK UNBOUND:                -0.887
REMARK  5 active torsions:
REMARK  status: ('A' for Active; 'I' for Inactive)
REMARK    1  A    between atoms: C_3  and  S_2 
REMARK    2  A    between atoms: C_3  and  C_5 
REMARK       I    between atoms: C_5  and  N_7 
REMARK    3  A    between atoms: N_7  and  C_8 
REMARK    4  A    between atoms: C_10  and  C_11 
REMARK       I    between atoms: C_11  and  N_13 
REMARK    5  A    between atoms: N_13  and  C_14 
ROOT
ATOM      1  C   UNL d   1      25.001 -15.954  -1.624  0.00  0.00     0.041 A 
ATOM      2  C   UNL d   1      23.680 -16.397  -1.428  0.00  0.00     0.047 A 
ATOM      3  C   UNL d   1      23.394 -17.570  -0.724  0.00  0.00     0.034 A 
ATOM      4  C   UNL d   1      24.466 -18.317  -0.219  0.00  0.00     0.018 A 
ATOM      5  C   UNL d   1      25.786 -17.894  -0.411  0.00  0.00     0.010 A 
ATOM      6  C   UNL d   1      26.072 -16.713  -1.122  0.00  0.00    -0.035 A 
ATOM      7  C   UNL d   1      27.499 -16.254  -1.225  0.00  0.00     0.050 C 
ENDROOT
BRANCH   3   8
ATOM      8  C   UNL d   1      21.997 -18.056  -0.483  0.00  0.00     0.256 C 
ATOM      9  O   UNL d   1      21.064 -17.376  -0.923  0.00  0.00    -0.267 OA
ATOM     10  N   UNL d   1      21.825 -19.203   0.280  0.00  0.00    -0.323 N 
ATOM     11  H   UNL d   1      22.606 -19.595   0.786  0.00  0.00     0.169 HD
BRANCH  10  12
ATOM     12  C   UNL d   1      20.562 -19.745   0.598  0.00  0.00     0.035 A 
ATOM     13  C   UNL d   1      19.673 -20.047  -0.438  0.00  0.00     0.029 A 
ATOM     14  C   UNL d   1      18.404 -20.561  -0.145  0.00  0.00     0.002 A 
ATOM     15  C   UNL d   1      18.030 -20.785   1.179  0.00  0.00     0.000 A 
ATOM     16  C   UNL d   1      18.906 -20.459   2.212  0.00  0.00     0.002 A 
ATOM     17  C   UNL d   1      20.169 -19.944   1.922  0.00  0.00     0.029 A 
ENDBRANCH  10  12
ENDBRANCH   3   8
BRANCH   1  18
ATOM     18  N   UNL d   1      25.223 -14.739  -2.326  0.00  0.00    -0.326 N 
ATOM     19  C   UNL d   1      25.450 -14.734  -3.702  0.00  0.00     0.235 C 
ATOM     20  O   UNL d   1      25.530 -15.762  -4.376  0.00  0.00    -0.272 OA
ATOM     21  H   UNL d   1      24.875 -13.881  -1.915  0.00  0.00     0.169 HD
BRANCH  19  22
ATOM     22  C   UNL d   1      25.631 -13.349  -4.350  0.00  0.00     0.135 C 
ATOM     23  C   UNL d   1      25.890 -12.317  -3.244  0.00  0.00     0.031 C 
BRANCH  22  24
ATOM     24  S   UNL d   1      27.077 -13.375  -5.487  0.00  0.00    -0.160 SA
ATOM     25  C   UNL d   1      28.141 -14.583  -4.655  0.00  0.00     0.090 C 
ENDBRANCH  22  24
ENDBRANCH  19  22
ENDBRANCH   1  18
TORSDOF 5
ENDMDL
MODEL 2
REMARK VINA RESULT:    -9.691      0.388      1.076
REMARK INTER + INTRA:         -12.095
REMARK INTER:                 -11.183
REMARK INTRA:                  -0.912
REMARK CONF_INDEPENDENT:        1.492
REMARK UNBOUND:                -0.912
REMARK  5 active torsions:
REMARK  status: ('A' for Active; 'I' for Inactive)
REMARK    1  A    between atoms: C_3  and  S_2 
REMARK    2  A    between atoms: C_3  and  C_5 
REMARK       I    between atoms: C_5  and  N_7 
REMARK    3  A    between atoms: N_7  and  C_8 
REMARK    4  A    between atoms: C_10  and  C_11 
REMARK       I    between atoms: C_11  and  N_13 
REMARK    5  A    between atoms: N_13  and  C_14 
ROOT
ATOM      1  C   UNL d   1      25.386 -15.957  -1.720  0.00  0.00     0.041 A 
ATOM      2  C   UNL d   1      24.043 -16.334  -1.532  0.00  0.00     0.047 A 
ATOM      3  C   UNL d   1      23.692 -17.435  -0.747  0.00  0.00     0.034 A 
ATOM      4  C   UNL d   1      24.718 -18.178  -0.149  0.00  0.00     0.018 A 
ATOM      5  C   UNL d   1      26.059 -17.819  -0.331  0.00  0.00     0.010 A 
ATOM      6  C   UNL d   1      26.411 -16.711  -1.124  0.00  0.00    -0.035 A 
ATOM      7  C   UNL d   1      27.857 -16.313  -1.217  0.00  0.00     0.050 C 
ENDROOT
BRANCH   3   8
ATOM      8  C   UNL d   1      22.270 -17.849  -0.513  0.00  0.00     0.256 C 
ATOM      9  O   UNL d   1      21.375 -17.086  -0.893  0.00  0.00    -0.267 OA
ATOM     10  N   UNL d   1      22.037 -19.031   0.178  0.00  0.00    -0.323 N 
ATOM     11  H   UNL d   1      22.799 -19.502   0.644  0.00  0.00     0.169 HD
BRANCH  10  12
ATOM     12  C   UNL d   1      20.747 -19.514   0.482  0.00  0.00     0.035 A 
ATOM     13  C   UNL d   1      20.351 -19.599   1.820  0.00  0.00     0.029 A 
ATOM     14  C   UNL d   1      19.086 -20.101   2.147  0.00  0.00     0.002 A 
ATOM     15  C   UNL d   1      18.213 -20.505   1.137  0.00  0.00     0.000 A 
ATOM     16  C   UNL d   1      18.617 -20.445  -0.195  0.00  0.00     0.002 A 
ATOM     17  C   UNL d   1      19.880 -19.949  -0.521  0.00  0.00     0.029 A 
ENDBRANCH  10  12
ENDBRANCH   3   8
BRANCH   1  18
ATOM     18  N   UNL d   1      25.675 -14.811  -2.508  0.00  0.00    -0.326 N 
ATOM     19  C   UNL d   1      25.696 -14.883  -3.901  0.00  0.00     0.235 C 
ATOM     20  O   UNL d   1      25.529 -15.933  -4.524  0.00  0.00    -0.272 OA
ATOM     21  H   UNL d   1      25.517 -13.898  -2.099  0.00  0.00     0.169 HD
BRANCH  19  22
ATOM     22  C   UNL d   1      25.978 -13.562  -4.640  0.00  0.00     0.135 C 
ATOM     23  C   UNL d   1      26.270 -12.469  -3.602  0.00  0.00     0.031 C 
BRANCH  22  24
ATOM     24  S   UNL d   1      27.449 -13.755  -5.727  0.00  0.00    -0.160 SA
ATOM     25  C   UNL d   1      28.366 -15.038  -4.834  0.00  0.00     0.090 C 
ENDBRANCH  22  24
ENDBRANCH  19  22
ENDBRANCH   1  18
TORSDOF 5
ENDMDL
MODEL 3
REMARK VINA RESULT:    -8.004      2.623      8.460
REMARK INTER + INTRA:         -10.338
REMARK INTER:                  -9.495
REMARK INTRA:                  -0.843
REMARK CONF_INDEPENDENT:        1.492
REMARK UNBOUND:                -0.843
REMARK  5 active torsions:
REMARK  status: ('A' for Active; 'I' for Inactive)
REMARK    1  A    between atoms: C_3  and  S_2 
REMARK    2  A    between atoms: C_3  and  C_5 
REMARK       I    between atoms: C_5  and  N_7 
REMARK    3  A    between atoms: N_7  and  C_8 
REMARK    4  A    between atoms: C_10  and  C_11 
REMARK       I    between atoms: C_11  and  N_13 
REMARK    5  A    between atoms: N_13  and  C_14 
ROOT
ATOM      1  C   UNL d   1      24.943 -17.330  -0.942  0.00  0.00     0.041 A 
ATOM      2  C   UNL d   1      24.679 -16.310  -1.875  0.00  0.00     0.047 A 
ATOM      3  C   UNL d   1      25.582 -15.267  -2.100  0.00  0.00     0.034 A 
ATOM      4  C   UNL d   1      26.771 -15.248  -1.359  0.00  0.00     0.018 A 
ATOM      5  C   UNL d   1      27.046 -16.253  -0.423  0.00  0.00     0.010 A 
ATOM      6  C   UNL d   1      26.134 -17.300  -0.196  0.00  0.00    -0.035 A 
ATOM      7  C   UNL d   1      26.513 -18.402   0.753  0.00  0.00     0.050 C 
ENDROOT
BRANCH   3   8
ATOM      8  C   UNL d   1      25.337 -14.178  -3.100  0.00  0.00     0.256 C 
ATOM      9  O   UNL d   1      24.418 -14.333  -3.911  0.00  0.00    -0.267 OA
ATOM     10  N   UNL d   1      26.197 -13.088  -3.106  0.00  0.00    -0.323 N 
ATOM     11  H   UNL d   1      27.049 -13.114  -2.563  0.00  0.00     0.169 HD
BRANCH  10  12
ATOM     12  C   UNL d   1      26.086 -12.013  -4.011  0.00  0.00     0.035 A 
ATOM     13  C   UNL d   1      26.501 -12.193  -5.335  0.00  0.00     0.029 A 
ATOM     14  C   UNL d   1      26.426 -11.133  -6.244  0.00  0.00     0.002 A 
ATOM     15  C   UNL d   1      25.924  -9.897  -5.837  0.00  0.00     0.000 A 
ATOM     16  C   UNL d   1      25.536  -9.709  -4.512  0.00  0.00     0.002 A 
ATOM     17  C   UNL d   1      25.614 -10.765  -3.603  0.00  0.00     0.029 A 
ENDBRANCH  10  12
ENDBRANCH   3   8
BRANCH   1  18
ATOM     18  N   UNL d   1      23.996 -18.376  -0.780  0.00  0.00    -0.326 N 
ATOM     19  C   UNL d   1      22.737 -18.128  -0.233  0.00  0.00     0.235 C 
ATOM     20  O   UNL d   1      22.392 -17.024   0.191  0.00  0.00    -0.272 OA
ATOM     21  H   UNL d   1      24.088 -19.197  -1.365  0.00  0.00     0.169 HD
BRANCH  19  22
ATOM     22  C   UNL d   1      21.787 -19.337  -0.153  0.00  0.00     0.135 C 
ATOM     23  C   UNL d   1      20.966 -19.235   1.140  0.00  0.00     0.031 C 
BRANCH  22  24
ATOM     24  S   UNL d   1      20.638 -19.326  -1.589  0.00  0.00    -0.160 SA
ATOM     25  C   UNL d   1      19.065 -19.694  -0.767  0.00  0.00     0.090 C 
ENDBRANCH  22  24
ENDBRANCH  19  22
ENDBRANCH   1  18
TORSDOF 5
ENDMDL
MODEL 4
REMARK VINA RESULT:    -7.553      3.576      4.472
REMARK INTER + INTRA:          -9.796
REMARK INTER:                  -9.044
REMARK INTRA:                  -0.752
REMARK CONF_INDEPENDENT:        1.492
REMARK UNBOUND:                -0.752
REMARK  5 active torsions:
REMARK  status: ('A' for Active; 'I' for Inactive)
REMARK    1  A    between atoms: C_3  and  S_2 
REMARK    2  A    between atoms: C_3  and  C_5 
REMARK       I    between atoms: C_5  and  N_7 
REMARK    3  A    between atoms: N_7  and  C_8 
REMARK    4  A    between atoms: C_10  and  C_11 
REMARK       I    between atoms: C_11  and  N_13 
REMARK    5  A    between atoms: N_13  and  C_14 
ROOT
ATOM      1  C   UNL d   1      26.555 -15.933  -0.192  0.00  0.00     0.041 A 
ATOM      2  C   UNL d   1      25.479 -16.832  -0.083  0.00  0.00     0.047 A 
ATOM      3  C   UNL d   1      24.617 -17.082  -1.153  0.00  0.00     0.034 A 
ATOM      4  C   UNL d   1      24.840 -16.400  -2.357  0.00  0.00     0.018 A 
ATOM      5  C   UNL d   1      25.903 -15.498  -2.480  0.00  0.00     0.010 A 
ATOM      6  C   UNL d   1      26.769 -15.246  -1.399  0.00  0.00    -0.035 A 
ATOM      7  C   UNL d   1      27.947 -14.337  -1.607  0.00  0.00     0.050 C 
ENDROOT
BRANCH   3   8
ATOM      8  C   UNL d   1      23.474 -18.048  -1.073  0.00  0.00     0.256 C 
ATOM      9  O   UNL d   1      23.419 -18.952  -1.914  0.00  0.00    -0.267 OA
ATOM     10  N   UNL d   1      22.503 -17.836  -0.103  0.00  0.00    -0.323 N 
ATOM     11  H   UNL d   1      22.489 -16.970   0.416  0.00  0.00     0.169 HD
BRANCH  10  12
ATOM     12  C   UNL d   1      21.369 -18.658   0.058  0.00  0.00     0.035 A 
ATOM     13  C   UNL d   1      20.547 -18.907  -1.046  0.00  0.00     0.029 A 
ATOM     14  C   UNL d   1      19.402 -19.698  -0.904  0.00  0.00     0.002 A 
ATOM     15  C   UNL d   1      19.085 -20.252   0.336  0.00  0.00     0.000 A 
ATOM     16  C   UNL d   1      19.888 -19.983   1.442  0.00  0.00     0.002 A 
ATOM     17  C   UNL d   1      21.029 -19.191   1.302  0.00  0.00     0.029 A 
ENDBRANCH  10  12
ENDBRANCH   3   8
BRANCH   1  18
ATOM     18  N   UNL d   1      27.411 -15.744   0.926  0.00  0.00    -0.326 N 
ATOM     19  C   UNL d   1      27.483 -14.513   1.577  0.00  0.00     0.235 C 
ATOM     20  O   UNL d   1      26.870 -13.514   1.198  0.00  0.00    -0.272 OA
ATOM     21  H   UNL d   1      27.689 -16.561   1.458  0.00  0.00     0.169 HD
BRANCH  19  22
ATOM     22  C   UNL d   1      28.414 -14.451   2.801  0.00  0.00     0.135 C 
ATOM     23  C   UNL d   1      29.294 -13.198   2.690  0.00  0.00     0.031 C 
BRANCH  22  24
ATOM     24  S   UNL d   1      27.415 -14.340   4.342  0.00  0.00    -0.160 SA
ATOM     25  C   UNL d   1      28.712 -14.008   5.564  0.00  0.00     0.090 C 
ENDBRANCH  22  24
ENDBRANCH  19  22
ENDBRANCH   1  18
TORSDOF 5
ENDMDL
MODEL 5
REMARK VINA RESULT:    -7.302      3.580      6.424
REMARK INTER + INTRA:          -9.454
REMARK INTER:                  -8.793
REMARK INTRA:                  -0.661
REMARK CONF_INDEPENDENT:        1.492
REMARK UNBOUND:                -0.661
REMARK  5 active torsions:
REMARK  status: ('A' for Active; 'I' for Inactive)
REMARK    1  A    between atoms: C_3  and  S_2 
REMARK    2  A    between atoms: C_3  and  C_5 
REMARK       I    between atoms: C_5  and  N_7 
REMARK    3  A    between atoms: N_7  and  C_8 
REMARK    4  A    between atoms: C_10  and  C_11 
REMARK       I    between atoms: C_11  and  N_13 
REMARK    5  A    between atoms: N_13  and  C_14 
ROOT
ATOM      1  C   UNL d   1      28.077 -14.208  -6.181  0.00  0.00     0.041 A 
ATOM      2  C   UNL d   1      27.329 -14.881  -5.198  0.00  0.00     0.047 A 
ATOM      3  C   UNL d   1      26.348 -14.231  -4.445  0.00  0.00     0.034 A 
ATOM      4  C   UNL d   1      26.126 -12.868  -4.683  0.00  0.00     0.018 A 
ATOM      5  C   UNL d   1      26.865 -12.182  -5.654  0.00  0.00     0.010 A 
ATOM      6  C   UNL d   1      27.855 -12.839  -6.409  0.00  0.00    -0.035 A 
ATOM      7  C   UNL d   1      28.559 -12.083  -7.499  0.00  0.00     0.050 C 
ENDROOT
BRANCH   3   8
ATOM      8  C   UNL d   1      25.523 -14.926  -3.405  0.00  0.00     0.256 C 
ATOM      9  O   UNL d   1      24.401 -14.471  -3.157  0.00  0.00    -0.267 OA
ATOM     10  N   UNL d   1      26.089 -15.998  -2.728  0.00  0.00    -0.323 N 
ATOM     11  H   UNL d   1      27.076 -16.191  -2.823  0.00  0.00     0.169 HD
BRANCH  10  12
ATOM     12  C   UNL d   1      25.425 -16.717  -1.713  0.00  0.00     0.035 A 
ATOM     13  C   UNL d   1      26.181 -17.439  -0.784  0.00  0.00     0.029 A 
ATOM     14  C   UNL d   1      25.542 -18.182   0.215  0.00  0.00     0.002 A 
ATOM     15  C   UNL d   1      24.150 -18.192   0.296  0.00  0.00     0.000 A 
ATOM     16  C   UNL d   1      23.396 -17.494  -0.644  0.00  0.00     0.002 A 
ATOM     17  C   UNL d   1      24.031 -16.756  -1.644  0.00  0.00     0.029 A 
ENDBRANCH  10  12
ENDBRANCH   3   8
BRANCH   1  18
ATOM     18  N   UNL d   1      29.042 -14.934  -6.930  0.00  0.00    -0.326 N 
ATOM     19  C   UNL d   1      29.795 -15.949  -6.340  0.00  0.00     0.235 C 
ATOM     20  O   UNL d   1      29.718 -16.237  -5.144  0.00  0.00    -0.272 OA
ATOM     21  H   UNL d   1      28.938 -14.965  -7.937  0.00  0.00     0.169 HD
BRANCH  19  22
ATOM     22  C   UNL d   1      30.773 -16.689  -7.270  0.00  0.00     0.135 C 
ATOM     23  C   UNL d   1      31.974 -15.775  -7.551  0.00  0.00     0.031 C 
BRANCH  22  24
ATOM     24  S   UNL d   1      31.374 -18.223  -6.453  0.00  0.00    -0.160 SA
ATOM     25  C   UNL d   1      30.781 -19.481  -7.616  0.00  0.00     0.090 C 
ENDBRANCH  22  24
ENDBRANCH  19  22
ENDBRANCH   1  18
TORSDOF 5
ENDMDL
MODEL 6
REMARK VINA RESULT:    -7.069      4.870      8.374
REMARK INTER + INTRA:          -9.340
REMARK INTER:                  -8.561
REMARK INTRA:                  -0.779
REMARK CONF_INDEPENDENT:        1.492
REMARK UNBOUND:                -0.779
REMARK  5 active torsions:
REMARK  status: ('A' for Active; 'I' for Inactive)
REMARK    1  A    between atoms: C_3  and  S_2 
REMARK    2  A    between atoms: C_3  and  C_5 
REMARK       I    between atoms: C_5  and  N_7 
REMARK    3  A    between atoms: N_7  and  C_8 
REMARK    4  A    between atoms: C_10  and  C_11 
REMARK       I    between atoms: C_11  and  N_13 
REMARK    5  A    between atoms: N_13  and  C_14 
ROOT
ATOM      1  C   UNL d   1      26.946 -15.889  -0.056  0.00  0.00     0.041 A 
ATOM      2  C   UNL d   1      26.688 -14.911  -1.034  0.00  0.00     0.047 A 
ATOM      3  C   UNL d   1      25.807 -15.143  -2.093  0.00  0.00     0.034 A 
ATOM      4  C   UNL d   1      25.181 -16.394  -2.172  0.00  0.00     0.018 A 
ATOM      5  C   UNL d   1      25.431 -17.380  -1.211  0.00  0.00     0.010 A 
ATOM      6  C   UNL d   1      26.322 -17.145  -0.146  0.00  0.00    -0.035 A 
ATOM      7  C   UNL d   1      26.489 -18.201   0.909  0.00  0.00     0.050 C 
ENDROOT
BRANCH   3   8
ATOM      8  C   UNL d   1      25.498 -14.114  -3.138  0.00  0.00     0.256 C 
ATOM      9  O   UNL d   1      24.781 -14.450  -4.087  0.00  0.00    -0.267 OA
ATOM     10  N   UNL d   1      26.089 -12.863  -3.021  0.00  0.00    -0.323 N 
ATOM     11  H   UNL d   1      26.825 -12.713  -2.346  0.00  0.00     0.169 HD
BRANCH  10  12
ATOM     12  C   UNL d   1      25.897 -11.821  -3.951  0.00  0.00     0.035 A 
ATOM     13  C   UNL d   1      26.064 -12.086  -5.314  0.00  0.00     0.029 A 
ATOM     14  C   UNL d   1      25.905 -11.061  -6.253  0.00  0.00     0.002 A 
ATOM     15  C   UNL d   1      25.566  -9.775  -5.833  0.00  0.00     0.000 A 
ATOM     16  C   UNL d   1      25.426  -9.504  -4.474  0.00  0.00     0.002 A 
ATOM     17  C   UNL d   1      25.587 -10.524  -3.536  0.00  0.00     0.029 A 
ENDBRANCH  10  12
ENDBRANCH   3   8
BRANCH   1  18
ATOM     18  N   UNL d   1      27.832 -15.580   1.010  0.00  0.00    -0.326 N 
ATOM     19  C   UNL d   1      27.596 -14.491   1.849  0.00  0.00     0.235 C 
ATOM     20  O   UNL d   1      26.658 -13.708   1.689  0.00  0.00    -0.272 OA
ATOM     21  H   UNL d   1      28.415 -16.323   1.377  0.00  0.00     0.169 HD
BRANCH  19  22
ATOM     22  C   UNL d   1      28.606 -14.290   2.993  0.00  0.00     0.135 C 
ATOM     23  C   UNL d   1      29.432 -13.029   2.708  0.00  0.00     0.031 C 
BRANCH  22  24
ATOM     24  S   UNL d   1      27.712 -14.066   4.585  0.00  0.00    -0.160 SA
ATOM     25  C   UNL d   1      28.883 -14.825   5.742  0.00  0.00     0.090 C 
ENDBRANCH  22  24
ENDBRANCH  19  22
ENDBRANCH   1  18
TORSDOF 5
ENDMDL
MODEL 7
REMARK VINA RESULT:    -7.064      4.733      8.157
REMARK INTER + INTRA:          -9.382
REMARK INTER:                  -8.556
REMARK INTRA:                  -0.826
REMARK CONF_INDEPENDENT:        1.492
REMARK UNBOUND:                -0.826
REMARK  5 active torsions:
REMARK  status: ('A' for Active; 'I' for Inactive)
REMARK    1  A    between atoms: C_3  and  S_2 
REMARK    2  A    between atoms: C_3  and  C_5 
REMARK       I    between atoms: C_5  and  N_7 
REMARK    3  A    between atoms: N_7  and  C_8 
REMARK    4  A    between atoms: C_10  and  C_11 
REMARK       I    between atoms: C_11  and  N_13 
REMARK    5  A    between atoms: N_13  and  C_14 
ROOT
ATOM      1  C   UNL d   1      25.719 -16.024  -1.119  0.00  0.00     0.041 A 
ATOM      2  C   UNL d   1      26.072 -15.628   0.184  0.00  0.00     0.047 A 
ATOM      3  C   UNL d   1      26.835 -14.482   0.423  0.00  0.00     0.034 A 
ATOM      4  C   UNL d   1      27.260 -13.727  -0.678  0.00  0.00     0.018 A 
ATOM      5  C   UNL d   1      26.922 -14.111  -1.981  0.00  0.00     0.010 A 
ATOM      6  C   UNL d   1      26.156 -15.267  -2.220  0.00  0.00    -0.035 A 
ATOM      7  C   UNL d   1      25.743 -15.589  -3.628  0.00  0.00     0.050 C 
ENDROOT
BRANCH   3   8
ATOM      8  C   UNL d   1      27.211 -14.024   1.800  0.00  0.00     0.256 C 
ATOM      9  O   UNL d   1      26.744 -12.952   2.200  0.00  0.00    -0.267 OA
ATOM     10  N   UNL d   1      28.114 -14.792   2.523  0.00  0.00    -0.323 N 
ATOM     11  H   UNL d   1      28.618 -15.539   2.068  0.00  0.00     0.169 HD
BRANCH  10  12
ATOM     12  C   UNL d   1      28.563 -14.455   3.816  0.00  0.00     0.035 A 
ATOM     13  C   UNL d   1      29.491 -13.419   3.965  0.00  0.00     0.029 A 
ATOM     14  C   UNL d   1      29.972 -13.085   5.236  0.00  0.00     0.002 A 
ATOM     15  C   UNL d   1      29.516 -13.775   6.358  0.00  0.00     0.000 A 
ATOM     16  C   UNL d   1      28.612 -14.824   6.208  0.00  0.00     0.002 A 
ATOM     17  C   UNL d   1      28.135 -15.161   4.941  0.00  0.00     0.029 A 
ENDBRANCH  10  12
ENDBRANCH   3   8
BRANCH   1  18
ATOM     18  N   UNL d   1      24.918 -17.185  -1.292  0.00  0.00    -0.326 N 
ATOM     19  C   UNL d   1      23.536 -17.138  -1.113  0.00  0.00     0.235 C 
ATOM     20  O   UNL d   1      22.938 -16.126  -0.743  0.00  0.00    -0.272 OA
ATOM     21  H   UNL d   1      25.280 -17.932  -1.872  0.00  0.00     0.169 HD
BRANCH  19  22
ATOM     22  C   UNL d   1      22.778 -18.452  -1.374  0.00  0.00     0.135 C 
ATOM     23  C   UNL d   1      23.406 -19.563  -0.520  0.00  0.00     0.031 C 
BRANCH  22  24
ATOM     24  S   UNL d   1      21.012 -18.262  -0.895  0.00  0.00    -0.160 SA
ATOM     25  C   UNL d   1      20.795 -19.706   0.179  0.00  0.00     0.090 C 
ENDBRANCH  22  24
ENDBRANCH  19  22
ENDBRANCH   1  18
TORSDOF 5
ENDMDL
MODEL 8
REMARK VINA RESULT:    -6.988      2.845      3.184
REMARK INTER + INTRA:          -9.423
REMARK INTER:                  -8.480
REMARK INTRA:                  -0.944
REMARK CONF_INDEPENDENT:        1.492
REMARK UNBOUND:                -0.944
REMARK  5 active torsions:
REMARK  status: ('A' for Active; 'I' for Inactive)
REMARK    1  A    between atoms: C_3  and  S_2 
REMARK    2  A    between atoms: C_3  and  C_5 
REMARK       I    between atoms: C_5  and  N_7 
REMARK    3  A    between atoms: N_7  and  C_8 
REMARK    4  A    between atoms: C_10  and  C_11 
REMARK       I    between atoms: C_11  and  N_13 
REMARK    5  A    between atoms: N_13  and  C_14 
ROOT
ATOM      1  C   UNL d   1      26.579 -15.537  -0.319  0.00  0.00     0.041 A 
ATOM      2  C   UNL d   1      25.207 -15.820  -0.444  0.00  0.00     0.047 A 
ATOM      3  C   UNL d   1      24.706 -17.116  -0.293  0.00  0.00     0.034 A 
ATOM      4  C   UNL d   1      25.612 -18.149  -0.022  0.00  0.00     0.018 A 
ATOM      5  C   UNL d   1      26.982 -17.885   0.100  0.00  0.00     0.010 A 
ATOM      6  C   UNL d   1      27.484 -16.580  -0.055  0.00  0.00    -0.035 A 
ATOM      7  C   UNL d   1      28.949 -16.332   0.173  0.00  0.00     0.050 C 
ENDROOT
BRANCH   3   8
ATOM      8  C   UNL d   1      23.248 -17.444  -0.402  0.00  0.00     0.256 C 
ATOM      9  O   UNL d   1      22.489 -16.572  -0.841  0.00  0.00    -0.267 OA
ATOM     10  N   UNL d   1      22.818 -18.681   0.060  0.00  0.00    -0.323 N 
ATOM     11  H   UNL d   1      23.443 -19.264   0.596  0.00  0.00     0.169 HD
BRANCH  10  12
ATOM     12  C   UNL d   1      21.471 -19.097   0.035  0.00  0.00     0.035 A 
ATOM     13  C   UNL d   1      20.828 -19.247  -1.198  0.00  0.00     0.029 A 
ATOM     14  C   UNL d   1      19.483 -19.632  -1.246  0.00  0.00     0.002 A 
ATOM     15  C   UNL d   1      18.786 -19.880  -0.065  0.00  0.00     0.000 A 
ATOM     16  C   UNL d   1      19.417 -19.705   1.164  0.00  0.00     0.002 A 
ATOM     17  C   UNL d   1      20.757 -19.318   1.214  0.00  0.00     0.029 A 
ENDBRANCH  10  12
ENDBRANCH   3   8
BRANCH   1  18
ATOM     18  N   UNL d   1      27.021 -14.194  -0.458  0.00  0.00    -0.326 N 
ATOM     19  C   UNL d   1      26.886 -13.281   0.589  0.00  0.00     0.235 C 
ATOM     20  O   UNL d   1      26.335 -13.556   1.655  0.00  0.00    -0.272 OA
ATOM     21  H   UNL d   1      27.731 -13.995  -1.152  0.00  0.00     0.169 HD
BRANCH  19  22
ATOM     22  C   UNL d   1      27.444 -11.871   0.328  0.00  0.00     0.135 C 
ATOM     23  C   UNL d   1      26.655 -10.863   1.174  0.00  0.00     0.031 C 
BRANCH  22  24
ATOM     24  S   UNL d   1      29.216 -11.798   0.817  0.00  0.00    -0.160 SA
ATOM     25  C   UNL d   1      29.884 -13.198  -0.120  0.00  0.00     0.090 C 
ENDBRANCH  22  24
ENDBRANCH  19  22
ENDBRANCH   1  18
TORSDOF 5
ENDMDL
