MODEL 1
REMARK VINA RESULT:    -9.366      0.000      0.000
REMARK INTER + INTRA:         -17.713
REMARK INTER:                 -14.437
REMARK INTRA:                  -3.276
REMARK CONF_INDEPENDENT:        5.071
REMARK UNBOUND:                -3.276
REMARK  17 active torsions:
REMARK  status: ('A' for Active; 'I' for Inactive)
REMARK    1  A    between atoms: C_2  and  C_3 
REMARK       I    between atoms: C_2  and  N_18 
REMARK    2  A    between atoms: C_3  and  C_4 
REMARK    3  A    between atoms: C_4  and  C_5 
REMARK    4  A    between atoms: C_5  and  C_6 
REMARK    5  A    between atoms: C_6  and  O_8 
REMARK    6  A    between atoms: O_8  and  C_9 
REMARK    7  A    between atoms: C_9  and  C_10 
REMARK    8  A    between atoms: C_10  and  C_11 
REMARK    9  A    between atoms: C_11  and  C_12 
REMARK   10  A    between atoms: N_18  and  C_19 
REMARK   11  A    between atoms: C_19  and  N_21 
REMARK   12  A    between atoms: N_21  and  C_22 
REMARK   13  A    between atoms: C_27  and  O_28 
REMARK   14  A    between atoms: O_28  and  C_29 
REMARK   15  A    between atoms: C_29  and  C_30 
REMARK   16  A    between atoms: C_30  and  C_31 
REMARK   17  A    between atoms: C_31  and  C_32 
ROOT
ATOM      1  C   UNL d   1      25.213 -14.485  -2.709  0.00  0.00     0.178 C 
ATOM      2  S   UNL d   1      24.262 -13.750  -3.895  0.00  0.00    -0.040 SA
ENDROOT
BRANCH   1   3
ATOM      3  N   UNL d   1      25.899 -13.794  -1.671  0.00  0.00    -0.304 N 
ATOM      4  C   UNL d   1      26.809 -12.721  -1.667  0.00  0.00     0.223 C 
ATOM      5  O   UNL d   1      27.155 -12.245  -0.582  0.00  0.00    -0.273 OA
ATOM      6  H   UNL d   1      25.747 -14.121  -0.723  0.00  0.00     0.171 HD
BRANCH   4   7
ATOM      7  C   UNL d   1      27.467 -12.307  -3.002  0.00  0.00     0.103 C 
BRANCH   7   8
ATOM      8  C   UNL d   1      28.101 -13.436  -3.803  0.00  0.00     0.019 C 
BRANCH   8   9
ATOM      9  C   UNL d   1      27.543 -13.483  -5.250  0.00  0.00     0.111 C 
BRANCH   9  10
ATOM     10  C   UNL d   1      27.347 -14.913  -5.664  0.00  0.00     0.258 C 
ATOM     11  O   UNL d   1      26.327 -15.575  -5.423  0.00  0.00    -0.265 OA
BRANCH  10  12
ATOM     12  O   UNL d   1      28.430 -15.396  -6.321  0.00  0.00    -0.321 OA
BRANCH  12  13
ATOM     13  C   UNL d   1      29.201 -14.364  -6.952  0.00  0.00     0.179 C 
BRANCH  13  14
ATOM     14  C   UNL d   1      30.587 -14.904  -7.270  0.00  0.00     0.031 C 
BRANCH  14  15
ATOM     15  C   UNL d   1      31.160 -15.636  -6.065  0.00  0.00     0.041 C 
BRANCH  15  16
ATOM     16  C   UNL d   1      31.052 -17.134  -6.164  0.00  0.00    -0.058 A 
ATOM     17  C   UNL d   1      31.224 -17.800  -7.384  0.00  0.00     0.007 A 
ATOM     18  C   UNL d   1      30.913 -19.156  -7.491  0.00  0.00     0.001 A 
ATOM     19  C   UNL d   1      30.517 -19.873  -6.364  0.00  0.00     0.000 A 
ATOM     20  C   UNL d   1      30.405 -19.231  -5.133  0.00  0.00     0.001 A 
ATOM     21  C   UNL d   1      30.666 -17.867  -5.035  0.00  0.00     0.007 A 
ENDBRANCH  15  16
ENDBRANCH  14  15
ENDBRANCH  13  14
ENDBRANCH  12  13
ENDBRANCH  10  12
ENDBRANCH   9  10
ENDBRANCH   8   9
ENDBRANCH   7   8
ENDBRANCH   4   7
ENDBRANCH   1   3
BRANCH   1  22
ATOM     22  N   UNL d   1      25.598 -15.843  -2.777  0.00  0.00    -0.331 N 
ATOM     23  H   UNL d   1      25.737 -16.283  -3.681  0.00  0.00     0.168 HD
BRANCH  22  24
ATOM     24  C   UNL d   1      26.167 -16.530  -1.654  0.00  0.00     0.068 A 
ATOM     25  C   UNL d   1      27.569 -16.512  -1.530  0.00  0.00     0.032 A 
ATOM     26  C   UNL d   1      28.199 -17.086  -0.418  0.00  0.00     0.002 A 
ATOM     27  C   UNL d   1      27.434 -17.638   0.604  0.00  0.00     0.003 A 
ATOM     28  C   UNL d   1      26.043 -17.683   0.481  0.00  0.00     0.039 A 
ATOM     29  C   UNL d   1      25.390 -17.169  -0.654  0.00  0.00     0.095 A 
BRANCH  29  30
ATOM     30  O   UNL d   1      24.026 -17.415  -0.628  0.00  0.00    -0.349 OA
BRANCH  30  31
ATOM     31  C   UNL d   1      23.500 -18.237  -1.655  0.00  0.00     0.176 C 
BRANCH  31  32
ATOM     32  C   UNL d   1      22.345 -19.124  -1.264  0.00  0.00     0.031 C 
BRANCH  32  33
ATOM     33  C   UNL d   1      21.126 -18.265  -0.895  0.00  0.00     0.041 C 
BRANCH  33  34
ATOM     34  C   UNL d   1      20.162 -19.073  -0.106  0.00  0.00    -0.058 A 
ATOM     35  C   UNL d   1      20.327 -19.325   1.256  0.00  0.00     0.007 A 
ATOM     36  C   UNL d   1      19.570 -20.249   1.948  0.00  0.00     0.001 A 
ATOM     37  C   UNL d   1      18.586 -20.911   1.241  0.00  0.00     0.000 A 
ATOM     38  C   UNL d   1      18.381 -20.631  -0.117  0.00  0.00     0.001 A 
ATOM     39  C   UNL d   1      19.153 -19.700  -0.787  0.00  0.00     0.007 A 
ENDBRANCH  33  34
ENDBRANCH  32  33
ENDBRANCH  31  32
ENDBRANCH  30  31
ENDBRANCH  29  30
ENDBRANCH  22  24
ENDBRANCH   1  22
TORSDOF 17
ENDMDL
MODEL 2
REMARK VINA RESULT:    -9.014      3.592      6.067
REMARK INTER + INTRA:         -16.868
REMARK INTER:                 -14.085
REMARK INTRA:                  -2.783
REMARK CONF_INDEPENDENT:        5.071
REMARK UNBOUND:                -2.783
REMARK  17 active torsions:
REMARK  status: ('A' for Active; 'I' for Inactive)
REMARK    1  A    between atoms: C_2  and  C_3 
REMARK       I    between atoms: C_2  and  N_18 
REMARK    2  A    between atoms: C_3  and  C_4 
REMARK    3  A    between atoms: C_4  and  C_5 
REMARK    4  A    between atoms: C_5  and  C_6 
REMARK    5  A    between atoms: C_6  and  O_8 
REMARK    6  A    between atoms: O_8  and  C_9 
REMARK    7  A    between atoms: C_9  and  C_10 
REMARK    8  A    between atoms: C_10  and  C_11 
REMARK    9  A    between atoms: C_11  and  C_12 
REMARK   10  A    between atoms: N_18  and  C_19 
REMARK   11  A    between atoms: C_19  and  N_21 
REMARK   12  A    between atoms: N_21  and  C_22 
REMARK   13  A    between atoms: C_27  and  O_28 
REMARK   14  A    between atoms: O_28  and  C_29 
REMARK   15  A    between atoms: C_29  and  C_30 
REMARK   16  A    between atoms: C_30  and  C_31 
REMARK   17  A    between atoms: C_31  and  C_32 
ROOT
ATOM      1  C   UNL d   1      25.588 -14.204  -3.996  0.00  0.00     0.178 C 
ATOM      2  S   UNL d   1      26.588 -15.000  -5.099  0.00  0.00    -0.040 SA
ENDROOT
BRANCH   1   3
ATOM      3  N   UNL d   1      25.445 -12.792  -3.897  0.00  0.00    -0.304 N 
ATOM      4  C   UNL d   1      26.031 -11.821  -3.063  0.00  0.00     0.223 C 
ATOM      5  O   UNL d   1      25.801 -10.631  -3.291  0.00  0.00    -0.273 OA
ATOM      6  H   UNL d   1      24.780 -12.351  -4.523  0.00  0.00     0.171 HD
BRANCH   4   7
ATOM      7  C   UNL d   1      26.788 -12.293  -1.801  0.00  0.00     0.103 C 
BRANCH   7   8
ATOM      8  C   UNL d   1      28.223 -11.804  -1.671  0.00  0.00     0.019 C 
BRANCH   8   9
ATOM      9  C   UNL d   1      28.275 -10.341  -1.155  0.00  0.00     0.111 C 
BRANCH   9  10
ATOM     10  C   UNL d   1      27.556 -10.250   0.161  0.00  0.00     0.258 C 
ATOM     11  O   UNL d   1      26.664  -9.427   0.413  0.00  0.00    -0.265 OA
BRANCH  10  12
ATOM     12  O   UNL d   1      28.013 -11.170   1.046  0.00  0.00    -0.321 OA
BRANCH  12  13
ATOM     13  C   UNL d   1      27.027 -11.538   2.020  0.00  0.00     0.179 C 
BRANCH  13  14
ATOM     14  C   UNL d   1      26.281 -12.770   1.530  0.00  0.00     0.031 C 
BRANCH  14  15
ATOM     15  C   UNL d   1      27.168 -14.002   1.633  0.00  0.00     0.041 C 
BRANCH  15  16
ATOM     16  C   UNL d   1      28.019 -14.029   2.874  0.00  0.00    -0.058 A 
ATOM     17  C   UNL d   1      29.418 -14.005   2.801  0.00  0.00     0.007 A 
ATOM     18  C   UNL d   1      30.183 -14.242   3.944  0.00  0.00     0.001 A 
ATOM     19  C   UNL d   1      29.559 -14.416   5.178  0.00  0.00     0.000 A 
ATOM     20  C   UNL d   1      28.169 -14.378   5.268  0.00  0.00     0.001 A 
ATOM     21  C   UNL d   1      27.403 -14.191   4.121  0.00  0.00     0.007 A 
ENDBRANCH  15  16
ENDBRANCH  14  15
ENDBRANCH  13  14
ENDBRANCH  12  13
ENDBRANCH  10  12
ENDBRANCH   9  10
ENDBRANCH   8   9
ENDBRANCH   7   8
ENDBRANCH   4   7
ENDBRANCH   1   3
BRANCH   1  22
ATOM     22  N   UNL d   1      24.968 -14.870  -2.914  0.00  0.00    -0.331 N 
ATOM     23  H   UNL d   1      23.958 -14.958  -2.888  0.00  0.00     0.168 HD
BRANCH  22  24
ATOM     24  C   UNL d   1      25.695 -15.752  -2.047  0.00  0.00     0.068 A 
ATOM     25  C   UNL d   1      27.033 -15.421  -1.763  0.00  0.00     0.032 A 
ATOM     26  C   UNL d   1      27.785 -16.184  -0.860  0.00  0.00     0.002 A 
ATOM     27  C   UNL d   1      27.194 -17.252  -0.193  0.00  0.00     0.003 A 
ATOM     28  C   UNL d   1      25.874 -17.605  -0.486  0.00  0.00     0.039 A 
ATOM     29  C   UNL d   1      25.117 -16.894  -1.434  0.00  0.00     0.095 A 
BRANCH  29  30
ATOM     30  O   UNL d   1      23.878 -17.474  -1.654  0.00  0.00    -0.349 OA
BRANCH  30  31
ATOM     31  C   UNL d   1      23.457 -18.466  -0.733  0.00  0.00     0.176 C 
BRANCH  31  32
ATOM     32  C   UNL d   1      22.152 -18.201  -0.028  0.00  0.00     0.031 C 
BRANCH  32  33
ATOM     33  C   UNL d   1      20.983 -18.734  -0.870  0.00  0.00     0.041 C 
BRANCH  33  34
ATOM     34  C   UNL d   1      20.118 -19.604  -0.034  0.00  0.00    -0.058 A 
ATOM     35  C   UNL d   1      18.955 -20.203  -0.520  0.00  0.00     0.007 A 
ATOM     36  C   UNL d   1      18.031 -20.825   0.295  0.00  0.00     0.001 A 
ATOM     37  C   UNL d   1      18.315 -20.875   1.644  0.00  0.00     0.000 A 
ATOM     38  C   UNL d   1      19.503 -20.317   2.138  0.00  0.00     0.001 A 
ATOM     39  C   UNL d   1      20.414 -19.701   1.300  0.00  0.00     0.007 A 
ENDBRANCH  33  34
ENDBRANCH  32  33
ENDBRANCH  31  32
ENDBRANCH  30  31
ENDBRANCH  29  30
ENDBRANCH  22  24
ENDBRANCH   1  22
TORSDOF 17
ENDMDL
MODEL 3
REMARK VINA RESULT:    -8.431      1.575      9.489
REMARK INTER + INTRA:         -16.840
REMARK INTER:                 -13.502
REMARK INTRA:                  -3.338
REMARK CONF_INDEPENDENT:        5.071
REMARK UNBOUND:                -3.338
REMARK  17 active torsions:
REMARK  status: ('A' for Active; 'I' for Inactive)
REMARK    1  A    between atoms: C_2  and  C_3 
REMARK       I    between atoms: C_2  and  N_18 
REMARK    2  A    between atoms: C_3  and  C_4 
REMARK    3  A    between atoms: C_4  and  C_5 
REMARK    4  A    between atoms: C_5  and  C_6 
REMARK    5  A    between atoms: C_6  and  O_8 
REMARK    6  A    between atoms: O_8  and  C_9 
REMARK    7  A    between atoms: C_9  and  C_10 
REMARK    8  A    between atoms: C_10  and  C_11 
REMARK    9  A    between atoms: C_11  and  C_12 
REMARK   10  A    between atoms: N_18  and  C_19 
REMARK   11  A    between atoms: C_19  and  N_21 
REMARK   12  A    between atoms: N_21  and  C_22 
REMARK   13  A    between atoms: C_27  and  O_28 
REMARK   14  A    between atoms: O_28  and  C_29 
REMARK   15  A    between atoms: C_29  and  C_30 
REMARK   16  A    between atoms: C_30  and  C_31 
REMARK   17  A    between atoms: C_31  and  C_32 
ROOT
ATOM      1  C   UNL d   1      27.454 -12.827  -3.146  0.00  0.00     0.178 C 
ATOM      2  S   UNL d   1      26.341 -11.567  -2.988  0.00  0.00    -0.040 SA
ENDROOT
BRANCH   1   3
ATOM      3  N   UNL d   1      27.352 -13.891  -4.085  0.00  0.00    -0.304 N 
ATOM      4  C   UNL d   1      26.348 -14.836  -4.365  0.00  0.00     0.223 C 
ATOM      5  O   UNL d   1      26.492 -15.580  -5.338  0.00  0.00    -0.273 OA
ATOM      6  H   UNL d   1      28.154 -14.054  -4.685  0.00  0.00     0.171 HD
BRANCH   4   7
ATOM      7  C   UNL d   1      25.202 -15.018  -3.345  0.00  0.00     0.103 C 
BRANCH   7   8
ATOM      8  C   UNL d   1      25.188 -16.344  -2.597  0.00  0.00     0.019 C 
BRANCH   8   9
ATOM      9  C   UNL d   1      24.968 -16.131  -1.076  0.00  0.00     0.111 C 
BRANCH   9  10
ATOM     10  C   UNL d   1      25.073 -17.450  -0.366  0.00  0.00     0.258 C 
ATOM     11  O   UNL d   1      26.127 -18.089  -0.236  0.00  0.00    -0.265 OA
BRANCH  10  12
ATOM     12  O   UNL d   1      23.870 -17.864   0.103  0.00  0.00    -0.321 OA
BRANCH  12  13
ATOM     13  C   UNL d   1      22.800 -17.607  -0.817  0.00  0.00     0.179 C 
BRANCH  13  14
ATOM     14  C   UNL d   1      22.140 -18.926  -1.192  0.00  0.00     0.031 C 
BRANCH  14  15
ATOM     15  C   UNL d   1      20.625 -18.796  -1.133  0.00  0.00     0.041 C 
BRANCH  15  16
ATOM     16  C   UNL d   1      19.994 -19.608  -0.034  0.00  0.00    -0.058 A 
ATOM     17  C   UNL d   1      18.862 -20.400  -0.269  0.00  0.00     0.007 A 
ATOM     18  C   UNL d   1      18.174 -20.972   0.803  0.00  0.00     0.001 A 
ATOM     19  C   UNL d   1      18.662 -20.833   2.100  0.00  0.00     0.000 A 
ATOM     20  C   UNL d   1      19.824 -20.100   2.334  0.00  0.00     0.001 A 
ATOM     21  C   UNL d   1      20.483 -19.486   1.272  0.00  0.00     0.007 A 
ENDBRANCH  15  16
ENDBRANCH  14  15
ENDBRANCH  13  14
ENDBRANCH  12  13
ENDBRANCH  10  12
ENDBRANCH   9  10
ENDBRANCH   8   9
ENDBRANCH   7   8
ENDBRANCH   4   7
ENDBRANCH   1   3
BRANCH   1  22
ATOM     22  N   UNL d   1      28.476 -13.061  -2.198  0.00  0.00    -0.331 N 
ATOM     23  H   UNL d   1      28.949 -12.276  -1.763  0.00  0.00     0.168 HD
BRANCH  22  24
ATOM     24  C   UNL d   1      28.627 -14.326  -1.539  0.00  0.00     0.068 A 
ATOM     25  C   UNL d   1      28.446 -14.352  -0.143  0.00  0.00     0.032 A 
ATOM     26  C   UNL d   1      28.494 -15.559   0.565  0.00  0.00     0.002 A 
ATOM     27  C   UNL d   1      28.671 -16.758  -0.119  0.00  0.00     0.003 A 
ATOM     28  C   UNL d   1      28.876 -16.742  -1.501  0.00  0.00     0.039 A 
ATOM     29  C   UNL d   1      28.895 -15.538  -2.227  0.00  0.00     0.095 A 
BRANCH  29  30
ATOM     30  O   UNL d   1      29.224 -15.735  -3.558  0.00  0.00    -0.349 OA
BRANCH  30  31
ATOM     31  C   UNL d   1      30.544 -15.401  -3.952  0.00  0.00     0.176 C 
BRANCH  31  32
ATOM     32  C   UNL d   1      30.732 -15.056  -5.407  0.00  0.00     0.031 C 
BRANCH  32  33
ATOM     33  C   UNL d   1      29.867 -15.978  -6.280  0.00  0.00     0.041 C 
BRANCH  33  34
ATOM     34  C   UNL d   1      30.555 -17.280  -6.471  0.00  0.00    -0.058 A 
ATOM     35  C   UNL d   1      31.232 -17.610  -7.646  0.00  0.00     0.007 A 
ATOM     36  C   UNL d   1      31.681 -18.886  -7.923  0.00  0.00     0.001 A 
ATOM     37  C   UNL d   1      31.470 -19.850  -6.958  0.00  0.00     0.000 A 
ATOM     38  C   UNL d   1      30.833 -19.518  -5.755  0.00  0.00     0.001 A 
ATOM     39  C   UNL d   1      30.393 -18.232  -5.500  0.00  0.00     0.007 A 
ENDBRANCH  33  34
ENDBRANCH  32  33
ENDBRANCH  31  32
ENDBRANCH  30  31
ENDBRANCH  29  30
ENDBRANCH  22  24
ENDBRANCH   1  22
TORSDOF 17
ENDMDL
MODEL 4
REMARK VINA RESULT:    -7.722      2.325      5.012
REMARK INTER + INTRA:         -16.836
REMARK INTER:                 -12.793
REMARK INTRA:                  -4.044
REMARK CONF_INDEPENDENT:        5.071
REMARK UNBOUND:                -4.044
REMARK  17 active torsions:
REMARK  status: ('A' for Active; 'I' for Inactive)
REMARK    1  A    between atoms: C_2  and  C_3 
REMARK       I    between atoms: C_2  and  N_18 
REMARK    2  A    between atoms: C_3  and  C_4 
REMARK    3  A    between atoms: C_4  and  C_5 
REMARK    4  A    between atoms: C_5  and  C_6 
REMARK    5  A    between atoms: C_6  and  O_8 
REMARK    6  A    between atoms: O_8  and  C_9 
REMARK    7  A    between atoms: C_9  and  C_10 
REMARK    8  A    between atoms: C_10  and  C_11 
REMARK    9  A    between atoms: C_11  and  C_12 
REMARK   10  A    between atoms: N_18  and  C_19 
REMARK   11  A    between atoms: C_19  and  N_21 
REMARK   12  A    between atoms: N_21  and  C_22 
REMARK   13  A    between atoms: C_27  and  O_28 
REMARK   14  A    between atoms: O_28  and  C_29 
REMARK   15  A    between atoms: C_29  and  C_30 
REMARK   16  A    between atoms: C_30  and  C_31 
REMARK   17  A    between atoms: C_31  and  C_32 
ROOT
ATOM      1  C   UNL d   1      26.235 -13.941  -2.179  0.00  0.00     0.178 C 
ATOM      2  S   UNL d   1      26.790 -12.368  -2.440  0.00  0.00    -0.040 SA
ENDROOT
BRANCH   1   3
ATOM      3  N   UNL d   1      25.719 -14.802  -3.188  0.00  0.00    -0.304 N 
ATOM      4  C   UNL d   1      26.107 -15.074  -4.513  0.00  0.00     0.223 C 
ATOM      5  O   UNL d   1      25.530 -15.976  -5.124  0.00  0.00    -0.273 OA
ATOM      6  H   UNL d   1      24.886 -15.334  -2.957  0.00  0.00     0.171 HD
BRANCH   4   7
ATOM      7  C   UNL d   1      27.111 -14.119  -5.197  0.00  0.00     0.103 C 
BRANCH   7   8
ATOM      8  C   UNL d   1      28.573 -14.537  -5.127  0.00  0.00     0.019 C 
BRANCH   8   9
ATOM      9  C   UNL d   1      28.784 -15.676  -4.094  0.00  0.00     0.111 C 
BRANCH   9  10
ATOM     10  C   UNL d   1      29.429 -15.116  -2.859  0.00  0.00     0.258 C 
ATOM     11  O   UNL d   1      29.302 -13.944  -2.475  0.00  0.00    -0.265 OA
BRANCH  10  12
ATOM     12  O   UNL d   1      30.181 -16.047  -2.221  0.00  0.00    -0.321 OA
BRANCH  12  13
ATOM     13  C   UNL d   1      30.085 -15.952  -0.793  0.00  0.00     0.179 C 
BRANCH  13  14
ATOM     14  C   UNL d   1      31.022 -14.857  -0.305  0.00  0.00     0.031 C 
BRANCH  14  15
ATOM     15  C   UNL d   1      30.925 -14.711   1.207  0.00  0.00     0.041 C 
BRANCH  15  16
ATOM     16  C   UNL d   1      29.613 -14.138   1.673  0.00  0.00    -0.058 A 
ATOM     17  C   UNL d   1      29.093 -14.439   2.938  0.00  0.00     0.007 A 
ATOM     18  C   UNL d   1      27.787 -14.070   3.264  0.00  0.00     0.001 A 
ATOM     19  C   UNL d   1      27.027 -13.323   2.365  0.00  0.00     0.000 A 
ATOM     20  C   UNL d   1      27.562 -12.966   1.129  0.00  0.00     0.001 A 
ATOM     21  C   UNL d   1      28.846 -13.376   0.783  0.00  0.00     0.007 A 
ENDBRANCH  15  16
ENDBRANCH  14  15
ENDBRANCH  13  14
ENDBRANCH  12  13
ENDBRANCH  10  12
ENDBRANCH   9  10
ENDBRANCH   8   9
ENDBRANCH   7   8
ENDBRANCH   4   7
ENDBRANCH   1   3
BRANCH   1  22
ATOM     22  N   UNL d   1      26.021 -14.467  -0.884  0.00  0.00    -0.331 N 
ATOM     23  H   UNL d   1      25.533 -13.912  -0.189  0.00  0.00     0.168 HD
BRANCH  22  24
ATOM     24  C   UNL d   1      26.117 -15.871  -0.608  0.00  0.00     0.068 A 
ATOM     25  C   UNL d   1      27.283 -16.324   0.037  0.00  0.00     0.032 A 
ATOM     26  C   UNL d   1      27.418 -17.666   0.417  0.00  0.00     0.002 A 
ATOM     27  C   UNL d   1      26.370 -18.556   0.205  0.00  0.00     0.003 A 
ATOM     28  C   UNL d   1      25.218 -18.123  -0.456  0.00  0.00     0.039 A 
ATOM     29  C   UNL d   1      25.083 -16.797  -0.904  0.00  0.00     0.095 A 
BRANCH  29  30
ATOM     30  O   UNL d   1      23.918 -16.606  -1.631  0.00  0.00    -0.349 OA
BRANCH  30  31
ATOM     31  C   UNL d   1      22.715 -16.465  -0.895  0.00  0.00     0.176 C 
BRANCH  31  32
ATOM     32  C   UNL d   1      22.318 -17.647  -0.047  0.00  0.00     0.031 C 
BRANCH  32  33
ATOM     33  C   UNL d   1      21.572 -18.680  -0.904  0.00  0.00     0.041 C 
BRANCH  33  34
ATOM     34  C   UNL d   1      20.454 -19.267  -0.124  0.00  0.00    -0.058 A 
ATOM     35  C   UNL d   1      20.540 -19.517   1.247  0.00  0.00     0.007 A 
ATOM     36  C   UNL d   1      19.604 -20.260   1.938  0.00  0.00     0.001 A 
ATOM     37  C   UNL d   1      18.524 -20.732   1.221  0.00  0.00     0.000 A 
ATOM     38  C   UNL d   1      18.403 -20.448  -0.147  0.00  0.00     0.001 A 
ATOM     39  C   UNL d   1      19.355 -19.700  -0.815  0.00  0.00     0.007 A 
ENDBRANCH  33  34
ENDBRANCH  32  33
ENDBRANCH  31  32
ENDBRANCH  30  31
ENDBRANCH  29  30
ENDBRANCH  22  24
ENDBRANCH   1  22
TORSDOF 17
ENDMDL
MODEL 5
REMARK VINA RESULT:    -7.538      1.914      9.384
REMARK INTER + INTRA:         -17.050
REMARK INTER:                 -12.609
REMARK INTRA:                  -4.441
REMARK CONF_INDEPENDENT:        5.071
REMARK UNBOUND:                -4.441
REMARK  17 active torsions:
REMARK  status: ('A' for Active; 'I' for Inactive)
REMARK    1  A    between atoms: C_2  and  C_3 
REMARK       I    between atoms: C_2  and  N_18 
REMARK    2  A    between atoms: C_3  and  C_4 
REMARK    3  A    between atoms: C_4  and  C_5 
REMARK    4  A    between atoms: C_5  and  C_6 
REMARK    5  A    between atoms: C_6  and  O_8 
REMARK    6  A    between atoms: O_8  and  C_9 
REMARK    7  A    between atoms: C_9  and  C_10 
REMARK    8  A    between atoms: C_10  and  C_11 
REMARK    9  A    between atoms: C_11  and  C_12 
REMARK   10  A    between atoms: N_18  and  C_19 
REMARK   11  A    between atoms: C_19  and  N_21 
REMARK   12  A    between atoms: N_21  and  C_22 
REMARK   13  A    between atoms: C_27  and  O_28 
REMARK   14  A    between atoms: O_28  and  C_29 
REMARK   15  A    between atoms: C_29  and  C_30 
REMARK   16  A    between atoms: C_30  and  C_31 
REMARK   17  A    between atoms: C_31  and  C_32 
ROOT
ATOM      1  C   UNL d   1      28.139 -14.692  -3.131  0.00  0.00     0.178 C 
ATOM      2  S   UNL d   1      28.645 -13.667  -1.889  0.00  0.00    -0.040 SA
ENDROOT
BRANCH   1   3
ATOM      3  N   UNL d   1      27.012 -14.463  -3.970  0.00  0.00    -0.304 N 
ATOM      4  C   UNL d   1      25.627 -14.622  -3.785  0.00  0.00     0.223 C 
ATOM      5  O   UNL d   1      24.864 -14.220  -4.667  0.00  0.00    -0.273 OA
ATOM      6  H   UNL d   1      27.199 -14.134  -4.911  0.00  0.00     0.171 HD
BRANCH   4   7
ATOM      7  C   UNL d   1      25.134 -15.449  -2.576  0.00  0.00     0.103 C 
BRANCH   7   8
ATOM      8  C   UNL d   1      25.556 -14.932  -1.208  0.00  0.00     0.019 C 
BRANCH   8   9
ATOM      9  C   UNL d   1      25.495 -16.055  -0.139  0.00  0.00     0.111 C 
BRANCH   9  10
ATOM     10  C   UNL d   1      26.056 -17.324  -0.715  0.00  0.00     0.258 C 
ATOM     11  O   UNL d   1      27.161 -17.409  -1.269  0.00  0.00    -0.265 OA
BRANCH  10  12
ATOM     12  O   UNL d   1      25.198 -18.364  -0.565  0.00  0.00    -0.321 OA
BRANCH  12  13
ATOM     13  C   UNL d   1      23.992 -18.199  -1.324  0.00  0.00     0.179 C 
BRANCH  13  14
ATOM     14  C   UNL d   1      22.948 -19.182  -0.817  0.00  0.00     0.031 C 
BRANCH  14  15
ATOM     15  C   UNL d   1      22.179 -18.584   0.351  0.00  0.00     0.041 C 
BRANCH  15  16
ATOM     16  C   UNL d   1      20.795 -19.150   0.514  0.00  0.00    -0.058 A 
ATOM     17  C   UNL d   1      20.302 -19.527   1.770  0.00  0.00     0.007 A 
ATOM     18  C   UNL d   1      19.107 -20.241   1.868  0.00  0.00     0.001 A 
ATOM     19  C   UNL d   1      18.354 -20.502   0.725  0.00  0.00     0.000 A 
ATOM     20  C   UNL d   1      18.806 -20.074  -0.521  0.00  0.00     0.001 A 
ATOM     21  C   UNL d   1      20.023 -19.407  -0.626  0.00  0.00     0.007 A 
ENDBRANCH  15  16
ENDBRANCH  14  15
ENDBRANCH  13  14
ENDBRANCH  12  13
ENDBRANCH  10  12
ENDBRANCH   9  10
ENDBRANCH   8   9
ENDBRANCH   7   8
ENDBRANCH   4   7
ENDBRANCH   1   3
BRANCH   1  22
ATOM     22  N   UNL d   1      28.663 -15.994  -3.304  0.00  0.00    -0.331 N 
ATOM     23  H   UNL d   1      28.219 -16.780  -2.842  0.00  0.00     0.168 HD
BRANCH  22  24
ATOM     24  C   UNL d   1      29.547 -16.321  -4.384  0.00  0.00     0.068 A 
ATOM     25  C   UNL d   1      30.696 -17.073  -4.074  0.00  0.00     0.032 A 
ATOM     26  C   UNL d   1      31.566 -17.505  -5.083  0.00  0.00     0.002 A 
ATOM     27  C   UNL d   1      31.271 -17.237  -6.415  0.00  0.00     0.003 A 
ATOM     28  C   UNL d   1      30.147 -16.471  -6.734  0.00  0.00     0.039 A 
ATOM     29  C   UNL d   1      29.291 -15.972  -5.736  0.00  0.00     0.095 A 
BRANCH  29  30
ATOM     30  O   UNL d   1      28.305 -15.148  -6.256  0.00  0.00    -0.349 OA
BRANCH  30  31
ATOM     31  C   UNL d   1      28.725 -14.116  -7.131  0.00  0.00     0.176 C 
BRANCH  31  32
ATOM     32  C   UNL d   1      28.180 -12.740  -6.839  0.00  0.00     0.031 C 
BRANCH  32  33
ATOM     33  C   UNL d   1      28.856 -12.163  -5.587  0.00  0.00     0.041 C 
BRANCH  33  34
ATOM     34  C   UNL d   1      27.834 -11.551  -4.701  0.00  0.00    -0.058 A 
ATOM     35  C   UNL d   1      26.467 -11.604  -4.978  0.00  0.00     0.007 A 
ATOM     36  C   UNL d   1      25.530 -10.857  -4.292  0.00  0.00     0.001 A 
ATOM     37  C   UNL d   1      25.992 -10.059  -3.265  0.00  0.00     0.000 A 
ATOM     38  C   UNL d   1      27.358 -10.034  -2.948  0.00  0.00     0.001 A 
ATOM     39  C   UNL d   1      28.276 -10.793  -3.650  0.00  0.00     0.007 A 
ENDBRANCH  33  34
ENDBRANCH  32  33
ENDBRANCH  31  32
ENDBRANCH  30  31
ENDBRANCH  29  30
ENDBRANCH  22  24
ENDBRANCH   1  22
TORSDOF 17
ENDMDL
MODEL 6
REMARK VINA RESULT:    -6.745      1.959      2.992
REMARK INTER + INTRA:         -17.067
REMARK INTER:                 -11.816
REMARK INTRA:                  -5.251
REMARK CONF_INDEPENDENT:        5.071
REMARK UNBOUND:                -5.251
REMARK  17 active torsions:
REMARK  status: ('A' for Active; 'I' for Inactive)
REMARK    1  A    between atoms: C_2  and  C_3 
REMARK       I    between atoms: C_2  and  N_18 
REMARK    2  A    between atoms: C_3  and  C_4 
REMARK    3  A    between atoms: C_4  and  C_5 
REMARK    4  A    between atoms: C_5  and  C_6 
REMARK    5  A    between atoms: C_6  and  O_8 
REMARK    6  A    between atoms: O_8  and  C_9 
REMARK    7  A    between atoms: C_9  and  C_10 
REMARK    8  A    between atoms: C_10  and  C_11 
REMARK    9  A    between atoms: C_11  and  C_12 
REMARK   10  A    between atoms: N_18  and  C_19 
REMARK   11  A    between atoms: C_19  and  N_21 
REMARK   12  A    between atoms: N_21  and  C_22 
REMARK   13  A    between atoms: C_27  and  O_28 
REMARK   14  A    between atoms: O_28  and  C_29 
REMARK   15  A    between atoms: C_29  and  C_30 
REMARK   16  A    between atoms: C_30  and  C_31 
REMARK   17  A    between atoms: C_31  and  C_32 
ROOT
ATOM      1  C   UNL d   1      26.918 -15.018  -2.739  0.00  0.00     0.178 C 
ATOM      2  S   UNL d   1      25.329 -15.478  -3.075  0.00  0.00    -0.040 SA
ENDROOT
BRANCH   1   3
ATOM      3  N   UNL d   1      27.304 -13.764  -2.187  0.00  0.00    -0.304 N 
ATOM      4  C   UNL d   1      27.230 -12.441  -2.658  0.00  0.00     0.223 C 
ATOM      5  O   UNL d   1      27.540 -11.524  -1.894  0.00  0.00    -0.273 OA
ATOM      6  H   UNL d   1      27.748 -13.781  -1.275  0.00  0.00     0.171 HD
BRANCH   4   7
ATOM      7  C   UNL d   1      26.936 -12.208  -4.157  0.00  0.00     0.103 C 
BRANCH   7   8
ATOM      8  C   UNL d   1      28.128 -12.345  -5.093  0.00  0.00     0.019 C 
BRANCH   8   9
ATOM      9  C   UNL d   1      27.771 -13.196  -6.340  0.00  0.00     0.111 C 
BRANCH   9  10
ATOM     10  C   UNL d   1      27.838 -14.654  -5.986  0.00  0.00     0.258 C 
ATOM     11  O   UNL d   1      26.847 -15.365  -5.770  0.00  0.00    -0.265 OA
BRANCH  10  12
ATOM     12  O   UNL d   1      29.119 -15.094  -5.919  0.00  0.00    -0.321 OA
BRANCH  12  13
ATOM     13  C   UNL d   1      29.935 -14.587  -6.983  0.00  0.00     0.179 C 
BRANCH  13  14
ATOM     14  C   UNL d   1      31.217 -15.402  -7.058  0.00  0.00     0.031 C 
BRANCH  14  15
ATOM     15  C   UNL d   1      31.285 -16.390  -5.903  0.00  0.00     0.041 C 
BRANCH  15  16
ATOM     16  C   UNL d   1      31.141 -17.826  -6.330  0.00  0.00    -0.058 A 
ATOM     17  C   UNL d   1      31.172 -18.194  -7.681  0.00  0.00     0.007 A 
ATOM     18  C   UNL d   1      30.827 -19.491  -8.062  0.00  0.00     0.001 A 
ATOM     19  C   UNL d   1      30.538 -20.450  -7.094  0.00  0.00     0.000 A 
ATOM     20  C   UNL d   1      30.567 -20.108  -5.744  0.00  0.00     0.001 A 
ATOM     21  C   UNL d   1      30.861 -18.801  -5.364  0.00  0.00     0.007 A 
ENDBRANCH  15  16
ENDBRANCH  14  15
ENDBRANCH  13  14
ENDBRANCH  12  13
ENDBRANCH  10  12
ENDBRANCH   9  10
ENDBRANCH   8   9
ENDBRANCH   7   8
ENDBRANCH   4   7
ENDBRANCH   1   3
BRANCH   1  22
ATOM     22  N   UNL d   1      28.035 -15.757  -3.190  0.00  0.00    -0.331 N 
ATOM     23  H   UNL d   1      28.261 -15.776  -4.179  0.00  0.00     0.168 HD
BRANCH  22  24
ATOM     24  C   UNL d   1      29.083 -16.171  -2.302  0.00  0.00     0.068 A 
ATOM     25  C   UNL d   1      30.229 -16.749  -2.881  0.00  0.00     0.032 A 
ATOM     26  C   UNL d   1      31.331 -17.103  -2.092  0.00  0.00     0.002 A 
ATOM     27  C   UNL d   1      31.321 -16.836  -0.727  0.00  0.00     0.003 A 
ATOM     28  C   UNL d   1      30.180 -16.285  -0.138  0.00  0.00     0.039 A 
ATOM     29  C   UNL d   1      29.037 -15.978  -0.897  0.00  0.00     0.095 A 
BRANCH  29  30
ATOM     30  O   UNL d   1      27.983 -15.548  -0.106  0.00  0.00    -0.349 OA
BRANCH  30  31
ATOM     31  C   UNL d   1      27.165 -16.548   0.476  0.00  0.00     0.176 C 
BRANCH  31  32
ATOM     32  C   UNL d   1      26.746 -17.672  -0.437  0.00  0.00     0.031 C 
BRANCH  32  33
ATOM     33  C   UNL d   1      25.681 -18.538   0.252  0.00  0.00     0.041 C 
BRANCH  33  34
ATOM     34  C   UNL d   1      24.338 -18.205  -0.285  0.00  0.00    -0.058 A 
ATOM     35  C   UNL d   1      23.885 -16.892  -0.424  0.00  0.00     0.007 A 
ATOM     36  C   UNL d   1      22.572 -16.574  -0.707  0.00  0.00     0.001 A 
ATOM     37  C   UNL d   1      21.697 -17.624  -0.895  0.00  0.00     0.000 A 
ATOM     38  C   UNL d   1      22.152 -18.947  -0.804  0.00  0.00     0.001 A 
ATOM     39  C   UNL d   1      23.473 -19.240  -0.520  0.00  0.00     0.007 A 
ENDBRANCH  33  34
ENDBRANCH  32  33
ENDBRANCH  31  32
ENDBRANCH  30  31
ENDBRANCH  29  30
ENDBRANCH  22  24
ENDBRANCH   1  22
TORSDOF 17
ENDMDL
