MODEL 1
REMARK VINA RESULT:   -29.763      0.000      0.000
REMARK INTER + INTRA:         -33.065
REMARK INTER:                 -31.851
REMARK INTRA:                  -1.214
REMARK CONF_INDEPENDENT:        2.088
REMARK UNBOUND:                -1.214
REMARK  7 active torsions:
REMARK  status: ('A' for Active; 'I' for Inactive)
REMARK    1  A    between atoms: C_2  and  O_3 
REMARK    2  A    between atoms: O_3  and  C_4 
REMARK    3  A    between atoms: C_4  and  C_6 
REMARK    4  A    between atoms: C_9  and  N_10 
REMARK       I    between atoms: N_10  and  C_11 
REMARK       I    between atoms: C_11  and  N_23 
REMARK       I    between atoms: N_12  and  C_13 
REMARK    5  A    between atoms: C_13  and  C_15 
REMARK    6  A    between atoms: N_23  and  C_24 
REMARK    7  A    between atoms: C_24  and  C_25 
ROOT
ATOM      1  N   UNL d   1      26.787 -17.831   0.037  0.00  0.00    -0.190 N 
ATOM      2  C   UNL d   1      25.622 -17.251  -0.500  0.00  0.00     0.704 C 
ATOM      3  N   UNL d   1      25.688 -16.150  -1.202  0.00  0.00    -0.023 NA
ATOM      4  C   UNL d   1      24.713 -15.418  -1.815  0.00  0.00     0.293 C 
ATOM      5  O   UNL d   1      23.521 -15.653  -2.047  0.00  0.00    -0.265 OA
ATOM      6  N   UNL d   1      24.481 -17.969  -0.182  0.00  0.00    -0.220 N 
ATOM      7  H   UNL d   1      26.671 -18.634   0.640  0.00  0.00     0.184 HD
ATOM      8  H   UNL d   1      24.500 -18.857   0.293  0.00  0.00     0.178 HD
ENDROOT
BRANCH   1   9
ATOM      9  C   UNL d   1      28.110 -17.287   0.037  0.00  0.00     0.049 A 
ATOM     10  C   UNL d   1      28.428 -16.036   0.604  0.00  0.00     0.031 A 
ATOM     11  C   UNL d   1      29.744 -15.493   0.510  0.00  0.00     0.020 A 
ATOM     12  C   UNL d   1      30.783 -16.214  -0.101  0.00  0.00     0.039 A 
ATOM     13  C   UNL d   1      30.496 -17.466  -0.610  0.00  0.00     0.020 A 
ATOM     14  C   UNL d   1      29.197 -17.976  -0.520  0.00  0.00     0.031 A 
BRANCH  12  15
ATOM     15  C   UNL d   1      32.194 -15.739  -0.067  0.00  0.00     0.293 C 
ATOM     16  O   UNL d   1      32.527 -14.649  -0.503  0.00  0.00    -0.259 OA
BRANCH  15  17
ATOM     17  O   UNL d   1      33.025 -16.654   0.514  0.00  0.00    -0.318 OA
BRANCH  17  18
ATOM     18  C   UNL d   1      32.950 -16.690   1.954  0.00  0.00     0.174 C 
ATOM     19  C   UNL d   1      32.725 -18.117   2.434  0.00  0.00     0.034 C 
ENDBRANCH  17  18
ENDBRANCH  15  17
ENDBRANCH  12  15
ENDBRANCH   1   9
BRANCH   6  20
ATOM     20  C   UNL d   1      23.216 -17.579  -0.757  0.00  0.00     0.178 C 
BRANCH  20  21
ATOM     21  C   UNL d   1      21.951 -18.205  -0.330  0.00  0.00    -0.022 A 
ATOM     22  C   UNL d   1      21.791 -18.640   0.993  0.00  0.00     0.012 A 
ATOM     23  C   UNL d   1      20.642 -19.325   1.334  0.00  0.00     0.020 A 
ATOM     24  C   UNL d   1      19.728 -19.582   0.325  0.00  0.00     0.116 A 
ATOM     25  N   UNL d   1      19.905 -19.259  -0.977  0.00  0.00    -0.273 NA
ATOM     26  C   UNL d   1      21.029 -18.594  -1.280  0.00  0.00     0.124 A 
ENDBRANCH  20  21
ENDBRANCH   6  20
BRANCH   4  27
ATOM     27  C   UNL d   1      25.045 -14.175  -2.471  0.00  0.00     0.035 A 
ATOM     28  C   UNL d   1      24.604 -14.051  -3.797  0.00  0.00     0.017 A 
ATOM     29  C   UNL d   1      25.211 -13.143  -4.635  0.00  0.00     0.008 A 
ATOM     30  C   UNL d   1      26.187 -12.283  -4.121  0.00  0.00    -0.056 A 
ATOM     31  C   UNL d   1      26.657 -11.159  -4.989  0.00  0.00     0.049 C 
ATOM     32  C   UNL d   1      26.650 -12.437  -2.793  0.00  0.00    -0.055 A 
ATOM     33  C   UNL d   1      27.782 -11.632  -2.229  0.00  0.00     0.049 C 
ATOM     34  C   UNL d   1      26.079 -13.404  -1.967  0.00  0.00     0.024 A 
ENDBRANCH   4  27
TORSDOF 7
ENDMDL
MODEL 2
REMARK VINA RESULT:   -29.297      0.839      1.782
REMARK INTER + INTRA:         -32.671
REMARK INTER:                 -31.385
REMARK INTRA:                  -1.286
REMARK CONF_INDEPENDENT:        2.088
REMARK UNBOUND:                -1.286
REMARK  7 active torsions:
REMARK  status: ('A' for Active; 'I' for Inactive)
REMARK    1  A    between atoms: C_2  and  O_3 
REMARK    2  A    between atoms: O_3  and  C_4 
REMARK    3  A    between atoms: C_4  and  C_6 
REMARK    4  A    between atoms: C_9  and  N_10 
REMARK       I    between atoms: N_10  and  C_11 
REMARK       I    between atoms: C_11  and  N_23 
REMARK       I    between atoms: N_12  and  C_13 
REMARK    5  A    between atoms: C_13  and  C_15 
REMARK    6  A    between atoms: N_23  and  C_24 
REMARK    7  A    between atoms: C_24  and  C_25 
ROOT
ATOM      1  N   UNL d   1      26.794 -17.936  -0.077  0.00  0.00    -0.190 N 
ATOM      2  C   UNL d   1      25.630 -17.313  -0.566  0.00  0.00     0.704 C 
ATOM      3  N   UNL d   1      25.706 -16.208  -1.259  0.00  0.00    -0.023 NA
ATOM      4  C   UNL d   1      24.734 -15.439  -1.830  0.00  0.00     0.293 C 
ATOM      5  O   UNL d   1      23.527 -15.633  -2.022  0.00  0.00    -0.265 OA
ATOM      6  N   UNL d   1      24.478 -17.998  -0.215  0.00  0.00    -0.220 N 
ATOM      7  H   UNL d   1      26.673 -18.742   0.522  0.00  0.00     0.184 HD
ATOM      8  H   UNL d   1      24.486 -18.892   0.251  0.00  0.00     0.178 HD
ENDROOT
BRANCH   1   9
ATOM      9  C   UNL d   1      28.133 -17.434  -0.119  0.00  0.00     0.049 A 
ATOM     10  C   UNL d   1      29.214 -18.170  -0.647  0.00  0.00     0.031 A 
ATOM     11  C   UNL d   1      30.548 -17.665  -0.595  0.00  0.00     0.020 A 
ATOM     12  C   UNL d   1      30.821 -16.392  -0.068  0.00  0.00     0.039 A 
ATOM     13  C   UNL d   1      29.761 -15.639   0.400  0.00  0.00     0.020 A 
ATOM     14  C   UNL d   1      28.462 -16.156   0.353  0.00  0.00     0.031 A 
BRANCH  12  15
ATOM     15  C   UNL d   1      32.177 -15.782  -0.152  0.00  0.00     0.293 C 
ATOM     16  O   UNL d   1      32.842 -15.529   0.840  0.00  0.00    -0.259 OA
BRANCH  15  17
ATOM     17  O   UNL d   1      32.560 -15.569  -1.445  0.00  0.00    -0.318 OA
BRANCH  17  18
ATOM     18  C   UNL d   1      32.071 -14.336  -2.012  0.00  0.00     0.174 C 
ATOM     19  C   UNL d   1      31.676 -14.546  -3.467  0.00  0.00     0.034 C 
ENDBRANCH  17  18
ENDBRANCH  15  17
ENDBRANCH  12  15
ENDBRANCH   1   9
BRANCH   6  20
ATOM     20  C   UNL d   1      23.207 -17.562  -0.740  0.00  0.00     0.178 C 
BRANCH  20  21
ATOM     21  C   UNL d   1      21.943 -18.194  -0.321  0.00  0.00    -0.022 A 
ATOM     22  C   UNL d   1      21.778 -18.632   1.001  0.00  0.00     0.012 A 
ATOM     23  C   UNL d   1      20.631 -19.322   1.336  0.00  0.00     0.020 A 
ATOM     24  C   UNL d   1      19.723 -19.583   0.322  0.00  0.00     0.116 A 
ATOM     25  N   UNL d   1      19.905 -19.258  -0.979  0.00  0.00    -0.273 NA
ATOM     26  C   UNL d   1      21.028 -18.587  -1.276  0.00  0.00     0.124 A 
ENDBRANCH  20  21
ENDBRANCH   6  20
BRANCH   4  27
ATOM     27  C   UNL d   1      25.083 -14.200  -2.486  0.00  0.00     0.035 A 
ATOM     28  C   UNL d   1      24.654 -14.075  -3.816  0.00  0.00     0.017 A 
ATOM     29  C   UNL d   1      25.276 -13.173  -4.650  0.00  0.00     0.008 A 
ATOM     30  C   UNL d   1      26.255 -12.321  -4.129  0.00  0.00    -0.056 A 
ATOM     31  C   UNL d   1      26.743 -11.202  -4.994  0.00  0.00     0.049 C 
ATOM     32  C   UNL d   1      26.705 -12.476  -2.796  0.00  0.00    -0.055 A 
ATOM     33  C   UNL d   1      27.838 -11.680  -2.224  0.00  0.00     0.049 C 
ATOM     34  C   UNL d   1      26.118 -13.436  -1.974  0.00  0.00     0.024 A 
ENDBRANCH   4  27
TORSDOF 7
ENDMDL
MODEL 3
REMARK VINA RESULT:   -28.625      1.214      2.044
REMARK INTER + INTRA:         -31.918
REMARK INTER:                 -30.713
REMARK INTRA:                  -1.205
REMARK CONF_INDEPENDENT:        2.088
REMARK UNBOUND:                -1.205
REMARK  7 active torsions:
REMARK  status: ('A' for Active; 'I' for Inactive)
REMARK    1  A    between atoms: C_2  and  O_3 
REMARK    2  A    between atoms: O_3  and  C_4 
REMARK    3  A    between atoms: C_4  and  C_6 
REMARK    4  A    between atoms: C_9  and  N_10 
REMARK       I    between atoms: N_10  and  C_11 
REMARK       I    between atoms: C_11  and  N_23 
REMARK       I    between atoms: N_12  and  C_13 
REMARK    5  A    between atoms: C_13  and  C_15 
REMARK    6  A    between atoms: N_23  and  C_24 
REMARK    7  A    between atoms: C_24  and  C_25 
ROOT
ATOM      1  N   UNL d   1      26.776 -17.041   0.552  0.00  0.00    -0.190 N 
ATOM      2  C   UNL d   1      25.673 -16.688  -0.249  0.00  0.00     0.704 C 
ATOM      3  N   UNL d   1      25.786 -15.773  -1.175  0.00  0.00    -0.023 NA
ATOM      4  C   UNL d   1      24.873 -15.276  -2.060  0.00  0.00     0.293 C 
ATOM      5  O   UNL d   1      23.738 -15.648  -2.380  0.00  0.00    -0.265 OA
ATOM      6  N   UNL d   1      24.532 -17.403   0.081  0.00  0.00    -0.220 N 
ATOM      7  H   UNL d   1      26.613 -17.694   1.306  0.00  0.00     0.184 HD
ATOM      8  H   UNL d   1      24.525 -18.157   0.750  0.00  0.00     0.178 HD
ENDROOT
BRANCH   1   9
ATOM      9  C   UNL d   1      28.059 -16.410   0.591  0.00  0.00     0.049 A 
ATOM     10  C   UNL d   1      29.189 -16.921  -0.080  0.00  0.00     0.031 A 
ATOM     11  C   UNL d   1      30.470 -16.306   0.053  0.00  0.00     0.020 A 
ATOM     12  C   UNL d   1      30.636 -15.135   0.810  0.00  0.00     0.039 A 
ATOM     13  C   UNL d   1      29.524 -14.593   1.426  0.00  0.00     0.020 A 
ATOM     14  C   UNL d   1      28.279 -15.217   1.295  0.00  0.00     0.031 A 
BRANCH  12  15
ATOM     15  C   UNL d   1      31.925 -14.388   0.829  0.00  0.00     0.293 C 
ATOM     16  O   UNL d   1      32.803 -14.622   1.645  0.00  0.00    -0.259 OA
BRANCH  15  17
ATOM     17  O   UNL d   1      31.987 -13.456  -0.166  0.00  0.00    -0.318 OA
BRANCH  17  18
ATOM     18  C   UNL d   1      31.249 -13.807  -1.354  0.00  0.00     0.174 C 
ATOM     19  C   UNL d   1      30.098 -12.833  -1.566  0.00  0.00     0.034 C 
ENDBRANCH  17  18
ENDBRANCH  15  17
ENDBRANCH  12  15
ENDBRANCH   1   9
BRANCH   6  20
ATOM     20  C   UNL d   1      23.344 -17.252  -0.724  0.00  0.00     0.178 C 
BRANCH  20  21
ATOM     21  C   UNL d   1      22.071 -17.893  -0.346  0.00  0.00    -0.022 A 
ATOM     22  C   UNL d   1      21.983 -18.642   0.836  0.00  0.00     0.012 A 
ATOM     23  C   UNL d   1      20.814 -19.325   1.105  0.00  0.00     0.020 A 
ATOM     24  C   UNL d   1      19.806 -19.264   0.157  0.00  0.00     0.116 A 
ATOM     25  N   UNL d   1      19.904 -18.630  -1.035  0.00  0.00    -0.273 NA
ATOM     26  C   UNL d   1      21.050 -17.974  -1.269  0.00  0.00     0.124 A 
ENDBRANCH  20  21
ENDBRANCH   6  20
BRANCH   4  27
ATOM     27  C   UNL d   1      25.238 -14.191  -2.942  0.00  0.00     0.035 A 
ATOM     28  C   UNL d   1      25.517 -14.554  -4.268  0.00  0.00     0.017 A 
ATOM     29  C   UNL d   1      26.270 -13.715  -5.059  0.00  0.00     0.008 A 
ATOM     30  C   UNL d   1      26.654 -12.466  -4.561  0.00  0.00    -0.056 A 
ATOM     31  C   UNL d   1      27.265 -11.489  -5.515  0.00  0.00     0.049 C 
ATOM     32  C   UNL d   1      26.397 -12.122  -3.213  0.00  0.00    -0.055 A 
ATOM     33  C   UNL d   1      26.897 -10.854  -2.589  0.00  0.00     0.049 C 
ATOM     34  C   UNL d   1      25.692 -13.003  -2.394  0.00  0.00     0.024 A 
ENDBRANCH   4  27
TORSDOF 7
ENDMDL
