MODEL 1
REMARK VINA RESULT:    -8.087      0.000      0.000
REMARK INTER + INTRA:          -9.707
REMARK INTER:                  -9.280
REMARK INTRA:                  -0.427
REMARK CONF_INDEPENDENT:        1.193
REMARK UNBOUND:                -0.427
REMARK  4 active torsions:
REMARK  status: ('A' for Active; 'I' for Inactive)
REMARK    1  A    between atoms: N_1  and  C_2 
REMARK    2  A    between atoms: C_7  and  N_8 
REMARK       I    between atoms: N_8  and  C_9 
REMARK    3  A    between atoms: C_9  and  C_11 
REMARK    4  A    between atoms: C_13  and  C_14 
ROOT
ATOM      1  C   UNL d   1      26.330 -12.533  -3.165  0.00  0.00     0.036 C 
ATOM      2  C   UNL d   1      25.456 -12.906  -4.203  0.00  0.00     0.030 C 
ATOM      3  C   UNL d   1      24.781 -14.083  -4.134  0.00  0.00     0.003 C 
ATOM      4  C   UNL d   1      25.042 -14.884  -3.056  0.00  0.00     0.014 C 
ATOM      5  C   UNL d   1      25.770 -14.567  -1.927  0.00  0.00     0.003 A 
ATOM      6  C   UNL d   1      25.807 -15.464  -0.831  0.00  0.00     0.045 A 
ATOM      7  C   UNL d   1      26.681 -15.128   0.230  0.00  0.00     0.030 A 
ATOM      8  C   UNL d   1      27.435 -13.937   0.199  0.00  0.00     0.003 A 
ATOM      9  C   UNL d   1      27.336 -13.060  -0.889  0.00  0.00     0.014 A 
ATOM     10  C   UNL d   1      26.490 -13.350  -1.987  0.00  0.00     0.003 A 
ENDROOT
BRANCH   6  11
ATOM     11  N   UNL d   1      25.036 -16.696  -0.736  0.00  0.00    -0.326 N 
ATOM     12  C   UNL d   1      23.654 -16.965  -0.516  0.00  0.00     0.227 C 
ATOM     13  O   UNL d   1      22.729 -16.295  -0.145  0.00  0.00    -0.273 OA
ATOM     14  H   UNL d   1      25.606 -17.528  -0.816  0.00  0.00     0.169 HD
BRANCH  12  15
ATOM     15  C   UNL d   1      23.312 -18.390  -0.713  0.00  0.00     0.087 A 
ATOM     16  C   UNL d   1      22.905 -19.154  -1.955  0.00  0.00     0.025 A 
ATOM     17  C   UNL d   1      21.837 -18.527  -1.149  0.00  0.00     0.032 A 
BRANCH  17  18
ATOM     18  C   UNL d   1      20.821 -19.197  -0.291  0.00  0.00    -0.053 A 
ATOM     19  C   UNL d   1      20.937 -19.315   1.095  0.00  0.00     0.007 A 
ATOM     20  C   UNL d   1      19.977 -20.007   1.832  0.00  0.00     0.001 A 
ATOM     21  C   UNL d   1      18.829 -20.499   1.213  0.00  0.00     0.000 A 
ATOM     22  C   UNL d   1      18.656 -20.336  -0.155  0.00  0.00     0.001 A 
ATOM     23  C   UNL d   1      19.647 -19.698  -0.895  0.00  0.00     0.007 A 
ENDBRANCH  17  18
ENDBRANCH  12  15
ENDBRANCH   6  11
BRANCH   1  24
ATOM     24  N   UNL d   1      27.033 -11.354  -3.373  0.00  0.00    -0.398 N 
ATOM     25  H   UNL d   1      26.507 -10.503  -3.521  0.00  0.00     0.156 HD
ATOM     26  H   UNL d   1      28.037 -11.321  -3.334  0.00  0.00     0.156 HD
ENDBRANCH   1  24
TORSDOF 4
ENDMDL
MODEL 2
REMARK VINA RESULT:    -7.705      3.437      5.116
REMARK INTER + INTRA:          -9.499
REMARK INTER:                  -8.898
REMARK INTRA:                  -0.600
REMARK CONF_INDEPENDENT:        1.193
REMARK UNBOUND:                -0.600
REMARK  4 active torsions:
REMARK  status: ('A' for Active; 'I' for Inactive)
REMARK    1  A    between atoms: N_1  and  C_2 
REMARK    2  A    between atoms: C_7  and  N_8 
REMARK       I    between atoms: N_8  and  C_9 
REMARK    3  A    between atoms: C_9  and  C_11 
REMARK    4  A    between atoms: C_13  and  C_14 
ROOT
ATOM      1  C   UNL d   1      28.729 -12.510  -8.108  0.00  0.00     0.036 C 
ATOM      2  C   UNL d   1      27.852 -11.427  -7.912  0.00  0.00     0.030 C 
ATOM      3  C   UNL d   1      27.043 -11.394  -6.820  0.00  0.00     0.003 C 
ATOM      4  C   UNL d   1      27.091 -12.474  -5.982  0.00  0.00     0.014 C 
ATOM      5  C   UNL d   1      27.995 -13.517  -6.002  0.00  0.00     0.003 A 
ATOM      6  C   UNL d   1      27.998 -14.474  -4.958  0.00  0.00     0.045 A 
ATOM      7  C   UNL d   1      28.862 -15.583  -5.121  0.00  0.00     0.030 A 
ATOM      8  C   UNL d   1      29.699 -15.692  -6.250  0.00  0.00     0.003 A 
ATOM      9  C   UNL d   1      29.690 -14.700  -7.239  0.00  0.00     0.014 A 
ATOM     10  C   UNL d   1      28.836 -13.575  -7.139  0.00  0.00     0.003 A 
ENDROOT
BRANCH   6  11
ATOM     11  N   UNL d   1      27.172 -14.404  -3.760  0.00  0.00    -0.326 N 
ATOM     12  C   UNL d   1      25.770 -14.531  -3.537  0.00  0.00     0.227 C 
ATOM     13  O   UNL d   1      24.812 -14.536  -4.263  0.00  0.00    -0.273 OA
ATOM     14  H   UNL d   1      27.700 -14.195  -2.924  0.00  0.00     0.169 HD
BRANCH  12  15
ATOM     15  C   UNL d   1      25.424 -14.591  -2.101  0.00  0.00     0.087 A 
ATOM     16  C   UNL d   1      26.283 -14.846  -0.880  0.00  0.00     0.025 A 
ATOM     17  C   UNL d   1      25.675 -16.013  -1.553  0.00  0.00     0.032 A 
BRANCH  17  18
ATOM     18  C   UNL d   1      24.564 -16.877  -1.067  0.00  0.00    -0.053 A 
ATOM     19  C   UNL d   1      24.739 -18.197  -0.649  0.00  0.00     0.007 A 
ATOM     20  C   UNL d   1      23.646 -18.971  -0.259  0.00  0.00     0.001 A 
ATOM     21  C   UNL d   1      22.375 -18.405  -0.175  0.00  0.00     0.000 A 
ATOM     22  C   UNL d   1      22.184 -17.074  -0.520  0.00  0.00     0.001 A 
ATOM     23  C   UNL d   1      23.268 -16.325  -0.967  0.00  0.00     0.007 A 
ENDBRANCH  17  18
ENDBRANCH  12  15
ENDBRANCH   6  11
BRANCH   1  24
ATOM     24  N   UNL d   1      29.448 -12.488  -9.294  0.00  0.00    -0.398 N 
ATOM     25  H   UNL d   1      29.950 -11.643  -9.534  0.00  0.00     0.156 HD
ATOM     26  H   UNL d   1      29.517 -13.296  -9.888  0.00  0.00     0.156 HD
ENDBRANCH   1  24
TORSDOF 4
ENDMDL
MODEL 3
REMARK VINA RESULT:    -7.600      2.908      4.414
REMARK INTER + INTRA:          -9.556
REMARK INTER:                  -8.794
REMARK INTRA:                  -0.763
REMARK CONF_INDEPENDENT:        1.193
REMARK UNBOUND:                -0.763
REMARK  4 active torsions:
REMARK  status: ('A' for Active; 'I' for Inactive)
REMARK    1  A    between atoms: N_1  and  C_2 
REMARK    2  A    between atoms: C_7  and  N_8 
REMARK       I    between atoms: N_8  and  C_9 
REMARK    3  A    between atoms: C_9  and  C_11 
REMARK    4  A    between atoms: C_13  and  C_14 
ROOT
ATOM      1  C   UNL d   1      28.612 -14.049  -6.685  0.00  0.00     0.036 C 
ATOM      2  C   UNL d   1      29.393 -15.208  -6.525  0.00  0.00     0.030 C 
ATOM      3  C   UNL d   1      29.273 -15.960  -5.399  0.00  0.00     0.003 C 
ATOM      4  C   UNL d   1      28.418 -15.499  -4.436  0.00  0.00     0.014 C 
ATOM      5  C   UNL d   1      27.514 -14.461  -4.538  0.00  0.00     0.003 A 
ATOM      6  C   UNL d   1      26.589 -14.220  -3.493  0.00  0.00     0.045 A 
ATOM      7  C   UNL d   1      25.790 -13.057  -3.614  0.00  0.00     0.030 A 
ATOM      8  C   UNL d   1      25.894 -12.219  -4.742  0.00  0.00     0.003 A 
ATOM      9  C   UNL d   1      26.797 -12.519  -5.770  0.00  0.00     0.014 A 
ATOM     10  C   UNL d   1      27.634 -13.660  -5.698  0.00  0.00     0.003 A 
ENDROOT
BRANCH   6  11
ATOM     11  N   UNL d   1      26.423 -15.061  -2.315  0.00  0.00    -0.326 N 
ATOM     12  C   UNL d   1      27.326 -15.515  -1.310  0.00  0.00     0.227 C 
ATOM     13  O   UNL d   1      28.523 -15.523  -1.214  0.00  0.00    -0.273 OA
ATOM     14  H   UNL d   1      25.482 -15.414  -2.209  0.00  0.00     0.169 HD
BRANCH  12  15
ATOM     15  C   UNL d   1      26.637 -16.187  -0.187  0.00  0.00     0.087 A 
ATOM     16  C   UNL d   1      26.895 -17.518   0.486  0.00  0.00     0.025 A 
ATOM     17  C   UNL d   1      25.981 -17.497  -0.675  0.00  0.00     0.032 A 
BRANCH  17  18
ATOM     18  C   UNL d   1      24.503 -17.683  -0.682  0.00  0.00    -0.053 A 
ATOM     19  C   UNL d   1      23.595 -16.645  -0.895  0.00  0.00     0.007 A 
ATOM     20  C   UNL d   1      22.222 -16.876  -0.830  0.00  0.00     0.001 A 
ATOM     21  C   UNL d   1      21.731 -18.170  -0.663  0.00  0.00     0.000 A 
ATOM     22  C   UNL d   1      22.613 -19.233  -0.517  0.00  0.00     0.001 A 
ATOM     23  C   UNL d   1      23.982 -18.985  -0.520  0.00  0.00     0.007 A 
ENDBRANCH  17  18
ENDBRANCH  12  15
ENDBRANCH   6  11
BRANCH   1  24
ATOM     24  N   UNL d   1      28.871 -13.309  -7.831  0.00  0.00    -0.398 N 
ATOM     25  H   UNL d   1      28.931 -12.302  -7.746  0.00  0.00     0.156 HD
ATOM     26  H   UNL d   1      29.043 -13.748  -8.718  0.00  0.00     0.156 HD
ENDBRANCH   1  24
TORSDOF 4
ENDMDL
MODEL 4
REMARK VINA RESULT:    -7.546      3.206      5.395
REMARK INTER + INTRA:          -9.179
REMARK INTER:                  -8.739
REMARK INTRA:                  -0.440
REMARK CONF_INDEPENDENT:        1.193
REMARK UNBOUND:                -0.440
REMARK  4 active torsions:
REMARK  status: ('A' for Active; 'I' for Inactive)
REMARK    1  A    between atoms: N_1  and  C_2 
REMARK    2  A    between atoms: C_7  and  N_8 
REMARK       I    between atoms: N_8  and  C_9 
REMARK    3  A    between atoms: C_9  and  C_11 
REMARK    4  A    between atoms: C_13  and  C_14 
ROOT
ATOM      1  C   UNL d   1      29.274 -13.046  -7.815  0.00  0.00     0.036 C 
ATOM      2  C   UNL d   1      29.902 -14.180  -7.270  0.00  0.00     0.030 C 
ATOM      3  C   UNL d   1      29.498 -14.673  -6.069  0.00  0.00     0.003 C 
ATOM      4  C   UNL d   1      28.513 -13.981  -5.417  0.00  0.00     0.014 C 
ATOM      5  C   UNL d   1      27.743 -12.947  -5.909  0.00  0.00     0.003 A 
ATOM      6  C   UNL d   1      26.655 -12.449  -5.150  0.00  0.00     0.045 A 
ATOM      7  C   UNL d   1      26.001 -11.303  -5.661  0.00  0.00     0.030 A 
ATOM      8  C   UNL d   1      26.399 -10.725  -6.884  0.00  0.00     0.003 A 
ATOM      9  C   UNL d   1      27.456 -11.276  -7.620  0.00  0.00     0.014 A 
ATOM     10  C   UNL d   1      28.158 -12.413  -7.152  0.00  0.00     0.003 A 
ENDROOT
BRANCH   6  11
ATOM     11  N   UNL d   1      26.188 -13.016  -3.892  0.00  0.00    -0.326 N 
ATOM     12  C   UNL d   1      25.616 -14.274  -3.544  0.00  0.00     0.227 C 
ATOM     13  O   UNL d   1      25.155 -15.180  -4.185  0.00  0.00    -0.273 OA
ATOM     14  H   UNL d   1      26.261 -12.373  -3.115  0.00  0.00     0.169 HD
BRANCH  12  15
ATOM     15  C   UNL d   1      25.496 -14.462  -2.083  0.00  0.00     0.087 A 
ATOM     16  C   UNL d   1      26.529 -14.830  -1.038  0.00  0.00     0.025 A 
ATOM     17  C   UNL d   1      25.801 -15.929  -1.709  0.00  0.00     0.032 A 
BRANCH  17  18
ATOM     18  C   UNL d   1      24.763 -16.827  -1.133  0.00  0.00    -0.053 A 
ATOM     19  C   UNL d   1      25.038 -18.094  -0.616  0.00  0.00     0.007 A 
ATOM     20  C   UNL d   1      24.009 -18.909  -0.145  0.00  0.00     0.001 A 
ATOM     21  C   UNL d   1      22.702 -18.429  -0.079  0.00  0.00     0.000 A 
ATOM     22  C   UNL d   1      22.411 -17.146  -0.524  0.00  0.00     0.001 A 
ATOM     23  C   UNL d   1      23.432 -16.361  -1.050  0.00  0.00     0.007 A 
ENDBRANCH  17  18
ENDBRANCH  12  15
ENDBRANCH   6  11
BRANCH   1  24
ATOM     24  N   UNL d   1      29.817 -12.575  -9.003  0.00  0.00    -0.398 N 
ATOM     25  H   UNL d   1      30.180 -13.251  -9.663  0.00  0.00     0.156 HD
ATOM     26  H   UNL d   1      29.815 -11.598  -9.236  0.00  0.00     0.156 HD
ENDBRANCH   1  24
TORSDOF 4
ENDMDL
MODEL 5
REMARK VINA RESULT:    -7.413      3.456      4.487
REMARK INTER + INTRA:          -9.235
REMARK INTER:                  -8.606
REMARK INTRA:                  -0.629
REMARK CONF_INDEPENDENT:        1.193
REMARK UNBOUND:                -0.629
REMARK  4 active torsions:
REMARK  status: ('A' for Active; 'I' for Inactive)
REMARK    1  A    between atoms: N_1  and  C_2 
REMARK    2  A    between atoms: C_7  and  N_8 
REMARK       I    between atoms: N_8  and  C_9 
REMARK    3  A    between atoms: C_9  and  C_11 
REMARK    4  A    between atoms: C_13  and  C_14 
ROOT
ATOM      1  C   UNL d   1      28.595 -14.360  -6.396  0.00  0.00     0.036 C 
ATOM      2  C   UNL d   1      27.409 -13.658  -6.111  0.00  0.00     0.030 C 
ATOM      3  C   UNL d   1      26.745 -13.888  -4.947  0.00  0.00     0.003 C 
ATOM      4  C   UNL d   1      27.253 -14.858  -4.126  0.00  0.00     0.014 C 
ATOM      5  C   UNL d   1      28.465 -15.508  -4.239  0.00  0.00     0.003 A 
ATOM      6  C   UNL d   1      28.906 -16.373  -3.208  0.00  0.00     0.045 A 
ATOM      7  C   UNL d   1      30.091 -17.103  -3.460  0.00  0.00     0.030 A 
ATOM      8  C   UNL d   1      30.806 -16.934  -4.663  0.00  0.00     0.003 A 
ATOM      9  C   UNL d   1      30.352 -16.037  -5.639  0.00  0.00     0.014 A 
ATOM     10  C   UNL d   1      29.164 -15.290  -5.450  0.00  0.00     0.003 A 
ENDROOT
BRANCH   6  11
ATOM     11  N   UNL d   1      28.220 -16.572  -1.938  0.00  0.00    -0.326 N 
ATOM     12  C   UNL d   1      27.546 -15.688  -1.046  0.00  0.00     0.227 C 
ATOM     13  O   UNL d   1      27.496 -14.492  -0.947  0.00  0.00    -0.273 OA
ATOM     14  H   UNL d   1      28.257 -17.529  -1.613  0.00  0.00     0.169 HD
BRANCH  12  15
ATOM     15  C   UNL d   1      26.821 -16.402   0.026  0.00  0.00     0.087 A 
ATOM     16  C   UNL d   1      26.990 -17.801   0.580  0.00  0.00     0.025 A 
ATOM     17  C   UNL d   1      26.067 -17.615  -0.560  0.00  0.00     0.032 A 
BRANCH  17  18
ATOM     18  C   UNL d   1      24.580 -17.694  -0.559  0.00  0.00    -0.053 A 
ATOM     19  C   UNL d   1      23.749 -16.599  -0.800  0.00  0.00     0.007 A 
ATOM     20  C   UNL d   1      22.363 -16.729  -0.727  0.00  0.00     0.001 A 
ATOM     21  C   UNL d   1      21.780 -17.978  -0.521  0.00  0.00     0.000 A 
ATOM     22  C   UNL d   1      22.583 -19.097  -0.346  0.00  0.00     0.001 A 
ATOM     23  C   UNL d   1      23.967 -18.950  -0.358  0.00  0.00     0.007 A 
ENDBRANCH  17  18
ENDBRANCH  12  15
ENDBRANCH   6  11
BRANCH   1  24
ATOM     24  N   UNL d   1      29.149 -14.113  -7.645  0.00  0.00    -0.398 N 
ATOM     25  H   UNL d   1      28.530 -14.081  -8.444  0.00  0.00     0.156 HD
ATOM     26  H   UNL d   1      30.128 -13.922  -7.762  0.00  0.00     0.156 HD
ENDBRANCH   1  24
TORSDOF 4
ENDMDL
MODEL 6
REMARK VINA RESULT:    -7.352      3.933      5.921
REMARK INTER + INTRA:          -9.026
REMARK INTER:                  -8.546
REMARK INTRA:                  -0.481
REMARK CONF_INDEPENDENT:        1.193
REMARK UNBOUND:                -0.481
REMARK  4 active torsions:
REMARK  status: ('A' for Active; 'I' for Inactive)
REMARK    1  A    between atoms: N_1  and  C_2 
REMARK    2  A    between atoms: C_7  and  N_8 
REMARK       I    between atoms: N_8  and  C_9 
REMARK    3  A    between atoms: C_9  and  C_11 
REMARK    4  A    between atoms: C_13  and  C_14 
ROOT
ATOM      1  C   UNL d   1      27.561 -10.358   4.168  0.00  0.00     0.036 C 
ATOM      2  C   UNL d   1      26.870 -10.006   2.993  0.00  0.00     0.030 C 
ATOM      3  C   UNL d   1      26.642 -10.940   2.032  0.00  0.00     0.003 C 
ATOM      4  C   UNL d   1      27.163 -12.187   2.246  0.00  0.00     0.014 C 
ATOM      5  C   UNL d   1      27.735 -12.675   3.403  0.00  0.00     0.003 A 
ATOM      6  C   UNL d   1      28.079 -14.046   3.502  0.00  0.00     0.045 A 
ATOM      7  C   UNL d   1      28.783 -14.438   4.665  0.00  0.00     0.030 A 
ATOM      8  C   UNL d   1      29.080 -13.507   5.682  0.00  0.00     0.003 A 
ATOM      9  C   UNL d   1      28.685 -12.169   5.558  0.00  0.00     0.014 A 
ATOM     10  C   UNL d   1      27.992 -11.714   4.409  0.00  0.00     0.003 A 
ENDROOT
BRANCH   6  11
ATOM     11  N   UNL d   1      27.780 -15.055   2.494  0.00  0.00    -0.326 N 
ATOM     12  C   UNL d   1      27.805 -15.044   1.069  0.00  0.00     0.227 C 
ATOM     13  O   UNL d   1      27.881 -14.170   0.249  0.00  0.00    -0.273 OA
ATOM     14  H   UNL d   1      27.466 -15.930   2.890  0.00  0.00     0.169 HD
BRANCH  12  15
ATOM     15  C   UNL d   1      27.619 -16.390   0.486  0.00  0.00     0.087 A 
ATOM     16  C   UNL d   1      27.929 -16.928  -0.896  0.00  0.00     0.025 A 
ATOM     17  C   UNL d   1      26.595 -16.332  -0.668  0.00  0.00     0.032 A 
BRANCH  17  18
ATOM     18  C   UNL d   1      25.281 -17.027  -0.591  0.00  0.00    -0.053 A 
ATOM     19  C   UNL d   1      25.126 -18.338  -0.139  0.00  0.00     0.007 A 
ATOM     20  C   UNL d   1      23.873 -18.950  -0.146  0.00  0.00     0.001 A 
ATOM     21  C   UNL d   1      22.736 -18.226  -0.502  0.00  0.00     0.000 A 
ATOM     22  C   UNL d   1      22.852 -16.898  -0.891  0.00  0.00     0.001 A 
ATOM     23  C   UNL d   1      24.113 -16.312  -0.940  0.00  0.00     0.007 A 
ENDBRANCH  17  18
ENDBRANCH  12  15
ENDBRANCH   6  11
BRANCH   1  24
ATOM     24  N   UNL d   1      27.815  -9.313   5.046  0.00  0.00    -0.398 N 
ATOM     25  H   UNL d   1      27.027  -8.861   5.492  0.00  0.00     0.156 HD
ATOM     26  H   UNL d   1      28.751  -9.031   5.279  0.00  0.00     0.156 HD
ENDBRANCH   1  24
TORSDOF 4
ENDMDL
MODEL 7
REMARK VINA RESULT:    -7.319      3.932      5.588
REMARK INTER + INTRA:          -9.204
REMARK INTER:                  -8.512
REMARK INTRA:                  -0.692
REMARK CONF_INDEPENDENT:        1.193
REMARK UNBOUND:                -0.692
REMARK  4 active torsions:
REMARK  status: ('A' for Active; 'I' for Inactive)
REMARK    1  A    between atoms: N_1  and  C_2 
REMARK    2  A    between atoms: C_7  and  N_8 
REMARK       I    between atoms: N_8  and  C_9 
REMARK    3  A    between atoms: C_9  and  C_11 
REMARK    4  A    between atoms: C_13  and  C_14 
ROOT
ATOM      1  C   UNL d   1      30.612 -16.052  -6.828  0.00  0.00     0.036 C 
ATOM      2  C   UNL d   1      30.812 -17.087  -5.896  0.00  0.00     0.030 C 
ATOM      3  C   UNL d   1      30.126 -17.087  -4.722  0.00  0.00     0.003 C 
ATOM      4  C   UNL d   1      29.302 -16.020  -4.486  0.00  0.00     0.014 C 
ATOM      5  C   UNL d   1      28.933 -15.029  -5.373  0.00  0.00     0.003 A 
ATOM      6  C   UNL d   1      27.941 -14.085  -5.009  0.00  0.00     0.045 A 
ATOM      7  C   UNL d   1      27.717 -13.023  -5.918  0.00  0.00     0.030 A 
ATOM      8  C   UNL d   1      28.423 -12.949  -7.136  0.00  0.00     0.003 A 
ATOM      9  C   UNL d   1      29.367 -13.928  -7.471  0.00  0.00     0.014 A 
ATOM     10  C   UNL d   1      29.646 -15.005  -6.595  0.00  0.00     0.003 A 
ENDROOT
BRANCH   6  11
ATOM     11  N   UNL d   1      27.167 -14.122  -3.775  0.00  0.00    -0.326 N 
ATOM     12  C   UNL d   1      25.801 -14.412  -3.493  0.00  0.00     0.227 C 
ATOM     13  O   UNL d   1      24.818 -14.518  -4.175  0.00  0.00    -0.273 OA
ATOM     14  H   UNL d   1      27.706 -13.863  -2.961  0.00  0.00     0.169 HD
BRANCH  12  15
ATOM     15  C   UNL d   1      25.530 -14.526  -2.043  0.00  0.00     0.087 A 
ATOM     16  C   UNL d   1      26.437 -14.890  -0.887  0.00  0.00     0.025 A 
ATOM     17  C   UNL d   1      25.727 -15.985  -1.580  0.00  0.00     0.032 A 
BRANCH  17  18
ATOM     18  C   UNL d   1      24.595 -16.810  -1.073  0.00  0.00    -0.053 A 
ATOM     19  C   UNL d   1      23.269 -16.376  -1.059  0.00  0.00     0.007 A 
ATOM     20  C   UNL d   1      22.264 -17.176  -0.516  0.00  0.00     0.001 A 
ATOM     21  C   UNL d   1      22.550 -18.468  -0.078  0.00  0.00     0.000 A 
ATOM     22  C   UNL d   1      23.850 -18.951  -0.142  0.00  0.00     0.001 A 
ATOM     23  C   UNL d   1      24.859 -18.124  -0.628  0.00  0.00     0.007 A 
ENDBRANCH  17  18
ENDBRANCH  12  15
ENDBRANCH   6  11
BRANCH   1  24
ATOM     24  N   UNL d   1      31.422 -16.100  -7.955  0.00  0.00    -0.398 N 
ATOM     25  H   UNL d   1      31.430 -15.299  -8.572  0.00  0.00     0.156 HD
ATOM     26  H   UNL d   1      32.023 -16.883  -8.143  0.00  0.00     0.156 HD
ENDBRANCH   1  24
TORSDOF 4
ENDMDL
MODEL 8
REMARK VINA RESULT:    -7.279      3.943      6.250
REMARK INTER + INTRA:          -9.098
REMARK INTER:                  -8.472
REMARK INTRA:                  -0.626
REMARK CONF_INDEPENDENT:        1.193
REMARK UNBOUND:                -0.626
REMARK  4 active torsions:
REMARK  status: ('A' for Active; 'I' for Inactive)
REMARK    1  A    between atoms: N_1  and  C_2 
REMARK    2  A    between atoms: C_7  and  N_8 
REMARK       I    between atoms: N_8  and  C_9 
REMARK    3  A    between atoms: C_9  and  C_11 
REMARK    4  A    between atoms: C_13  and  C_14 
ROOT
ATOM      1  C   UNL d   1      28.236 -12.477   5.839  0.00  0.00     0.036 C 
ATOM      2  C   UNL d   1      28.534 -13.793   6.235  0.00  0.00     0.030 C 
ATOM      3  C   UNL d   1      28.344 -14.825   5.370  0.00  0.00     0.003 C 
ATOM      4  C   UNL d   1      27.804 -14.518   4.151  0.00  0.00     0.014 C 
ATOM      5  C   UNL d   1      27.599 -13.264   3.612  0.00  0.00     0.003 A 
ATOM      6  C   UNL d   1      27.176 -13.131   2.266  0.00  0.00     0.045 A 
ATOM      7  C   UNL d   1      26.858 -11.822   1.831  0.00  0.00     0.030 A 
ATOM      8  C   UNL d   1      27.001 -10.716   2.694  0.00  0.00     0.003 A 
ATOM      9  C   UNL d   1      27.460 -10.892   4.005  0.00  0.00     0.014 A 
ATOM     10  C   UNL d   1      27.779 -12.179   4.502  0.00  0.00     0.003 A 
ENDROOT
BRANCH   6  11
ATOM     11  N   UNL d   1      27.030 -14.234   1.325  0.00  0.00    -0.326 N 
ATOM     12  C   UNL d   1      27.247 -14.350  -0.079  0.00  0.00     0.227 C 
ATOM     13  O   UNL d   1      27.422 -13.551  -0.959  0.00  0.00    -0.273 OA
ATOM     14  H   UNL d   1      26.676 -15.077   1.755  0.00  0.00     0.169 HD
BRANCH  12  15
ATOM     15  C   UNL d   1      27.159 -15.747  -0.555  0.00  0.00     0.087 A 
ATOM     16  C   UNL d   1      27.192 -16.326  -1.954  0.00  0.00     0.025 A 
ATOM     17  C   UNL d   1      25.879 -15.942  -1.395  0.00  0.00     0.032 A 
BRANCH  17  18
ATOM     18  C   UNL d   1      24.773 -16.836  -0.951  0.00  0.00    -0.053 A 
ATOM     19  C   UNL d   1      24.970 -18.144  -0.506  0.00  0.00     0.007 A 
ATOM     20  C   UNL d   1      23.884 -18.948  -0.160  0.00  0.00     0.001 A 
ATOM     21  C   UNL d   1      22.593 -18.423  -0.147  0.00  0.00     0.000 A 
ATOM     22  C   UNL d   1      22.377 -17.104  -0.520  0.00  0.00     0.001 A 
ATOM     23  C   UNL d   1      23.457 -16.325  -0.923  0.00  0.00     0.007 A 
ENDBRANCH  17  18
ENDBRANCH  12  15
ENDBRANCH   6  11
BRANCH   1  24
ATOM     24  N   UNL d   1      28.385 -11.509   6.823  0.00  0.00    -0.398 N 
ATOM     25  H   UNL d   1      27.812 -10.677   6.766  0.00  0.00     0.156 HD
ATOM     26  H   UNL d   1      29.007 -11.636   7.602  0.00  0.00     0.156 HD
ENDBRANCH   1  24
TORSDOF 4
ENDMDL
MODEL 9
REMARK VINA RESULT:    -6.603      3.442      5.508
REMARK INTER + INTRA:          -8.557
REMARK INTER:                  -7.796
REMARK INTRA:                  -0.761
REMARK CONF_INDEPENDENT:        1.193
REMARK UNBOUND:                -0.761
REMARK  4 active torsions:
REMARK  status: ('A' for Active; 'I' for Inactive)
REMARK    1  A    between atoms: N_1  and  C_2 
REMARK    2  A    between atoms: C_7  and  N_8 
REMARK       I    between atoms: N_8  and  C_9 
REMARK    3  A    between atoms: C_9  and  C_11 
REMARK    4  A    between atoms: C_13  and  C_14 
ROOT
ATOM      1  C   UNL d   1      29.590 -13.490   4.353  0.00  0.00     0.036 C 
ATOM      2  C   UNL d   1      28.222 -13.343   4.647  0.00  0.00     0.030 C 
ATOM      3  C   UNL d   1      27.285 -13.700   3.729  0.00  0.00     0.003 C 
ATOM      4  C   UNL d   1      27.743 -14.139   2.517  0.00  0.00     0.014 C 
ATOM      5  C   UNL d   1      29.043 -14.445   2.167  0.00  0.00     0.003 A 
ATOM      6  C   UNL d   1      29.319 -15.042   0.913  0.00  0.00     0.045 A 
ATOM      7  C   UNL d   1      30.685 -15.200   0.576  0.00  0.00     0.030 A 
ATOM      8  C   UNL d   1      31.703 -14.817   1.473  0.00  0.00     0.003 A 
ATOM      9  C   UNL d   1      31.380 -14.266   2.720  0.00  0.00     0.014 A 
ATOM     10  C   UNL d   1      30.032 -14.069   3.106  0.00  0.00     0.003 A 
ENDROOT
BRANCH   6  11
ATOM     11  N   UNL d   1      28.310 -15.476  -0.044  0.00  0.00    -0.326 N 
ATOM     12  C   UNL d   1      27.516 -16.655  -0.153  0.00  0.00     0.227 C 
ATOM     13  O   UNL d   1      27.558 -17.734   0.373  0.00  0.00    -0.273 OA
ATOM     14  H   UNL d   1      28.167 -14.817  -0.796  0.00  0.00     0.169 HD
BRANCH  12  15
ATOM     15  C   UNL d   1      26.470 -16.543  -1.193  0.00  0.00     0.087 A 
ATOM     16  C   UNL d   1      25.611 -15.371  -1.619  0.00  0.00     0.025 A 
ATOM     17  C   UNL d   1      25.102 -16.245  -0.541  0.00  0.00     0.032 A 
BRANCH  17  18
ATOM     18  C   UNL d   1      23.973 -17.214  -0.601  0.00  0.00    -0.053 A 
ATOM     19  C   UNL d   1      24.121 -18.585  -0.391  0.00  0.00     0.007 A 
ATOM     20  C   UNL d   1      23.031 -19.446  -0.520  0.00  0.00     0.001 A 
ATOM     21  C   UNL d   1      21.754 -18.938  -0.751  0.00  0.00     0.000 A 
ATOM     22  C   UNL d   1      21.567 -17.570  -0.895  0.00  0.00     0.001 A 
ATOM     23  C   UNL d   1      22.669 -16.723  -0.827  0.00  0.00     0.007 A 
ENDBRANCH  17  18
ENDBRANCH  12  15
ENDBRANCH   6  11
BRANCH   1  24
ATOM     24  N   UNL d   1      30.463 -13.020   5.324  0.00  0.00    -0.398 N 
ATOM     25  H   UNL d   1      31.328 -13.523   5.474  0.00  0.00     0.156 HD
ATOM     26  H   UNL d   1      30.278 -12.178   5.840  0.00  0.00     0.156 HD
ENDBRANCH   1  24
TORSDOF 4
ENDMDL
