MODEL 1
REMARK VINA RESULT:    -6.652      0.000      0.000
REMARK INTER + INTRA:         -10.024
REMARK INTER:                  -9.039
REMARK INTRA:                  -0.985
REMARK CONF_INDEPENDENT:        2.386
REMARK UNBOUND:                -0.985
REMARK  8 active torsions:
REMARK  status: ('A' for Active; 'I' for Inactive)
REMARK    1  A    between atoms: C_2  and  C_4 
REMARK    2  A    between atoms: C_4  and  C_5 
REMARK    3  A    between atoms: C_5  and  N_6 
REMARK    4  A    between atoms: N_6  and  C_7 
REMARK    5  A    between atoms: C_7  and  N_9 
REMARK    6  A    between atoms: N_9  and  N_10 
REMARK       I    between atoms: N_10  and  C_11 
REMARK    7  A    between atoms: C_11  and  C_13 
REMARK    8  A    between atoms: C_17  and  N_18 
ROOT
ATOM      1  N   UNL d   1      24.956 -17.788  -0.789  0.00  0.00    -0.264 N 
ATOM      2  C   UNL d   1      26.251 -17.795  -0.304  0.00  0.00     0.270 C 
ATOM      3  O   UNL d   1      26.607 -18.461   0.670  0.00  0.00    -0.266 OA
ATOM      4  H   UNL d   1      24.684 -17.309  -1.645  0.00  0.00     0.190 HD
ENDROOT
BRANCH   1   5
ATOM      5  N   UNL d   1      23.930 -18.592  -0.191  0.00  0.00    -0.274 N 
ATOM      6  H   UNL d   1      24.245 -19.430   0.292  0.00  0.00     0.189 HD
BRANCH   5   7
ATOM      7  C   UNL d   1      22.599 -18.190  -0.278  0.00  0.00     0.186 C 
ATOM      8  S   UNL d   1      22.177 -16.583  -0.567  0.00  0.00    -0.040 SA
BRANCH   7   9
ATOM      9  N   UNL d   1      21.670 -19.215  -0.119  0.00  0.00    -0.366 N 
ATOM     10  H   UNL d   1      21.773 -19.870   0.645  0.00  0.00     0.161 HD
BRANCH   9  11
ATOM     11  C   UNL d   1      20.471 -19.339  -0.961  0.00  0.00     0.122 C 
BRANCH  11  12
ATOM     12  C   UNL d   1      19.164 -19.666  -0.230  0.00  0.00     0.023 C 
BRANCH  12  13
ATOM     13  C   UNL d   1      19.361 -20.756   0.855  0.00  0.00    -0.021 C 
ATOM     14  C   UNL d   1      19.675 -20.115   2.211  0.00  0.00     0.009 C 
ATOM     15  C   UNL d   1      18.128 -21.652   1.002  0.00  0.00     0.009 C 
ENDBRANCH  12  13
ENDBRANCH  11  12
ENDBRANCH   9  11
ENDBRANCH   7   9
ENDBRANCH   5   7
ENDBRANCH   1   5
BRANCH   2  16
ATOM     16  C   UNL d   1      27.251 -16.921  -1.010  0.00  0.00     0.036 A 
ATOM     17  C   UNL d   1      28.419 -16.516  -0.340  0.00  0.00     0.017 A 
ATOM     18  C   UNL d   1      29.286 -15.566  -0.906  0.00  0.00     0.003 A 
ATOM     19  C   UNL d   1      29.023 -15.045  -2.172  0.00  0.00     0.036 A 
ATOM     20  C   UNL d   1      27.863 -15.449  -2.845  0.00  0.00     0.103 A 
ATOM     21  C   UNL d   1      26.976 -16.385  -2.274  0.00  0.00     0.053 A 
BRANCH  20  22
ATOM     22  N   UNL d   1      27.533 -14.836  -4.141  0.00  0.00    -0.116 N 
ATOM     23  O   UNL d   1      27.007 -15.552  -5.004  0.00  0.00    -0.532 OA
ATOM     24  O   UNL d   1      27.810 -13.639  -4.293  0.00  0.00    -0.532 OA
ENDBRANCH  20  22
ENDBRANCH   2  16
TORSDOF 8
ENDMDL
MODEL 2
REMARK VINA RESULT:    -6.551      2.600      2.717
REMARK INTER + INTRA:          -9.953
REMARK INTER:                  -8.937
REMARK INTRA:                  -1.016
REMARK CONF_INDEPENDENT:        2.386
REMARK UNBOUND:                -1.016
REMARK  8 active torsions:
REMARK  status: ('A' for Active; 'I' for Inactive)
REMARK    1  A    between atoms: C_2  and  C_4 
REMARK    2  A    between atoms: C_4  and  C_5 
REMARK    3  A    between atoms: C_5  and  N_6 
REMARK    4  A    between atoms: N_6  and  C_7 
REMARK    5  A    between atoms: C_7  and  N_9 
REMARK    6  A    between atoms: N_9  and  N_10 
REMARK       I    between atoms: N_10  and  C_11 
REMARK    7  A    between atoms: C_11  and  C_13 
REMARK    8  A    between atoms: C_17  and  N_18 
ROOT
ATOM      1  N   UNL d   1      24.744 -16.039  -1.702  0.00  0.00    -0.264 N 
ATOM      2  C   UNL d   1      24.812 -15.005  -2.618  0.00  0.00     0.270 C 
ATOM      3  O   UNL d   1      23.818 -14.448  -3.086  0.00  0.00    -0.266 OA
ATOM      4  H   UNL d   1      25.564 -16.437  -1.249  0.00  0.00     0.190 HD
ENDROOT
BRANCH   1   5
ATOM      5  N   UNL d   1      23.486 -16.521  -1.211  0.00  0.00    -0.274 N 
ATOM      6  H   UNL d   1      22.660 -16.023  -1.536  0.00  0.00     0.189 HD
BRANCH   5   7
ATOM      7  C   UNL d   1      23.453 -17.624  -0.361  0.00  0.00     0.186 C 
ATOM      8  S   UNL d   1      24.867 -18.345   0.208  0.00  0.00    -0.040 SA
BRANCH   7   9
ATOM      9  N   UNL d   1      22.174 -18.059  -0.021  0.00  0.00    -0.366 N 
ATOM     10  H   UNL d   1      21.736 -17.715   0.824  0.00  0.00     0.161 HD
BRANCH   9  11
ATOM     11  C   UNL d   1      21.374 -18.932  -0.892  0.00  0.00     0.122 C 
BRANCH  11  12
ATOM     12  C   UNL d   1      19.924 -19.174  -0.456  0.00  0.00     0.023 C 
BRANCH  12  13
ATOM     13  C   UNL d   1      19.823 -20.238   0.667  0.00  0.00    -0.021 C 
ATOM     14  C   UNL d   1      20.175 -19.623   2.025  0.00  0.00     0.009 C 
ATOM     15  C   UNL d   1      18.425 -20.857   0.749  0.00  0.00     0.009 C 
ENDBRANCH  12  13
ENDBRANCH  11  12
ENDBRANCH   9  11
ENDBRANCH   7   9
ENDBRANCH   5   7
ENDBRANCH   1   5
BRANCH   2  16
ATOM     16  C   UNL d   1      26.182 -14.572  -3.060  0.00  0.00     0.036 A 
ATOM     17  C   UNL d   1      26.778 -13.438  -2.479  0.00  0.00     0.017 A 
ATOM     18  C   UNL d   1      27.976 -12.909  -2.987  0.00  0.00     0.003 A 
ATOM     19  C   UNL d   1      28.623 -13.536  -4.051  0.00  0.00     0.036 A 
ATOM     20  C   UNL d   1      28.037 -14.669  -4.630  0.00  0.00     0.103 A 
ATOM     21  C   UNL d   1      26.822 -15.193  -4.141  0.00  0.00     0.053 A 
BRANCH  20  22
ATOM     22  N   UNL d   1      28.668 -15.282  -5.809  0.00  0.00    -0.116 N 
ATOM     23  O   UNL d   1      28.081 -15.188  -6.896  0.00  0.00    -0.532 OA
ATOM     24  O   UNL d   1      29.748 -15.863  -5.641  0.00  0.00    -0.532 OA
ENDBRANCH  20  22
ENDBRANCH   2  16
TORSDOF 8
ENDMDL
MODEL 3
REMARK VINA RESULT:    -6.456      5.130      6.087
REMARK INTER + INTRA:         -10.284
REMARK INTER:                  -8.842
REMARK INTRA:                  -1.442
REMARK CONF_INDEPENDENT:        2.386
REMARK UNBOUND:                -1.442
REMARK  8 active torsions:
REMARK  status: ('A' for Active; 'I' for Inactive)
REMARK    1  A    between atoms: C_2  and  C_4 
REMARK    2  A    between atoms: C_4  and  C_5 
REMARK    3  A    between atoms: C_5  and  N_6 
REMARK    4  A    between atoms: N_6  and  C_7 
REMARK    5  A    between atoms: C_7  and  N_9 
REMARK    6  A    between atoms: N_9  and  N_10 
REMARK       I    between atoms: N_10  and  C_11 
REMARK    7  A    between atoms: C_11  and  C_13 
REMARK    8  A    between atoms: C_17  and  N_18 
ROOT
ATOM      1  N   UNL d   1      27.777 -14.734   0.866  0.00  0.00    -0.264 N 
ATOM      2  C   UNL d   1      27.056 -13.564   0.717  0.00  0.00     0.270 C 
ATOM      3  O   UNL d   1      26.296 -13.351  -0.228  0.00  0.00    -0.266 OA
ATOM      4  H   UNL d   1      28.334 -14.945   1.692  0.00  0.00     0.190 HD
ENDROOT
BRANCH   1   5
ATOM      5  N   UNL d   1      27.664 -15.807  -0.079  0.00  0.00    -0.274 N 
ATOM      6  H   UNL d   1      28.432 -15.902  -0.739  0.00  0.00     0.189 HD
BRANCH   5   7
ATOM      7  C   UNL d   1      26.557 -16.652  -0.036  0.00  0.00     0.186 C 
ATOM      8  S   UNL d   1      26.665 -18.219   0.577  0.00  0.00    -0.040 SA
BRANCH   7   9
ATOM      9  N   UNL d   1      25.378 -16.093  -0.523  0.00  0.00    -0.366 N 
ATOM     10  H   UNL d   1      25.254 -15.089  -0.501  0.00  0.00     0.161 HD
BRANCH   9  11
ATOM     11  C   UNL d   1      24.327 -16.892  -1.168  0.00  0.00     0.122 C 
BRANCH  11  12
ATOM     12  C   UNL d   1      22.932 -16.804  -0.540  0.00  0.00     0.023 C 
BRANCH  12  13
ATOM     13  C   UNL d   1      22.368 -18.201  -0.173  0.00  0.00    -0.021 C 
ATOM     14  C   UNL d   1      21.041 -18.454  -0.895  0.00  0.00     0.009 C 
ATOM     15  C   UNL d   1      23.347 -19.327  -0.522  0.00  0.00     0.009 C 
ENDBRANCH  12  13
ENDBRANCH  11  12
ENDBRANCH   9  11
ENDBRANCH   7   9
ENDBRANCH   5   7
ENDBRANCH   1   5
BRANCH   2  16
ATOM     16  C   UNL d   1      27.245 -12.506   1.770  0.00  0.00     0.036 A 
ATOM     17  C   UNL d   1      27.865 -12.836   2.988  0.00  0.00     0.017 A 
ATOM     18  C   UNL d   1      27.903 -11.921   4.053  0.00  0.00     0.003 A 
ATOM     19  C   UNL d   1      27.365 -10.644   3.898  0.00  0.00     0.036 A 
ATOM     20  C   UNL d   1      26.751 -10.308   2.685  0.00  0.00     0.103 A 
ATOM     21  C   UNL d   1      26.688 -11.229   1.619  0.00  0.00     0.053 A 
BRANCH  20  22
ATOM     22  N   UNL d   1      26.103  -8.995   2.546  0.00  0.00    -0.116 N 
ATOM     23  O   UNL d   1      25.158  -8.895   1.752  0.00  0.00    -0.532 OA
ATOM     24  O   UNL d   1      26.549  -8.064   3.230  0.00  0.00    -0.532 OA
ENDBRANCH  20  22
ENDBRANCH   2  16
TORSDOF 8
ENDMDL
MODEL 4
REMARK VINA RESULT:    -6.391      5.691      6.958
REMARK INTER + INTRA:         -10.051
REMARK INTER:                  -8.778
REMARK INTRA:                  -1.273
REMARK CONF_INDEPENDENT:        2.386
REMARK UNBOUND:                -1.273
REMARK  8 active torsions:
REMARK  status: ('A' for Active; 'I' for Inactive)
REMARK    1  A    between atoms: C_2  and  C_4 
REMARK    2  A    between atoms: C_4  and  C_5 
REMARK    3  A    between atoms: C_5  and  N_6 
REMARK    4  A    between atoms: N_6  and  C_7 
REMARK    5  A    between atoms: C_7  and  N_9 
REMARK    6  A    between atoms: N_9  and  N_10 
REMARK       I    between atoms: N_10  and  C_11 
REMARK    7  A    between atoms: C_11  and  C_13 
REMARK    8  A    between atoms: C_17  and  N_18 
ROOT
ATOM      1  N   UNL d   1      28.502 -14.025   1.741  0.00  0.00    -0.264 N 
ATOM      2  C   UNL d   1      27.315 -13.326   1.862  0.00  0.00     0.270 C 
ATOM      3  O   UNL d   1      26.255 -13.698   1.357  0.00  0.00    -0.266 OA
ATOM      4  H   UNL d   1      29.355 -13.764   2.233  0.00  0.00     0.190 HD
ENDROOT
BRANCH   1   5
ATOM      5  N   UNL d   1      28.569 -15.266   1.027  0.00  0.00    -0.274 N 
ATOM      6  H   UNL d   1      29.228 -15.953   1.388  0.00  0.00     0.189 HD
BRANCH   5   7
ATOM      7  C   UNL d   1      27.744 -15.475  -0.075  0.00  0.00     0.186 C 
ATOM      8  S   UNL d   1      28.167 -14.928  -1.613  0.00  0.00    -0.040 SA
BRANCH   7   9
ATOM      9  N   UNL d   1      26.569 -16.170   0.200  0.00  0.00    -0.366 N 
ATOM     10  H   UNL d   1      25.779 -15.680   0.601  0.00  0.00     0.161 HD
BRANCH   9  11
ATOM     11  C   UNL d   1      26.379 -17.583  -0.157  0.00  0.00     0.122 C 
BRANCH  11  12
ATOM     12  C   UNL d   1      25.032 -18.202   0.232  0.00  0.00     0.023 C 
BRANCH  12  13
ATOM     13  C   UNL d   1      23.936 -17.926  -0.831  0.00  0.00    -0.021 C 
ATOM     14  C   UNL d   1      22.600 -18.536  -0.397  0.00  0.00     0.009 C 
ATOM     15  C   UNL d   1      23.742 -16.428  -1.082  0.00  0.00     0.009 C 
ENDBRANCH  12  13
ENDBRANCH  11  12
ENDBRANCH   9  11
ENDBRANCH   7   9
ENDBRANCH   5   7
ENDBRANCH   1   5
BRANCH   2  16
ATOM     16  C   UNL d   1      27.355 -12.039   2.639  0.00  0.00     0.036 A 
ATOM     17  C   UNL d   1      27.898 -12.023   3.937  0.00  0.00     0.017 A 
ATOM     18  C   UNL d   1      27.796 -10.883   4.751  0.00  0.00     0.003 A 
ATOM     19  C   UNL d   1      27.195  -9.724   4.261  0.00  0.00     0.036 A 
ATOM     20  C   UNL d   1      26.657  -9.733   2.967  0.00  0.00     0.103 A 
ATOM     21  C   UNL d   1      26.735 -10.881   2.152  0.00  0.00     0.053 A 
BRANCH  20  22
ATOM     22  N   UNL d   1      25.942  -8.544   2.478  0.00  0.00    -0.116 N 
ATOM     23  O   UNL d   1      26.281  -7.439   2.925  0.00  0.00    -0.532 OA
ATOM     24  O   UNL d   1      25.038  -8.721   1.651  0.00  0.00    -0.532 OA
ENDBRANCH  20  22
ENDBRANCH   2  16
TORSDOF 8
ENDMDL
MODEL 5
REMARK VINA RESULT:    -5.850      3.515      8.677
REMARK INTER + INTRA:          -9.607
REMARK INTER:                  -8.237
REMARK INTRA:                  -1.370
REMARK CONF_INDEPENDENT:        2.386
REMARK UNBOUND:                -1.370
REMARK  8 active torsions:
REMARK  status: ('A' for Active; 'I' for Inactive)
REMARK    1  A    between atoms: C_2  and  C_4 
REMARK    2  A    between atoms: C_4  and  C_5 
REMARK    3  A    between atoms: C_5  and  N_6 
REMARK    4  A    between atoms: N_6  and  C_7 
REMARK    5  A    between atoms: C_7  and  N_9 
REMARK    6  A    between atoms: N_9  and  N_10 
REMARK       I    between atoms: N_10  and  C_11 
REMARK    7  A    between atoms: C_11  and  C_13 
REMARK    8  A    between atoms: C_17  and  N_18 
ROOT
ATOM      1  N   UNL d   1      23.900 -18.725   0.352  0.00  0.00    -0.264 N 
ATOM      2  C   UNL d   1      22.709 -18.045   0.175  0.00  0.00     0.270 C 
ATOM      3  O   UNL d   1      22.630 -16.817   0.133  0.00  0.00    -0.266 OA
ATOM      4  H   UNL d   1      23.977 -19.739   0.296  0.00  0.00     0.190 HD
ENDROOT
BRANCH   1   5
ATOM      5  N   UNL d   1      25.147 -18.029   0.477  0.00  0.00    -0.274 N 
ATOM      6  H   UNL d   1      25.571 -18.036   1.403  0.00  0.00     0.189 HD
BRANCH   5   7
ATOM      7  C   UNL d   1      25.711 -17.416  -0.639  0.00  0.00     0.186 C 
ATOM      8  S   UNL d   1      27.366 -17.104  -0.735  0.00  0.00    -0.040 SA
BRANCH   7   9
ATOM      9  N   UNL d   1      24.807 -17.103  -1.651  0.00  0.00    -0.366 N 
ATOM     10  H   UNL d   1      23.838 -17.378  -1.558  0.00  0.00     0.161 HD
BRANCH   9  11
ATOM     11  C   UNL d   1      25.173 -16.293  -2.821  0.00  0.00     0.122 C 
BRANCH  11  12
ATOM     12  C   UNL d   1      25.458 -14.811  -2.553  0.00  0.00     0.023 C 
BRANCH  12  13
ATOM     13  C   UNL d   1      26.152 -14.124  -3.759  0.00  0.00    -0.021 C 
ATOM     14  C   UNL d   1      26.095 -15.024  -4.997  0.00  0.00     0.009 C 
ATOM     15  C   UNL d   1      25.515 -12.772  -4.096  0.00  0.00     0.009 C 
ENDBRANCH  12  13
ENDBRANCH  11  12
ENDBRANCH   9  11
ENDBRANCH   7   9
ENDBRANCH   5   7
ENDBRANCH   1   5
BRANCH   2  16
ATOM     16  C   UNL d   1      21.461 -18.874   0.048  0.00  0.00     0.036 A 
ATOM     17  C   UNL d   1      20.885 -19.078  -1.219  0.00  0.00     0.017 A 
ATOM     18  C   UNL d   1      19.632 -19.700  -1.353  0.00  0.00     0.003 A 
ATOM     19  C   UNL d   1      18.960 -20.171  -0.226  0.00  0.00     0.036 A 
ATOM     20  C   UNL d   1      19.532 -19.975   1.037  0.00  0.00     0.103 A 
ATOM     21  C   UNL d   1      20.778 -19.332   1.182  0.00  0.00     0.053 A 
BRANCH  20  22
ATOM     22  N   UNL d   1      18.787 -20.390   2.236  0.00  0.00    -0.116 N 
ATOM     23  O   UNL d   1      17.583 -20.652   2.108  0.00  0.00    -0.532 OA
ATOM     24  O   UNL d   1      19.409 -20.445   3.304  0.00  0.00    -0.532 OA
ENDBRANCH  20  22
ENDBRANCH   2  16
TORSDOF 8
ENDMDL
MODEL 6
REMARK VINA RESULT:    -5.822      5.193      6.378
REMARK INTER + INTRA:          -9.573
REMARK INTER:                  -8.208
REMARK INTRA:                  -1.365
REMARK CONF_INDEPENDENT:        2.386
REMARK UNBOUND:                -1.365
REMARK  8 active torsions:
REMARK  status: ('A' for Active; 'I' for Inactive)
REMARK    1  A    between atoms: C_2  and  C_4 
REMARK    2  A    between atoms: C_4  and  C_5 
REMARK    3  A    between atoms: C_5  and  N_6 
REMARK    4  A    between atoms: N_6  and  C_7 
REMARK    5  A    between atoms: C_7  and  N_9 
REMARK    6  A    between atoms: N_9  and  N_10 
REMARK       I    between atoms: N_10  and  C_11 
REMARK    7  A    between atoms: C_11  and  C_13 
REMARK    8  A    between atoms: C_17  and  N_18 
ROOT
ATOM      1  N   UNL d   1      28.242 -14.203   0.569  0.00  0.00    -0.264 N 
ATOM      2  C   UNL d   1      27.354 -13.379   1.236  0.00  0.00     0.270 C 
ATOM      3  O   UNL d   1      26.540 -13.789   2.065  0.00  0.00    -0.266 OA
ATOM      4  H   UNL d   1      28.973 -13.852  -0.047  0.00  0.00     0.190 HD
ENDROOT
BRANCH   1   5
ATOM      5  N   UNL d   1      28.288 -15.614   0.823  0.00  0.00    -0.274 N 
ATOM      6  H   UNL d   1      29.092 -15.945   1.353  0.00  0.00     0.189 HD
BRANCH   5   7
ATOM      7  C   UNL d   1      27.257 -16.432   0.368  0.00  0.00     0.186 C 
ATOM      8  S   UNL d   1      27.368 -18.113   0.431  0.00  0.00    -0.040 SA
BRANCH   7   9
ATOM      9  N   UNL d   1      26.145 -15.750  -0.121  0.00  0.00    -0.366 N 
ATOM     10  H   UNL d   1      25.838 -14.900   0.335  0.00  0.00     0.161 HD
BRANCH   9  11
ATOM     11  C   UNL d   1      25.441 -16.154  -1.346  0.00  0.00     0.122 C 
BRANCH  11  12
ATOM     12  C   UNL d   1      23.922 -16.323  -1.226  0.00  0.00     0.023 C 
BRANCH  12  13
ATOM     13  C   UNL d   1      23.505 -17.815  -1.167  0.00  0.00    -0.021 C 
ATOM     14  C   UNL d   1      24.358 -18.573  -0.145  0.00  0.00     0.009 C 
ATOM     15  C   UNL d   1      22.026 -17.986  -0.805  0.00  0.00     0.009 C 
ENDBRANCH  12  13
ENDBRANCH  11  12
ENDBRANCH   9  11
ENDBRANCH   7   9
ENDBRANCH   5   7
ENDBRANCH   1   5
BRANCH   2  16
ATOM     16  C   UNL d   1      27.395 -11.914   0.899  0.00  0.00     0.036 A 
ATOM     17  C   UNL d   1      28.286 -11.449  -0.085  0.00  0.00     0.017 A 
ATOM     18  C   UNL d   1      28.471 -10.073  -0.303  0.00  0.00     0.003 A 
ATOM     19  C   UNL d   1      27.730  -9.143   0.426  0.00  0.00     0.036 A 
ATOM     20  C   UNL d   1      26.838  -9.602   1.404  0.00  0.00     0.103 A 
ATOM     21  C   UNL d   1      26.664 -10.980   1.645  0.00  0.00     0.053 A 
BRANCH  20  22
ATOM     22  N   UNL d   1      26.121  -8.624   2.238  0.00  0.00    -0.116 N 
ATOM     23  O   UNL d   1      26.519  -8.449   3.398  0.00  0.00    -0.532 OA
ATOM     24  O   UNL d   1      25.156  -8.040   1.729  0.00  0.00    -0.532 OA
ENDBRANCH  20  22
ENDBRANCH   2  16
TORSDOF 8
ENDMDL
MODEL 7
REMARK VINA RESULT:    -5.748      5.204      6.623
REMARK INTER + INTRA:          -9.572
REMARK INTER:                  -8.134
REMARK INTRA:                  -1.438
REMARK CONF_INDEPENDENT:        2.386
REMARK UNBOUND:                -1.438
REMARK  8 active torsions:
REMARK  status: ('A' for Active; 'I' for Inactive)
REMARK    1  A    between atoms: C_2  and  C_4 
REMARK    2  A    between atoms: C_4  and  C_5 
REMARK    3  A    between atoms: C_5  and  N_6 
REMARK    4  A    between atoms: N_6  and  C_7 
REMARK    5  A    between atoms: C_7  and  N_9 
REMARK    6  A    between atoms: N_9  and  N_10 
REMARK       I    between atoms: N_10  and  C_11 
REMARK    7  A    between atoms: C_11  and  C_13 
REMARK    8  A    between atoms: C_17  and  N_18 
ROOT
ATOM      1  N   UNL d   1      26.845 -12.297  -1.086  0.00  0.00    -0.264 N 
ATOM      2  C   UNL d   1      27.455 -12.823   0.038  0.00  0.00     0.270 C 
ATOM      3  O   UNL d   1      27.974 -13.940   0.068  0.00  0.00    -0.266 OA
ATOM      4  H   UNL d   1      26.497 -11.341  -1.135  0.00  0.00     0.190 HD
ENDROOT
BRANCH   1   5
ATOM      5  N   UNL d   1      26.797 -13.025  -2.320  0.00  0.00    -0.274 N 
ATOM      6  H   UNL d   1      27.508 -12.783  -3.007  0.00  0.00     0.189 HD
BRANCH   5   7
ATOM      7  C   UNL d   1      25.829 -14.008  -2.506  0.00  0.00     0.186 C 
ATOM      8  S   UNL d   1      24.780 -13.979  -3.825  0.00  0.00    -0.040 SA
BRANCH   7   9
ATOM      9  N   UNL d   1      25.815 -15.003  -1.530  0.00  0.00    -0.366 N 
ATOM     10  H   UNL d   1      26.188 -14.806  -0.610  0.00  0.00     0.161 HD
BRANCH   9  11
ATOM     11  C   UNL d   1      25.186 -16.314  -1.741  0.00  0.00     0.122 C 
BRANCH  11  12
ATOM     12  C   UNL d   1      23.735 -16.450  -1.267  0.00  0.00     0.023 C 
BRANCH  12  13
ATOM     13  C   UNL d   1      23.582 -17.528  -0.162  0.00  0.00    -0.021 C 
ATOM     14  C   UNL d   1      22.579 -18.602  -0.593  0.00  0.00     0.009 C 
ATOM     15  C   UNL d   1      24.916 -18.201   0.175  0.00  0.00     0.009 C 
ENDBRANCH  12  13
ENDBRANCH  11  12
ENDBRANCH   9  11
ENDBRANCH   7   9
ENDBRANCH   5   7
ENDBRANCH   1   5
BRANCH   2  16
ATOM     16  C   UNL d   1      27.455 -11.972   1.279  0.00  0.00     0.036 A 
ATOM     17  C   UNL d   1      27.888 -12.519   2.500  0.00  0.00     0.017 A 
ATOM     18  C   UNL d   1      27.741 -11.809   3.704  0.00  0.00     0.003 A 
ATOM     19  C   UNL d   1      27.203 -10.523   3.697  0.00  0.00     0.036 A 
ATOM     20  C   UNL d   1      26.775  -9.973   2.482  0.00  0.00     0.103 A 
ATOM     21  C   UNL d   1      26.898 -10.687   1.273  0.00  0.00     0.053 A 
BRANCH  20  22
ATOM     22  N   UNL d   1      26.125  -8.652   2.481  0.00  0.00    -0.116 N 
ATOM     23  O   UNL d   1      25.155  -8.484   1.729  0.00  0.00    -0.532 OA
ATOM     24  O   UNL d   1      26.595  -7.785   3.229  0.00  0.00    -0.532 OA
ENDBRANCH  20  22
ENDBRANCH   2  16
TORSDOF 8
ENDMDL
MODEL 8
REMARK VINA RESULT:    -5.669      5.389      7.484
REMARK INTER + INTRA:          -9.404
REMARK INTER:                  -8.056
REMARK INTRA:                  -1.349
REMARK CONF_INDEPENDENT:        2.386
REMARK UNBOUND:                -1.349
REMARK  8 active torsions:
REMARK  status: ('A' for Active; 'I' for Inactive)
REMARK    1  A    between atoms: C_2  and  C_4 
REMARK    2  A    between atoms: C_4  and  C_5 
REMARK    3  A    between atoms: C_5  and  N_6 
REMARK    4  A    between atoms: N_6  and  C_7 
REMARK    5  A    between atoms: C_7  and  N_9 
REMARK    6  A    between atoms: N_9  and  N_10 
REMARK       I    between atoms: N_10  and  C_11 
REMARK    7  A    between atoms: C_11  and  C_13 
REMARK    8  A    between atoms: C_17  and  N_18 
ROOT
ATOM      1  N   UNL d   1      28.089 -14.940   1.681  0.00  0.00    -0.264 N 
ATOM      2  C   UNL d   1      27.549 -13.723   1.307  0.00  0.00     0.270 C 
ATOM      3  O   UNL d   1      27.068 -13.509   0.193  0.00  0.00    -0.266 OA
ATOM      4  H   UNL d   1      28.404 -15.142   2.628  0.00  0.00     0.190 HD
ENDROOT
BRANCH   1   5
ATOM      5  N   UNL d   1      28.101 -16.060   0.786  0.00  0.00    -0.274 N 
ATOM      6  H   UNL d   1      29.017 -16.357   0.456  0.00  0.00     0.189 HD
BRANCH   5   7
ATOM      7  C   UNL d   1      26.904 -16.681   0.441  0.00  0.00     0.186 C 
ATOM      8  S   UNL d   1      26.644 -18.323   0.726  0.00  0.00    -0.040 SA
BRANCH   7   9
ATOM      9  N   UNL d   1      25.957 -15.839  -0.139  0.00  0.00    -0.366 N 
ATOM     10  H   UNL d   1      25.592 -15.058   0.391  0.00  0.00     0.161 HD
BRANCH   9  11
ATOM     11  C   UNL d   1      25.526 -15.971  -1.537  0.00  0.00     0.122 C 
BRANCH  11  12
ATOM     12  C   UNL d   1      26.279 -15.112  -2.559  0.00  0.00     0.023 C 
BRANCH  12  13
ATOM     13  C   UNL d   1      25.534 -15.035  -3.917  0.00  0.00    -0.021 C 
ATOM     14  C   UNL d   1      24.795 -13.700  -4.052  0.00  0.00     0.009 C 
ATOM     15  C   UNL d   1      26.486 -15.199  -5.106  0.00  0.00     0.009 C 
ENDBRANCH  12  13
ENDBRANCH  11  12
ENDBRANCH   9  11
ENDBRANCH   7   9
ENDBRANCH   5   7
ENDBRANCH   1   5
BRANCH   2  16
ATOM     16  C   UNL d   1      27.582 -12.617   2.326  0.00  0.00     0.036 A 
ATOM     17  C   UNL d   1      28.114 -12.862   3.605  0.00  0.00     0.017 A 
ATOM     18  C   UNL d   1      28.004 -11.907   4.629  0.00  0.00     0.003 A 
ATOM     19  C   UNL d   1      27.405 -10.674   4.376  0.00  0.00     0.036 A 
ATOM     20  C   UNL d   1      26.878 -10.423   3.102  0.00  0.00     0.103 A 
ATOM     21  C   UNL d   1      26.964 -11.385   2.075  0.00  0.00     0.053 A 
BRANCH  20  22
ATOM     22  N   UNL d   1      26.167  -9.160   2.854  0.00  0.00    -0.116 N 
ATOM     23  O   UNL d   1      25.126  -9.202   2.184  0.00  0.00    -0.532 OA
ATOM     24  O   UNL d   1      26.657  -8.126   3.327  0.00  0.00    -0.532 OA
ENDBRANCH  20  22
ENDBRANCH   2  16
TORSDOF 8
ENDMDL
MODEL 9
REMARK VINA RESULT:    -5.582      3.806      8.074
REMARK INTER + INTRA:          -9.548
REMARK INTER:                  -7.968
REMARK INTRA:                  -1.580
REMARK CONF_INDEPENDENT:        2.386
REMARK UNBOUND:                -1.580
REMARK  8 active torsions:
REMARK  status: ('A' for Active; 'I' for Inactive)
REMARK    1  A    between atoms: C_2  and  C_4 
REMARK    2  A    between atoms: C_4  and  C_5 
REMARK    3  A    between atoms: C_5  and  N_6 
REMARK    4  A    between atoms: N_6  and  C_7 
REMARK    5  A    between atoms: C_7  and  N_9 
REMARK    6  A    between atoms: N_9  and  N_10 
REMARK       I    between atoms: N_10  and  C_11 
REMARK    7  A    between atoms: C_11  and  C_13 
REMARK    8  A    between atoms: C_17  and  N_18 
ROOT
ATOM      1  N   UNL d   1      24.716 -14.201  -3.138  0.00  0.00    -0.264 N 
ATOM      2  C   UNL d   1      25.488 -14.631  -2.075  0.00  0.00     0.270 C 
ATOM      3  O   UNL d   1      26.506 -14.050  -1.697  0.00  0.00    -0.266 OA
ATOM      4  H   UNL d   1      23.828 -14.630  -3.392  0.00  0.00     0.190 HD
ENDROOT
BRANCH   1   5
ATOM      5  N   UNL d   1      25.045 -13.011  -3.868  0.00  0.00    -0.274 N 
ATOM      6  H   UNL d   1      24.404 -12.229  -3.756  0.00  0.00     0.189 HD
BRANCH   5   7
ATOM      7  C   UNL d   1      26.198 -12.976  -4.648  0.00  0.00     0.186 C 
ATOM      8  S   UNL d   1      26.592 -11.630  -5.584  0.00  0.00    -0.040 SA
BRANCH   7   9
ATOM      9  N   UNL d   1      26.984 -14.124  -4.578  0.00  0.00    -0.366 N 
ATOM     10  H   UNL d   1      27.233 -14.505  -3.674  0.00  0.00     0.161 HD
BRANCH   9  11
ATOM     11  C   UNL d   1      27.397 -14.878  -5.770  0.00  0.00     0.122 C 
BRANCH  11  12
ATOM     12  C   UNL d   1      28.903 -15.117  -5.928  0.00  0.00     0.023 C 
BRANCH  12  13
ATOM     13  C   UNL d   1      29.388 -16.339  -5.105  0.00  0.00    -0.021 C 
ATOM     14  C   UNL d   1      30.598 -16.995  -5.777  0.00  0.00     0.009 C 
ATOM     15  C   UNL d   1      29.763 -15.955  -3.670  0.00  0.00     0.009 C 
ENDBRANCH  12  13
ENDBRANCH  11  12
ENDBRANCH   9  11
ENDBRANCH   7   9
ENDBRANCH   5   7
ENDBRANCH   1   5
BRANCH   2  16
ATOM     16  C   UNL d   1      25.048 -15.888  -1.374  0.00  0.00     0.036 A 
ATOM     17  C   UNL d   1      25.992 -16.666  -0.679  0.00  0.00     0.017 A 
ATOM     18  C   UNL d   1      25.650 -17.926  -0.161  0.00  0.00     0.003 A 
ATOM     19  C   UNL d   1      24.346 -18.405  -0.287  0.00  0.00     0.036 A 
ATOM     20  C   UNL d   1      23.402 -17.631  -0.975  0.00  0.00     0.103 A 
ATOM     21  C   UNL d   1      23.743 -16.375  -1.517  0.00  0.00     0.053 A 
BRANCH  20  22
ATOM     22  N   UNL d   1      22.050 -18.170  -1.188  0.00  0.00    -0.116 N 
ATOM     23  O   UNL d   1      21.086 -17.450  -0.895  0.00  0.00    -0.532 OA
ATOM     24  O   UNL d   1      21.959 -19.318  -1.643  0.00  0.00    -0.532 OA
ENDBRANCH  20  22
ENDBRANCH   2  16
TORSDOF 8
ENDMDL
