MODEL 1
REMARK VINA RESULT:    -9.048      0.000      0.000
REMARK INTER + INTRA:         -11.839
REMARK INTER:                 -10.838
REMARK INTRA:                  -1.002
REMARK CONF_INDEPENDENT:        1.790
REMARK UNBOUND:                -1.002
REMARK  6 active torsions:
REMARK  status: ('A' for Active; 'I' for Inactive)
REMARK    1  A    between atoms: C_2  and  C_3 
REMARK       I    between atoms: C_2  and  N_15 
REMARK    2  A    between atoms: C_3  and  C_4 
REMARK    3  A    between atoms: N_15  and  N_16 
REMARK    4  A    between atoms: C_17  and  C_18 
REMARK    5  A    between atoms: C_21  and  C_22 
REMARK    6  A    between atoms: C_27  and  N_28 
ROOT
ATOM      1  O   UNL d   1      25.150 -14.571  -4.920  0.00  0.00    -0.271 OA
ATOM      2  C   UNL d   1      25.542 -13.830  -4.019  0.00  0.00     0.241 C 
ATOM      3  N   UNL d   1      25.362 -12.461  -4.145  0.00  0.00    -0.247 N 
ATOM      4  H   UNL d   1      24.909 -12.154  -4.998  0.00  0.00     0.192 HD
ENDROOT
BRANCH   3   5
ATOM      5  N   UNL d   1      25.812 -11.567  -3.220  0.00  0.00    -0.182 NA
ATOM      6  C   UNL d   1      25.558 -10.304  -3.414  0.00  0.00     0.175 C 
BRANCH   6   7
ATOM      7  C   UNL d   1      26.064  -9.356  -2.448  0.00  0.00     0.095 A 
ATOM      8  C   UNL d   1      25.905  -7.986  -2.444  0.00  0.00     0.041 A 
ATOM      9  C   UNL d   1      26.680  -7.482  -1.387  0.00  0.00     0.041 A 
ATOM     10  C   UNL d   1      27.193  -8.568  -0.711  0.00  0.00     0.088 A 
ATOM     11  O   UNL d   1      26.833  -9.733  -1.361  0.00  0.00    -0.308 OA
BRANCH  10  12
ATOM     12  C   UNL d   1      27.916  -8.642   0.562  0.00  0.00     0.031 A 
ATOM     13  C   UNL d   1      29.328  -8.667   0.552  0.00  0.00     0.017 A 
ATOM     14  C   UNL d   1      30.071  -8.709   1.744  0.00  0.00     0.001 A 
ATOM     15  C   UNL d   1      29.430  -8.650   2.974  0.00  0.00     0.002 A 
ATOM     16  C   UNL d   1      28.040  -8.578   3.018  0.00  0.00     0.037 A 
ATOM     17  C   UNL d   1      27.278  -8.576   1.826  0.00  0.00     0.115 A 
BRANCH  17  18
ATOM     18  N   UNL d   1      25.809  -8.475   2.006  0.00  0.00    -0.115 N 
ATOM     19  O   UNL d   1      25.289  -9.201   2.858  0.00  0.00    -0.532 OA
ATOM     20  O   UNL d   1      25.155  -7.683   1.312  0.00  0.00    -0.532 OA
ENDBRANCH  17  18
ENDBRANCH  10  12
ENDBRANCH   6   7
ENDBRANCH   3   5
BRANCH   2  21
ATOM     21  C   UNL d   1      26.213 -14.320  -2.741  0.00  0.00     0.144 C 
BRANCH  21  22
ATOM     22  C   UNL d   1      25.442 -15.401  -1.981  0.00  0.00    -0.038 A 
ATOM     23  C   UNL d   1      24.037 -15.359  -2.019  0.00  0.00     0.010 A 
ATOM     24  C   UNL d   1      23.272 -16.312  -1.355  0.00  0.00     0.020 A 
ATOM     25  C   UNL d   1      23.898 -17.319  -0.618  0.00  0.00     0.022 A 
ATOM     26 BR   UNL d   1      22.736 -18.574   0.230  0.00  0.00    -0.050 Br
ATOM     27  C   UNL d   1      25.314 -17.397  -0.530  0.00  0.00    -0.008 A 
ATOM     28  C   UNL d   1      26.011 -18.391   0.209  0.00  0.00     0.013 A 
ATOM     29  C   UNL d   1      26.086 -16.424  -1.230  0.00  0.00    -0.018 A 
ATOM     30  C   UNL d   1      27.408 -18.446   0.246  0.00  0.00     0.001 A 
ATOM     31  C   UNL d   1      28.147 -17.506  -0.442  0.00  0.00     0.001 A 
ATOM     32  C   UNL d   1      27.493 -16.513  -1.159  0.00  0.00     0.013 A 
ENDBRANCH  21  22
ENDBRANCH   2  21
TORSDOF 6
ENDMDL
MODEL 2
REMARK VINA RESULT:    -8.559      4.879      9.060
REMARK INTER + INTRA:         -11.529
REMARK INTER:                 -10.348
REMARK INTRA:                  -1.180
REMARK CONF_INDEPENDENT:        1.790
REMARK UNBOUND:                -1.180
REMARK  6 active torsions:
REMARK  status: ('A' for Active; 'I' for Inactive)
REMARK    1  A    between atoms: C_2  and  C_3 
REMARK       I    between atoms: C_2  and  N_15 
REMARK    2  A    between atoms: C_3  and  C_4 
REMARK    3  A    between atoms: N_15  and  N_16 
REMARK    4  A    between atoms: C_17  and  C_18 
REMARK    5  A    between atoms: C_21  and  C_22 
REMARK    6  A    between atoms: C_27  and  N_28 
ROOT
ATOM      1  O   UNL d   1      25.046 -12.804  -3.665  0.00  0.00    -0.271 OA
ATOM      2  C   UNL d   1      25.944 -13.608  -3.913  0.00  0.00     0.241 C 
ATOM      3  N   UNL d   1      26.350 -13.783  -5.227  0.00  0.00    -0.247 N 
ATOM      4  H   UNL d   1      25.861 -13.221  -5.916  0.00  0.00     0.192 HD
ENDROOT
BRANCH   3   5
ATOM      5  N   UNL d   1      27.299 -14.689  -5.595  0.00  0.00    -0.182 NA
ATOM      6  C   UNL d   1      28.507 -14.253  -5.820  0.00  0.00     0.175 C 
BRANCH   6   7
ATOM      7  C   UNL d   1      29.503 -15.211  -6.241  0.00  0.00     0.095 A 
ATOM      8  C   UNL d   1      30.615 -14.986  -7.025  0.00  0.00     0.041 A 
ATOM      9  C   UNL d   1      31.207 -16.234  -7.272  0.00  0.00     0.041 A 
ATOM     10  C   UNL d   1      30.506 -17.166  -6.536  0.00  0.00     0.088 A 
ATOM     11  O   UNL d   1      29.442 -16.552  -5.903  0.00  0.00    -0.308 OA
BRANCH  10  12
ATOM     12  C   UNL d   1      30.789 -18.580  -6.274  0.00  0.00     0.031 A 
ATOM     13  C   UNL d   1      30.650 -19.077  -4.960  0.00  0.00     0.017 A 
ATOM     14  C   UNL d   1      30.881 -20.431  -4.658  0.00  0.00     0.001 A 
ATOM     15  C   UNL d   1      31.181 -21.334  -5.669  0.00  0.00     0.002 A 
ATOM     16  C   UNL d   1      31.280 -20.884  -6.982  0.00  0.00     0.037 A 
ATOM     17  C   UNL d   1      31.089 -19.517  -7.294  0.00  0.00     0.115 A 
BRANCH  17  18
ATOM     18  N   UNL d   1      31.201 -19.167  -8.731  0.00  0.00    -0.115 N 
ATOM     19  O   UNL d   1      30.405 -19.699  -9.511  0.00  0.00    -0.532 OA
ATOM     20  O   UNL d   1      32.071 -18.368  -9.105  0.00  0.00    -0.532 OA
ENDBRANCH  17  18
ENDBRANCH  10  12
ENDBRANCH   6   7
ENDBRANCH   3   5
BRANCH   2  21
ATOM     21  C   UNL d   1      26.667 -14.434  -2.855  0.00  0.00     0.144 C 
BRANCH  21  22
ATOM     22  C   UNL d   1      25.782 -15.419  -2.089  0.00  0.00    -0.038 A 
ATOM     23  C   UNL d   1      24.388 -15.248  -2.164  0.00  0.00     0.010 A 
ATOM     24  C   UNL d   1      23.523 -16.109  -1.496  0.00  0.00     0.020 A 
ATOM     25  C   UNL d   1      24.036 -17.150  -0.721  0.00  0.00     0.022 A 
ATOM     26 BR   UNL d   1      22.744 -18.270   0.128  0.00  0.00    -0.050 Br
ATOM     27  C   UNL d   1      25.436 -17.356  -0.595  0.00  0.00    -0.008 A 
ATOM     28  C   UNL d   1      26.021 -18.391   0.184  0.00  0.00     0.013 A 
ATOM     29  C   UNL d   1      26.312 -16.477  -1.299  0.00  0.00    -0.018 A 
ATOM     30  C   UNL d   1      27.405 -18.573   0.258  0.00  0.00     0.001 A 
ATOM     31  C   UNL d   1      28.245 -17.724  -0.435  0.00  0.00     0.001 A 
ATOM     32  C   UNL d   1      27.702 -16.694  -1.190  0.00  0.00     0.013 A 
ENDBRANCH  21  22
ENDBRANCH   2  21
TORSDOF 6
ENDMDL
MODEL 3
REMARK VINA RESULT:    -8.494      1.978      2.707
REMARK INTER + INTRA:         -11.660
REMARK INTER:                 -10.284
REMARK INTRA:                  -1.376
REMARK CONF_INDEPENDENT:        1.790
REMARK UNBOUND:                -1.376
REMARK  6 active torsions:
REMARK  status: ('A' for Active; 'I' for Inactive)
REMARK    1  A    between atoms: C_2  and  C_3 
REMARK       I    between atoms: C_2  and  N_15 
REMARK    2  A    between atoms: C_3  and  C_4 
REMARK    3  A    between atoms: N_15  and  N_16 
REMARK    4  A    between atoms: C_17  and  C_18 
REMARK    5  A    between atoms: C_21  and  C_22 
REMARK    6  A    between atoms: C_27  and  N_28 
ROOT
ATOM      1  O   UNL d   1      24.780 -14.681  -5.019  0.00  0.00    -0.271 OA
ATOM      2  C   UNL d   1      24.977 -14.033  -3.991  0.00  0.00     0.241 C 
ATOM      3  N   UNL d   1      25.262 -12.681  -4.089  0.00  0.00    -0.247 N 
ATOM      4  H   UNL d   1      25.292 -12.305  -5.031  0.00  0.00     0.192 HD
ENDROOT
BRANCH   3   5
ATOM      5  N   UNL d   1      25.544 -11.903  -3.006  0.00  0.00    -0.182 NA
ATOM      6  C   UNL d   1      26.714 -11.332  -2.949  0.00  0.00     0.175 C 
BRANCH   6   7
ATOM      7  C   UNL d   1      27.022 -10.534  -1.785  0.00  0.00     0.095 A 
ATOM      8  C   UNL d   1      27.339  -9.193  -1.738  0.00  0.00     0.041 A 
ATOM      9  C   UNL d   1      27.685  -8.895  -0.411  0.00  0.00     0.041 A 
ATOM     10  C   UNL d   1      27.454 -10.034   0.331  0.00  0.00     0.088 A 
ATOM     11  O   UNL d   1      27.056 -11.060  -0.505  0.00  0.00    -0.308 OA
BRANCH  10  12
ATOM     12  C   UNL d   1      27.469 -10.244   1.781  0.00  0.00     0.031 A 
ATOM     13  C   UNL d   1      28.265 -11.279   2.319  0.00  0.00     0.017 A 
ATOM     14  C   UNL d   1      28.338 -11.507   3.704  0.00  0.00     0.001 A 
ATOM     15  C   UNL d   1      27.681 -10.664   4.590  0.00  0.00     0.002 A 
ATOM     16  C   UNL d   1      26.925  -9.605   4.094  0.00  0.00     0.037 A 
ATOM     17  C   UNL d   1      26.811  -9.389   2.700  0.00  0.00     0.115 A 
BRANCH  17  18
ATOM     18  N   UNL d   1      25.994  -8.217   2.299  0.00  0.00    -0.115 N 
ATOM     19  O   UNL d   1      25.155  -8.385   1.410  0.00  0.00    -0.532 OA
ATOM     20  O   UNL d   1      26.171  -7.123   2.855  0.00  0.00    -0.532 OA
ENDBRANCH  17  18
ENDBRANCH  10  12
ENDBRANCH   6   7
ENDBRANCH   3   5
BRANCH   2  21
ATOM     21  C   UNL d   1      24.917 -14.623  -2.586  0.00  0.00     0.144 C 
BRANCH  21  22
ATOM     22  C   UNL d   1      26.202 -15.309  -2.119  0.00  0.00    -0.038 A 
ATOM     23  C   UNL d   1      27.425 -14.839  -2.632  0.00  0.00     0.010 A 
ATOM     24  C   UNL d   1      28.633 -15.413  -2.248  0.00  0.00     0.020 A 
ATOM     25  C   UNL d   1      28.642 -16.486  -1.355  0.00  0.00     0.022 A 
ATOM     26 BR   UNL d   1      30.364 -17.170  -0.894  0.00  0.00    -0.050 Br
ATOM     27  C   UNL d   1      27.435 -17.012  -0.821  0.00  0.00    -0.008 A 
ATOM     28  C   UNL d   1      27.377 -18.106   0.085  0.00  0.00     0.013 A 
ATOM     29  C   UNL d   1      26.205 -16.404  -1.210  0.00  0.00    -0.018 A 
ATOM     30  C   UNL d   1      26.167 -18.575   0.606  0.00  0.00     0.001 A 
ATOM     31  C   UNL d   1      24.983 -17.973   0.233  0.00  0.00     0.001 A 
ATOM     32  C   UNL d   1      25.008 -16.913  -0.664  0.00  0.00     0.013 A 
ENDBRANCH  21  22
ENDBRANCH   2  21
TORSDOF 6
ENDMDL
MODEL 4
REMARK VINA RESULT:    -8.292      2.042      3.301
REMARK INTER + INTRA:         -11.290
REMARK INTER:                 -10.082
REMARK INTRA:                  -1.208
REMARK CONF_INDEPENDENT:        1.790
REMARK UNBOUND:                -1.208
REMARK  6 active torsions:
REMARK  status: ('A' for Active; 'I' for Inactive)
REMARK    1  A    between atoms: C_2  and  C_3 
REMARK       I    between atoms: C_2  and  N_15 
REMARK    2  A    between atoms: C_3  and  C_4 
REMARK    3  A    between atoms: N_15  and  N_16 
REMARK    4  A    between atoms: C_17  and  C_18 
REMARK    5  A    between atoms: C_21  and  C_22 
REMARK    6  A    between atoms: C_27  and  N_28 
ROOT
ATOM      1  O   UNL d   1      25.016 -14.658  -4.907  0.00  0.00    -0.271 OA
ATOM      2  C   UNL d   1      25.163 -13.798  -4.039  0.00  0.00     0.241 C 
ATOM      3  N   UNL d   1      25.297 -12.472  -4.418  0.00  0.00    -0.247 N 
ATOM      4  H   UNL d   1      25.266 -12.295  -5.417  0.00  0.00     0.192 HD
ENDROOT
BRANCH   3   5
ATOM      5  N   UNL d   1      25.516 -11.465  -3.527  0.00  0.00    -0.182 NA
ATOM      6  C   UNL d   1      26.721 -11.313  -3.057  0.00  0.00     0.175 C 
BRANCH   6   7
ATOM      7  C   UNL d   1      26.942 -10.264  -2.088  0.00  0.00     0.095 A 
ATOM      8  C   UNL d   1      27.981 -10.150  -1.187  0.00  0.00     0.041 A 
ATOM      9  C   UNL d   1      27.700  -9.044  -0.370  0.00  0.00     0.041 A 
ATOM     10  C   UNL d   1      26.561  -8.451  -0.871  0.00  0.00     0.088 A 
ATOM     11  O   UNL d   1      26.072  -9.200  -1.925  0.00  0.00    -0.308 OA
BRANCH  10  12
ATOM     12  C   UNL d   1      25.921  -7.178  -0.529  0.00  0.00     0.031 A 
ATOM     13  C   UNL d   1      25.566  -6.286  -1.565  0.00  0.00     0.017 A 
ATOM     14  C   UNL d   1      24.925  -5.064  -1.295  0.00  0.00     0.001 A 
ATOM     15  C   UNL d   1      24.556  -4.736   0.003  0.00  0.00     0.002 A 
ATOM     16  C   UNL d   1      24.851  -5.615   1.041  0.00  0.00     0.037 A 
ATOM     17  C   UNL d   1      25.531  -6.830   0.788  0.00  0.00     0.115 A 
BRANCH  17  18
ATOM     18  N   UNL d   1      25.768  -7.689   1.974  0.00  0.00    -0.115 N 
ATOM     19  O   UNL d   1      25.155  -8.759   2.035  0.00  0.00    -0.532 OA
ATOM     20  O   UNL d   1      26.557  -7.319   2.855  0.00  0.00    -0.532 OA
ENDBRANCH  17  18
ENDBRANCH  10  12
ENDBRANCH   6   7
ENDBRANCH   3   5
BRANCH   2  21
ATOM     21  C   UNL d   1      25.197 -14.092  -2.543  0.00  0.00     0.144 C 
BRANCH  21  22
ATOM     22  C   UNL d   1      26.316 -15.033  -2.096  0.00  0.00    -0.038 A 
ATOM     23  C   UNL d   1      27.630 -14.735  -2.499  0.00  0.00     0.010 A 
ATOM     24  C   UNL d   1      28.697 -15.546  -2.125  0.00  0.00     0.020 A 
ATOM     25  C   UNL d   1      28.469 -16.687  -1.355  0.00  0.00     0.022 A 
ATOM     26 BR   UNL d   1      30.019 -17.703  -0.894  0.00  0.00    -0.050 Br
ATOM     27  C   UNL d   1      27.160 -17.046  -0.937  0.00  0.00    -0.008 A 
ATOM     28  C   UNL d   1      26.861 -18.198  -0.159  0.00  0.00     0.013 A 
ATOM     29  C   UNL d   1      26.077 -16.197  -1.312  0.00  0.00    -0.018 A 
ATOM     30  C   UNL d   1      25.559 -18.499   0.253  0.00  0.00     0.001 A 
ATOM     31  C   UNL d   1      24.518 -17.666  -0.106  0.00  0.00     0.001 A 
ATOM     32  C   UNL d   1      24.779 -16.543  -0.880  0.00  0.00     0.013 A 
ENDBRANCH  21  22
ENDBRANCH   2  21
TORSDOF 6
ENDMDL
MODEL 5
REMARK VINA RESULT:    -8.070      3.939      8.264
REMARK INTER + INTRA:         -11.519
REMARK INTER:                  -9.860
REMARK INTRA:                  -1.659
REMARK CONF_INDEPENDENT:        1.790
REMARK UNBOUND:                -1.659
REMARK  6 active torsions:
REMARK  status: ('A' for Active; 'I' for Inactive)
REMARK    1  A    between atoms: C_2  and  C_3 
REMARK       I    between atoms: C_2  and  N_15 
REMARK    2  A    between atoms: C_3  and  C_4 
REMARK    3  A    between atoms: N_15  and  N_16 
REMARK    4  A    between atoms: C_17  and  C_18 
REMARK    5  A    between atoms: C_21  and  C_22 
REMARK    6  A    between atoms: C_27  and  N_28 
ROOT
ATOM      1  O   UNL d   1      26.879  -8.307   3.855  0.00  0.00    -0.271 OA
ATOM      2  C   UNL d   1      27.159  -9.376   3.314  0.00  0.00     0.241 C 
ATOM      3  N   UNL d   1      26.232  -9.968   2.470  0.00  0.00    -0.247 N 
ATOM      4  H   UNL d   1      25.359  -9.466   2.354  0.00  0.00     0.192 HD
ENDROOT
BRANCH   3   5
ATOM      5  N   UNL d   1      26.441 -11.175   1.871  0.00  0.00    -0.182 NA
ATOM      6  C   UNL d   1      27.074 -11.193   0.733  0.00  0.00     0.175 C 
BRANCH   6   7
ATOM      7  C   UNL d   1      27.265 -12.472   0.086  0.00  0.00     0.095 A 
ATOM      8  C   UNL d   1      28.383 -12.922  -0.584  0.00  0.00     0.041 A 
ATOM      9  C   UNL d   1      28.054 -14.163  -1.152  0.00  0.00     0.041 A 
ATOM     10  C   UNL d   1      26.787 -14.483  -0.713  0.00  0.00     0.088 A 
ATOM     11  O   UNL d   1      26.280 -13.443   0.043  0.00  0.00    -0.308 OA
BRANCH  10  12
ATOM     12  C   UNL d   1      26.021 -15.726  -0.842  0.00  0.00     0.031 A 
ATOM     13  C   UNL d   1      26.014 -16.645   0.230  0.00  0.00     0.017 A 
ATOM     14  C   UNL d   1      25.274 -17.839   0.170  0.00  0.00     0.001 A 
ATOM     15  C   UNL d   1      24.466 -18.109  -0.926  0.00  0.00     0.002 A 
ATOM     16  C   UNL d   1      24.415 -17.201  -1.980  0.00  0.00     0.037 A 
ATOM     17  C   UNL d   1      25.185 -16.015  -1.950  0.00  0.00     0.115 A 
BRANCH  17  18
ATOM     18  N   UNL d   1      25.028 -15.120  -3.122  0.00  0.00    -0.115 N 
ATOM     19  O   UNL d   1      24.390 -14.076  -2.961  0.00  0.00    -0.532 OA
ATOM     20  O   UNL d   1      25.529 -15.437  -4.211  0.00  0.00    -0.532 OA
ENDBRANCH  17  18
ENDBRANCH  10  12
ENDBRANCH   6   7
ENDBRANCH   3   5
BRANCH   2  21
ATOM     21  C   UNL d   1      28.484 -10.106   3.499  0.00  0.00     0.144 C 
BRANCH  21  22
ATOM     22  C   UNL d   1      28.575 -10.968   4.759  0.00  0.00    -0.038 A 
ATOM     23  C   UNL d   1      28.822 -10.322   5.984  0.00  0.00     0.010 A 
ATOM     24  C   UNL d   1      28.913 -11.044   7.170  0.00  0.00     0.020 A 
ATOM     25  C   UNL d   1      28.779 -12.433   7.154  0.00  0.00     0.022 A 
ATOM     26 BR   UNL d   1      28.905 -13.301   8.849  0.00  0.00    -0.050 Br
ATOM     27  C   UNL d   1      28.547 -13.138   5.942  0.00  0.00    -0.008 A 
ATOM     28  C   UNL d   1      28.409 -14.550   5.857  0.00  0.00     0.013 A 
ATOM     29  C   UNL d   1      28.439 -12.385   4.736  0.00  0.00    -0.018 A 
ATOM     30  C   UNL d   1      28.156 -15.200   4.645  0.00  0.00     0.001 A 
ATOM     31  C   UNL d   1      28.042 -14.462   3.484  0.00  0.00     0.001 A 
ATOM     32  C   UNL d   1      28.189 -13.083   3.535  0.00  0.00     0.013 A 
ENDBRANCH  21  22
ENDBRANCH   2  21
TORSDOF 6
ENDMDL
MODEL 6
REMARK VINA RESULT:    -8.055      2.935      4.461
REMARK INTER + INTRA:         -11.641
REMARK INTER:                  -9.845
REMARK INTRA:                  -1.796
REMARK CONF_INDEPENDENT:        1.790
REMARK UNBOUND:                -1.796
REMARK  6 active torsions:
REMARK  status: ('A' for Active; 'I' for Inactive)
REMARK    1  A    between atoms: C_2  and  C_3 
REMARK       I    between atoms: C_2  and  N_15 
REMARK    2  A    between atoms: C_3  and  C_4 
REMARK    3  A    between atoms: N_15  and  N_16 
REMARK    4  A    between atoms: C_17  and  C_18 
REMARK    5  A    between atoms: C_21  and  C_22 
REMARK    6  A    between atoms: C_27  and  N_28 
ROOT
ATOM      1  O   UNL d   1      30.672 -17.819  -0.228  0.00  0.00    -0.271 OA
ATOM      2  C   UNL d   1      30.069 -16.748  -0.294  0.00  0.00     0.241 C 
ATOM      3  N   UNL d   1      30.172 -15.849   0.756  0.00  0.00    -0.247 N 
ATOM      4  H   UNL d   1      30.753 -16.146   1.533  0.00  0.00     0.192 HD
ENDROOT
BRANCH   3   5
ATOM      5  N   UNL d   1      29.497 -14.666   0.787  0.00  0.00    -0.182 NA
ATOM      6  C   UNL d   1      28.558 -14.519   1.678  0.00  0.00     0.175 C 
BRANCH   6   7
ATOM      7  C   UNL d   1      27.823 -13.274   1.687  0.00  0.00     0.095 A 
ATOM      8  C   UNL d   1      26.843 -12.877   2.572  0.00  0.00     0.041 A 
ATOM      9  C   UNL d   1      26.333 -11.656   2.104  0.00  0.00     0.041 A 
ATOM     10  C   UNL d   1      27.097 -11.291   1.017  0.00  0.00     0.088 A 
ATOM     11  O   UNL d   1      28.014 -12.286   0.737  0.00  0.00    -0.308 OA
BRANCH  10  12
ATOM     12  C   UNL d   1      27.130 -10.039   0.255  0.00  0.00     0.031 A 
ATOM     13  C   UNL d   1      27.664 -10.044  -1.053  0.00  0.00     0.017 A 
ATOM     14  C   UNL d   1      27.695  -8.878  -1.838  0.00  0.00     0.001 A 
ATOM     15  C   UNL d   1      27.127  -7.701  -1.370  0.00  0.00     0.002 A 
ATOM     16  C   UNL d   1      26.552  -7.675  -0.103  0.00  0.00     0.037 A 
ATOM     17  C   UNL d   1      26.549  -8.831   0.714  0.00  0.00     0.115 A 
BRANCH  17  18
ATOM     18  N   UNL d   1      25.888  -8.681   2.033  0.00  0.00    -0.115 N 
ATOM     19  O   UNL d   1      26.483  -8.031   2.898  0.00  0.00    -0.532 OA
ATOM     20  O   UNL d   1      24.780  -9.200   2.230  0.00  0.00    -0.532 OA
ENDBRANCH  17  18
ENDBRANCH  10  12
ENDBRANCH   6   7
ENDBRANCH   3   5
BRANCH   2  21
ATOM     21  C   UNL d   1      29.209 -16.324  -1.479  0.00  0.00     0.144 C 
BRANCH  21  22
ATOM     22  C   UNL d   1      27.706 -16.541  -1.296  0.00  0.00    -0.038 A 
ATOM     23  C   UNL d   1      27.288 -17.605  -0.477  0.00  0.00     0.010 A 
ATOM     24  C   UNL d   1      25.937 -17.858  -0.263  0.00  0.00     0.020 A 
ATOM     25  C   UNL d   1      24.971 -17.061  -0.880  0.00  0.00     0.022 A 
ATOM     26 BR   UNL d   1      23.155 -17.500  -0.489  0.00  0.00    -0.050 Br
ATOM     27  C   UNL d   1      25.338 -15.984  -1.731  0.00  0.00    -0.008 A 
ATOM     28  C   UNL d   1      24.405 -15.141  -2.395  0.00  0.00     0.013 A 
ATOM     29  C   UNL d   1      26.727 -15.725  -1.930  0.00  0.00    -0.018 A 
ATOM     30  C   UNL d   1      24.811 -14.076  -3.204  0.00  0.00     0.001 A 
ATOM     31  C   UNL d   1      26.157 -13.826  -3.381  0.00  0.00     0.001 A 
ATOM     32  C   UNL d   1      27.091 -14.643  -2.759  0.00  0.00     0.013 A 
ENDBRANCH  21  22
ENDBRANCH   2  21
TORSDOF 6
ENDMDL
MODEL 7
REMARK VINA RESULT:    -7.535      4.384      7.837
REMARK INTER + INTRA:         -11.383
REMARK INTER:                  -9.325
REMARK INTRA:                  -2.059
REMARK CONF_INDEPENDENT:        1.790
REMARK UNBOUND:                -2.059
REMARK  6 active torsions:
REMARK  status: ('A' for Active; 'I' for Inactive)
REMARK    1  A    between atoms: C_2  and  C_3 
REMARK       I    between atoms: C_2  and  N_15 
REMARK    2  A    between atoms: C_3  and  C_4 
REMARK    3  A    between atoms: N_15  and  N_16 
REMARK    4  A    between atoms: C_17  and  C_18 
REMARK    5  A    between atoms: C_21  and  C_22 
REMARK    6  A    between atoms: C_27  and  N_28 
ROOT
ATOM      1  O   UNL d   1      32.457 -17.038   1.554  0.00  0.00    -0.271 OA
ATOM      2  C   UNL d   1      31.536 -16.433   1.004  0.00  0.00     0.241 C 
ATOM      3  N   UNL d   1      30.600 -17.149   0.274  0.00  0.00    -0.247 N 
ATOM      4  H   UNL d   1      30.744 -18.152   0.239  0.00  0.00     0.192 HD
ENDROOT
BRANCH   3   5
ATOM      5  N   UNL d   1      29.581 -16.554  -0.408  0.00  0.00    -0.182 NA
ATOM      6  C   UNL d   1      28.372 -16.998  -0.212  0.00  0.00     0.175 C 
BRANCH   6   7
ATOM      7  C   UNL d   1      27.298 -16.386  -0.961  0.00  0.00     0.095 A 
ATOM      8  C   UNL d   1      25.976 -16.776  -1.015  0.00  0.00     0.041 A 
ATOM      9  C   UNL d   1      25.344 -15.964  -1.970  0.00  0.00     0.041 A 
ATOM     10  C   UNL d   1      26.271 -15.030  -2.382  0.00  0.00     0.088 A 
ATOM     11  O   UNL d   1      27.487 -15.285  -1.778  0.00  0.00    -0.308 OA
BRANCH  10  12
ATOM     12  C   UNL d   1      26.113 -13.839  -3.221  0.00  0.00     0.031 A 
ATOM     13  C   UNL d   1      25.986 -12.575  -2.604  0.00  0.00     0.017 A 
ATOM     14  C   UNL d   1      25.860 -11.397  -3.361  0.00  0.00     0.001 A 
ATOM     15  C   UNL d   1      25.934 -11.442  -4.747  0.00  0.00     0.002 A 
ATOM     16  C   UNL d   1      26.105 -12.668  -5.383  0.00  0.00     0.037 A 
ATOM     17  C   UNL d   1      26.193 -13.865  -4.635  0.00  0.00     0.115 A 
BRANCH  17  18
ATOM     18  N   UNL d   1      26.395 -15.102  -5.429  0.00  0.00    -0.115 N 
ATOM     19  O   UNL d   1      27.442 -15.200  -6.075  0.00  0.00    -0.532 OA
ATOM     20  O   UNL d   1      25.526 -15.986  -5.424  0.00  0.00    -0.532 OA
ENDBRANCH  17  18
ENDBRANCH  10  12
ENDBRANCH   6   7
ENDBRANCH   3   5
BRANCH   2  21
ATOM     21  C   UNL d   1      31.340 -14.923   1.081  0.00  0.00     0.144 C 
BRANCH  21  22
ATOM     22  C   UNL d   1      30.403 -14.451   2.193  0.00  0.00    -0.038 A 
ATOM     23  C   UNL d   1      30.820 -14.623   3.525  0.00  0.00     0.010 A 
ATOM     24  C   UNL d   1      30.020 -14.213   4.587  0.00  0.00     0.020 A 
ATOM     25  C   UNL d   1      28.772 -13.638   4.338  0.00  0.00     0.022 A 
ATOM     26 BR   UNL d   1      27.782 -13.101   5.879  0.00  0.00    -0.050 Br
ATOM     27  C   UNL d   1      28.293 -13.458   3.013  0.00  0.00    -0.008 A 
ATOM     28  C   UNL d   1      27.031 -12.887   2.693  0.00  0.00     0.013 A 
ATOM     29  C   UNL d   1      29.131 -13.867   1.933  0.00  0.00    -0.018 A 
ATOM     30  C   UNL d   1      26.611 -12.705   1.373  0.00  0.00     0.001 A 
ATOM     31  C   UNL d   1      27.432 -13.094   0.334  0.00  0.00     0.001 A 
ATOM     32  C   UNL d   1      28.664 -13.670   0.616  0.00  0.00     0.013 A 
ENDBRANCH  21  22
ENDBRANCH   2  21
TORSDOF 6
ENDMDL
MODEL 8
REMARK VINA RESULT:    -7.234      4.594      7.041
REMARK INTER + INTRA:         -11.526
REMARK INTER:                  -9.024
REMARK INTRA:                  -2.502
REMARK CONF_INDEPENDENT:        1.790
REMARK UNBOUND:                -2.502
REMARK  6 active torsions:
REMARK  status: ('A' for Active; 'I' for Inactive)
REMARK    1  A    between atoms: C_2  and  C_3 
REMARK       I    between atoms: C_2  and  N_15 
REMARK    2  A    between atoms: C_3  and  C_4 
REMARK    3  A    between atoms: N_15  and  N_16 
REMARK    4  A    between atoms: C_17  and  C_18 
REMARK    5  A    between atoms: C_21  and  C_22 
REMARK    6  A    between atoms: C_27  and  N_28 
ROOT
ATOM      1  O   UNL d   1      31.480 -18.781  -0.137  0.00  0.00    -0.271 OA
ATOM      2  C   UNL d   1      30.823 -18.012  -0.839  0.00  0.00     0.241 C 
ATOM      3  N   UNL d   1      30.743 -18.244  -2.203  0.00  0.00    -0.247 N 
ATOM      4  H   UNL d   1      31.251 -19.054  -2.541  0.00  0.00     0.192 HD
ENDROOT
BRANCH   3   5
ATOM      5  N   UNL d   1      30.081 -17.414  -3.057  0.00  0.00    -0.182 NA
ATOM      6  C   UNL d   1      30.738 -16.927  -4.071  0.00  0.00     0.175 C 
BRANCH   6   7
ATOM      7  C   UNL d   1      30.041 -16.023  -4.957  0.00  0.00     0.095 A 
ATOM      8  C   UNL d   1      29.990 -16.061  -6.335  0.00  0.00     0.041 A 
ATOM      9  C   UNL d   1      29.307 -14.909  -6.756  0.00  0.00     0.041 A 
ATOM     10  C   UNL d   1      28.863 -14.267  -5.620  0.00  0.00     0.088 A 
ATOM     11  O   UNL d   1      29.320 -14.934  -4.500  0.00  0.00    -0.308 OA
BRANCH  10  12
ATOM     12  C   UNL d   1      27.955 -13.127  -5.465  0.00  0.00     0.031 A 
ATOM     13  C   UNL d   1      28.444 -11.821  -5.690  0.00  0.00     0.017 A 
ATOM     14  C   UNL d   1      27.610 -10.695  -5.582  0.00  0.00     0.001 A 
ATOM     15  C   UNL d   1      26.254 -10.847  -5.323  0.00  0.00     0.002 A 
ATOM     16  C   UNL d   1      25.732 -12.125  -5.142  0.00  0.00     0.037 A 
ATOM     17  C   UNL d   1      26.568 -13.264  -5.208  0.00  0.00     0.115 A 
BRANCH  17  18
ATOM     18  N   UNL d   1      25.888 -14.569  -5.018  0.00  0.00    -0.115 N 
ATOM     19  O   UNL d   1      24.780 -14.560  -4.473  0.00  0.00    -0.532 OA
ATOM     20  O   UNL d   1      26.437 -15.612  -5.401  0.00  0.00    -0.532 OA
ENDBRANCH  17  18
ENDBRANCH  10  12
ENDBRANCH   6   7
ENDBRANCH   3   5
BRANCH   2  21
ATOM     21  C   UNL d   1      30.062 -16.805  -0.301  0.00  0.00     0.144 C 
BRANCH  21  22
ATOM     22  C   UNL d   1      28.543 -16.875  -0.465  0.00  0.00    -0.038 A 
ATOM     23  C   UNL d   1      27.894 -18.068  -0.101  0.00  0.00     0.010 A 
ATOM     24  C   UNL d   1      26.514 -18.200  -0.220  0.00  0.00     0.020 A 
ATOM     25  C   UNL d   1      25.754 -17.145  -0.727  0.00  0.00     0.022 A 
ATOM     26 BR   UNL d   1      23.871 -17.446  -0.822  0.00  0.00    -0.050 Br
ATOM     27  C   UNL d   1      26.361 -15.925  -1.129  0.00  0.00    -0.008 A 
ATOM     28  C   UNL d   1      25.644 -14.817  -1.659  0.00  0.00     0.013 A 
ATOM     29  C   UNL d   1      27.774 -15.796  -0.985  0.00  0.00    -0.018 A 
ATOM     30  C   UNL d   1      26.280 -13.624  -2.017  0.00  0.00     0.001 A 
ATOM     31  C   UNL d   1      27.647 -13.505  -1.865  0.00  0.00     0.001 A 
ATOM     32  C   UNL d   1      28.374 -14.577  -1.365  0.00  0.00     0.013 A 
ENDBRANCH  21  22
ENDBRANCH   2  21
TORSDOF 6
ENDMDL
MODEL 9
REMARK VINA RESULT:    -6.349      4.712      7.356
REMARK INTER + INTRA:         -11.371
REMARK INTER:                  -8.139
REMARK INTRA:                  -3.232
REMARK CONF_INDEPENDENT:        1.790
REMARK UNBOUND:                -3.232
REMARK  6 active torsions:
REMARK  status: ('A' for Active; 'I' for Inactive)
REMARK    1  A    between atoms: C_2  and  C_3 
REMARK       I    between atoms: C_2  and  N_15 
REMARK    2  A    between atoms: C_3  and  C_4 
REMARK    3  A    between atoms: N_15  and  N_16 
REMARK    4  A    between atoms: C_17  and  C_18 
REMARK    5  A    between atoms: C_21  and  C_22 
REMARK    6  A    between atoms: C_27  and  N_28 
ROOT
ATOM      1  O   UNL d   1      26.342 -18.564   1.294  0.00  0.00    -0.271 OA
ATOM      2  C   UNL d   1      26.656 -17.857   0.337  0.00  0.00     0.241 C 
ATOM      3  N   UNL d   1      27.950 -17.923  -0.156  0.00  0.00    -0.247 N 
ATOM      4  H   UNL d   1      28.570 -18.567   0.323  0.00  0.00     0.192 HD
ENDROOT
BRANCH   3   5
ATOM      5  N   UNL d   1      28.394 -17.138  -1.177  0.00  0.00    -0.182 NA
ATOM      6  C   UNL d   1      29.421 -16.367  -0.956  0.00  0.00     0.175 C 
BRANCH   6   7
ATOM      7  C   UNL d   1      29.869 -15.513  -2.032  0.00  0.00     0.095 A 
ATOM      8  C   UNL d   1      31.163 -15.305  -2.464  0.00  0.00     0.041 A 
ATOM      9  C   UNL d   1      31.116 -14.299  -3.441  0.00  0.00     0.041 A 
ATOM     10  C   UNL d   1      29.786 -14.008  -3.657  0.00  0.00     0.088 A 
ATOM     11  O   UNL d   1      29.003 -14.740  -2.785  0.00  0.00    -0.308 OA
BRANCH  10  12
ATOM     12  C   UNL d   1      29.148 -13.176  -4.680  0.00  0.00     0.031 A 
ATOM     13  C   UNL d   1      29.348 -11.778  -4.654  0.00  0.00     0.017 A 
ATOM     14  C   UNL d   1      28.782 -10.936  -5.627  0.00  0.00     0.001 A 
ATOM     15  C   UNL d   1      28.069 -11.472  -6.691  0.00  0.00     0.002 A 
ATOM     16  C   UNL d   1      27.893 -12.851  -6.771  0.00  0.00     0.037 A 
ATOM     17  C   UNL d   1      28.423 -13.706  -5.776  0.00  0.00     0.115 A 
BRANCH  17  18
ATOM     18  N   UNL d   1      28.185 -15.155  -5.986  0.00  0.00    -0.115 N 
ATOM     19  O   UNL d   1      27.035 -15.573  -5.826  0.00  0.00    -0.532 OA
ATOM     20  O   UNL d   1      29.126 -15.894  -6.309  0.00  0.00    -0.532 OA
ENDBRANCH  17  18
ENDBRANCH  10  12
ENDBRANCH   6   7
ENDBRANCH   3   5
BRANCH   2  21
ATOM     21  C   UNL d   1      25.699 -16.903  -0.370  0.00  0.00     0.144 C 
BRANCH  21  22
ATOM     22  C   UNL d   1      26.199 -15.463  -0.493  0.00  0.00    -0.038 A 
ATOM     23  C   UNL d   1      26.861 -14.897   0.612  0.00  0.00     0.010 A 
ATOM     24  C   UNL d   1      27.346 -13.594   0.568  0.00  0.00     0.020 A 
ATOM     25  C   UNL d   1      27.160 -12.819  -0.578  0.00  0.00     0.022 A 
ATOM     26 BR   UNL d   1      27.889 -11.055  -0.517  0.00  0.00    -0.050 Br
ATOM     27  C   UNL d   1      26.482 -13.334  -1.715  0.00  0.00    -0.008 A 
ATOM     28  C   UNL d   1      26.254 -12.594  -2.908  0.00  0.00     0.013 A 
ATOM     29  C   UNL d   1      26.005 -14.677  -1.664  0.00  0.00    -0.018 A 
ATOM     30  C   UNL d   1      25.603 -13.150  -4.013  0.00  0.00     0.001 A 
ATOM     31  C   UNL d   1      25.155 -14.454  -3.958  0.00  0.00     0.001 A 
ATOM     32  C   UNL d   1      25.348 -15.195  -2.800  0.00  0.00     0.013 A 
ENDBRANCH  21  22
ENDBRANCH   2  21
TORSDOF 6
ENDMDL
