MODEL 1
REMARK VINA RESULT:    -8.221      0.000      0.000
REMARK INTER + INTRA:         -11.037
REMARK INTER:                  -9.712
REMARK INTRA:                  -1.325
REMARK CONF_INDEPENDENT:        1.492
REMARK UNBOUND:                -1.325
REMARK  5 active torsions:
REMARK  status: ('A' for Active; 'I' for Inactive)
REMARK    1  A    between atoms: C_2  and  N_4 
REMARK       I    between atoms: N_4  and  C_5 
REMARK       I    between atoms: C_5  and  N_7 
REMARK    2  A    between atoms: N_7  and  N_8 
REMARK       I    between atoms: N_8  and  C_9 
REMARK    3  A    between atoms: C_9  and  C_11 
REMARK    4  A    between atoms: C_11  and  C_12 
REMARK    5  A    between atoms: C_17  and  N_18 
ROOT
ATOM      1  N   UNL d   1      22.761 -17.749  -0.831  0.00  0.00    -0.266 N 
ATOM      2  C   UNL d   1      24.110 -17.491  -0.974  0.00  0.00     0.240 C 
ATOM      3  O   UNL d   1      24.955 -18.272  -0.523  0.00  0.00    -0.272 OA
ATOM      4  H   UNL d   1      22.019 -17.108  -1.105  0.00  0.00     0.190 HD
ENDROOT
BRANCH   2   5
ATOM      5  C   UNL d   1      24.498 -16.197  -1.736  0.00  0.00     0.145 C 
BRANCH   5   6
ATOM      6  C   UNL d   1      26.015 -16.117  -1.910  0.00  0.00    -0.016 A 
ATOM      7  C   UNL d   1      26.833 -16.402  -0.794  0.00  0.00     0.010 A 
ATOM      8  C   UNL d   1      28.181 -16.021  -0.771  0.00  0.00     0.001 A 
ATOM      9  C   UNL d   1      28.763 -15.432  -1.889  0.00  0.00     0.002 A 
ATOM     10  C   UNL d   1      27.998 -15.217  -3.035  0.00  0.00     0.037 A 
ATOM     11  C   UNL d   1      26.632 -15.562  -3.059  0.00  0.00     0.109 A 
BRANCH  11  12
ATOM     12  N   UNL d   1      25.894 -15.296  -4.315  0.00  0.00    -0.115 N 
ATOM     13  O   UNL d   1      24.783 -14.760  -4.230  0.00  0.00    -0.532 OA
ATOM     14  O   UNL d   1      26.433 -15.579  -5.396  0.00  0.00    -0.532 OA
ENDBRANCH  11  12
ENDBRANCH   5   6
ENDBRANCH   2   5
BRANCH   1  15
ATOM     15  N   UNL d   1      22.339 -18.931  -0.137  0.00  0.00    -0.249 N 
ATOM     16  C   UNL d   1      20.990 -19.204  -0.055  0.00  0.00     0.335 C 
ATOM     17  N   UNL d   1      20.655 -20.348   0.642  0.00  0.00    -0.338 N 
ATOM     18  O   UNL d   1      20.156 -18.448  -0.562  0.00  0.00    -0.246 OA
ATOM     19  H   UNL d   1      21.389 -20.957   0.977  0.00  0.00     0.164 HD
ATOM     20  H   UNL d   1      23.075 -19.525   0.234  0.00  0.00     0.192 HD
BRANCH  17  21
ATOM     21  C   UNL d   1      19.254 -20.763   0.840  0.00  0.00     0.078 C 
ATOM     22  C   UNL d   1      18.593 -20.096   2.056  0.00  0.00     0.032 C 
ATOM     23  C   UNL d   1      18.402 -20.449  -0.393  0.00  0.00     0.032 C 
ENDBRANCH  17  21
ENDBRANCH   1  15
TORSDOF 5
ENDMDL
MODEL 2
REMARK VINA RESULT:    -6.733      1.440      2.100
REMARK INTER + INTRA:         -10.600
REMARK INTER:                  -8.224
REMARK INTRA:                  -2.376
REMARK CONF_INDEPENDENT:        1.492
REMARK UNBOUND:                -2.376
REMARK  5 active torsions:
REMARK  status: ('A' for Active; 'I' for Inactive)
REMARK    1  A    between atoms: C_2  and  N_4 
REMARK       I    between atoms: N_4  and  C_5 
REMARK       I    between atoms: C_5  and  N_7 
REMARK    2  A    between atoms: N_7  and  N_8 
REMARK       I    between atoms: N_8  and  C_9 
REMARK    3  A    between atoms: C_9  and  C_11 
REMARK    4  A    between atoms: C_11  and  C_12 
REMARK    5  A    between atoms: C_17  and  N_18 
ROOT
ATOM      1  N   UNL d   1      24.486 -16.921  -0.655  0.00  0.00    -0.266 N 
ATOM      2  C   UNL d   1      25.862 -16.899  -0.539  0.00  0.00     0.240 C 
ATOM      3  O   UNL d   1      26.476 -17.880  -0.105  0.00  0.00    -0.272 OA
ATOM      4  H   UNL d   1      23.918 -16.120  -0.925  0.00  0.00     0.190 HD
ENDROOT
BRANCH   2   5
ATOM      5  C   UNL d   1      26.583 -15.603  -0.995  0.00  0.00     0.145 C 
BRANCH   5   6
ATOM      6  C   UNL d   1      27.173 -15.787  -2.394  0.00  0.00    -0.016 A 
ATOM      7  C   UNL d   1      28.489 -16.288  -2.506  0.00  0.00     0.010 A 
ATOM      8  C   UNL d   1      29.211 -16.159  -3.699  0.00  0.00     0.001 A 
ATOM      9  C   UNL d   1      28.609 -15.614  -4.828  0.00  0.00     0.002 A 
ATOM     10  C   UNL d   1      27.282 -15.189  -4.768  0.00  0.00     0.037 A 
ATOM     11  C   UNL d   1      26.556 -15.279  -3.564  0.00  0.00     0.109 A 
BRANCH  11  12
ATOM     12  N   UNL d   1      25.153 -14.803  -3.588  0.00  0.00    -0.115 N 
ATOM     13  O   UNL d   1      24.420 -15.119  -2.644  0.00  0.00    -0.532 OA
ATOM     14  O   UNL d   1      24.785 -14.075  -4.523  0.00  0.00    -0.532 OA
ENDBRANCH  11  12
ENDBRANCH   5   6
ENDBRANCH   2   5
BRANCH   1  15
ATOM     15  N   UNL d   1      23.763 -18.091  -0.251  0.00  0.00    -0.249 N 
ATOM     16  C   UNL d   1      22.386 -18.073  -0.317  0.00  0.00     0.335 C 
ATOM     17  N   UNL d   1      21.755 -19.227   0.103  0.00  0.00    -0.338 N 
ATOM     18  O   UNL d   1      21.781 -17.072  -0.710  0.00  0.00    -0.246 OA
ATOM     19  H   UNL d   1      22.311 -20.033   0.351  0.00  0.00     0.164 HD
ATOM     20  H   UNL d   1      24.320 -18.891   0.035  0.00  0.00     0.192 HD
BRANCH  17  21
ATOM     21  C   UNL d   1      20.286 -19.356   0.117  0.00  0.00     0.078 C 
ATOM     22  C   UNL d   1      19.696 -19.677  -1.265  0.00  0.00     0.032 C 
ATOM     23  C   UNL d   1      19.831 -20.446   1.090  0.00  0.00     0.032 C 
ENDBRANCH  17  21
ENDBRANCH   1  15
TORSDOF 5
ENDMDL
MODEL 3
REMARK VINA RESULT:    -6.516      1.767      2.042
REMARK INTER + INTRA:         -10.519
REMARK INTER:                  -8.008
REMARK INTRA:                  -2.511
REMARK CONF_INDEPENDENT:        1.492
REMARK UNBOUND:                -2.511
REMARK  5 active torsions:
REMARK  status: ('A' for Active; 'I' for Inactive)
REMARK    1  A    between atoms: C_2  and  N_4 
REMARK       I    between atoms: N_4  and  C_5 
REMARK       I    between atoms: C_5  and  N_7 
REMARK    2  A    between atoms: N_7  and  N_8 
REMARK       I    between atoms: N_8  and  C_9 
REMARK    3  A    between atoms: C_9  and  C_11 
REMARK    4  A    between atoms: C_11  and  C_12 
REMARK    5  A    between atoms: C_17  and  N_18 
ROOT
ATOM      1  N   UNL d   1      24.580 -18.345  -0.614  0.00  0.00    -0.266 N 
ATOM      2  C   UNL d   1      25.775 -18.081   0.027  0.00  0.00     0.240 C 
ATOM      3  O   UNL d   1      25.890 -18.251   1.245  0.00  0.00    -0.272 OA
ATOM      4  H   UNL d   1      24.397 -18.147  -1.596  0.00  0.00     0.190 HD
ENDROOT
BRANCH   2   5
ATOM      5  C   UNL d   1      26.950 -17.586  -0.858  0.00  0.00     0.145 C 
BRANCH   5   6
ATOM      6  C   UNL d   1      26.991 -16.058  -0.880  0.00  0.00    -0.016 A 
ATOM      7  C   UNL d   1      27.683 -15.391   0.155  0.00  0.00     0.010 A 
ATOM      8  C   UNL d   1      27.479 -14.027   0.398  0.00  0.00     0.001 A 
ATOM      9  C   UNL d   1      26.655 -13.281  -0.438  0.00  0.00     0.002 A 
ATOM     10  C   UNL d   1      26.026 -13.898  -1.519  0.00  0.00     0.037 A 
ATOM     11  C   UNL d   1      26.194 -15.277  -1.753  0.00  0.00     0.109 A 
BRANCH  11  12
ATOM     12  N   UNL d   1      25.487 -15.851  -2.921  0.00  0.00    -0.115 N 
ATOM     13  O   UNL d   1      24.918 -16.939  -2.775  0.00  0.00    -0.532 OA
ATOM     14  O   UNL d   1      25.457 -15.203  -3.979  0.00  0.00    -0.532 OA
ENDBRANCH  11  12
ENDBRANCH   5   6
ENDBRANCH   2   5
BRANCH   1  15
ATOM     15  N   UNL d   1      23.458 -18.806   0.150  0.00  0.00    -0.249 N 
ATOM     16  C   UNL d   1      22.332 -19.234  -0.523  0.00  0.00     0.335 C 
ATOM     17  N   UNL d   1      21.284 -19.649   0.276  0.00  0.00    -0.338 N 
ATOM     18  O   UNL d   1      22.283 -19.218  -1.755  0.00  0.00    -0.246 OA
ATOM     19  H   UNL d   1      21.413 -19.698   1.277  0.00  0.00     0.164 HD
ATOM     20  H   UNL d   1      23.572 -18.821   1.159  0.00  0.00     0.192 HD
BRANCH  17  21
ATOM     21  C   UNL d   1      20.004 -20.111  -0.291  0.00  0.00     0.078 C 
ATOM     22  C   UNL d   1      19.107 -20.815   0.740  0.00  0.00     0.032 C 
ATOM     23  C   UNL d   1      19.210 -18.950  -0.893  0.00  0.00     0.032 C 
ENDBRANCH  17  21
ENDBRANCH   1  15
TORSDOF 5
ENDMDL
MODEL 4
REMARK VINA RESULT:    -6.467      1.951      2.557
REMARK INTER + INTRA:          -9.799
REMARK INTER:                  -7.958
REMARK INTRA:                  -1.841
REMARK CONF_INDEPENDENT:        1.492
REMARK UNBOUND:                -1.841
REMARK  5 active torsions:
REMARK  status: ('A' for Active; 'I' for Inactive)
REMARK    1  A    between atoms: C_2  and  N_4 
REMARK       I    between atoms: N_4  and  C_5 
REMARK       I    between atoms: C_5  and  N_7 
REMARK    2  A    between atoms: N_7  and  N_8 
REMARK       I    between atoms: N_8  and  C_9 
REMARK    3  A    between atoms: C_9  and  C_11 
REMARK    4  A    between atoms: C_11  and  C_12 
REMARK    5  A    between atoms: C_17  and  N_18 
ROOT
ATOM      1  N   UNL d   1      24.794 -17.156  -1.352  0.00  0.00    -0.266 N 
ATOM      2  C   UNL d   1      25.664 -16.105  -1.141  0.00  0.00     0.240 C 
ATOM      3  O   UNL d   1      25.505 -15.334  -0.189  0.00  0.00    -0.272 OA
ATOM      4  H   UNL d   1      24.821 -17.774  -2.161  0.00  0.00     0.190 HD
ENDROOT
BRANCH   2   5
ATOM      5  C   UNL d   1      26.843 -15.961  -2.138  0.00  0.00     0.145 C 
BRANCH   5   6
ATOM      6  C   UNL d   1      27.068 -14.490  -2.488  0.00  0.00    -0.016 A 
ATOM      7  C   UNL d   1      28.068 -13.780  -1.787  0.00  0.00     0.010 A 
ATOM      8  C   UNL d   1      28.100 -12.380  -1.797  0.00  0.00     0.001 A 
ATOM      9  C   UNL d   1      27.196 -11.662  -2.574  0.00  0.00     0.002 A 
ATOM     10  C   UNL d   1      26.252 -12.342  -3.341  0.00  0.00     0.037 A 
ATOM     11  C   UNL d   1      26.185 -13.749  -3.312  0.00  0.00     0.109 A 
BRANCH  11  12
ATOM     12  N   UNL d   1      25.150 -14.390  -4.156  0.00  0.00    -0.115 N 
ATOM     13  O   UNL d   1      25.514 -15.254  -4.961  0.00  0.00    -0.532 OA
ATOM     14  O   UNL d   1      23.962 -14.070  -3.991  0.00  0.00    -0.532 OA
ENDBRANCH  11  12
ENDBRANCH   5   6
ENDBRANCH   2   5
BRANCH   1  15
ATOM     15  N   UNL d   1      23.684 -17.343  -0.463  0.00  0.00    -0.249 N 
ATOM     16  C   UNL d   1      22.803 -18.374  -0.712  0.00  0.00     0.335 C 
ATOM     17  N   UNL d   1      21.750 -18.484   0.175  0.00  0.00    -0.338 N 
ATOM     18  O   UNL d   1      22.957 -19.122  -1.681  0.00  0.00    -0.246 OA
ATOM     19  H   UNL d   1      21.718 -17.879   0.984  0.00  0.00     0.164 HD
ATOM     20  H   UNL d   1      23.629 -16.711   0.331  0.00  0.00     0.192 HD
BRANCH  17  21
ATOM     21  C   UNL d   1      20.709 -19.519   0.030  0.00  0.00     0.078 C 
ATOM     22  C   UNL d   1      20.091 -19.944   1.371  0.00  0.00     0.032 C 
ATOM     23  C   UNL d   1      19.577 -19.046  -0.884  0.00  0.00     0.032 C 
ENDBRANCH  17  21
ENDBRANCH   1  15
TORSDOF 5
ENDMDL
