MODEL 1
REMARK VINA RESULT:    -9.722      0.000      0.000
REMARK INTER + INTRA:         -13.312
REMARK INTER:                 -11.512
REMARK INTRA:                  -1.800
REMARK CONF_INDEPENDENT:        1.790
REMARK UNBOUND:                -1.800
REMARK  6 active torsions:
REMARK  status: ('A' for Active; 'I' for Inactive)
REMARK    1  A    between atoms: C_2  and  O_3 
REMARK    2  A    between atoms: C_2  and  C_16 
REMARK    3  A    between atoms: O_3  and  C_4 
REMARK    4  A    between atoms: C_4  and  C_6 
REMARK    5  A    between atoms: C_9  and  N_10 
REMARK       I    between atoms: N_10  and  C_11 
REMARK       I    between atoms: C_11  and  N_12 
REMARK       I    between atoms: C_16  and  N_18 
REMARK    6  A    between atoms: N_18  and  C_19 
ROOT
ATOM      1  C   UNL d   1      25.429 -16.065  -1.816  0.00  0.00     0.294 C 
ATOM      2  O   UNL d   1      26.618 -16.176  -1.595  0.00  0.00    -0.259 OA
ENDROOT
BRANCH   1   3
ATOM      3  O   UNL d   1      24.839 -15.328  -2.803  0.00  0.00    -0.303 OA
BRANCH   3   4
ATOM      4  C   UNL d   1      25.703 -14.389  -3.480  0.00  0.00     0.220 C 
ATOM      5  C   UNL d   1      24.889 -13.451  -4.387  0.00  0.00     0.050 C 
BRANCH   4   6
ATOM      6  C   UNL d   1      26.698 -15.137  -4.408  0.00  0.00     0.251 C 
ATOM      7  O   UNL d   1      26.335 -15.568  -5.504  0.00  0.00    -0.270 OA
ATOM      8  N   UNL d   1      27.993 -15.323  -3.929  0.00  0.00    -0.323 N 
ATOM      9  H   UNL d   1      28.133 -15.315  -2.927  0.00  0.00     0.169 HD
BRANCH   8  10
ATOM     10  C   UNL d   1      28.988 -15.947  -4.743  0.00  0.00     0.056 A 
ATOM     11  C   UNL d   1      29.657 -17.078  -4.246  0.00  0.00     0.031 A 
ATOM     12  C   UNL d   1      30.655 -17.712  -5.006  0.00  0.00     0.002 A 
ATOM     13  C   UNL d   1      30.967 -17.250  -6.282  0.00  0.00     0.002 A 
ATOM     14  C   UNL d   1      30.324 -16.122  -6.781  0.00  0.00     0.026 A 
ATOM     15  C   UNL d   1      29.354 -15.461  -6.016  0.00  0.00     0.060 A 
ATOM     16 CL   UNL d   1      28.790 -13.950  -6.656  0.00  0.00    -0.082 Cl
ENDBRANCH   8  10
ENDBRANCH   4   6
ENDBRANCH   3   4
ENDBRANCH   1   3
BRANCH   1  17
ATOM     17  C   UNL d   1      24.448 -16.855  -1.046  0.00  0.00     0.039 C 
ATOM     18  C   UNL d   1      24.667 -18.212  -0.759  0.00  0.00     0.020 C 
ATOM     19  C   UNL d   1      23.596 -19.036  -0.349  0.00  0.00     0.030 C 
ATOM     20  C   UNL d   1      22.308 -18.499  -0.203  0.00  0.00     0.036 C 
ATOM     21  C   UNL d   1      22.132 -17.165  -0.564  0.00  0.00     0.030 C 
ATOM     22  C   UNL d   1      23.182 -16.325  -0.904  0.00  0.00     0.020 C 
BRANCH  20  23
ATOM     23  N   UNL d   1      21.253 -19.294   0.300  0.00  0.00    -0.309 N 
ATOM     24  C   UNL d   1      19.968 -19.491  -0.116  0.00  0.00     0.318 C 
ATOM     25  N   UNL d   1      19.526 -18.947  -1.270  0.00  0.00    -0.352 N 
ATOM     26  O   UNL d   1      19.198 -20.192   0.540  0.00  0.00    -0.247 OA
ATOM     27  H   UNL d   1      19.813 -18.023  -1.535  0.00  0.00     0.160 HD
ATOM     28  H   UNL d   1      18.546 -19.101  -1.465  0.00  0.00     0.160 HD
ATOM     29  H   UNL d   1      21.422 -19.781   1.175  0.00  0.00     0.170 HD
ENDBRANCH  20  23
ENDBRANCH   1  17
TORSDOF 6
ENDMDL
MODEL 2
REMARK VINA RESULT:    -8.935      1.718      2.373
REMARK INTER + INTRA:         -11.802
REMARK INTER:                 -10.725
REMARK INTRA:                  -1.077
REMARK CONF_INDEPENDENT:        1.790
REMARK UNBOUND:                -1.077
REMARK  6 active torsions:
REMARK  status: ('A' for Active; 'I' for Inactive)
REMARK    1  A    between atoms: C_2  and  O_3 
REMARK    2  A    between atoms: C_2  and  C_16 
REMARK    3  A    between atoms: O_3  and  C_4 
REMARK    4  A    between atoms: C_4  and  C_6 
REMARK    5  A    between atoms: C_9  and  N_10 
REMARK       I    between atoms: N_10  and  C_11 
REMARK       I    between atoms: C_11  and  N_12 
REMARK       I    between atoms: C_16  and  N_18 
REMARK    6  A    between atoms: N_18  and  C_19 
ROOT
ATOM      1  C   UNL d   1      25.647 -16.290  -1.988  0.00  0.00     0.294 C 
ATOM      2  O   UNL d   1      26.804 -16.269  -1.618  0.00  0.00    -0.259 OA
ENDROOT
BRANCH   1   3
ATOM      3  O   UNL d   1      25.157 -15.850  -3.184  0.00  0.00    -0.303 OA
BRANCH   3   4
ATOM      4  C   UNL d   1      25.469 -14.481  -3.520  0.00  0.00     0.220 C 
ATOM      5  C   UNL d   1      24.195 -13.704  -3.895  0.00  0.00     0.050 C 
BRANCH   4   6
ATOM      6  C   UNL d   1      26.396 -14.423  -4.764  0.00  0.00     0.251 C 
ATOM      7  O   UNL d   1      26.420 -15.352  -5.574  0.00  0.00    -0.270 OA
ATOM      8  N   UNL d   1      27.212 -13.303  -4.894  0.00  0.00    -0.323 N 
ATOM      9  H   UNL d   1      27.446 -12.787  -4.056  0.00  0.00     0.169 HD
BRANCH   8  10
ATOM     10  C   UNL d   1      28.051 -13.142  -6.040  0.00  0.00     0.056 A 
ATOM     11  C   UNL d   1      27.736 -12.141  -6.975  0.00  0.00     0.031 A 
ATOM     12  C   UNL d   1      28.524 -11.960  -8.124  0.00  0.00     0.002 A 
ATOM     13  C   UNL d   1      29.654 -12.747  -8.333  0.00  0.00     0.002 A 
ATOM     14  C   UNL d   1      29.970 -13.751  -7.424  0.00  0.00     0.026 A 
ATOM     15  C   UNL d   1      29.170 -13.964  -6.294  0.00  0.00     0.060 A 
ATOM     16 CL   UNL d   1      29.541 -15.379  -5.363  0.00  0.00    -0.082 Cl
ENDBRANCH   8  10
ENDBRANCH   4   6
ENDBRANCH   3   4
ENDBRANCH   1   3
BRANCH   1  17
ATOM     17  C   UNL d   1      24.608 -16.933  -1.160  0.00  0.00     0.039 C 
ATOM     18  C   UNL d   1      24.810 -18.201  -0.591  0.00  0.00     0.020 C 
ATOM     19  C   UNL d   1      23.712 -18.952  -0.115  0.00  0.00     0.030 C 
ATOM     20  C   UNL d   1      22.413 -18.425  -0.187  0.00  0.00     0.036 C 
ATOM     21  C   UNL d   1      22.262 -17.194  -0.820  0.00  0.00     0.030 C 
ATOM     22  C   UNL d   1      23.332 -16.415  -1.232  0.00  0.00     0.020 C 
BRANCH  20  23
ATOM     23  N   UNL d   1      21.323 -19.128   0.376  0.00  0.00    -0.309 N 
ATOM     24  C   UNL d   1      20.043 -19.337  -0.049  0.00  0.00     0.318 C 
ATOM     25  N   UNL d   1      19.645 -18.918  -1.269  0.00  0.00    -0.352 N 
ATOM     26  O   UNL d   1      19.237 -19.936   0.662  0.00  0.00    -0.247 OA
ATOM     27  H   UNL d   1      19.965 -18.039  -1.630  0.00  0.00     0.160 HD
ATOM     28  H   UNL d   1      18.665 -19.068  -1.472  0.00  0.00     0.160 HD
ATOM     29  H   UNL d   1      21.457 -19.514   1.306  0.00  0.00     0.170 HD
ENDBRANCH  20  23
ENDBRANCH   1  17
TORSDOF 6
ENDMDL
MODEL 3
REMARK VINA RESULT:    -8.634      1.477      2.338
REMARK INTER + INTRA:         -12.537
REMARK INTER:                 -10.424
REMARK INTRA:                  -2.113
REMARK CONF_INDEPENDENT:        1.790
REMARK UNBOUND:                -2.113
REMARK  6 active torsions:
REMARK  status: ('A' for Active; 'I' for Inactive)
REMARK    1  A    between atoms: C_2  and  O_3 
REMARK    2  A    between atoms: C_2  and  C_16 
REMARK    3  A    between atoms: O_3  and  C_4 
REMARK    4  A    between atoms: C_4  and  C_6 
REMARK    5  A    between atoms: C_9  and  N_10 
REMARK       I    between atoms: N_10  and  C_11 
REMARK       I    between atoms: C_11  and  N_12 
REMARK       I    between atoms: C_16  and  N_18 
REMARK    6  A    between atoms: N_18  and  C_19 
ROOT
ATOM      1  C   UNL d   1      24.976 -15.818  -1.654  0.00  0.00     0.294 C 
ATOM      2  O   UNL d   1      24.707 -15.365  -2.749  0.00  0.00    -0.259 OA
ENDROOT
BRANCH   1   3
ATOM      3  O   UNL d   1      26.023 -15.463  -0.852  0.00  0.00    -0.303 OA
BRANCH   3   4
ATOM      4  C   UNL d   1      27.192 -16.306  -0.945  0.00  0.00     0.220 C 
ATOM      5  C   UNL d   1      28.132 -16.074   0.250  0.00  0.00     0.050 C 
BRANCH   4   6
ATOM      6  C   UNL d   1      28.012 -15.962  -2.218  0.00  0.00     0.251 C 
ATOM      7  O   UNL d   1      29.228 -16.160  -2.256  0.00  0.00    -0.270 OA
ATOM      8  N   UNL d   1      27.318 -15.395  -3.283  0.00  0.00    -0.323 N 
ATOM      9  H   UNL d   1      26.457 -14.905  -3.081  0.00  0.00     0.169 HD
BRANCH   8  10
ATOM     10  C   UNL d   1      27.985 -15.104  -4.514  0.00  0.00     0.056 A 
ATOM     11  C   UNL d   1      29.022 -15.951  -4.939  0.00  0.00     0.031 A 
ATOM     12  C   UNL d   1      29.714 -15.692  -6.134  0.00  0.00     0.002 A 
ATOM     13  C   UNL d   1      29.356 -14.611  -6.935  0.00  0.00     0.002 A 
ATOM     14  C   UNL d   1      28.342 -13.754  -6.519  0.00  0.00     0.026 A 
ATOM     15  C   UNL d   1      27.670 -13.982  -5.311  0.00  0.00     0.060 A 
ATOM     16 CL   UNL d   1      26.586 -12.727  -4.801  0.00  0.00    -0.082 Cl
ENDBRANCH   8  10
ENDBRANCH   4   6
ENDBRANCH   3   4
ENDBRANCH   1   3
BRANCH   1  17
ATOM     17  C   UNL d   1      24.074 -16.785  -1.001  0.00  0.00     0.039 C 
ATOM     18  C   UNL d   1      24.457 -18.122  -0.805  0.00  0.00     0.020 C 
ATOM     19  C   UNL d   1      23.486 -19.107  -0.517  0.00  0.00     0.030 C 
ATOM     20  C   UNL d   1      22.133 -18.751  -0.402  0.00  0.00     0.036 C 
ATOM     21  C   UNL d   1      21.800 -17.426  -0.671  0.00  0.00     0.030 C 
ATOM     22  C   UNL d   1      22.745 -16.435  -0.889  0.00  0.00     0.020 C 
BRANCH  20  23
ATOM     23  N   UNL d   1      21.170 -19.713  -0.019  0.00  0.00    -0.309 N 
ATOM     24  C   UNL d   1      19.854 -19.879  -0.340  0.00  0.00     0.318 C 
ATOM     25  N   UNL d   1      19.266 -19.090  -1.265  0.00  0.00    -0.352 N 
ATOM     26  O   UNL d   1      19.188 -20.770   0.187  0.00  0.00    -0.247 OA
ATOM     27  H   UNL d   1      19.488 -18.113  -1.309  0.00  0.00     0.160 HD
ATOM     28  H   UNL d   1      18.276 -19.252  -1.394  0.00  0.00     0.160 HD
ATOM     29  H   UNL d   1      21.454 -20.393   0.681  0.00  0.00     0.170 HD
ENDBRANCH  20  23
ENDBRANCH   1  17
TORSDOF 6
ENDMDL
MODEL 4
REMARK VINA RESULT:    -8.417      4.733      6.371
REMARK INTER + INTRA:         -12.457
REMARK INTER:                 -10.207
REMARK INTRA:                  -2.250
REMARK CONF_INDEPENDENT:        1.790
REMARK UNBOUND:                -2.250
REMARK  6 active torsions:
REMARK  status: ('A' for Active; 'I' for Inactive)
REMARK    1  A    between atoms: C_2  and  O_3 
REMARK    2  A    between atoms: C_2  and  C_16 
REMARK    3  A    between atoms: O_3  and  C_4 
REMARK    4  A    between atoms: C_4  and  C_6 
REMARK    5  A    between atoms: C_9  and  N_10 
REMARK       I    between atoms: N_10  and  C_11 
REMARK       I    between atoms: C_11  and  N_12 
REMARK       I    between atoms: C_16  and  N_18 
REMARK    6  A    between atoms: N_18  and  C_19 
ROOT
ATOM      1  C   UNL d   1      26.548 -16.842   0.346  0.00  0.00     0.294 C 
ATOM      2  O   UNL d   1      27.011 -17.452   1.289  0.00  0.00    -0.259 OA
ENDROOT
BRANCH   1   3
ATOM      3  O   UNL d   1      27.129 -15.809  -0.333  0.00  0.00    -0.303 OA
BRANCH   3   4
ATOM      4  C   UNL d   1      26.579 -14.500  -0.068  0.00  0.00     0.220 C 
ATOM      5  C   UNL d   1      27.006 -13.497  -1.152  0.00  0.00     0.050 C 
BRANCH   4   6
ATOM      6  C   UNL d   1      27.118 -13.946   1.278  0.00  0.00     0.251 C 
ATOM      7  O   UNL d   1      26.988 -12.754   1.565  0.00  0.00    -0.270 OA
ATOM      8  N   UNL d   1      27.776 -14.843   2.115  0.00  0.00    -0.323 N 
ATOM      9  H   UNL d   1      28.193 -15.664   1.696  0.00  0.00     0.169 HD
BRANCH   8  10
ATOM     10  C   UNL d   1      28.249 -14.429   3.399  0.00  0.00     0.056 A 
ATOM     11  C   UNL d   1      27.312 -14.102   4.393  0.00  0.00     0.031 A 
ATOM     12  C   UNL d   1      27.734 -13.674   5.663  0.00  0.00     0.002 A 
ATOM     13  C   UNL d   1      29.091 -13.606   5.967  0.00  0.00     0.002 A 
ATOM     14  C   UNL d   1      30.031 -13.912   4.988  0.00  0.00     0.026 A 
ATOM     15  C   UNL d   1      29.621 -14.304   3.708  0.00  0.00     0.060 A 
ATOM     16 CL   UNL d   1      30.879 -14.442   2.521  0.00  0.00    -0.082 Cl
ENDBRANCH   8  10
ENDBRANCH   4   6
ENDBRANCH   3   4
ENDBRANCH   1   3
BRANCH   1  17
ATOM     17  C   UNL d   1      25.268 -17.259  -0.259  0.00  0.00     0.039 C 
ATOM     18  C   UNL d   1      24.288 -16.318  -0.614  0.00  0.00     0.020 C 
ATOM     19  C   UNL d   1      22.958 -16.729  -0.852  0.00  0.00     0.030 C 
ATOM     20  C   UNL d   1      22.611 -18.085  -0.756  0.00  0.00     0.036 C 
ATOM     21  C   UNL d   1      23.605 -18.966  -0.337  0.00  0.00     0.030 C 
ATOM     22  C   UNL d   1      24.929 -18.592  -0.165  0.00  0.00     0.020 C 
BRANCH  20  23
ATOM     23  N   UNL d   1      21.305 -18.516  -1.087  0.00  0.00    -0.309 N 
ATOM     24  C   UNL d   1      20.471 -19.442  -0.531  0.00  0.00     0.318 C 
ATOM     25  N   UNL d   1      20.808 -20.072   0.615  0.00  0.00    -0.352 N 
ATOM     26  O   UNL d   1      19.386 -19.698  -1.049  0.00  0.00    -0.247 OA
ATOM     27  H   UNL d   1      21.757 -20.355   0.776  0.00  0.00     0.160 HD
ATOM     28  H   UNL d   1      20.153 -20.781   0.919  0.00  0.00     0.160 HD
ATOM     29  H   UNL d   1      20.896 -18.132  -1.934  0.00  0.00     0.170 HD
ENDBRANCH  20  23
ENDBRANCH   1  17
TORSDOF 6
ENDMDL
MODEL 5
REMARK VINA RESULT:    -8.360      1.895      2.842
REMARK INTER + INTRA:         -12.368
REMARK INTER:                 -10.149
REMARK INTRA:                  -2.219
REMARK CONF_INDEPENDENT:        1.790
REMARK UNBOUND:                -2.219
REMARK  6 active torsions:
REMARK  status: ('A' for Active; 'I' for Inactive)
REMARK    1  A    between atoms: C_2  and  O_3 
REMARK    2  A    between atoms: C_2  and  C_16 
REMARK    3  A    between atoms: O_3  and  C_4 
REMARK    4  A    between atoms: C_4  and  C_6 
REMARK    5  A    between atoms: C_9  and  N_10 
REMARK       I    between atoms: N_10  and  C_11 
REMARK       I    between atoms: C_11  and  N_12 
REMARK       I    between atoms: C_16  and  N_18 
REMARK    6  A    between atoms: N_18  and  C_19 
ROOT
ATOM      1  C   UNL d   1      25.547 -16.580  -0.511  0.00  0.00     0.294 C 
ATOM      2  O   UNL d   1      25.607 -15.375  -0.656  0.00  0.00    -0.259 OA
ENDROOT
BRANCH   1   3
ATOM      3  O   UNL d   1      26.593 -17.445  -0.364  0.00  0.00    -0.303 OA
BRANCH   3   4
ATOM      4  C   UNL d   1      27.887 -16.832  -0.171  0.00  0.00     0.220 C 
ATOM      5  C   UNL d   1      27.827 -15.763   0.933  0.00  0.00     0.050 C 
BRANCH   4   6
ATOM      6  C   UNL d   1      28.340 -16.100  -1.463  0.00  0.00     0.251 C 
ATOM      7  O   UNL d   1      29.397 -15.466  -1.489  0.00  0.00    -0.270 OA
ATOM      8  N   UNL d   1      27.487 -16.168  -2.562  0.00  0.00    -0.323 N 
ATOM      9  H   UNL d   1      26.506 -16.343  -2.390  0.00  0.00     0.169 HD
BRANCH   8  10
ATOM     10  C   UNL d   1      27.857 -15.574  -3.809  0.00  0.00     0.056 A 
ATOM     11  C   UNL d   1      29.136 -15.834  -4.330  0.00  0.00     0.031 A 
ATOM     12  C   UNL d   1      29.546 -15.258  -5.543  0.00  0.00     0.002 A 
ATOM     13  C   UNL d   1      28.674 -14.449  -6.268  0.00  0.00     0.002 A 
ATOM     14  C   UNL d   1      27.410 -14.170  -5.757  0.00  0.00     0.026 A 
ATOM     15  C   UNL d   1      27.006 -14.710  -4.530  0.00  0.00     0.060 A 
ATOM     16 CL   UNL d   1      25.503 -14.113  -3.901  0.00  0.00    -0.082 Cl
ENDBRANCH   8  10
ENDBRANCH   4   6
ENDBRANCH   3   4
ENDBRANCH   1   3
BRANCH   1  17
ATOM     17  C   UNL d   1      24.241 -17.252  -0.367  0.00  0.00     0.039 C 
ATOM     18  C   UNL d   1      24.143 -18.652  -0.314  0.00  0.00     0.020 C 
ATOM     19  C   UNL d   1      22.902 -19.290  -0.535  0.00  0.00     0.030 C 
ATOM     20  C   UNL d   1      21.752 -18.526  -0.787  0.00  0.00     0.036 C 
ATOM     21  C   UNL d   1      21.917 -17.147  -0.895  0.00  0.00     0.030 C 
ATOM     22  C   UNL d   1      23.112 -16.501  -0.616  0.00  0.00     0.020 C 
BRANCH  20  23
ATOM     23  N   UNL d   1      20.490 -19.151  -0.912  0.00  0.00    -0.309 N 
ATOM     24  C   UNL d   1      19.774 -19.958  -0.075  0.00  0.00     0.318 C 
ATOM     25  N   UNL d   1      20.207 -20.206   1.180  0.00  0.00    -0.352 N 
ATOM     26  O   UNL d   1      18.708 -20.450  -0.441  0.00  0.00    -0.247 OA
ATOM     27  H   UNL d   1      21.184 -20.342   1.359  0.00  0.00     0.160 HD
ATOM     28  H   UNL d   1      19.639 -20.859   1.704  0.00  0.00     0.160 HD
ATOM     29  H   UNL d   1      20.020 -19.062  -1.808  0.00  0.00     0.170 HD
ENDBRANCH  20  23
ENDBRANCH   1  17
TORSDOF 6
ENDMDL
MODEL 6
REMARK VINA RESULT:    -8.358      4.527      6.306
REMARK INTER + INTRA:         -12.208
REMARK INTER:                 -10.148
REMARK INTRA:                  -2.059
REMARK CONF_INDEPENDENT:        1.790
REMARK UNBOUND:                -2.059
REMARK  6 active torsions:
REMARK  status: ('A' for Active; 'I' for Inactive)
REMARK    1  A    between atoms: C_2  and  O_3 
REMARK    2  A    between atoms: C_2  and  C_16 
REMARK    3  A    between atoms: O_3  and  C_4 
REMARK    4  A    between atoms: C_4  and  C_6 
REMARK    5  A    between atoms: C_9  and  N_10 
REMARK       I    between atoms: N_10  and  C_11 
REMARK       I    between atoms: C_11  and  N_12 
REMARK       I    between atoms: C_16  and  N_18 
REMARK    6  A    between atoms: N_18  and  C_19 
ROOT
ATOM      1  C   UNL d   1      26.260 -16.848   0.096  0.00  0.00     0.294 C 
ATOM      2  O   UNL d   1      26.785 -17.461   1.004  0.00  0.00    -0.259 OA
ENDROOT
BRANCH   1   3
ATOM      3  O   UNL d   1      26.796 -15.813  -0.617  0.00  0.00    -0.303 OA
BRANCH   3   4
ATOM      4  C   UNL d   1      28.226 -15.648  -0.496  0.00  0.00     0.220 C 
ATOM      5  C   UNL d   1      28.936 -17.012  -0.483  0.00  0.00     0.050 C 
BRANCH   4   6
ATOM      6  C   UNL d   1      28.582 -14.958   0.848  0.00  0.00     0.251 C 
ATOM      7  O   UNL d   1      29.743 -14.630   1.099  0.00  0.00    -0.270 OA
ATOM      8  N   UNL d   1      27.543 -14.763   1.755  0.00  0.00    -0.323 N 
ATOM      9  H   UNL d   1      26.736 -15.369   1.689  0.00  0.00     0.169 HD
BRANCH   8  10
ATOM     10  C   UNL d   1      27.772 -14.080   2.990  0.00  0.00     0.056 A 
ATOM     11  C   UNL d   1      28.143 -14.830   4.119  0.00  0.00     0.031 A 
ATOM     12  C   UNL d   1      28.361 -14.202   5.356  0.00  0.00     0.002 A 
ATOM     13  C   UNL d   1      28.250 -12.818   5.472  0.00  0.00     0.002 A 
ATOM     14  C   UNL d   1      27.868 -12.065   4.367  0.00  0.00     0.026 A 
ATOM     15  C   UNL d   1      27.612 -12.686   3.138  0.00  0.00     0.060 A 
ATOM     16 CL   UNL d   1      26.934 -11.671   1.906  0.00  0.00    -0.082 Cl
ENDBRANCH   8  10
ENDBRANCH   4   6
ENDBRANCH   3   4
ENDBRANCH   1   3
BRANCH   1  17
ATOM     17  C   UNL d   1      24.942 -17.261  -0.424  0.00  0.00     0.039 C 
ATOM     18  C   UNL d   1      23.955 -16.316  -0.745  0.00  0.00     0.020 C 
ATOM     19  C   UNL d   1      22.608 -16.714  -0.895  0.00  0.00     0.030 C 
ATOM     20  C   UNL d   1      22.251 -18.063  -0.746  0.00  0.00     0.036 C 
ATOM     21  C   UNL d   1      23.256 -18.947  -0.363  0.00  0.00     0.030 C 
ATOM     22  C   UNL d   1      24.592 -18.587  -0.277  0.00  0.00     0.020 C 
BRANCH  20  23
ATOM     23  N   UNL d   1      20.923 -18.483  -0.990  0.00  0.00    -0.309 N 
ATOM     24  C   UNL d   1      20.159 -19.483  -0.459  0.00  0.00     0.318 C 
ATOM     25  N   UNL d   1      20.618 -20.227   0.570  0.00  0.00    -0.352 N 
ATOM     26  O   UNL d   1      19.029 -19.704  -0.892  0.00  0.00    -0.247 OA
ATOM     27  H   UNL d   1      21.581 -20.504   0.603  0.00  0.00     0.160 HD
ATOM     28  H   UNL d   1      20.006 -20.979   0.857  0.00  0.00     0.160 HD
ATOM     29  H   UNL d   1      20.425 -18.018  -1.744  0.00  0.00     0.170 HD
ENDBRANCH  20  23
ENDBRANCH   1  17
TORSDOF 6
ENDMDL
MODEL 7
REMARK VINA RESULT:    -8.266      3.137      4.068
REMARK INTER + INTRA:         -11.915
REMARK INTER:                 -10.056
REMARK INTRA:                  -1.859
REMARK CONF_INDEPENDENT:        1.790
REMARK UNBOUND:                -1.859
REMARK  6 active torsions:
REMARK  status: ('A' for Active; 'I' for Inactive)
REMARK    1  A    between atoms: C_2  and  O_3 
REMARK    2  A    between atoms: C_2  and  C_16 
REMARK    3  A    between atoms: O_3  and  C_4 
REMARK    4  A    between atoms: C_4  and  C_6 
REMARK    5  A    between atoms: C_9  and  N_10 
REMARK       I    between atoms: N_10  and  C_11 
REMARK       I    between atoms: C_11  and  N_12 
REMARK       I    between atoms: C_16  and  N_18 
REMARK    6  A    between atoms: N_18  and  C_19 
ROOT
ATOM      1  C   UNL d   1      26.061 -16.889  -0.146  0.00  0.00     0.294 C 
ATOM      2  O   UNL d   1      26.985 -17.675  -0.203  0.00  0.00    -0.259 OA
ENDROOT
BRANCH   1   3
ATOM      3  O   UNL d   1      26.121 -15.573   0.213  0.00  0.00    -0.303 OA
BRANCH   3   4
ATOM      4  C   UNL d   1      27.424 -14.958   0.114  0.00  0.00     0.220 C 
ATOM      5  C   UNL d   1      27.721 -14.101   1.356  0.00  0.00     0.050 C 
BRANCH   4   6
ATOM      6  C   UNL d   1      27.480 -13.997  -1.104  0.00  0.00     0.251 C 
ATOM      7  O   UNL d   1      28.532 -13.432  -1.411  0.00  0.00    -0.270 OA
ATOM      8  N   UNL d   1      26.293 -13.783  -1.798  0.00  0.00    -0.323 N 
ATOM      9  H   UNL d   1      25.422 -13.936  -1.306  0.00  0.00     0.169 HD
BRANCH   8  10
ATOM     10  C   UNL d   1      26.270 -12.961  -2.968  0.00  0.00     0.056 A 
ATOM     11  C   UNL d   1      26.279 -11.565  -2.814  0.00  0.00     0.031 A 
ATOM     12  C   UNL d   1      26.240 -10.720  -3.935  0.00  0.00     0.002 A 
ATOM     13  C   UNL d   1      26.231 -11.257  -5.221  0.00  0.00     0.002 A 
ATOM     14  C   UNL d   1      26.206 -12.638  -5.388  0.00  0.00     0.026 A 
ATOM     15  C   UNL d   1      26.207 -13.488  -4.275  0.00  0.00     0.060 A 
ATOM     16 CL   UNL d   1      25.952 -15.171  -4.611  0.00  0.00    -0.082 Cl
ENDBRANCH   8  10
ENDBRANCH   4   6
ENDBRANCH   3   4
ENDBRANCH   1   3
BRANCH   1  17
ATOM     17  C   UNL d   1      24.711 -17.287  -0.591  0.00  0.00     0.039 C 
ATOM     18  C   UNL d   1      23.692 -16.337  -0.768  0.00  0.00     0.020 C 
ATOM     19  C   UNL d   1      22.341 -16.745  -0.841  0.00  0.00     0.030 C 
ATOM     20  C   UNL d   1      22.011 -18.106  -0.760  0.00  0.00     0.036 C 
ATOM     21  C   UNL d   1      23.052 -18.999  -0.519  0.00  0.00     0.030 C 
ATOM     22  C   UNL d   1      24.387 -18.625  -0.511  0.00  0.00     0.020 C 
BRANCH  20  23
ATOM     23  N   UNL d   1      20.672 -18.529  -0.930  0.00  0.00    -0.309 N 
ATOM     24  C   UNL d   1      19.944 -19.536  -0.364  0.00  0.00     0.318 C 
ATOM     25  N   UNL d   1      20.464 -20.285   0.633  0.00  0.00    -0.352 N 
ATOM     26  O   UNL d   1      18.792 -19.758  -0.731  0.00  0.00    -0.247 OA
ATOM     27  H   UNL d   1      21.428 -20.559   0.608  0.00  0.00     0.160 HD
ATOM     28  H   UNL d   1      19.871 -21.041   0.949  0.00  0.00     0.160 HD
ATOM     29  H   UNL d   1      20.131 -18.061  -1.651  0.00  0.00     0.170 HD
ENDBRANCH  20  23
ENDBRANCH   1  17
TORSDOF 6
ENDMDL
MODEL 8
REMARK VINA RESULT:    -8.194      2.219      3.204
REMARK INTER + INTRA:         -12.330
REMARK INTER:                  -9.984
REMARK INTRA:                  -2.346
REMARK CONF_INDEPENDENT:        1.790
REMARK UNBOUND:                -2.346
REMARK  6 active torsions:
REMARK  status: ('A' for Active; 'I' for Inactive)
REMARK    1  A    between atoms: C_2  and  O_3 
REMARK    2  A    between atoms: C_2  and  C_16 
REMARK    3  A    between atoms: O_3  and  C_4 
REMARK    4  A    between atoms: C_4  and  C_6 
REMARK    5  A    between atoms: C_9  and  N_10 
REMARK       I    between atoms: N_10  and  C_11 
REMARK       I    between atoms: C_11  and  N_12 
REMARK       I    between atoms: C_16  and  N_18 
REMARK    6  A    between atoms: N_18  and  C_19 
ROOT
ATOM      1  C   UNL d   1      25.013 -15.953  -1.836  0.00  0.00     0.294 C 
ATOM      2  O   UNL d   1      24.633 -14.842  -2.147  0.00  0.00    -0.259 OA
ENDROOT
BRANCH   1   3
ATOM      3  O   UNL d   1      26.263 -16.475  -2.009  0.00  0.00    -0.303 OA
BRANCH   3   4
ATOM      4  C   UNL d   1      27.357 -15.610  -1.635  0.00  0.00     0.220 C 
ATOM      5  C   UNL d   1      27.131 -15.015  -0.235  0.00  0.00     0.050 C 
BRANCH   4   6
ATOM      6  C   UNL d   1      27.457 -14.407  -2.610  0.00  0.00     0.251 C 
ATOM      7  O   UNL d   1      28.115 -13.408  -2.312  0.00  0.00    -0.270 OA
ATOM      8  N   UNL d   1      26.748 -14.499  -3.805  0.00  0.00    -0.323 N 
ATOM      9  H   UNL d   1      25.948 -15.117  -3.835  0.00  0.00     0.169 HD
BRANCH   8  10
ATOM     10  C   UNL d   1      26.835 -13.463  -4.786  0.00  0.00     0.056 A 
ATOM     11  C   UNL d   1      25.921 -12.396  -4.726  0.00  0.00     0.031 A 
ATOM     12  C   UNL d   1      25.960 -11.366  -5.679  0.00  0.00     0.002 A 
ATOM     13  C   UNL d   1      26.931 -11.366  -6.678  0.00  0.00     0.002 A 
ATOM     14  C   UNL d   1      27.832 -12.424  -6.759  0.00  0.00     0.026 A 
ATOM     15  C   UNL d   1      27.778 -13.475  -5.835  0.00  0.00     0.060 A 
ATOM     16 CL   UNL d   1      28.805 -14.831  -6.175  0.00  0.00    -0.082 Cl
ENDBRANCH   8  10
ENDBRANCH   4   6
ENDBRANCH   3   4
ENDBRANCH   1   3
BRANCH   1  17
ATOM     17  C   UNL d   1      24.122 -16.869  -1.096  0.00  0.00     0.039 C 
ATOM     18  C   UNL d   1      24.463 -18.217  -0.897  0.00  0.00     0.020 C 
ATOM     19  C   UNL d   1      23.477 -19.153  -0.516  0.00  0.00     0.030 C 
ATOM     20  C   UNL d   1      22.152 -18.737  -0.311  0.00  0.00     0.036 C 
ATOM     21  C   UNL d   1      21.855 -17.405  -0.585  0.00  0.00     0.030 C 
ATOM     22  C   UNL d   1      22.821 -16.459  -0.895  0.00  0.00     0.020 C 
BRANCH  20  23
ATOM     23  N   UNL d   1      21.181 -19.649   0.164  0.00  0.00    -0.309 N 
ATOM     24  C   UNL d   1      19.886 -19.887  -0.194  0.00  0.00     0.318 C 
ATOM     25  N   UNL d   1      19.338 -19.256  -1.255  0.00  0.00    -0.352 N 
ATOM     26  O   UNL d   1      19.204 -20.701   0.427  0.00  0.00    -0.247 OA
ATOM     27  H   UNL d   1      19.551 -18.293  -1.435  0.00  0.00     0.160 HD
ATOM     28  H   UNL d   1      18.358 -19.455  -1.409  0.00  0.00     0.160 HD
ATOM     29  H   UNL d   1      21.436 -20.211   0.971  0.00  0.00     0.170 HD
ENDBRANCH  20  23
ENDBRANCH   1  17
TORSDOF 6
ENDMDL
MODEL 9
REMARK VINA RESULT:    -7.815      2.901      4.117
REMARK INTER + INTRA:         -11.774
REMARK INTER:                  -9.605
REMARK INTRA:                  -2.169
REMARK CONF_INDEPENDENT:        1.790
REMARK UNBOUND:                -2.169
REMARK  6 active torsions:
REMARK  status: ('A' for Active; 'I' for Inactive)
REMARK    1  A    between atoms: C_2  and  O_3 
REMARK    2  A    between atoms: C_2  and  C_16 
REMARK    3  A    between atoms: O_3  and  C_4 
REMARK    4  A    between atoms: C_4  and  C_6 
REMARK    5  A    between atoms: C_9  and  N_10 
REMARK       I    between atoms: N_10  and  C_11 
REMARK       I    between atoms: C_11  and  N_12 
REMARK       I    between atoms: C_16  and  N_18 
REMARK    6  A    between atoms: N_18  and  C_19 
ROOT
ATOM      1  C   UNL d   1      25.012 -15.938  -1.691  0.00  0.00     0.294 C 
ATOM      2  O   UNL d   1      24.714 -15.473  -2.774  0.00  0.00    -0.259 OA
ENDROOT
BRANCH   1   3
ATOM      3  O   UNL d   1      26.109 -15.632  -0.937  0.00  0.00    -0.303 OA
BRANCH   3   4
ATOM      4  C   UNL d   1      27.359 -15.558  -1.656  0.00  0.00     0.220 C 
ATOM      5  C   UNL d   1      28.552 -15.599  -0.687  0.00  0.00     0.050 C 
BRANCH   4   6
ATOM      6  C   UNL d   1      27.466 -14.213  -2.424  0.00  0.00     0.251 C 
ATOM      7  O   UNL d   1      28.559 -13.796  -2.814  0.00  0.00    -0.270 OA
ATOM      8  N   UNL d   1      26.287 -13.497  -2.616  0.00  0.00    -0.323 N 
ATOM      9  H   UNL d   1      25.524 -13.660  -1.972  0.00  0.00     0.169 HD
BRANCH   8  10
ATOM     10  C   UNL d   1      26.288 -12.280  -3.365  0.00  0.00     0.056 A 
ATOM     11  C   UNL d   1      25.903 -12.316  -4.716  0.00  0.00     0.031 A 
ATOM     12  C   UNL d   1      25.905 -11.146  -5.493  0.00  0.00     0.002 A 
ATOM     13  C   UNL d   1      26.253  -9.924  -4.924  0.00  0.00     0.002 A 
ATOM     14  C   UNL d   1      26.651  -9.874  -3.592  0.00  0.00     0.026 A 
ATOM     15  C   UNL d   1      26.687 -11.042  -2.818  0.00  0.00     0.060 A 
ATOM     16 CL   UNL d   1      27.408 -10.884  -1.248  0.00  0.00    -0.082 Cl
ENDBRANCH   8  10
ENDBRANCH   4   6
ENDBRANCH   3   4
ENDBRANCH   1   3
BRANCH   1  17
ATOM     17  C   UNL d   1      24.097 -16.865  -0.997  0.00  0.00     0.039 C 
ATOM     18  C   UNL d   1      24.460 -18.198  -0.748  0.00  0.00     0.020 C 
ATOM     19  C   UNL d   1      23.475 -19.155  -0.418  0.00  0.00     0.030 C 
ATOM     20  C   UNL d   1      22.128 -18.774  -0.315  0.00  0.00     0.036 C 
ATOM     21  C   UNL d   1      21.815 -17.456  -0.636  0.00  0.00     0.030 C 
ATOM     22  C   UNL d   1      22.774 -16.489  -0.896  0.00  0.00     0.020 C 
BRANCH  20  23
ATOM     23  N   UNL d   1      21.152 -19.705   0.110  0.00  0.00    -0.309 N 
ATOM     24  C   UNL d   1      19.850 -19.905  -0.250  0.00  0.00     0.318 C 
ATOM     25  N   UNL d   1      19.299 -19.199  -1.261  0.00  0.00    -0.352 N 
ATOM     26  O   UNL d   1      19.165 -20.750   0.323  0.00  0.00    -0.247 OA
ATOM     27  H   UNL d   1      19.521 -18.228  -1.379  0.00  0.00     0.160 HD
ATOM     28  H   UNL d   1      18.315 -19.376  -1.417  0.00  0.00     0.160 HD
ATOM     29  H   UNL d   1      21.407 -20.322   0.875  0.00  0.00     0.170 HD
ENDBRANCH  20  23
ENDBRANCH   1  17
TORSDOF 6
ENDMDL
