MODEL 1
REMARK VINA RESULT:    -8.393      0.000      0.000
REMARK INTER + INTRA:         -13.397
REMARK INTER:                 -10.481
REMARK INTRA:                  -2.915
REMARK CONF_INDEPENDENT:        2.088
REMARK UNBOUND:                -2.915
REMARK  7 active torsions:
REMARK  status: ('A' for Active; 'I' for Inactive)
REMARK    1  A    between atoms: C_2  and  N_5 
REMARK       I    between atoms: N_5  and  C_6 
REMARK    2  A    between atoms: C_8  and  C_6 
REMARK    3  A    between atoms: C_8  and  N_19 
REMARK    4  A    between atoms: C_8  and  C_9 
REMARK    5  A    between atoms: C_11  and  N_12 
REMARK       I    between atoms: N_19  and  C_20 
REMARK    6  A    between atoms: N_19  and  C_29 
REMARK    7  A    between atoms: C_20  and  C_22 
ROOT
ATOM      1  C   UNL d   1      26.961 -15.556  -1.148  0.00  0.00     0.220 C 
ENDROOT
BRANCH   1   2
ATOM      2  N   UNL d   1      25.513 -15.422  -1.552  0.00  0.00    -0.296 N 
ATOM      3  C   UNL d   1      24.907 -14.484  -2.461  0.00  0.00     0.259 C 
ATOM      4  O   UNL d   1      23.706 -14.450  -2.677  0.00  0.00    -0.267 OA
BRANCH   3   5
ATOM      5  C   UNL d   1      25.641 -13.367  -3.157  0.00  0.00     0.032 C 
ATOM      6  C   UNL d   1      26.346 -12.379  -2.468  0.00  0.00     0.018 C 
ATOM      7  C   UNL d   1      26.894 -11.271  -3.152  0.00  0.00     0.025 C 
ATOM      8  C   UNL d   1      26.804 -11.177  -4.539  0.00  0.00     0.034 C 
ATOM      9 CL   UNL d   1      27.272  -9.714  -5.328  0.00  0.00    -0.084 Cl
ATOM     10  C   UNL d   1      26.196 -12.207  -5.251  0.00  0.00     0.025 C 
ATOM     11  C   UNL d   1      25.636 -13.308  -4.565  0.00  0.00     0.018 C 
ENDBRANCH   3   5
BRANCH   2  12
ATOM     12  C   UNL d   1      24.666 -16.535  -1.082  0.00  0.00     0.038 A 
ATOM     13  C   UNL d   1      23.280 -16.405  -0.896  0.00  0.00     0.030 A 
ATOM     14  C   UNL d   1      22.516 -17.439  -0.317  0.00  0.00     0.002 A 
ATOM     15  C   UNL d   1      23.102 -18.657   0.014  0.00  0.00     0.000 A 
ATOM     16  C   UNL d   1      24.455 -18.832  -0.214  0.00  0.00     0.002 A 
ATOM     17  C   UNL d   1      25.217 -17.784  -0.744  0.00  0.00     0.030 A 
ENDBRANCH   2  12
ENDBRANCH   1   2
BRANCH   1  18
ATOM     18  C   UNL d   1      27.977 -15.835  -2.238  0.00  0.00    -0.002 A 
ATOM     19  C   UNL d   1      27.686 -15.349  -3.534  0.00  0.00     0.047 A 
ATOM     20  C   UNL d   1      28.518 -15.556  -4.620  0.00  0.00     0.103 A 
ATOM     21  C   UNL d   1      29.660 -16.333  -4.425  0.00  0.00     0.038 A 
ATOM     22  C   UNL d   1      29.960 -16.844  -3.137  0.00  0.00     0.027 A 
ATOM     23  C   UNL d   1      29.151 -16.563  -2.032  0.00  0.00     0.043 A 
ATOM     24 CL   UNL d   1      29.472 -17.404  -0.552  0.00  0.00    -0.084 Cl
BRANCH  20  25
ATOM     25  N   UNL d   1      27.985 -15.200  -5.954  0.00  0.00    -0.116 N 
ATOM     26  O   UNL d   1      26.765 -15.372  -6.145  0.00  0.00    -0.532 OA
ATOM     27  O   UNL d   1      28.774 -14.811  -6.816  0.00  0.00    -0.532 OA
ENDBRANCH  20  25
ENDBRANCH   1  18
BRANCH   1  28
ATOM     28  C   UNL d   1      27.667 -14.466  -0.280  0.00  0.00     0.246 C 
ATOM     29  N   UNL d   1      27.574 -14.563   1.110  0.00  0.00    -0.351 N 
ATOM     30  H   UNL d   1      27.490 -15.455   1.582  0.00  0.00     0.163 HD
ATOM     31  O   UNL d   1      28.145 -13.477  -0.837  0.00  0.00    -0.271 OA
BRANCH  29  32
ATOM     32  C   UNL d   1      27.494 -13.347   1.923  0.00  0.00     0.022 C 
ATOM     33  C   UNL d   1      28.755 -12.470   1.765  0.00  0.00     0.037 C 
ATOM     34  C   UNL d   1      27.404 -13.731   3.418  0.00  0.00     0.037 C 
ATOM     35  C   UNL d   1      26.280 -12.546   1.461  0.00  0.00     0.037 C 
ENDBRANCH  29  32
ENDBRANCH   1  28
TORSDOF 7
ENDMDL
MODEL 2
REMARK VINA RESULT:    -7.713      2.072      5.477
REMARK INTER + INTRA:         -12.894
REMARK INTER:                  -9.801
REMARK INTRA:                  -3.093
REMARK CONF_INDEPENDENT:        2.088
REMARK UNBOUND:                -3.093
REMARK  7 active torsions:
REMARK  status: ('A' for Active; 'I' for Inactive)
REMARK    1  A    between atoms: C_2  and  N_5 
REMARK       I    between atoms: N_5  and  C_6 
REMARK    2  A    between atoms: C_8  and  C_6 
REMARK    3  A    between atoms: C_8  and  N_19 
REMARK    4  A    between atoms: C_8  and  C_9 
REMARK    5  A    between atoms: C_11  and  N_12 
REMARK       I    between atoms: N_19  and  C_20 
REMARK    6  A    between atoms: N_19  and  C_29 
REMARK    7  A    between atoms: C_20  and  C_22 
ROOT
ATOM      1  C   UNL d   1      27.033 -15.109  -0.568  0.00  0.00     0.220 C 
ENDROOT
BRANCH   1   2
ATOM      2  N   UNL d   1      28.433 -15.141  -0.003  0.00  0.00    -0.296 N 
ATOM      3  C   UNL d   1      29.671 -15.465  -0.662  0.00  0.00     0.259 C 
ATOM      4  O   UNL d   1      30.744 -15.495  -0.082  0.00  0.00    -0.267 OA
BRANCH   3   5
ATOM      5  C   UNL d   1      29.787 -15.918  -2.094  0.00  0.00     0.032 C 
ATOM      6  C   UNL d   1      29.906 -17.261  -2.456  0.00  0.00     0.018 C 
ATOM      7  C   UNL d   1      30.162 -17.630  -3.796  0.00  0.00     0.025 C 
ATOM      8  C   UNL d   1      30.228 -16.664  -4.798  0.00  0.00     0.034 C 
ATOM      9 CL   UNL d   1      30.765 -17.108  -6.379  0.00  0.00    -0.084 Cl
ATOM     10  C   UNL d   1      30.006 -15.329  -4.470  0.00  0.00     0.025 C 
ATOM     11  C   UNL d   1      29.764 -14.961  -3.128  0.00  0.00     0.018 C 
ENDBRANCH   3   5
BRANCH   2  12
ATOM     12  C   UNL d   1      28.531 -14.575   1.357  0.00  0.00     0.038 A 
ATOM     13  C   UNL d   1      29.753 -14.450   2.038  0.00  0.00     0.030 A 
ATOM     14  C   UNL d   1      29.804 -14.036   3.384  0.00  0.00     0.002 A 
ATOM     15  C   UNL d   1      28.646 -13.657   4.057  0.00  0.00     0.000 A 
ATOM     16  C   UNL d   1      27.435 -13.715   3.390  0.00  0.00     0.002 A 
ATOM     17  C   UNL d   1      27.386 -14.174   2.069  0.00  0.00     0.030 A 
ENDBRANCH   2  12
ENDBRANCH   1   2
BRANCH   1  18
ATOM     18  C   UNL d   1      26.800 -14.310  -1.835  0.00  0.00    -0.002 A 
ATOM     19  C   UNL d   1      26.605 -15.039  -3.033  0.00  0.00     0.047 A 
ATOM     20  C   UNL d   1      26.406 -14.431  -4.259  0.00  0.00     0.103 A 
ATOM     21  C   UNL d   1      26.461 -13.038  -4.311  0.00  0.00     0.038 A 
ATOM     22  C   UNL d   1      26.674 -12.291  -3.125  0.00  0.00     0.027 A 
ATOM     23  C   UNL d   1      26.797 -12.914  -1.880  0.00  0.00     0.043 A 
ATOM     24 CL   UNL d   1      27.269 -11.944  -0.525  0.00  0.00    -0.084 Cl
BRANCH  20  25
ATOM     25  N   UNL d   1      26.449 -15.300  -5.456  0.00  0.00    -0.116 N 
ATOM     26  O   UNL d   1      25.530 -16.130  -5.591  0.00  0.00    -0.532 OA
ATOM     27  O   UNL d   1      27.411 -15.200  -6.218  0.00  0.00    -0.532 OA
ENDBRANCH  20  25
ENDBRANCH   1  18
BRANCH   1  28
ATOM     28  C   UNL d   1      26.231 -16.423  -0.828  0.00  0.00     0.246 C 
ATOM     29  N   UNL d   1      24.855 -16.328  -1.048  0.00  0.00    -0.351 N 
ATOM     30  H   UNL d   1      24.436 -15.514  -1.480  0.00  0.00     0.163 HD
ATOM     31  O   UNL d   1      26.797 -17.507  -0.674  0.00  0.00    -0.271 OA
BRANCH  29  32
ATOM     32  C   UNL d   1      23.963 -17.381  -0.559  0.00  0.00     0.022 C 
ATOM     33  C   UNL d   1      23.655 -18.424  -1.655  0.00  0.00     0.037 C 
ATOM     34  C   UNL d   1      22.609 -16.760  -0.145  0.00  0.00     0.037 C 
ATOM     35  C   UNL d   1      24.653 -18.085   0.606  0.00  0.00     0.037 C 
ENDBRANCH  29  32
ENDBRANCH   1  28
TORSDOF 7
ENDMDL
MODEL 3
REMARK VINA RESULT:    -7.690      2.862      6.226
REMARK INTER + INTRA:         -13.067
REMARK INTER:                  -9.778
REMARK INTRA:                  -3.290
REMARK CONF_INDEPENDENT:        2.088
REMARK UNBOUND:                -3.290
REMARK  7 active torsions:
REMARK  status: ('A' for Active; 'I' for Inactive)
REMARK    1  A    between atoms: C_2  and  N_5 
REMARK       I    between atoms: N_5  and  C_6 
REMARK    2  A    between atoms: C_8  and  C_6 
REMARK    3  A    between atoms: C_8  and  N_19 
REMARK    4  A    between atoms: C_8  and  C_9 
REMARK    5  A    between atoms: C_11  and  N_12 
REMARK       I    between atoms: N_19  and  C_20 
REMARK    6  A    between atoms: N_19  and  C_29 
REMARK    7  A    between atoms: C_20  and  C_22 
ROOT
ATOM      1  C   UNL d   1      26.203 -14.679  -0.850  0.00  0.00     0.220 C 
ENDROOT
BRANCH   1   2
ATOM      2  N   UNL d   1      26.774 -15.834  -0.063  0.00  0.00    -0.296 N 
ATOM      3  C   UNL d   1      26.189 -17.119   0.217  0.00  0.00     0.259 C 
ATOM      4  O   UNL d   1      26.739 -17.963   0.906  0.00  0.00    -0.267 OA
BRANCH   3   5
ATOM      5  C   UNL d   1      24.801 -17.538  -0.193  0.00  0.00     0.032 C 
ATOM      6  C   UNL d   1      23.799 -16.623  -0.518  0.00  0.00     0.018 C 
ATOM      7  C   UNL d   1      22.474 -17.053  -0.753  0.00  0.00     0.025 C 
ATOM      8  C   UNL d   1      22.155 -18.409  -0.737  0.00  0.00     0.034 C 
ATOM      9 CL   UNL d   1      20.499 -18.898  -0.798  0.00  0.00    -0.084 Cl
ATOM     10  C   UNL d   1      23.164 -19.342  -0.520  0.00  0.00     0.025 C 
ATOM     11  C   UNL d   1      24.486 -18.909  -0.271  0.00  0.00     0.018 C 
ENDBRANCH   3   5
BRANCH   2  12
ATOM     12  C   UNL d   1      28.197 -15.659   0.291  0.00  0.00     0.038 A 
ATOM     13  C   UNL d   1      28.614 -14.898   1.396  0.00  0.00     0.030 A 
ATOM     14  C   UNL d   1      29.978 -14.634   1.632  0.00  0.00     0.002 A 
ATOM     15  C   UNL d   1      30.962 -15.191   0.820  0.00  0.00     0.000 A 
ATOM     16  C   UNL d   1      30.580 -15.992  -0.240  0.00  0.00     0.002 A 
ATOM     17  C   UNL d   1      29.222 -16.211  -0.498  0.00  0.00     0.030 A 
ENDBRANCH   2  12
ENDBRANCH   1   2
BRANCH   1  18
ATOM     18  C   UNL d   1      27.016 -13.403  -0.923  0.00  0.00    -0.002 A 
ATOM     19  C   UNL d   1      27.822 -13.214  -2.072  0.00  0.00     0.047 A 
ATOM     20  C   UNL d   1      28.628 -12.104  -2.251  0.00  0.00     0.103 A 
ATOM     21  C   UNL d   1      28.686 -11.168  -1.218  0.00  0.00     0.038 A 
ATOM     22  C   UNL d   1      27.901 -11.349  -0.051  0.00  0.00     0.027 A 
ATOM     23  C   UNL d   1      27.031 -12.436   0.084  0.00  0.00     0.043 A 
ATOM     24 CL   UNL d   1      26.280 -12.692   1.624  0.00  0.00    -0.084 Cl
BRANCH  20  25
ATOM     25  N   UNL d   1      29.587 -12.144  -3.377  0.00  0.00    -0.116 N 
ATOM     26  O   UNL d   1      29.772 -11.084  -4.006  0.00  0.00    -0.532 OA
ATOM     27  O   UNL d   1      30.104 -13.223  -3.670  0.00  0.00    -0.532 OA
ENDBRANCH  20  25
ENDBRANCH   1  18
BRANCH   1  28
ATOM     28  C   UNL d   1      25.704 -14.864  -2.318  0.00  0.00     0.246 C 
ATOM     29  N   UNL d   1      26.565 -15.457  -3.242  0.00  0.00    -0.351 N 
ATOM     30  H   UNL d   1      27.256 -16.145  -2.968  0.00  0.00     0.163 HD
ATOM     31  O   UNL d   1      24.639 -14.344  -2.655  0.00  0.00    -0.271 OA
BRANCH  29  32
ATOM     32  C   UNL d   1      26.555 -15.016  -4.639  0.00  0.00     0.022 C 
ATOM     33  C   UNL d   1      27.935 -15.200  -5.306  0.00  0.00     0.037 C 
ATOM     34  C   UNL d   1      26.230 -13.506  -4.701  0.00  0.00     0.037 C 
ATOM     35  C   UNL d   1      25.530 -15.857  -5.395  0.00  0.00     0.037 C 
ENDBRANCH  29  32
ENDBRANCH   1  28
TORSDOF 7
ENDMDL
MODEL 4
REMARK VINA RESULT:    -7.525      1.088      1.470
REMARK INTER + INTRA:         -13.318
REMARK INTER:                  -9.613
REMARK INTRA:                  -3.705
REMARK CONF_INDEPENDENT:        2.088
REMARK UNBOUND:                -3.705
REMARK  7 active torsions:
REMARK  status: ('A' for Active; 'I' for Inactive)
REMARK    1  A    between atoms: C_2  and  N_5 
REMARK       I    between atoms: N_5  and  C_6 
REMARK    2  A    between atoms: C_8  and  C_6 
REMARK    3  A    between atoms: C_8  and  N_19 
REMARK    4  A    between atoms: C_8  and  C_9 
REMARK    5  A    between atoms: C_11  and  N_12 
REMARK       I    between atoms: N_19  and  C_20 
REMARK    6  A    between atoms: N_19  and  C_29 
REMARK    7  A    between atoms: C_20  and  C_22 
ROOT
ATOM      1  C   UNL d   1      26.547 -15.253  -1.168  0.00  0.00     0.220 C 
ENDROOT
BRANCH   1   2
ATOM      2  N   UNL d   1      25.150 -15.237  -1.740  0.00  0.00    -0.296 N 
ATOM      3  C   UNL d   1      24.601 -14.394  -2.769  0.00  0.00     0.259 C 
ATOM      4  O   UNL d   1      23.433 -14.450  -3.121  0.00  0.00    -0.267 OA
BRANCH   3   5
ATOM      5  C   UNL d   1      25.344 -13.274  -3.449  0.00  0.00     0.032 C 
ATOM      6  C   UNL d   1      25.496 -13.197  -4.835  0.00  0.00     0.018 C 
ATOM      7  C   UNL d   1      26.325 -12.213  -5.419  0.00  0.00     0.025 C 
ATOM      8  C   UNL d   1      26.950 -11.251  -4.629  0.00  0.00     0.034 C 
ATOM      9 CL   UNL d   1      28.132 -10.205  -5.330  0.00  0.00    -0.084 Cl
ATOM     10  C   UNL d   1      26.723 -11.249  -3.255  0.00  0.00     0.025 C 
ATOM     11  C   UNL d   1      25.906 -12.242  -2.671  0.00  0.00     0.018 C 
ENDBRANCH   3   5
BRANCH   2  12
ATOM     12  C   UNL d   1      24.320 -16.374  -1.296  0.00  0.00     0.038 A 
ATOM     13  C   UNL d   1      22.938 -16.259  -1.073  0.00  0.00     0.030 A 
ATOM     14  C   UNL d   1      22.193 -17.321  -0.520  0.00  0.00     0.002 A 
ATOM     15  C   UNL d   1      22.793 -18.549  -0.255  0.00  0.00     0.000 A 
ATOM     16  C   UNL d   1      24.141 -18.706  -0.521  0.00  0.00     0.002 A 
ATOM     17  C   UNL d   1      24.885 -17.633  -1.024  0.00  0.00     0.030 A 
ENDBRANCH   2  12
ENDBRANCH   1   2
BRANCH   1  18
ATOM     18  C   UNL d   1      27.686 -15.636  -2.092  0.00  0.00    -0.002 A 
ATOM     19  C   UNL d   1      27.599 -15.207  -3.438  0.00  0.00     0.047 A 
ATOM     20  C   UNL d   1      28.559 -15.509  -4.387  0.00  0.00     0.103 A 
ATOM     21  C   UNL d   1      29.622 -16.325  -4.000  0.00  0.00     0.038 A 
ATOM     22  C   UNL d   1      29.717 -16.780  -2.661  0.00  0.00     0.027 A 
ATOM     23  C   UNL d   1      28.781 -16.404  -1.692  0.00  0.00     0.043 A 
ATOM     24 CL   UNL d   1      28.853 -17.179  -0.145  0.00  0.00    -0.084 Cl
BRANCH  20  25
ATOM     25  N   UNL d   1      28.232 -15.200  -5.797  0.00  0.00    -0.116 N 
ATOM     26  O   UNL d   1      27.030 -15.239  -6.125  0.00  0.00    -0.532 OA
ATOM     27  O   UNL d   1      29.157 -14.980  -6.579  0.00  0.00    -0.532 OA
ENDBRANCH  20  25
ENDBRANCH   1  18
BRANCH   1  28
ATOM     28  C   UNL d   1      27.122 -14.027  -0.391  0.00  0.00     0.246 C 
ATOM     29  N   UNL d   1      28.260 -13.395  -0.896  0.00  0.00    -0.351 N 
ATOM     30  H   UNL d   1      28.463 -13.368  -1.887  0.00  0.00     0.163 HD
ATOM     31  O   UNL d   1      26.658 -13.753   0.717  0.00  0.00    -0.271 OA
BRANCH  29  32
ATOM     32  C   UNL d   1      29.253 -12.833   0.023  0.00  0.00     0.022 C 
ATOM     33  C   UNL d   1      30.596 -12.556  -0.687  0.00  0.00     0.037 C 
ATOM     34  C   UNL d   1      29.547 -13.850   1.149  0.00  0.00     0.037 C 
ATOM     35  C   UNL d   1      28.705 -11.516   0.566  0.00  0.00     0.037 C 
ENDBRANCH  29  32
ENDBRANCH   1  28
TORSDOF 7
ENDMDL
MODEL 5
REMARK VINA RESULT:    -7.210      2.799      6.608
REMARK INTER + INTRA:         -12.666
REMARK INTER:                  -9.298
REMARK INTRA:                  -3.367
REMARK CONF_INDEPENDENT:        2.088
REMARK UNBOUND:                -3.367
REMARK  7 active torsions:
REMARK  status: ('A' for Active; 'I' for Inactive)
REMARK    1  A    between atoms: C_2  and  N_5 
REMARK       I    between atoms: N_5  and  C_6 
REMARK    2  A    between atoms: C_8  and  C_6 
REMARK    3  A    between atoms: C_8  and  N_19 
REMARK    4  A    between atoms: C_8  and  C_9 
REMARK    5  A    between atoms: C_11  and  N_12 
REMARK       I    between atoms: N_19  and  C_20 
REMARK    6  A    between atoms: N_19  and  C_29 
REMARK    7  A    between atoms: C_20  and  C_22 
ROOT
ATOM      1  C   UNL d   1      27.834 -15.793  -2.466  0.00  0.00     0.220 C 
ENDROOT
BRANCH   1   2
ATOM      2  N   UNL d   1      28.009 -16.088  -0.996  0.00  0.00    -0.296 N 
ATOM      3  C   UNL d   1      27.100 -16.733  -0.086  0.00  0.00     0.259 C 
ATOM      4  O   UNL d   1      27.341 -16.879   1.102  0.00  0.00    -0.267 OA
BRANCH   3   5
ATOM      5  C   UNL d   1      25.711 -17.196  -0.443  0.00  0.00     0.032 C 
ATOM      6  C   UNL d   1      24.778 -16.373  -1.076  0.00  0.00     0.018 C 
ATOM      7  C   UNL d   1      23.443 -16.799  -1.258  0.00  0.00     0.025 C 
ATOM      8  C   UNL d   1      23.048 -18.078  -0.875  0.00  0.00     0.034 C 
ATOM      9 CL   UNL d   1      21.372 -18.496  -0.895  0.00  0.00    -0.084 Cl
ATOM     10  C   UNL d   1      23.992 -18.949  -0.339  0.00  0.00     0.025 C 
ATOM     11  C   UNL d   1      25.323 -18.517  -0.145  0.00  0.00     0.018 C 
ENDBRANCH   3   5
BRANCH   2  12
ATOM     12  C   UNL d   1      29.379 -15.838  -0.505  0.00  0.00     0.038 A 
ATOM     13  C   UNL d   1      30.398 -16.802  -0.584  0.00  0.00     0.030 A 
ATOM     14  C   UNL d   1      31.656 -16.589   0.015  0.00  0.00     0.002 A 
ATOM     15  C   UNL d   1      31.955 -15.379   0.633  0.00  0.00     0.000 A 
ATOM     16  C   UNL d   1      30.988 -14.391   0.673  0.00  0.00     0.002 A 
ATOM     17  C   UNL d   1      29.724 -14.627   0.120  0.00  0.00     0.030 A 
ENDBRANCH   2  12
ENDBRANCH   1   2
BRANCH   1  18
ATOM     18  C   UNL d   1      27.237 -14.456  -2.854  0.00  0.00    -0.002 A 
ATOM     19  C   UNL d   1      27.474 -13.365  -1.984  0.00  0.00     0.047 A 
ATOM     20  C   UNL d   1      26.966 -12.098  -2.211  0.00  0.00     0.103 A 
ATOM     21  C   UNL d   1      26.136 -11.918  -3.317  0.00  0.00     0.038 A 
ATOM     22  C   UNL d   1      25.872 -13.003  -4.191  0.00  0.00     0.027 A 
ATOM     23  C   UNL d   1      26.453 -14.260  -3.993  0.00  0.00     0.043 A 
ATOM     24 CL   UNL d   1      25.905 -15.575  -4.978  0.00  0.00    -0.084 Cl
BRANCH  20  25
ATOM     25  N   UNL d   1      27.094 -11.116  -1.111  0.00  0.00    -0.116 N 
ATOM     26  O   UNL d   1      27.236 -11.566   0.042  0.00  0.00    -0.532 OA
ATOM     27  O   UNL d   1      26.996  -9.918  -1.381  0.00  0.00    -0.532 OA
ENDBRANCH  20  25
ENDBRANCH   1  18
BRANCH   1  28
ATOM     28  C   UNL d   1      29.016 -15.957  -3.474  0.00  0.00     0.246 C 
ATOM     29  N   UNL d   1      29.606 -14.805  -3.997  0.00  0.00    -0.351 N 
ATOM     30  H   UNL d   1      29.645 -13.938  -3.476  0.00  0.00     0.163 HD
ATOM     31  O   UNL d   1      29.286 -17.082  -3.898  0.00  0.00    -0.271 OA
BRANCH  29  32
ATOM     32  C   UNL d   1      30.102 -14.799  -5.376  0.00  0.00     0.022 C 
ATOM     33  C   UNL d   1      31.262 -15.799  -5.570  0.00  0.00     0.037 C 
ATOM     34  C   UNL d   1      30.661 -13.399  -5.717  0.00  0.00     0.037 C 
ATOM     35  C   UNL d   1      28.951 -15.199  -6.295  0.00  0.00     0.037 C 
ENDBRANCH  29  32
ENDBRANCH   1  28
TORSDOF 7
ENDMDL
MODEL 6
REMARK VINA RESULT:    -7.104      3.111      6.875
REMARK INTER + INTRA:         -12.419
REMARK INTER:                  -9.192
REMARK INTRA:                  -3.227
REMARK CONF_INDEPENDENT:        2.088
REMARK UNBOUND:                -3.227
REMARK  7 active torsions:
REMARK  status: ('A' for Active; 'I' for Inactive)
REMARK    1  A    between atoms: C_2  and  N_5 
REMARK       I    between atoms: N_5  and  C_6 
REMARK    2  A    between atoms: C_8  and  C_6 
REMARK    3  A    between atoms: C_8  and  N_19 
REMARK    4  A    between atoms: C_8  and  C_9 
REMARK    5  A    between atoms: C_11  and  N_12 
REMARK       I    between atoms: N_19  and  C_20 
REMARK    6  A    between atoms: N_19  and  C_29 
REMARK    7  A    between atoms: C_20  and  C_22 
ROOT
ATOM      1  C   UNL d   1      27.366 -12.539   0.789  0.00  0.00     0.220 C 
ENDROOT
BRANCH   1   2
ATOM      2  N   UNL d   1      27.470 -13.918   1.395  0.00  0.00    -0.296 N 
ATOM      3  C   UNL d   1      27.338 -15.202   0.757  0.00  0.00     0.259 C 
ATOM      4  O   UNL d   1      27.404 -16.257   1.369  0.00  0.00    -0.267 OA
BRANCH   3   5
ATOM      5  C   UNL d   1      26.989 -15.408  -0.694  0.00  0.00     0.032 C 
ATOM      6  C   UNL d   1      27.945 -15.700  -1.668  0.00  0.00     0.018 C 
ATOM      7  C   UNL d   1      27.595 -15.739  -3.036  0.00  0.00     0.025 C 
ATOM      8  C   UNL d   1      26.273 -15.558  -3.437  0.00  0.00     0.034 C 
ATOM      9 CL   UNL d   1      25.905 -15.381  -5.115  0.00  0.00    -0.084 Cl
ATOM     10  C   UNL d   1      25.290 -15.371  -2.469  0.00  0.00     0.025 C 
ATOM     11  C   UNL d   1      25.644 -15.318  -1.102  0.00  0.00     0.018 C 
ENDBRANCH   3   5
BRANCH   2  12
ATOM     12  C   UNL d   1      27.960 -13.913   2.788  0.00  0.00     0.038 A 
ATOM     13  C   UNL d   1      29.220 -14.419   3.148  0.00  0.00     0.030 A 
ATOM     14  C   UNL d   1      29.607 -14.528   4.499  0.00  0.00     0.002 A 
ATOM     15  C   UNL d   1      28.782 -14.059   5.517  0.00  0.00     0.000 A 
ATOM     16  C   UNL d   1      27.560 -13.503   5.185  0.00  0.00     0.002 A 
ATOM     17  C   UNL d   1      27.160 -13.442   3.845  0.00  0.00     0.030 A 
ENDBRANCH   2  12
ENDBRANCH   1   2
BRANCH   1  18
ATOM     18  C   UNL d   1      27.939 -11.377   1.574  0.00  0.00    -0.002 A 
ATOM     19  C   UNL d   1      27.042 -10.356   1.968  0.00  0.00     0.047 A 
ATOM     20  C   UNL d   1      27.441  -9.231   2.667  0.00  0.00     0.103 A 
ATOM     21  C   UNL d   1      28.802  -9.081   2.935  0.00  0.00     0.038 A 
ATOM     22  C   UNL d   1      29.720 -10.084   2.533  0.00  0.00     0.027 A 
ATOM     23  C   UNL d   1      29.293 -11.253   1.895  0.00  0.00     0.043 A 
ATOM     24 CL   UNL d   1      30.499 -12.316   1.249  0.00  0.00    -0.084 Cl
BRANCH  20  25
ATOM     25  N   UNL d   1      26.451  -8.140   2.809  0.00  0.00    -0.116 N 
ATOM     26  O   UNL d   1      25.491  -8.135   2.015  0.00  0.00    -0.532 OA
ATOM     27  O   UNL d   1      26.655  -7.270   3.656  0.00  0.00    -0.532 OA
ENDBRANCH  20  25
ENDBRANCH   1  18
BRANCH   1  28
ATOM     28  C   UNL d   1      27.848 -12.253  -0.668  0.00  0.00     0.246 C 
ATOM     29  N   UNL d   1      27.292 -11.169  -1.350  0.00  0.00    -0.351 N 
ATOM     30  H   UNL d   1      26.970 -10.339  -0.867  0.00  0.00     0.163 HD
ATOM     31  O   UNL d   1      28.577 -13.074  -1.226  0.00  0.00    -0.271 OA
BRANCH  29  32
ATOM     32  C   UNL d   1      27.067 -11.251  -2.795  0.00  0.00     0.022 C 
ATOM     33  C   UNL d   1      26.028 -12.337  -3.150  0.00  0.00     0.037 C 
ATOM     34  C   UNL d   1      28.384 -11.649  -3.500  0.00  0.00     0.037 C 
ATOM     35  C   UNL d   1      26.545  -9.899  -3.272  0.00  0.00     0.037 C 
ENDBRANCH  29  32
ENDBRANCH   1  28
TORSDOF 7
ENDMDL
MODEL 7
REMARK VINA RESULT:    -6.919      5.589      8.639
REMARK INTER + INTRA:         -12.723
REMARK INTER:                  -9.007
REMARK INTRA:                  -3.716
REMARK CONF_INDEPENDENT:        2.088
REMARK UNBOUND:                -3.716
REMARK  7 active torsions:
REMARK  status: ('A' for Active; 'I' for Inactive)
REMARK    1  A    between atoms: C_2  and  N_5 
REMARK       I    between atoms: N_5  and  C_6 
REMARK    2  A    between atoms: C_8  and  C_6 
REMARK    3  A    between atoms: C_8  and  N_19 
REMARK    4  A    between atoms: C_8  and  C_9 
REMARK    5  A    between atoms: C_11  and  N_12 
REMARK       I    between atoms: N_19  and  C_20 
REMARK    6  A    between atoms: N_19  and  C_29 
REMARK    7  A    between atoms: C_20  and  C_22 
ROOT
ATOM      1  C   UNL d   1      29.739 -12.032   4.602  0.00  0.00     0.220 C 
ENDROOT
BRANCH   1   2
ATOM      2  N   UNL d   1      28.645 -12.871   5.217  0.00  0.00    -0.296 N 
ATOM      3  C   UNL d   1      27.651 -13.685   4.568  0.00  0.00     0.259 C 
ATOM      4  O   UNL d   1      26.785 -14.291   5.180  0.00  0.00    -0.267 OA
BRANCH   3   5
ATOM      5  C   UNL d   1      27.476 -13.798   3.076  0.00  0.00     0.032 C 
ATOM      6  C   UNL d   1      26.672 -12.927   2.339  0.00  0.00     0.018 C 
ATOM      7  C   UNL d   1      26.419 -13.159   0.969  0.00  0.00     0.025 C 
ATOM      8  C   UNL d   1      27.026 -14.222   0.305  0.00  0.00     0.034 C 
ATOM      9 CL   UNL d   1      26.530 -14.623  -1.300  0.00  0.00    -0.084 Cl
ATOM     10  C   UNL d   1      27.915 -15.039   1.000  0.00  0.00     0.025 C 
ATOM     11  C   UNL d   1      28.156 -14.814   2.374  0.00  0.00     0.018 C 
ENDBRANCH   3   5
BRANCH   2  12
ATOM     12  C   UNL d   1      28.757 -13.001   6.684  0.00  0.00     0.038 A 
ATOM     13  C   UNL d   1      29.421 -14.075   7.299  0.00  0.00     0.030 A 
ATOM     14  C   UNL d   1      29.397 -14.248   8.698  0.00  0.00     0.002 A 
ATOM     15  C   UNL d   1      28.781 -13.310   9.521  0.00  0.00     0.000 A 
ATOM     16  C   UNL d   1      28.170 -12.212   8.943  0.00  0.00     0.002 A 
ATOM     17  C   UNL d   1      28.155 -12.072   7.551  0.00  0.00     0.030 A 
ENDBRANCH   2  12
ENDBRANCH   1   2
BRANCH   1  18
ATOM     18  C   UNL d   1      29.357 -11.079   3.488  0.00  0.00    -0.002 A 
ATOM     19  C   UNL d   1      28.206 -10.280   3.686  0.00  0.00     0.047 A 
ATOM     20  C   UNL d   1      27.738  -9.387   2.739  0.00  0.00     0.103 A 
ATOM     21  C   UNL d   1      28.405  -9.327   1.515  0.00  0.00     0.038 A 
ATOM     22  C   UNL d   1      29.550 -10.133   1.291  0.00  0.00     0.027 A 
ATOM     23  C   UNL d   1      30.058 -10.975   2.285  0.00  0.00     0.043 A 
ATOM     24 CL   UNL d   1      31.321 -12.077   1.851  0.00  0.00    -0.084 Cl
BRANCH  20  25
ATOM     25  N   UNL d   1      26.403  -8.792   2.976  0.00  0.00    -0.116 N 
ATOM     26  O   UNL d   1      25.467  -9.575   3.230  0.00  0.00    -0.532 OA
ATOM     27  O   UNL d   1      26.275  -7.573   2.855  0.00  0.00    -0.532 OA
ENDBRANCH  20  25
ENDBRANCH   1  18
BRANCH   1  28
ATOM     28  C   UNL d   1      30.700 -11.176   5.485  0.00  0.00     0.246 C 
ATOM     29  N   UNL d   1      31.732 -11.826   6.166  0.00  0.00    -0.351 N 
ATOM     30  H   UNL d   1      32.166 -12.667   5.806  0.00  0.00     0.163 HD
ATOM     31  O   UNL d   1      30.431  -9.990   5.683  0.00  0.00    -0.271 OA
BRANCH  29  32
ATOM     32  C   UNL d   1      32.148 -11.351   7.487  0.00  0.00     0.022 C 
ATOM     33  C   UNL d   1      30.975 -10.713   8.261  0.00  0.00     0.037 C 
ATOM     34  C   UNL d   1      33.224 -10.253   7.327  0.00  0.00     0.037 C 
ATOM     35  C   UNL d   1      32.663 -12.549   8.281  0.00  0.00     0.037 C 
ENDBRANCH  29  32
ENDBRANCH   1  28
TORSDOF 7
ENDMDL
MODEL 8
REMARK VINA RESULT:    -6.836      2.440      5.363
REMARK INTER + INTRA:         -12.581
REMARK INTER:                  -8.925
REMARK INTRA:                  -3.657
REMARK CONF_INDEPENDENT:        2.088
REMARK UNBOUND:                -3.657
REMARK  7 active torsions:
REMARK  status: ('A' for Active; 'I' for Inactive)
REMARK    1  A    between atoms: C_2  and  N_5 
REMARK       I    between atoms: N_5  and  C_6 
REMARK    2  A    between atoms: C_8  and  C_6 
REMARK    3  A    between atoms: C_8  and  N_19 
REMARK    4  A    between atoms: C_8  and  C_9 
REMARK    5  A    between atoms: C_11  and  N_12 
REMARK       I    between atoms: N_19  and  C_20 
REMARK    6  A    between atoms: N_19  and  C_29 
REMARK    7  A    between atoms: C_20  and  C_22 
ROOT
ATOM      1  C   UNL d   1      28.580 -16.250  -0.334  0.00  0.00     0.220 C 
ENDROOT
BRANCH   1   2
ATOM      2  N   UNL d   1      28.927 -14.805  -0.073  0.00  0.00    -0.296 N 
ATOM      3  C   UNL d   1      29.246 -13.764  -1.014  0.00  0.00     0.259 C 
ATOM      4  O   UNL d   1      29.553 -12.632  -0.674  0.00  0.00    -0.267 OA
BRANCH   3   5
ATOM      5  C   UNL d   1      29.359 -13.958  -2.504  0.00  0.00     0.032 C 
ATOM      6  C   UNL d   1      28.338 -13.618  -3.392  0.00  0.00     0.018 C 
ATOM      7  C   UNL d   1      28.428 -13.954  -4.762  0.00  0.00     0.025 C 
ATOM      8  C   UNL d   1      29.571 -14.567  -5.269  0.00  0.00     0.034 C 
ATOM      9 CL   UNL d   1      29.569 -15.173  -6.887  0.00  0.00    -0.084 Cl
ATOM     10  C   UNL d   1      30.643 -14.817  -4.416  0.00  0.00     0.025 C 
ATOM     11  C   UNL d   1      30.546 -14.494  -3.044  0.00  0.00     0.018 C 
ENDBRANCH   3   5
BRANCH   2  12
ATOM     12  C   UNL d   1      28.717 -14.394   1.329  0.00  0.00     0.038 A 
ATOM     13  C   UNL d   1      29.749 -14.403   2.283  0.00  0.00     0.030 A 
ATOM     14  C   UNL d   1      29.492 -14.137   3.643  0.00  0.00     0.002 A 
ATOM     15  C   UNL d   1      28.218 -13.775   4.071  0.00  0.00     0.000 A 
ATOM     16  C   UNL d   1      27.197 -13.700   3.141  0.00  0.00     0.002 A 
ATOM     17  C   UNL d   1      27.448 -14.013   1.800  0.00  0.00     0.030 A 
ENDBRANCH   2  12
ENDBRANCH   1   2
BRANCH   1  18
ATOM     18  C   UNL d   1      27.204 -16.558  -0.891  0.00  0.00    -0.002 A 
ATOM     19  C   UNL d   1      26.788 -15.827  -2.029  0.00  0.00     0.047 A 
ATOM     20  C   UNL d   1      25.549 -15.995  -2.620  0.00  0.00     0.103 A 
ATOM     21  C   UNL d   1      24.658 -16.884  -2.020  0.00  0.00     0.038 A 
ATOM     22  C   UNL d   1      25.049 -17.613  -0.869  0.00  0.00     0.027 A 
ATOM     23  C   UNL d   1      26.332 -17.491  -0.326  0.00  0.00     0.043 A 
ATOM     24 CL   UNL d   1      26.647 -18.248   1.199  0.00  0.00    -0.084 Cl
BRANCH  20  25
ATOM     25  N   UNL d   1      25.156 -15.009  -3.652  0.00  0.00    -0.116 N 
ATOM     26  O   UNL d   1      24.412 -14.076  -3.294  0.00  0.00    -0.532 OA
ATOM     27  O   UNL d   1      25.532 -15.191  -4.811  0.00  0.00    -0.532 OA
ENDBRANCH  20  25
ENDBRANCH   1  18
BRANCH   1  28
ATOM     28  C   UNL d   1      29.516 -17.172  -1.179  0.00  0.00     0.246 C 
ATOM     29  N   UNL d   1      30.507 -17.897  -0.515  0.00  0.00    -0.351 N 
ATOM     30  H   UNL d   1      30.392 -18.214   0.439  0.00  0.00     0.163 HD
ATOM     31  O   UNL d   1      29.459 -17.113  -2.408  0.00  0.00    -0.271 OA
BRANCH  29  32
ATOM     32  C   UNL d   1      31.799 -18.132  -1.164  0.00  0.00     0.022 C 
ATOM     33  C   UNL d   1      32.463 -16.811  -1.610  0.00  0.00     0.037 C 
ATOM     34  C   UNL d   1      31.589 -18.976  -2.442  0.00  0.00     0.037 C 
ATOM     35  C   UNL d   1      32.715 -18.826  -0.160  0.00  0.00     0.037 C 
ENDBRANCH  29  32
ENDBRANCH   1  28
TORSDOF 7
ENDMDL
MODEL 9
REMARK VINA RESULT:    -6.808      5.435      8.344
REMARK INTER + INTRA:         -12.528
REMARK INTER:                  -8.896
REMARK INTRA:                  -3.632
REMARK CONF_INDEPENDENT:        2.088
REMARK UNBOUND:                -3.632
REMARK  7 active torsions:
REMARK  status: ('A' for Active; 'I' for Inactive)
REMARK    1  A    between atoms: C_2  and  N_5 
REMARK       I    between atoms: N_5  and  C_6 
REMARK    2  A    between atoms: C_8  and  C_6 
REMARK    3  A    between atoms: C_8  and  N_19 
REMARK    4  A    between atoms: C_8  and  C_9 
REMARK    5  A    between atoms: C_11  and  N_12 
REMARK       I    between atoms: N_19  and  C_20 
REMARK    6  A    between atoms: N_19  and  C_29 
REMARK    7  A    between atoms: C_20  and  C_22 
ROOT
ATOM      1  C   UNL d   1      29.243 -11.543   4.400  0.00  0.00     0.220 C 
ENDROOT
BRANCH   1   2
ATOM      2  N   UNL d   1      28.425 -12.642   5.032  0.00  0.00    -0.296 N 
ATOM      3  C   UNL d   1      27.640 -13.669   4.398  0.00  0.00     0.259 C 
ATOM      4  O   UNL d   1      26.984 -14.486   5.024  0.00  0.00    -0.267 OA
BRANCH   3   5
ATOM      5  C   UNL d   1      27.432 -13.794   2.911  0.00  0.00     0.032 C 
ATOM      6  C   UNL d   1      26.554 -12.976   2.197  0.00  0.00     0.018 C 
ATOM      7  C   UNL d   1      26.280 -13.225   0.834  0.00  0.00     0.025 C 
ATOM      8  C   UNL d   1      26.935 -14.248   0.153  0.00  0.00     0.034 C 
ATOM      9 CL   UNL d   1      26.422 -14.681  -1.439  0.00  0.00    -0.084 Cl
ATOM     10  C   UNL d   1      27.892 -15.006   0.823  0.00  0.00     0.025 C 
ATOM     11  C   UNL d   1      28.155 -14.765   2.190  0.00  0.00     0.018 C 
ENDBRANCH   3   5
BRANCH   2  12
ATOM     12  C   UNL d   1      28.633 -12.768   6.489  0.00  0.00     0.038 A 
ATOM     13  C   UNL d   1      28.159 -11.815   7.405  0.00  0.00     0.030 A 
ATOM     14  C   UNL d   1      28.488 -11.887   8.774  0.00  0.00     0.002 A 
ATOM     15  C   UNL d   1      29.227 -12.955   9.274  0.00  0.00     0.000 A 
ATOM     16  C   UNL d   1      29.656 -13.938   8.401  0.00  0.00     0.002 A 
ATOM     17  C   UNL d   1      29.368 -13.835   7.035  0.00  0.00     0.030 A 
ENDBRANCH   2  12
ENDBRANCH   1   2
BRANCH   1  18
ATOM     18  C   UNL d   1      28.734 -10.935   3.109  0.00  0.00    -0.002 A 
ATOM     19  C   UNL d   1      27.575 -10.127   3.187  0.00  0.00     0.047 A 
ATOM     20  C   UNL d   1      26.997  -9.533   2.080  0.00  0.00     0.103 A 
ATOM     21  C   UNL d   1      27.556  -9.802   0.830  0.00  0.00     0.038 A 
ATOM     22  C   UNL d   1      28.706 -10.624   0.729  0.00  0.00     0.027 A 
ATOM     23  C   UNL d   1      29.327 -11.156   1.864  0.00  0.00     0.043 A 
ATOM     24 CL   UNL d   1      30.589 -12.319   1.632  0.00  0.00    -0.084 Cl
BRANCH  20  25
ATOM     25  N   UNL d   1      25.666  -8.912   2.267  0.00  0.00    -0.116 N 
ATOM     26  O   UNL d   1      25.530  -7.732   1.892  0.00  0.00    -0.532 OA
ATOM     27  O   UNL d   1      24.788  -9.566   2.831  0.00  0.00    -0.532 OA
ENDBRANCH  20  25
ENDBRANCH   1  18
BRANCH   1  28
ATOM     28  C   UNL d   1      29.700 -10.295   5.221  0.00  0.00     0.246 C 
ATOM     29  N   UNL d   1      28.727  -9.387   5.645  0.00  0.00    -0.351 N 
ATOM     30  H   UNL d   1      27.779  -9.675   5.853  0.00  0.00     0.163 HD
ATOM     31  O   UNL d   1      30.905 -10.064   5.333  0.00  0.00    -0.271 OA
BRANCH  29  32
ATOM     32  C   UNL d   1      29.038  -7.957   5.703  0.00  0.00     0.022 C 
ATOM     33  C   UNL d   1      27.757  -7.096   5.750  0.00  0.00     0.037 C 
ATOM     34  C   UNL d   1      29.804  -7.543   4.425  0.00  0.00     0.037 C 
ATOM     35  C   UNL d   1      29.849  -7.699   6.969  0.00  0.00     0.037 C 
ENDBRANCH  29  32
ENDBRANCH   1  28
TORSDOF 7
ENDMDL
