MODEL 1
REMARK VINA RESULT:   -30.573      0.000      0.000
REMARK INTER + INTRA:         -33.738
REMARK INTER:                 -32.959
REMARK INTRA:                  -0.779
REMARK CONF_INDEPENDENT:        2.386
REMARK UNBOUND:                -0.779
REMARK  8 active torsions:
REMARK  status: ('A' for Active; 'I' for Inactive)
REMARK    1  A    between atoms: C_2  and  C_3 
REMARK    2  A    between atoms: C_3  and  C_6 
REMARK    3  A    between atoms: N_4  and  O_5 
REMARK    4  A    between atoms: C_6  and  C_8 
REMARK    5  A    between atoms: C_8  and  C_10 
REMARK    6  A    between atoms: C_10  and  C_11 
REMARK    7  A    between atoms: C_11  and  C_12 
REMARK       I    between atoms: C_12  and  N_14 
REMARK    8  A    between atoms: N_14  and  C_15 
ROOT
ATOM      1  C   UNL d   1      25.771 -18.230  -0.399  0.00  0.00     0.110 C 
ENDROOT
BRANCH   1   2
ATOM      2  C   UNL d   1      24.410 -18.069   0.316  0.00  0.00     0.088 C 
BRANCH   2   3
ATOM      3  C   UNL d   1      23.378 -18.928  -0.372  0.00  0.00     0.136 C 
ATOM      4  O   UNL d   1      23.663 -20.120  -0.520  0.00  0.00    -0.297 OA
BRANCH   3   5
ATOM      5  C   UNL d   1      22.063 -18.277  -0.888  0.00  0.00     0.101 C 
ATOM      6  C   UNL d   1      22.033 -16.788  -0.527  0.00  0.00     0.024 C 
BRANCH   5   7
ATOM      7  C   UNL d   1      20.779 -18.994  -0.368  0.00  0.00     0.050 C 
ATOM      8  N   UNL d   1      19.905 -19.324  -1.270  0.00  0.00    -0.145 NA
BRANCH   7   9
ATOM      9  C   UNL d   1      20.652 -19.228   1.145  0.00  0.00     0.053 C 
ATOM     10  C   UNL d   1      19.853 -20.449   1.555  0.00  0.00     0.011 C 
ENDBRANCH   7   9
BRANCH   8  11
ATOM     11  O   UNL d   1      18.745 -19.947  -0.859  0.00  0.00    -0.266 OA
ATOM     12  H   UNL d   1      18.232 -19.997  -1.686  0.00  0.00     0.247 HD
ENDBRANCH   8  11
ENDBRANCH   5   7
ENDBRANCH   3   5
ENDBRANCH   2   3
ENDBRANCH   1   2
BRANCH   1  13
ATOM     13  C   UNL d   1      26.105 -16.985  -1.176  0.00  0.00     0.222 C 
ATOM     14  O   UNL d   1      27.058 -16.275  -0.832  0.00  0.00    -0.273 OA
ATOM     15  N   UNL d   1      25.261 -16.700  -2.241  0.00  0.00    -0.327 N 
ATOM     16  H   UNL d   1      24.360 -17.165  -2.286  0.00  0.00     0.169 HD
BRANCH  15  17
ATOM     17  C   UNL d   1      25.461 -15.549  -3.040  0.00  0.00     0.034 A 
ATOM     18  C   UNL d   1      26.427 -15.561  -4.054  0.00  0.00     0.031 A 
ATOM     19  C   UNL d   1      26.682 -14.421  -4.815  0.00  0.00     0.026 A 
ATOM     20  C   UNL d   1      25.977 -13.253  -4.558  0.00  0.00     0.034 A 
ATOM     21 CL   UNL d   1      26.326 -11.834  -5.467  0.00  0.00    -0.084 Cl
ATOM     22  C   UNL d   1      24.993 -13.230  -3.568  0.00  0.00     0.026 A 
ATOM     23  C   UNL d   1      24.715 -14.387  -2.822  0.00  0.00     0.031 A 
ENDBRANCH  15  17
ENDBRANCH   1  13
TORSDOF 8
ENDMDL
MODEL 2
REMARK VINA RESULT:   -30.311      1.593      2.181
REMARK INTER + INTRA:         -33.052
REMARK INTER:                 -32.698
REMARK INTRA:                  -0.355
REMARK CONF_INDEPENDENT:        2.386
REMARK UNBOUND:                -0.355
REMARK  8 active torsions:
REMARK  status: ('A' for Active; 'I' for Inactive)
REMARK    1  A    between atoms: C_2  and  C_3 
REMARK    2  A    between atoms: C_3  and  C_6 
REMARK    3  A    between atoms: N_4  and  O_5 
REMARK    4  A    between atoms: C_6  and  C_8 
REMARK    5  A    between atoms: C_8  and  C_10 
REMARK    6  A    between atoms: C_10  and  C_11 
REMARK    7  A    between atoms: C_11  and  C_12 
REMARK       I    between atoms: C_12  and  N_14 
REMARK    8  A    between atoms: N_14  and  C_15 
ROOT
ATOM      1  C   UNL d   1      24.364 -16.973  -1.577  0.00  0.00     0.110 C 
ENDROOT
BRANCH   1   2
ATOM      2  C   UNL d   1      23.350 -16.484  -0.517  0.00  0.00     0.088 C 
BRANCH   2   3
ATOM      3  C   UNL d   1      22.093 -17.314  -0.605  0.00  0.00     0.136 C 
ATOM      4  O   UNL d   1      21.153 -16.827  -1.241  0.00  0.00    -0.297 OA
BRANCH   3   5
ATOM      5  C   UNL d   1      22.030 -18.683   0.130  0.00  0.00     0.101 C 
ATOM      6  C   UNL d   1      23.186 -19.580  -0.321  0.00  0.00     0.024 C 
BRANCH   5   7
ATOM      7  C   UNL d   1      20.664 -19.414  -0.054  0.00  0.00     0.050 C 
ATOM      8  N   UNL d   1      19.905 -18.973  -1.011  0.00  0.00    -0.145 NA
BRANCH   7   9
ATOM      9  C   UNL d   1      20.332 -20.564   0.908  0.00  0.00     0.053 C 
ATOM     10  C   UNL d   1      19.421 -20.208   2.066  0.00  0.00     0.011 C 
ENDBRANCH   7   9
BRANCH   8  11
ATOM     11  O   UNL d   1      18.680 -19.577  -1.205  0.00  0.00    -0.266 OA
ATOM     12  H   UNL d   1      18.079 -18.813  -1.270  0.00  0.00     0.247 HD
ENDBRANCH   8  11
ENDBRANCH   5   7
ENDBRANCH   3   5
ENDBRANCH   2   3
ENDBRANCH   1   2
BRANCH   1  13
ATOM     13  C   UNL d   1      25.070 -15.802  -2.206  0.00  0.00     0.222 C 
ATOM     14  O   UNL d   1      25.255 -14.766  -1.557  0.00  0.00    -0.273 OA
ATOM     15  N   UNL d   1      25.441 -15.971  -3.534  0.00  0.00    -0.327 N 
ATOM     16  H   UNL d   1      25.015 -16.722  -4.067  0.00  0.00     0.169 HD
BRANCH  15  17
ATOM     17  C   UNL d   1      26.098 -14.936  -4.242  0.00  0.00     0.034 A 
ATOM     18  C   UNL d   1      25.593 -13.631  -4.201  0.00  0.00     0.031 A 
ATOM     19  C   UNL d   1      26.189 -12.607  -4.935  0.00  0.00     0.026 A 
ATOM     20  C   UNL d   1      27.294 -12.886  -5.729  0.00  0.00     0.034 A 
ATOM     21 CL   UNL d   1      28.000 -11.632  -6.672  0.00  0.00    -0.084 Cl
ATOM     22  C   UNL d   1      27.826 -14.177  -5.762  0.00  0.00     0.026 A 
ATOM     23  C   UNL d   1      27.244 -15.201  -4.997  0.00  0.00     0.031 A 
ENDBRANCH  15  17
ENDBRANCH   1  13
TORSDOF 8
ENDMDL
MODEL 3
REMARK VINA RESULT:   -29.857      3.081      3.949
REMARK INTER + INTRA:         -32.397
REMARK INTER:                 -32.243
REMARK INTRA:                  -0.154
REMARK CONF_INDEPENDENT:        2.386
REMARK UNBOUND:                -0.154
REMARK  8 active torsions:
REMARK  status: ('A' for Active; 'I' for Inactive)
REMARK    1  A    between atoms: C_2  and  C_3 
REMARK    2  A    between atoms: C_3  and  C_6 
REMARK    3  A    between atoms: N_4  and  O_5 
REMARK    4  A    between atoms: C_6  and  C_8 
REMARK    5  A    between atoms: C_8  and  C_10 
REMARK    6  A    between atoms: C_10  and  C_11 
REMARK    7  A    between atoms: C_11  and  C_12 
REMARK       I    between atoms: C_12  and  N_14 
REMARK    8  A    between atoms: N_14  and  C_15 
ROOT
ATOM      1  C   UNL d   1      24.299 -17.061  -1.497  0.00  0.00     0.110 C 
ENDROOT
BRANCH   1   2
ATOM      2  C   UNL d   1      23.189 -16.433  -0.625  0.00  0.00     0.088 C 
BRANCH   2   3
ATOM      3  C   UNL d   1      21.972 -17.323  -0.644  0.00  0.00     0.136 C 
ATOM      4  O   UNL d   1      20.982 -16.893  -1.245  0.00  0.00    -0.297 OA
BRANCH   3   5
ATOM      5  C   UNL d   1      22.007 -18.680   0.115  0.00  0.00     0.101 C 
ATOM      6  C   UNL d   1      23.088 -19.590  -0.478  0.00  0.00     0.024 C 
BRANCH   5   7
ATOM      7  C   UNL d   1      20.627 -19.409   0.133  0.00  0.00     0.050 C 
ATOM      8  N   UNL d   1      19.860 -19.204  -0.895  0.00  0.00    -0.145 NA
BRANCH   7   9
ATOM      9  C   UNL d   1      20.293 -20.278   1.353  0.00  0.00     0.053 C 
ATOM     10  C   UNL d   1      18.816 -20.490   1.623  0.00  0.00     0.011 C 
ENDBRANCH   7   9
BRANCH   8  11
ATOM     11  O   UNL d   1      18.624 -19.814  -0.920  0.00  0.00    -0.266 OA
ATOM     12  H   UNL d   1      18.176 -19.346  -1.648  0.00  0.00     0.247 HD
ENDBRANCH   8  11
ENDBRANCH   5   7
ENDBRANCH   3   5
ENDBRANCH   2   3
ENDBRANCH   1   2
BRANCH   1  13
ATOM     13  C   UNL d   1      25.625 -16.411  -1.206  0.00  0.00     0.222 C 
ATOM     14  O   UNL d   1      25.805 -15.218  -1.478  0.00  0.00    -0.273 OA
ATOM     15  N   UNL d   1      26.595 -17.245  -0.667  0.00  0.00    -0.327 N 
ATOM     16  H   UNL d   1      26.466 -18.249  -0.733  0.00  0.00     0.169 HD
BRANCH  15  17
ATOM     17  C   UNL d   1      27.888 -16.755  -0.364  0.00  0.00     0.034 A 
ATOM     18  C   UNL d   1      29.020 -17.472  -0.769  0.00  0.00     0.031 A 
ATOM     19  C   UNL d   1      30.302 -17.040  -0.433  0.00  0.00     0.026 A 
ATOM     20  C   UNL d   1      30.460 -15.887   0.325  0.00  0.00     0.034 A 
ATOM     21 CL   UNL d   1      32.041 -15.381   0.780  0.00  0.00    -0.084 Cl
ATOM     22  C   UNL d   1      29.344 -15.147   0.717  0.00  0.00     0.026 A 
ATOM     23  C   UNL d   1      28.054 -15.565   0.352  0.00  0.00     0.031 A 
ENDBRANCH  15  17
ENDBRANCH   1  13
TORSDOF 8
ENDMDL
MODEL 4
REMARK VINA RESULT:   -28.684      3.190      3.669
REMARK INTER + INTRA:         -31.218
REMARK INTER:                 -31.070
REMARK INTRA:                  -0.148
REMARK CONF_INDEPENDENT:        2.386
REMARK UNBOUND:                -0.148
REMARK  8 active torsions:
REMARK  status: ('A' for Active; 'I' for Inactive)
REMARK    1  A    between atoms: C_2  and  C_3 
REMARK    2  A    between atoms: C_3  and  C_6 
REMARK    3  A    between atoms: N_4  and  O_5 
REMARK    4  A    between atoms: C_6  and  C_8 
REMARK    5  A    between atoms: C_8  and  C_10 
REMARK    6  A    between atoms: C_10  and  C_11 
REMARK    7  A    between atoms: C_11  and  C_12 
REMARK       I    between atoms: C_12  and  N_14 
REMARK    8  A    between atoms: N_14  and  C_15 
ROOT
ATOM      1  C   UNL d   1      24.768 -17.156  -0.401  0.00  0.00     0.110 C 
ENDROOT
BRANCH   1   2
ATOM      2  C   UNL d   1      23.636 -17.073  -1.450  0.00  0.00     0.088 C 
BRANCH   2   3
ATOM      3  C   UNL d   1      22.307 -17.305  -0.774  0.00  0.00     0.136 C 
ATOM      4  O   UNL d   1      21.450 -16.429  -0.927  0.00  0.00    -0.297 OA
BRANCH   3   5
ATOM      5  C   UNL d   1      22.106 -18.577   0.097  0.00  0.00     0.101 C 
ATOM      6  C   UNL d   1      23.113 -19.659  -0.306  0.00  0.00     0.024 C 
BRANCH   5   7
ATOM      7  C   UNL d   1      20.650 -19.134   0.041  0.00  0.00     0.050 C 
ATOM      8  N   UNL d   1      19.905 -18.688  -0.925  0.00  0.00    -0.145 NA
BRANCH   7   9
ATOM      9  C   UNL d   1      20.223 -20.133   1.126  0.00  0.00     0.053 C 
ATOM     10  C   UNL d   1      19.005 -20.975   0.801  0.00  0.00     0.011 C 
ENDBRANCH   7   9
BRANCH   8  11
ATOM     11  O   UNL d   1      18.605 -19.139  -1.009  0.00  0.00    -0.266 OA
ATOM     12  H   UNL d   1      18.278 -18.685  -1.807  0.00  0.00     0.247 HD
ENDBRANCH   8  11
ENDBRANCH   5   7
ENDBRANCH   3   5
ENDBRANCH   2   3
ENDBRANCH   1   2
BRANCH   1  13
ATOM     13  C   UNL d   1      25.720 -16.002  -0.566  0.00  0.00     0.222 C 
ATOM     14  O   UNL d   1      25.707 -15.328  -1.603  0.00  0.00    -0.273 OA
ATOM     15  N   UNL d   1      26.601 -15.798   0.488  0.00  0.00    -0.327 N 
ATOM     16  H   UNL d   1      26.736 -16.545   1.162  0.00  0.00     0.169 HD
BRANCH  15  17
ATOM     17  C   UNL d   1      27.556 -14.754   0.446  0.00  0.00     0.034 A 
ATOM     18  C   UNL d   1      27.188 -13.489  -0.026  0.00  0.00     0.031 A 
ATOM     19  C   UNL d   1      28.125 -12.461  -0.131  0.00  0.00     0.026 A 
ATOM     20  C   UNL d   1      29.445 -12.698   0.228  0.00  0.00     0.034 A 
ATOM     21 CL   UNL d   1      30.609 -11.443   0.053  0.00  0.00    -0.084 Cl
ATOM     22  C   UNL d   1      29.825 -13.946   0.724  0.00  0.00     0.026 A 
ATOM     23  C   UNL d   1      28.874 -14.972   0.858  0.00  0.00     0.031 A 
ENDBRANCH  15  17
ENDBRANCH   1  13
TORSDOF 8
ENDMDL
