MODEL 1
REMARK VINA RESULT:    -8.997      0.000      0.000
REMARK INTER + INTRA:         -11.828
REMARK INTER:                 -10.489
REMARK INTRA:                  -1.340
REMARK CONF_INDEPENDENT:        1.492
REMARK UNBOUND:                -1.340
REMARK  5 active torsions:
REMARK  status: ('A' for Active; 'I' for Inactive)
REMARK    1  A    between atoms: C_5  and  C_6 
REMARK    2  A    between atoms: C_9  and  S_10 
REMARK    3  A    between atoms: S_10  and  C_11 
REMARK    4  A    between atoms: C_11  and  C_12 
REMARK       I    between atoms: C_12  and  N_14 
REMARK    5  A    between atoms: C_15  and  N_14 
ROOT
ATOM      1  C   UNL d   1      24.838 -13.945  -3.722  0.00  0.00     0.229 C 
ATOM      2  O   UNL d   1      23.614 -14.071  -3.717  0.00  0.00    -0.273 OA
ATOM      3  N   UNL d   1      25.375 -12.856  -4.403  0.00  0.00    -0.330 N 
ATOM      4  H   UNL d   1      24.669 -12.222  -4.759  0.00  0.00     0.165 HD
ENDROOT
BRANCH   1   5
ATOM      5  C   UNL d   1      25.799 -14.955  -3.075  0.00  0.00     0.180 C 
BRANCH   5   6
ATOM      6  S   UNL d   1      25.262 -16.697  -2.855  0.00  0.00    -0.112 SA
BRANCH   6   7
ATOM      7  C   UNL d   1      24.470 -16.695  -1.158  0.00  0.00     0.267 C 
ATOM      8  N   UNL d   1      23.402 -15.704  -1.062  0.00  0.00    -0.279 N 
ATOM      9  N   UNL d   1      22.154 -16.306  -0.916  0.00  0.00    -0.158 NA
ATOM     10  H   UNL d   1      23.481 -14.872  -1.631  0.00  0.00     0.185 HD
ATOM     11  C   UNL d   1      22.414 -17.581  -0.693  0.00  0.00     0.157 C 
ATOM     12  N   UNL d   1      23.740 -17.915  -0.873  0.00  0.00    -0.337 N 
ATOM     13  C   UNL d   1      24.332 -18.951  -0.134  0.00  0.00     0.154 C 
BRANCH  11  14
ATOM     14  C   UNL d   1      21.398 -18.604  -0.298  0.00  0.00     0.011 A 
ATOM     15  C   UNL d   1      21.278 -18.950   1.044  0.00  0.00     0.016 A 
ATOM     16  C   UNL d   1      20.280 -19.846   1.450  0.00  0.00     0.007 A 
ATOM     17  C   UNL d   1      19.376 -20.392   0.525  0.00  0.00    -0.062 A 
ATOM     18  C   UNL d   1      18.320 -21.369   0.954  0.00  0.00     0.048 C 
ATOM     19  C   UNL d   1      19.479 -20.020  -0.819  0.00  0.00     0.007 A 
ATOM     20  C   UNL d   1      20.486 -19.137  -1.227  0.00  0.00     0.016 A 
ENDBRANCH  11  14
ENDBRANCH   6   7
ENDBRANCH   5   6
ENDBRANCH   1   5
BRANCH   3  21
ATOM     21  C   UNL d   1      26.732 -12.318  -4.446  0.00  0.00     0.264 C 
ATOM     22  O   UNL d   1      26.623 -10.904  -4.786  0.00  0.00    -0.353 OA
ATOM     23  C   UNL d   1      27.271 -10.659  -6.070  0.00  0.00     0.152 C 
ATOM     24  C   UNL d   1      27.726 -11.981  -6.528  0.00  0.00    -0.017 C 
ATOM     25  C   UNL d   1      28.497  -9.758  -5.918  0.00  0.00     0.044 C 
ATOM     26  C   UNL d   1      27.502 -12.850  -5.563  0.00  0.00     0.066 C 
ATOM     27  C   UNL d   1      28.473 -12.261  -7.781  0.00  0.00     0.105 C 
ATOM     28  C   UNL d   1      28.329 -14.034  -5.594  0.00  0.00     0.266 C 
ATOM     29  O   UNL d   1      28.645 -14.605  -4.578  0.00  0.00    -0.266 OA
ATOM     30  N   UNL d   1      28.658 -14.469  -6.868  0.00  0.00    -0.287 N 
ATOM     31  N   UNL d   1      28.792 -13.669  -7.980  0.00  0.00    -0.229 NA
ATOM     32  H   UNL d   1      29.248 -15.283  -6.891  0.00  0.00     0.184 HD
ATOM     33  H   UNL d   1      28.287 -14.075  -8.772  0.00  0.00     0.147 HD
ATOM     34  C   UNL d   1      27.597 -11.892  -8.958  0.00  0.00     0.033 C 
ENDBRANCH   3  21
TORSDOF 5
ENDMDL
MODEL 2
REMARK VINA RESULT:    -8.456      2.041      3.029
REMARK INTER + INTRA:         -11.001
REMARK INTER:                  -9.947
REMARK INTRA:                  -1.054
REMARK CONF_INDEPENDENT:        1.492
REMARK UNBOUND:                -1.054
REMARK  5 active torsions:
REMARK  status: ('A' for Active; 'I' for Inactive)
REMARK    1  A    between atoms: C_5  and  C_6 
REMARK    2  A    between atoms: C_9  and  S_10 
REMARK    3  A    between atoms: S_10  and  C_11 
REMARK    4  A    between atoms: C_11  and  C_12 
REMARK       I    between atoms: C_12  and  N_14 
REMARK    5  A    between atoms: C_15  and  N_14 
ROOT
ATOM      1  C   UNL d   1      25.738 -13.853  -4.255  0.00  0.00     0.229 C 
ATOM      2  O   UNL d   1      24.668 -14.365  -3.926  0.00  0.00    -0.273 OA
ATOM      3  N   UNL d   1      25.693 -12.688  -5.015  0.00  0.00    -0.330 N 
ATOM      4  H   UNL d   1      24.752 -12.334  -5.145  0.00  0.00     0.165 HD
ENDROOT
BRANCH   1   5
ATOM      5  C   UNL d   1      27.110 -14.464  -3.925  0.00  0.00     0.180 C 
BRANCH   5   6
ATOM      6  S   UNL d   1      28.172 -13.664  -2.660  0.00  0.00    -0.112 SA
BRANCH   6   7
ATOM      7  C   UNL d   1      27.887 -14.708  -1.133  0.00  0.00     0.267 C 
ATOM      8  N   UNL d   1      27.233 -13.947  -0.072  0.00  0.00    -0.279 N 
ATOM      9  N   UNL d   1      25.944 -14.415   0.176  0.00  0.00    -0.158 NA
ATOM     10  H   UNL d   1      27.410 -12.952  -0.031  0.00  0.00     0.185 HD
ATOM     11  C   UNL d   1      25.854 -15.544  -0.501  0.00  0.00     0.157 C 
ATOM     12  N   UNL d   1      26.922 -15.770  -1.344  0.00  0.00    -0.337 N 
ATOM     13  C   UNL d   1      27.343 -17.075  -1.645  0.00  0.00     0.154 C 
BRANCH  11  14
ATOM     14  C   UNL d   1      24.715 -16.508  -0.409  0.00  0.00     0.011 A 
ATOM     15  C   UNL d   1      23.470 -16.127  -0.896  0.00  0.00     0.016 A 
ATOM     16  C   UNL d   1      22.407 -17.041  -0.895  0.00  0.00     0.007 A 
ATOM     17  C   UNL d   1      22.580 -18.352  -0.427  0.00  0.00    -0.062 A 
ATOM     18  C   UNL d   1      21.437 -19.327  -0.405  0.00  0.00     0.048 C 
ATOM     19  C   UNL d   1      23.840 -18.744   0.035  0.00  0.00     0.007 A 
ATOM     20  C   UNL d   1      24.898 -17.826   0.048  0.00  0.00     0.016 A 
ENDBRANCH  11  14
ENDBRANCH   6   7
ENDBRANCH   5   6
ENDBRANCH   1   5
BRANCH   3  21
ATOM     21  C   UNL d   1      26.739 -11.746  -5.401  0.00  0.00     0.264 C 
ATOM     22  O   UNL d   1      26.076 -10.526  -5.849  0.00  0.00    -0.353 OA
ATOM     23  C   UNL d   1      26.370 -10.300  -7.260  0.00  0.00     0.152 C 
ATOM     24  C   UNL d   1      27.187 -11.453  -7.671  0.00  0.00    -0.017 C 
ATOM     25  C   UNL d   1      27.200  -9.032  -7.464  0.00  0.00     0.044 C 
ATOM     26  C   UNL d   1      27.452 -12.172  -6.599  0.00  0.00     0.066 C 
ATOM     27  C   UNL d   1      27.765 -11.676  -9.020  0.00  0.00     0.105 C 
ATOM     28  C   UNL d   1      28.631 -13.002  -6.689  0.00  0.00     0.266 C 
ATOM     29  O   UNL d   1      29.294 -13.257  -5.712  0.00  0.00    -0.266 OA
ATOM     30  N   UNL d   1      28.878 -13.512  -7.953  0.00  0.00    -0.287 N 
ATOM     31  N   UNL d   1      28.530 -12.911  -9.142  0.00  0.00    -0.229 NA
ATOM     32  H   UNL d   1      29.708 -14.075  -8.021  0.00  0.00     0.184 HD
ATOM     33  H   UNL d   1      28.079 -13.589  -9.763  0.00  0.00     0.147 HD
ATOM     34  C   UNL d   1      26.633 -11.823 -10.013  0.00  0.00     0.033 C 
ENDBRANCH   3  21
TORSDOF 5
ENDMDL
MODEL 3
REMARK VINA RESULT:    -8.327      3.805      5.511
REMARK INTER + INTRA:         -11.363
REMARK INTER:                  -9.818
REMARK INTRA:                  -1.545
REMARK CONF_INDEPENDENT:        1.492
REMARK UNBOUND:                -1.545
REMARK  5 active torsions:
REMARK  status: ('A' for Active; 'I' for Inactive)
REMARK    1  A    between atoms: C_5  and  C_6 
REMARK    2  A    between atoms: C_9  and  S_10 
REMARK    3  A    between atoms: S_10  and  C_11 
REMARK    4  A    between atoms: C_11  and  C_12 
REMARK       I    between atoms: C_12  and  N_14 
REMARK    5  A    between atoms: C_15  and  N_14 
ROOT
ATOM      1  C   UNL d   1      28.515 -15.263  -5.820  0.00  0.00     0.229 C 
ATOM      2  O   UNL d   1      27.568 -14.577  -6.204  0.00  0.00    -0.273 OA
ATOM      3  N   UNL d   1      29.557 -15.489  -6.716  0.00  0.00    -0.330 N 
ATOM      4  H   UNL d   1      29.452 -14.976  -7.584  0.00  0.00     0.165 HD
ENDROOT
BRANCH   1   5
ATOM      5  C   UNL d   1      28.578 -15.929  -4.436  0.00  0.00     0.180 C 
BRANCH   5   6
ATOM      6  S   UNL d   1      28.922 -14.899  -2.956  0.00  0.00    -0.112 SA
BRANCH   6   7
ATOM      7  C   UNL d   1      27.228 -14.273  -2.461  0.00  0.00     0.267 C 
ATOM      8  N   UNL d   1      26.306 -14.259  -3.594  0.00  0.00    -0.279 N 
ATOM      9  N   UNL d   1      25.280 -15.188  -3.432  0.00  0.00    -0.158 NA
ATOM     10  H   UNL d   1      26.696 -14.115  -4.515  0.00  0.00     0.185 HD
ATOM     11  C   UNL d   1      25.390 -15.605  -2.185  0.00  0.00     0.157 C 
ATOM     12  N   UNL d   1      26.536 -15.168  -1.554  0.00  0.00    -0.337 N 
ATOM     13  C   UNL d   1      26.560 -14.946  -0.168  0.00  0.00     0.154 C 
BRANCH  11  14
ATOM     14  C   UNL d   1      24.400 -16.481  -1.486  0.00  0.00     0.011 A 
ATOM     15  C   UNL d   1      23.125 -15.988  -1.234  0.00  0.00     0.016 A 
ATOM     16  C   UNL d   1      22.155 -16.817  -0.654  0.00  0.00     0.007 A 
ATOM     17  C   UNL d   1      22.440 -18.154  -0.336  0.00  0.00    -0.062 A 
ATOM     18  C   UNL d   1      21.410 -19.038   0.306  0.00  0.00     0.048 C 
ATOM     19  C   UNL d   1      23.714 -18.657  -0.617  0.00  0.00     0.007 A 
ATOM     20  C   UNL d   1      24.688 -17.825  -1.182  0.00  0.00     0.016 A 
ENDBRANCH  11  14
ENDBRANCH   6   7
ENDBRANCH   5   6
ENDBRANCH   1   5
BRANCH   3  21
ATOM     21  C   UNL d   1      30.879 -16.078  -6.530  0.00  0.00     0.264 C 
ATOM     22  O   UNL d   1      31.658 -15.772  -7.725  0.00  0.00    -0.353 OA
ATOM     23  C   UNL d   1      32.008 -17.012  -8.411  0.00  0.00     0.152 C 
ATOM     24  C   UNL d   1      31.367 -18.078  -7.626  0.00  0.00    -0.017 C 
ATOM     25  C   UNL d   1      33.518 -17.253  -8.399  0.00  0.00     0.044 C 
ATOM     26  C   UNL d   1      30.842 -17.535  -6.545  0.00  0.00     0.066 C 
ATOM     27  C   UNL d   1      31.449 -19.535  -7.902  0.00  0.00     0.105 C 
ATOM     28  C   UNL d   1      30.652 -18.436  -5.432  0.00  0.00     0.266 C 
ATOM     29  O   UNL d   1      30.724 -18.046  -4.292  0.00  0.00    -0.266 OA
ATOM     30  N   UNL d   1      30.326 -19.733  -5.794  0.00  0.00    -0.287 N 
ATOM     31  N   UNL d   1      30.709 -20.362  -6.957  0.00  0.00    -0.229 NA
ATOM     32  H   UNL d   1      30.211 -20.365  -5.021  0.00  0.00     0.184 HD
ATOM     33  H   UNL d   1      29.906 -20.825  -7.391  0.00  0.00     0.147 HD
ATOM     34  C   UNL d   1      30.805 -19.809  -9.243  0.00  0.00     0.033 C 
ENDBRANCH   3  21
TORSDOF 5
ENDMDL
MODEL 4
REMARK VINA RESULT:    -8.057      3.972      6.223
REMARK INTER + INTRA:         -10.887
REMARK INTER:                  -9.548
REMARK INTRA:                  -1.339
REMARK CONF_INDEPENDENT:        1.492
REMARK UNBOUND:                -1.339
REMARK  5 active torsions:
REMARK  status: ('A' for Active; 'I' for Inactive)
REMARK    1  A    between atoms: C_5  and  C_6 
REMARK    2  A    between atoms: C_9  and  S_10 
REMARK    3  A    between atoms: S_10  and  C_11 
REMARK    4  A    between atoms: C_11  and  C_12 
REMARK       I    between atoms: C_12  and  N_14 
REMARK    5  A    between atoms: C_15  and  N_14 
ROOT
ATOM      1  C   UNL d   1      27.693 -14.910  -5.614  0.00  0.00     0.229 C 
ATOM      2  O   UNL d   1      26.504 -15.186  -5.770  0.00  0.00    -0.273 OA
ATOM      3  N   UNL d   1      28.568 -15.950  -5.316  0.00  0.00    -0.330 N 
ATOM      4  H   UNL d   1      28.125 -16.862  -5.343  0.00  0.00     0.165 HD
ENDROOT
BRANCH   1   5
ATOM      5  C   UNL d   1      28.247 -13.476  -5.669  0.00  0.00     0.180 C 
BRANCH   5   6
ATOM      6  S   UNL d   1      27.079 -12.062  -5.756  0.00  0.00    -0.112 SA
BRANCH   6   7
ATOM      7  C   UNL d   1      25.996 -12.303  -4.248  0.00  0.00     0.267 C 
ATOM      8  N   UNL d   1      24.780 -13.045  -4.570  0.00  0.00    -0.279 N 
ATOM      9  N   UNL d   1      24.767 -14.298  -3.960  0.00  0.00    -0.158 NA
ATOM     10  H   UNL d   1      24.406 -12.951  -5.504  0.00  0.00     0.185 HD
ATOM     11  C   UNL d   1      25.781 -14.278  -3.115  0.00  0.00     0.157 C 
ATOM     12  N   UNL d   1      26.594 -13.173  -3.254  0.00  0.00    -0.337 N 
ATOM     13  C   UNL d   1      27.284 -12.639  -2.154  0.00  0.00     0.154 C 
BRANCH  11  14
ATOM     14  C   UNL d   1      26.069 -15.337  -2.100  0.00  0.00     0.011 A 
ATOM     15  C   UNL d   1      25.012 -15.896  -1.392  0.00  0.00     0.016 A 
ATOM     16  C   UNL d   1      25.247 -16.946  -0.494  0.00  0.00     0.007 A 
ATOM     17  C   UNL d   1      26.537 -17.465  -0.307  0.00  0.00    -0.062 A 
ATOM     18  C   UNL d   1      26.795 -18.575   0.670  0.00  0.00     0.048 C 
ATOM     19  C   UNL d   1      27.595 -16.922  -1.043  0.00  0.00     0.007 A 
ATOM     20  C   UNL d   1      27.363 -15.862  -1.928  0.00  0.00     0.016 A 
ENDBRANCH  11  14
ENDBRANCH   6   7
ENDBRANCH   5   6
ENDBRANCH   1   5
BRANCH   3  21
ATOM     21  C   UNL d   1      30.026 -16.000  -5.258  0.00  0.00     0.264 C 
ATOM     22  O   UNL d   1      30.525 -15.372  -6.477  0.00  0.00    -0.353 OA
ATOM     23  C   UNL d   1      31.254 -16.356  -7.270  0.00  0.00     0.152 C 
ATOM     24  C   UNL d   1      31.132 -17.617  -6.522  0.00  0.00    -0.017 C 
ATOM     25  C   UNL d   1      32.739 -16.005  -7.374  0.00  0.00     0.044 C 
ATOM     26  C   UNL d   1      30.538 -17.359  -5.374  0.00  0.00     0.066 C 
ATOM     27  C   UNL d   1      31.732 -18.921  -6.905  0.00  0.00     0.105 C 
ATOM     28  C   UNL d   1      30.799 -18.308  -4.317  0.00  0.00     0.266 C 
ATOM     29  O   UNL d   1      30.818 -17.967  -3.160  0.00  0.00    -0.266 OA
ATOM     30  N   UNL d   1      30.954 -19.616  -4.748  0.00  0.00    -0.287 N 
ATOM     31  N   UNL d   1      31.442 -20.005  -5.975  0.00  0.00    -0.229 NA
ATOM     32  H   UNL d   1      31.153 -20.275  -4.015  0.00  0.00     0.184 HD
ATOM     33  H   UNL d   1      30.838 -20.720  -6.386  0.00  0.00     0.147 HD
ATOM     34  C   UNL d   1      31.124 -19.365  -8.218  0.00  0.00     0.033 C 
ENDBRANCH   3  21
TORSDOF 5
ENDMDL
MODEL 5
REMARK VINA RESULT:    -8.043      2.770      4.623
REMARK INTER + INTRA:         -11.285
REMARK INTER:                  -9.535
REMARK INTRA:                  -1.751
REMARK CONF_INDEPENDENT:        1.492
REMARK UNBOUND:                -1.751
REMARK  5 active torsions:
REMARK  status: ('A' for Active; 'I' for Inactive)
REMARK    1  A    between atoms: C_5  and  C_6 
REMARK    2  A    between atoms: C_9  and  S_10 
REMARK    3  A    between atoms: S_10  and  C_11 
REMARK    4  A    between atoms: C_11  and  C_12 
REMARK       I    between atoms: C_12  and  N_14 
REMARK    5  A    between atoms: C_15  and  N_14 
ROOT
ATOM      1  C   UNL d   1      25.518 -13.869  -4.336  0.00  0.00     0.229 C 
ATOM      2  O   UNL d   1      24.524 -14.450  -3.900  0.00  0.00    -0.273 OA
ATOM      3  N   UNL d   1      25.488 -12.479  -4.386  0.00  0.00    -0.330 N 
ATOM      4  H   UNL d   1      24.654 -12.084  -3.965  0.00  0.00     0.165 HD
ENDROOT
BRANCH   1   5
ATOM      5  C   UNL d   1      26.756 -14.598  -4.884  0.00  0.00     0.180 C 
BRANCH   5   6
ATOM      6  S   UNL d   1      28.383 -14.345  -4.071  0.00  0.00    -0.112 SA
BRANCH   6   7
ATOM      7  C   UNL d   1      28.006 -14.606  -2.256  0.00  0.00     0.267 C 
ATOM      8  N   UNL d   1      27.172 -13.534  -1.718  0.00  0.00    -0.279 N 
ATOM      9  N   UNL d   1      25.904 -13.996  -1.368  0.00  0.00    -0.158 NA
ATOM     10  H   UNL d   1      27.262 -12.617  -2.133  0.00  0.00     0.185 HD
ATOM     11  C   UNL d   1      25.986 -15.311  -1.446  0.00  0.00     0.157 C 
ATOM     12  N   UNL d   1      27.160 -15.759  -2.014  0.00  0.00    -0.337 N 
ATOM     13  C   UNL d   1      27.717 -16.994  -1.644  0.00  0.00     0.154 C 
BRANCH  11  14
ATOM     14  C   UNL d   1      24.925 -16.262  -0.993  0.00  0.00     0.011 A 
ATOM     15  C   UNL d   1      23.593 -15.950  -1.238  0.00  0.00     0.016 A 
ATOM     16  C   UNL d   1      22.585 -16.862  -0.895  0.00  0.00     0.007 A 
ATOM     17  C   UNL d   1      22.897 -18.105  -0.322  0.00  0.00    -0.062 A 
ATOM     18  C   UNL d   1      21.818 -19.075   0.066  0.00  0.00     0.048 C 
ATOM     19  C   UNL d   1      24.239 -18.430  -0.104  0.00  0.00     0.007 A 
ATOM     20  C   UNL d   1      25.245 -17.512  -0.432  0.00  0.00     0.016 A 
ENDBRANCH  11  14
ENDBRANCH   6   7
ENDBRANCH   5   6
ENDBRANCH   1   5
BRANCH   3  21
ATOM     21  C   UNL d   1      26.535 -11.500  -4.660  0.00  0.00     0.264 C 
ATOM     22  O   UNL d   1      27.503 -11.589  -3.572  0.00  0.00    -0.353 OA
ATOM     23  C   UNL d   1      27.533 -10.327  -2.840  0.00  0.00     0.152 C 
ATOM     24  C   UNL d   1      26.510  -9.487  -3.483  0.00  0.00    -0.017 C 
ATOM     25  C   UNL d   1      28.884  -9.626  -2.983  0.00  0.00     0.044 C 
ATOM     26  C   UNL d   1      26.056 -10.129  -4.541  0.00  0.00     0.066 C 
ATOM     27  C   UNL d   1      26.173  -8.088  -3.116  0.00  0.00     0.105 C 
ATOM     28  C   UNL d   1      25.472  -9.294  -5.565  0.00  0.00     0.266 C 
ATOM     29  O   UNL d   1      25.528  -9.602  -6.731  0.00  0.00    -0.266 OA
ATOM     30  N   UNL d   1      24.809  -8.177  -5.084  0.00  0.00    -0.287 N 
ATOM     31  N   UNL d   1      25.111  -7.501  -3.924  0.00  0.00    -0.229 NA
ATOM     32  H   UNL d   1      24.417  -7.585  -5.797  0.00  0.00     0.184 HD
ATOM     33  H   UNL d   1      24.260  -7.327  -3.382  0.00  0.00     0.147 HD
ATOM     34  C   UNL d   1      25.635  -8.076  -1.702  0.00  0.00     0.033 C 
ENDBRANCH   3  21
TORSDOF 5
ENDMDL
MODEL 6
REMARK VINA RESULT:    -7.898      2.143      3.774
REMARK INTER + INTRA:         -11.084
REMARK INTER:                  -9.390
REMARK INTRA:                  -1.694
REMARK CONF_INDEPENDENT:        1.492
REMARK UNBOUND:                -1.694
REMARK  5 active torsions:
REMARK  status: ('A' for Active; 'I' for Inactive)
REMARK    1  A    between atoms: C_5  and  C_6 
REMARK    2  A    between atoms: C_9  and  S_10 
REMARK    3  A    between atoms: S_10  and  C_11 
REMARK    4  A    between atoms: C_11  and  C_12 
REMARK       I    between atoms: C_12  and  N_14 
REMARK    5  A    between atoms: C_15  and  N_14 
ROOT
ATOM      1  C   UNL d   1      30.150 -14.969  -4.299  0.00  0.00     0.229 C 
ATOM      2  O   UNL d   1      31.257 -14.955  -3.762  0.00  0.00    -0.273 OA
ATOM      3  N   UNL d   1      29.894 -14.019  -5.283  0.00  0.00    -0.330 N 
ATOM      4  H   UNL d   1      30.705 -13.457  -5.513  0.00  0.00     0.165 HD
ENDROOT
BRANCH   1   5
ATOM      5  C   UNL d   1      29.022 -15.934  -3.897  0.00  0.00     0.180 C 
BRANCH   5   6
ATOM      6  S   UNL d   1      29.128 -16.827  -2.296  0.00  0.00    -0.112 SA
BRANCH   6   7
ATOM      7  C   UNL d   1      27.817 -15.994  -1.250  0.00  0.00     0.267 C 
ATOM      8  N   UNL d   1      26.976 -15.105  -2.045  0.00  0.00    -0.279 N 
ATOM      9  N   UNL d   1      25.666 -15.576  -2.129  0.00  0.00    -0.158 NA
ATOM     10  H   UNL d   1      27.391 -14.665  -2.855  0.00  0.00     0.185 HD
ATOM     11  C   UNL d   1      25.603 -16.565  -1.259  0.00  0.00     0.157 C 
ATOM     12  N   UNL d   1      26.828 -16.922  -0.737  0.00  0.00    -0.337 N 
ATOM     13  C   UNL d   1      26.937 -17.443   0.562  0.00  0.00     0.154 C 
BRANCH  11  14
ATOM     14  C   UNL d   1      24.348 -17.274  -0.860  0.00  0.00     0.011 A 
ATOM     15  C   UNL d   1      23.138 -16.593  -0.936  0.00  0.00     0.016 A 
ATOM     16  C   UNL d   1      21.939 -17.259  -0.645  0.00  0.00     0.007 A 
ATOM     17  C   UNL d   1      21.932 -18.618  -0.295  0.00  0.00    -0.062 A 
ATOM     18  C   UNL d   1      20.652 -19.328   0.039  0.00  0.00     0.048 C 
ATOM     19  C   UNL d   1      23.147 -19.309  -0.248  0.00  0.00     0.007 A 
ATOM     20  C   UNL d   1      24.345 -18.640  -0.523  0.00  0.00     0.016 A 
ENDBRANCH  11  14
ENDBRANCH   6   7
ENDBRANCH   5   6
ENDBRANCH   1   5
BRANCH   3  21
ATOM     21  C   UNL d   1      28.788 -13.880  -6.226  0.00  0.00     0.264 C 
ATOM     22  O   UNL d   1      29.066 -12.702  -7.043  0.00  0.00    -0.353 OA
ATOM     23  C   UNL d   1      28.034 -11.696  -6.815  0.00  0.00     0.152 C 
ATOM     24  C   UNL d   1      27.153 -12.276  -5.790  0.00  0.00    -0.017 C 
ATOM     25  C   UNL d   1      27.203 -11.448  -8.075  0.00  0.00     0.044 C 
ATOM     26  C   UNL d   1      27.541 -13.515  -5.566  0.00  0.00     0.066 C 
ATOM     27  C   UNL d   1      25.929 -11.645  -5.233  0.00  0.00     0.105 C 
ATOM     28  C   UNL d   1      26.528 -14.391  -5.025  0.00  0.00     0.266 C 
ATOM     29  O   UNL d   1      26.523 -15.572  -5.275  0.00  0.00    -0.266 OA
ATOM     30  N   UNL d   1      25.634 -13.771  -4.167  0.00  0.00    -0.287 N 
ATOM     31  N   UNL d   1      25.251 -12.450  -4.224  0.00  0.00    -0.229 NA
ATOM     32  H   UNL d   1      24.917 -14.376  -3.804  0.00  0.00     0.184 HD
ATOM     33  H   UNL d   1      25.298 -12.027  -3.293  0.00  0.00     0.147 HD
ATOM     34  C   UNL d   1      26.324 -10.375  -4.513  0.00  0.00     0.033 C 
ENDBRANCH   3  21
TORSDOF 5
ENDMDL
MODEL 7
REMARK VINA RESULT:    -7.647      3.969      6.632
REMARK INTER + INTRA:         -11.272
REMARK INTER:                  -9.139
REMARK INTRA:                  -2.133
REMARK CONF_INDEPENDENT:        1.492
REMARK UNBOUND:                -2.133
REMARK  5 active torsions:
REMARK  status: ('A' for Active; 'I' for Inactive)
REMARK    1  A    between atoms: C_5  and  C_6 
REMARK    2  A    between atoms: C_9  and  S_10 
REMARK    3  A    between atoms: S_10  and  C_11 
REMARK    4  A    between atoms: C_11  and  C_12 
REMARK       I    between atoms: C_12  and  N_14 
REMARK    5  A    between atoms: C_15  and  N_14 
ROOT
ATOM      1  C   UNL d   1      28.049 -15.110  -5.280  0.00  0.00     0.229 C 
ATOM      2  O   UNL d   1      26.990 -15.572  -5.703  0.00  0.00    -0.273 OA
ATOM      3  N   UNL d   1      28.902 -15.967  -4.591  0.00  0.00    -0.330 N 
ATOM      4  H   UNL d   1      28.582 -16.929  -4.588  0.00  0.00     0.165 HD
ENDROOT
BRANCH   1   5
ATOM      5  C   UNL d   1      28.446 -13.631  -5.418  0.00  0.00     0.180 C 
BRANCH   5   6
ATOM      6  S   UNL d   1      27.140 -12.369  -5.688  0.00  0.00    -0.112 SA
BRANCH   6   7
ATOM      7  C   UNL d   1      26.048 -12.547  -4.177  0.00  0.00     0.267 C 
ATOM      8  N   UNL d   1      24.780 -13.194  -4.501  0.00  0.00    -0.279 N 
ATOM      9  N   UNL d   1      24.677 -14.450  -3.905  0.00  0.00    -0.158 NA
ATOM     10  H   UNL d   1      24.410 -13.062  -5.432  0.00  0.00     0.185 HD
ATOM     11  C   UNL d   1      25.693 -14.514  -3.066  0.00  0.00     0.157 C 
ATOM     12  N   UNL d   1      26.585 -13.470  -3.196  0.00  0.00    -0.337 N 
ATOM     13  C   UNL d   1      27.316 -13.001  -2.093  0.00  0.00     0.154 C 
BRANCH  11  14
ATOM     14  C   UNL d   1      25.908 -15.603  -2.064  0.00  0.00     0.011 A 
ATOM     15  C   UNL d   1      27.190 -16.112  -1.888  0.00  0.00     0.016 A 
ATOM     16  C   UNL d   1      27.431 -17.076  -0.899  0.00  0.00     0.007 A 
ATOM     17  C   UNL d   1      26.401 -17.527  -0.060  0.00  0.00    -0.062 A 
ATOM     18  C   UNL d   1      26.653 -18.575   0.985  0.00  0.00     0.048 C 
ATOM     19  C   UNL d   1      25.119 -16.993  -0.219  0.00  0.00     0.007 A 
ATOM     20  C   UNL d   1      24.874 -16.042  -1.217  0.00  0.00     0.016 A 
ENDBRANCH  11  14
ENDBRANCH   6   7
ENDBRANCH   5   6
ENDBRANCH   1   5
BRANCH   3  21
ATOM     21  C   UNL d   1      30.279 -15.798  -4.136  0.00  0.00     0.264 C 
ATOM     22  O   UNL d   1      31.083 -16.810  -4.814  0.00  0.00    -0.353 OA
ATOM     23  C   UNL d   1      31.644 -17.729  -3.829  0.00  0.00     0.152 C 
ATOM     24  C   UNL d   1      31.108 -17.277  -2.536  0.00  0.00    -0.017 C 
ATOM     25  C   UNL d   1      33.169 -17.630  -3.775  0.00  0.00     0.044 C 
ATOM     26  C   UNL d   1      30.446 -16.155  -2.733  0.00  0.00     0.066 C 
ATOM     27  C   UNL d   1      31.409 -17.875  -1.210  0.00  0.00     0.105 C 
ATOM     28  C   UNL d   1      30.312 -15.304  -1.574  0.00  0.00     0.266 C 
ATOM     29  O   UNL d   1      30.257 -14.103  -1.681  0.00  0.00    -0.266 OA
ATOM     30  N   UNL d   1      30.193 -15.986  -0.374  0.00  0.00    -0.287 N 
ATOM     31  N   UNL d   1      30.733 -17.222  -0.096  0.00  0.00    -0.229 NA
ATOM     32  H   UNL d   1      30.118 -15.395   0.436  0.00  0.00     0.184 HD
ATOM     33  H   UNL d   1      30.031 -17.825   0.341  0.00  0.00     0.147 HD
ATOM     34  C   UNL d   1      30.896 -19.298  -1.194  0.00  0.00     0.033 C 
ENDBRANCH   3  21
TORSDOF 5
ENDMDL
MODEL 8
REMARK VINA RESULT:    -7.618      3.599      8.794
REMARK INTER + INTRA:         -11.055
REMARK INTER:                  -9.110
REMARK INTRA:                  -1.946
REMARK CONF_INDEPENDENT:        1.492
REMARK UNBOUND:                -1.946
REMARK  5 active torsions:
REMARK  status: ('A' for Active; 'I' for Inactive)
REMARK    1  A    between atoms: C_5  and  C_6 
REMARK    2  A    between atoms: C_9  and  S_10 
REMARK    3  A    between atoms: S_10  and  C_11 
REMARK    4  A    between atoms: C_11  and  C_12 
REMARK       I    between atoms: C_12  and  N_14 
REMARK    5  A    between atoms: C_15  and  N_14 
ROOT
ATOM      1  C   UNL d   1      26.118 -14.954  -4.758  0.00  0.00     0.229 C 
ATOM      2  O   UNL d   1      26.280 -15.638  -5.768  0.00  0.00    -0.273 OA
ATOM      3  N   UNL d   1      25.530 -15.560  -3.652  0.00  0.00    -0.330 N 
ATOM      4  H   UNL d   1      25.372 -16.553  -3.779  0.00  0.00     0.165 HD
ENDROOT
BRANCH   1   5
ATOM      5  C   UNL d   1      26.472 -13.460  -4.677  0.00  0.00     0.180 C 
BRANCH   5   6
ATOM      6  S   UNL d   1      27.993 -12.849  -5.503  0.00  0.00    -0.112 SA
BRANCH   6   7
ATOM      7  C   UNL d   1      29.359 -13.817  -4.665  0.00  0.00     0.267 C 
ATOM      8  N   UNL d   1      28.851 -14.617  -3.554  0.00  0.00    -0.279 N 
ATOM      9  N   UNL d   1      28.948 -15.982  -3.817  0.00  0.00    -0.158 NA
ATOM     10  H   UNL d   1      28.041 -14.270  -3.058  0.00  0.00     0.185 HD
ATOM     11  C   UNL d   1      29.682 -16.068  -4.910  0.00  0.00     0.157 C 
ATOM     12  N   UNL d   1      29.922 -14.851  -5.512  0.00  0.00    -0.337 N 
ATOM     13  C   UNL d   1      31.103 -14.622  -6.237  0.00  0.00     0.154 C 
BRANCH  11  14
ATOM     14  C   UNL d   1      30.211 -17.342  -5.487  0.00  0.00     0.011 A 
ATOM     15  C   UNL d   1      30.405 -18.432  -4.646  0.00  0.00     0.016 A 
ATOM     16  C   UNL d   1      30.822 -19.661  -5.176  0.00  0.00     0.007 A 
ATOM     17  C   UNL d   1      31.031 -19.822  -6.554  0.00  0.00    -0.062 A 
ATOM     18  C   UNL d   1      31.499 -21.131  -7.122  0.00  0.00     0.048 C 
ATOM     19  C   UNL d   1      30.807 -18.733  -7.403  0.00  0.00     0.007 A 
ATOM     20  C   UNL d   1      30.405 -17.502  -6.871  0.00  0.00     0.016 A 
ENDBRANCH  11  14
ENDBRANCH   6   7
ENDBRANCH   5   6
ENDBRANCH   1   5
BRANCH   3  21
ATOM     21  C   UNL d   1      25.370 -15.105  -2.273  0.00  0.00     0.264 C 
ATOM     22  O   UNL d   1      26.688 -14.697  -1.800  0.00  0.00    -0.353 OA
ATOM     23  C   UNL d   1      27.099 -15.558  -0.695  0.00  0.00     0.152 C 
ATOM     24  C   UNL d   1      26.012 -16.539  -0.551  0.00  0.00    -0.017 C 
ATOM     25  C   UNL d   1      27.212 -14.775   0.614  0.00  0.00     0.044 C 
ATOM     26  C   UNL d   1      25.036 -16.196  -1.367  0.00  0.00     0.066 C 
ATOM     27  C   UNL d   1      25.944 -17.622   0.464  0.00  0.00     0.105 C 
ATOM     28  C   UNL d   1      23.727 -16.687  -1.004  0.00  0.00     0.266 C 
ATOM     29  O   UNL d   1      22.728 -16.063  -1.269  0.00  0.00    -0.266 OA
ATOM     30  N   UNL d   1      23.730 -17.933  -0.399  0.00  0.00    -0.287 N 
ATOM     31  N   UNL d   1      24.749 -18.451   0.369  0.00  0.00    -0.229 NA
ATOM     32  H   UNL d   1      22.821 -18.268  -0.129  0.00  0.00     0.184 HD
ATOM     33  H   UNL d   1      24.961 -19.409   0.078  0.00  0.00     0.147 HD
ATOM     34  C   UNL d   1      27.095 -18.576   0.230  0.00  0.00     0.033 C 
ENDBRANCH   3  21
TORSDOF 5
ENDMDL
MODEL 9
REMARK VINA RESULT:    -6.629      3.212      4.704
REMARK INTER + INTRA:         -10.692
REMARK INTER:                  -8.121
REMARK INTRA:                  -2.571
REMARK CONF_INDEPENDENT:        1.492
REMARK UNBOUND:                -2.571
REMARK  5 active torsions:
REMARK  status: ('A' for Active; 'I' for Inactive)
REMARK    1  A    between atoms: C_5  and  C_6 
REMARK    2  A    between atoms: C_9  and  S_10 
REMARK    3  A    between atoms: S_10  and  C_11 
REMARK    4  A    between atoms: C_11  and  C_12 
REMARK       I    between atoms: C_12  and  N_14 
REMARK    5  A    between atoms: C_15  and  N_14 
ROOT
ATOM      1  C   UNL d   1      29.243 -15.038  -2.671  0.00  0.00     0.229 C 
ATOM      2  O   UNL d   1      29.448 -15.592  -1.591  0.00  0.00    -0.273 OA
ATOM      3  N   UNL d   1      28.905 -15.840  -3.757  0.00  0.00    -0.330 N 
ATOM      4  H   UNL d   1      28.781 -16.815  -3.508  0.00  0.00     0.165 HD
ENDROOT
BRANCH   1   5
ATOM      5  C   UNL d   1      29.401 -13.525  -2.894  0.00  0.00     0.180 C 
BRANCH   5   6
ATOM      6  S   UNL d   1      29.386 -12.395  -1.448  0.00  0.00    -0.112 SA
BRANCH   6   7
ATOM      7  C   UNL d   1      27.632 -12.534  -0.808  0.00  0.00     0.267 C 
ATOM      8  N   UNL d   1      26.653 -12.213  -1.842  0.00  0.00    -0.279 N 
ATOM      9  N   UNL d   1      25.904 -13.331  -2.206  0.00  0.00    -0.158 NA
ATOM     10  H   UNL d   1      26.925 -11.551  -2.557  0.00  0.00     0.185 HD
ATOM     11  C   UNL d   1      26.207 -14.251  -1.310  0.00  0.00     0.157 C 
ATOM     12  N   UNL d   1      27.254 -13.896  -0.485  0.00  0.00    -0.337 N 
ATOM     13  C   UNL d   1      27.326 -14.369   0.835  0.00  0.00     0.154 C 
BRANCH  11  14
ATOM     14  C   UNL d   1      25.521 -15.573  -1.177  0.00  0.00     0.011 A 
ATOM     15  C   UNL d   1      26.215 -16.637  -0.611  0.00  0.00     0.016 A 
ATOM     16  C   UNL d   1      25.569 -17.863  -0.401  0.00  0.00     0.007 A 
ATOM     17  C   UNL d   1      24.217 -18.035  -0.733  0.00  0.00    -0.062 A 
ATOM     18  C   UNL d   1      23.528 -19.353  -0.529  0.00  0.00     0.048 C 
ATOM     19  C   UNL d   1      23.512 -16.955  -1.274  0.00  0.00     0.007 A 
ATOM     20  C   UNL d   1      24.162 -15.736  -1.499  0.00  0.00     0.016 A 
ENDBRANCH  11  14
ENDBRANCH   6   7
ENDBRANCH   5   6
ENDBRANCH   1   5
BRANCH   3  21
ATOM     21  C   UNL d   1      28.425 -15.503  -5.094  0.00  0.00     0.264 C 
ATOM     22  O   UNL d   1      29.432 -14.645  -5.709  0.00  0.00    -0.353 OA
ATOM     23  C   UNL d   1      28.861 -13.328  -5.969  0.00  0.00     0.152 C 
ATOM     24  C   UNL d   1      27.490 -13.395  -5.438  0.00  0.00    -0.017 C 
ATOM     25  C   UNL d   1      28.778 -13.037  -7.468  0.00  0.00     0.044 C 
ATOM     26  C   UNL d   1      27.255 -14.634  -5.058  0.00  0.00     0.066 C 
ATOM     27  C   UNL d   1      26.482 -12.305  -5.486  0.00  0.00     0.105 C 
ATOM     28  C   UNL d   1      25.862 -15.014  -5.017  0.00  0.00     0.266 C 
ATOM     29  O   UNL d   1      25.516 -16.149  -5.237  0.00  0.00    -0.266 OA
ATOM     30  N   UNL d   1      25.001 -13.993  -4.650  0.00  0.00    -0.287 N 
ATOM     31  N   UNL d   1      25.203 -12.651  -4.878  0.00  0.00    -0.229 NA
ATOM     32  H   UNL d   1      24.029 -14.251  -4.638  0.00  0.00     0.184 HD
ATOM     33  H   UNL d   1      25.019 -12.115  -4.026  0.00  0.00     0.147 HD
ATOM     34  C   UNL d   1      26.994 -11.137  -4.673  0.00  0.00     0.033 C 
ENDBRANCH   3  21
TORSDOF 5
ENDMDL
