MODEL 1
REMARK VINA RESULT:    -9.907      0.000      0.000
REMARK INTER + INTRA:         -12.972
REMARK INTER:                 -11.399
REMARK INTRA:                  -1.573
REMARK CONF_INDEPENDENT:        1.492
REMARK UNBOUND:                -1.573
REMARK  5 active torsions:
REMARK  status: ('A' for Active; 'I' for Inactive)
REMARK       I    between atoms: C_2  and  N_3 
REMARK    1  A    between atoms: C_2  and  C_27 
REMARK    2  A    between atoms: N_3  and  N_4 
REMARK    3  A    between atoms: N_4  and  C_5 
REMARK    4  A    between atoms: N_8  and  S_9 
REMARK    5  A    between atoms: S_9  and  C_12 
ROOT
ATOM      1  C   UNL d   1      26.548 -14.740  -4.101  0.00  0.00     0.101 A 
ATOM      2  C   UNL d   1      26.788 -15.028  -2.821  0.00  0.00     0.068 A 
ATOM      3  C   UNL d   1      27.957 -15.774  -2.289  0.00  0.00     0.079 A 
ATOM      4  N   UNL d   1      28.158 -16.038  -1.032  0.00  0.00    -0.160 NA
ATOM      5  C   UNL d   1      28.938 -16.217  -3.337  0.00  0.00    -0.015 A 
ATOM      6  C   UNL d   1      28.716 -15.950  -4.642  0.00  0.00     0.007 A 
ATOM      7  C   UNL d   1      29.655 -16.385  -5.734  0.00  0.00     0.070 C 
ATOM      8  C   UNL d   1      30.624 -17.444  -5.298  0.00  0.00    -0.026 C 
ATOM      9  C   UNL d   1      30.852 -17.722  -4.006  0.00  0.00    -0.026 C 
ATOM     10  C   UNL d   1      30.156 -16.993  -2.883  0.00  0.00     0.068 C 
ATOM     11  C   UNL d   1      27.509 -15.223  -5.125  0.00  0.00     0.207 A 
ATOM     12  O   UNL d   1      27.322 -15.010  -6.324  0.00  0.00    -0.285 OA
ENDROOT
BRANCH   1  13
ATOM     13  N   UNL d   1      25.415 -14.037  -4.480  0.00  0.00    -0.294 N 
ATOM     14  H   UNL d   1      25.012 -14.299  -5.388  0.00  0.00     0.187 HD
BRANCH  13  15
ATOM     15  N   UNL d   1      25.278 -12.668  -4.158  0.00  0.00    -0.265 N 
ATOM     16  C   UNL d   1      26.320 -11.806  -4.439  0.00  0.00     0.269 C 
ATOM     17  O   UNL d   1      27.384 -12.157  -4.946  0.00  0.00    -0.266 OA
ATOM     18  H   UNL d   1      24.395 -12.349  -3.770  0.00  0.00     0.190 HD
BRANCH  16  19
ATOM     19  C   UNL d   1      26.052 -10.382  -4.057  0.00  0.00     0.032 C 
ATOM     20  C   UNL d   1      25.468  -9.542  -4.942  0.00  0.00     0.010 C 
ATOM     21  C   UNL d   1      25.282  -8.080  -4.619  0.00  0.00     0.147 C 
ATOM     22  N   UNL d   1      25.155  -7.954  -3.174  0.00  0.00    -0.395 N 
ATOM     23  C   UNL d   1      25.957  -8.692  -2.341  0.00  0.00     0.084 C 
ATOM     24  H   UNL d   1      24.611  -7.188  -2.792  0.00  0.00     0.159 HD
ATOM     25  C   UNL d   1      26.470  -9.860  -2.758  0.00  0.00     0.033 C 
ENDBRANCH  16  19
ENDBRANCH  13  15
ENDBRANCH   1  13
BRANCH   4  26
ATOM     26  S   UNL d   1      27.058 -15.535   0.063  0.00  0.00     0.283 S 
ATOM     27  O   UNL d   1      27.543 -15.884   1.384  0.00  0.00    -0.198 OA
ATOM     28  O   UNL d   1      26.698 -14.160  -0.236  0.00  0.00    -0.198 OA
BRANCH  26  29
ATOM     29  C   UNL d   1      25.599 -16.494  -0.225  0.00  0.00     0.081 A 
ATOM     30  C   UNL d   1      24.508 -15.894  -0.859  0.00  0.00     0.027 A 
ATOM     31  C   UNL d   1      23.341 -16.631  -1.053  0.00  0.00     0.020 A 
ATOM     32  C   UNL d   1      23.272 -17.952  -0.605  0.00  0.00     0.011 A 
ATOM     33 BR   UNL d   1      21.697 -18.956  -0.896  0.00  0.00    -0.051 Br
ATOM     34  C   UNL d   1      24.352 -18.540   0.054  0.00  0.00     0.020 A 
ATOM     35  C   UNL d   1      25.521 -17.807   0.255  0.00  0.00     0.027 A 
ENDBRANCH  26  29
ENDBRANCH   4  26
TORSDOF 5
ENDMDL
MODEL 2
REMARK VINA RESULT:    -9.677      3.982      7.509
REMARK INTER + INTRA:         -12.202
REMARK INTER:                 -11.169
REMARK INTRA:                  -1.034
REMARK CONF_INDEPENDENT:        1.492
REMARK UNBOUND:                -1.034
REMARK  5 active torsions:
REMARK  status: ('A' for Active; 'I' for Inactive)
REMARK       I    between atoms: C_2  and  N_3 
REMARK    1  A    between atoms: C_2  and  C_27 
REMARK    2  A    between atoms: N_3  and  N_4 
REMARK    3  A    between atoms: N_4  and  C_5 
REMARK    4  A    between atoms: N_8  and  S_9 
REMARK    5  A    between atoms: S_9  and  C_12 
ROOT
ATOM      1  C   UNL d   1      27.473 -15.415  -0.258  0.00  0.00     0.101 A 
ATOM      2  C   UNL d   1      26.848 -14.887  -1.312  0.00  0.00     0.068 A 
ATOM      3  C   UNL d   1      25.556 -15.337  -1.888  0.00  0.00     0.079 A 
ATOM      4  N   UNL d   1      24.977 -14.797  -2.919  0.00  0.00    -0.160 NA
ATOM      5  C   UNL d   1      24.931 -16.500  -1.173  0.00  0.00    -0.015 A 
ATOM      6  C   UNL d   1      25.544 -17.064  -0.110  0.00  0.00     0.007 A 
ATOM      7  C   UNL d   1      24.972 -18.240   0.633  0.00  0.00     0.070 C 
ATOM      8  C   UNL d   1      23.892 -18.953  -0.126  0.00  0.00    -0.026 C 
ATOM      9  C   UNL d   1      23.275 -18.407  -1.184  0.00  0.00    -0.026 C 
ATOM     10  C   UNL d   1      23.614 -17.030  -1.700  0.00  0.00     0.068 C 
ATOM     11  C   UNL d   1      26.858 -16.590   0.410  0.00  0.00     0.207 A 
ATOM     12  O   UNL d   1      27.405 -17.135   1.370  0.00  0.00    -0.285 OA
ENDROOT
BRANCH   1  13
ATOM     13  N   UNL d   1      28.684 -14.910   0.190  0.00  0.00    -0.294 N 
ATOM     14  H   UNL d   1      29.504 -15.146  -0.383  0.00  0.00     0.187 HD
BRANCH  13  15
ATOM     15  N   UNL d   1      28.952 -14.809   1.573  0.00  0.00    -0.265 N 
ATOM     16  C   UNL d   1      28.103 -14.062   2.368  0.00  0.00     0.269 C 
ATOM     17  O   UNL d   1      27.121 -13.458   1.943  0.00  0.00    -0.266 OA
ATOM     18  H   UNL d   1      29.739 -15.328   1.953  0.00  0.00     0.190 HD
BRANCH  16  19
ATOM     19  C   UNL d   1      28.490 -14.038   3.815  0.00  0.00     0.032 C 
ATOM     20  C   UNL d   1      27.621 -13.570   4.741  0.00  0.00     0.010 C 
ATOM     21  C   UNL d   1      28.025 -13.438   6.189  0.00  0.00     0.147 C 
ATOM     22  N   UNL d   1      29.039 -14.446   6.464  0.00  0.00    -0.395 N 
ATOM     23  C   UNL d   1      30.028 -14.700   5.548  0.00  0.00     0.084 C 
ATOM     24  H   UNL d   1      29.121 -14.820   7.403  0.00  0.00     0.159 HD
ATOM     25  C   UNL d   1      29.822 -14.454   4.245  0.00  0.00     0.033 C 
ENDBRANCH  16  19
ENDBRANCH  13  15
ENDBRANCH   1  13
BRANCH   4  26
ATOM     26  S   UNL d   1      25.704 -13.538  -3.660  0.00  0.00     0.283 S 
ATOM     27  O   UNL d   1      24.793 -13.015  -4.660  0.00  0.00    -0.198 OA
ATOM     28  O   UNL d   1      26.253 -12.654  -2.647  0.00  0.00    -0.198 OA
BRANCH  26  29
ATOM     29  C   UNL d   1      27.095 -14.209  -4.526  0.00  0.00     0.081 A 
ATOM     30  C   UNL d   1      27.521 -13.591  -5.704  0.00  0.00     0.027 A 
ATOM     31  C   UNL d   1      28.591 -14.136  -6.412  0.00  0.00     0.020 A 
ATOM     32  C   UNL d   1      29.214 -15.294  -5.945  0.00  0.00     0.011 A 
ATOM     33 BR   UNL d   1      30.682 -16.015  -6.893  0.00  0.00    -0.051 Br
ATOM     34  C   UNL d   1      28.767 -15.927  -4.783  0.00  0.00     0.020 A 
ATOM     35  C   UNL d   1      27.696 -15.388  -4.072  0.00  0.00     0.027 A 
ENDBRANCH  26  29
ENDBRANCH   4  26
TORSDOF 5
ENDMDL
MODEL 3
REMARK VINA RESULT:    -9.635      3.633      5.708
REMARK INTER + INTRA:         -12.625
REMARK INTER:                 -11.127
REMARK INTRA:                  -1.498
REMARK CONF_INDEPENDENT:        1.492
REMARK UNBOUND:                -1.498
REMARK  5 active torsions:
REMARK  status: ('A' for Active; 'I' for Inactive)
REMARK       I    between atoms: C_2  and  N_3 
REMARK    1  A    between atoms: C_2  and  C_27 
REMARK    2  A    between atoms: N_3  and  N_4 
REMARK    3  A    between atoms: N_4  and  C_5 
REMARK    4  A    between atoms: N_8  and  S_9 
REMARK    5  A    between atoms: S_9  and  C_12 
ROOT
ATOM      1  C   UNL d   1      29.994 -15.069  -1.148  0.00  0.00     0.101 A 
ATOM      2  C   UNL d   1      28.737 -15.480  -0.974  0.00  0.00     0.068 A 
ATOM      3  C   UNL d   1      27.715 -15.665  -2.035  0.00  0.00     0.079 A 
ATOM      4  N   UNL d   1      26.496 -16.068  -1.826  0.00  0.00    -0.160 NA
ATOM      5  C   UNL d   1      28.198 -15.353  -3.421  0.00  0.00    -0.015 A 
ATOM      6  C   UNL d   1      29.462 -14.924  -3.629  0.00  0.00     0.007 A 
ATOM      7  C   UNL d   1      29.993 -14.581  -4.994  0.00  0.00     0.070 C 
ATOM      8  C   UNL d   1      28.916 -14.388  -6.019  0.00  0.00    -0.026 C 
ATOM      9  C   UNL d   1      27.656 -14.806  -5.827  0.00  0.00    -0.026 C 
ATOM     10  C   UNL d   1      27.217 -15.506  -4.565  0.00  0.00     0.068 C 
ATOM     11  C   UNL d   1      30.439 -14.726  -2.522  0.00  0.00     0.207 A 
ATOM     12  O   UNL d   1      31.581 -14.315  -2.737  0.00  0.00    -0.285 OA
ENDROOT
BRANCH   1  13
ATOM     13  N   UNL d   1      30.861 -14.930  -0.075  0.00  0.00    -0.294 N 
ATOM     14  H   UNL d   1      31.811 -15.293  -0.221  0.00  0.00     0.187 HD
BRANCH  13  15
ATOM     15  N   UNL d   1      30.389 -15.054   1.250  0.00  0.00    -0.265 N 
ATOM     16  C   UNL d   1      29.669 -14.015   1.806  0.00  0.00     0.269 C 
ATOM     17  O   UNL d   1      29.417 -12.964   1.220  0.00  0.00    -0.266 OA
ATOM     18  H   UNL d   1      30.555 -15.928   1.743  0.00  0.00     0.190 HD
BRANCH  16  19
ATOM     19  C   UNL d   1      29.219 -14.269   3.212  0.00  0.00     0.032 C 
ATOM     20  C   UNL d   1      27.899 -14.316   3.504  0.00  0.00     0.010 C 
ATOM     21  C   UNL d   1      27.423 -14.467   4.928  0.00  0.00     0.147 C 
ATOM     22  N   UNL d   1      28.443 -15.198   5.666  0.00  0.00    -0.395 N 
ATOM     23  C   UNL d   1      29.772 -14.923   5.465  0.00  0.00     0.084 C 
ATOM     24  H   UNL d   1      28.166 -15.770   6.456  0.00  0.00     0.159 HD
ATOM     25  C   UNL d   1      30.187 -14.407   4.298  0.00  0.00     0.033 C 
ENDBRANCH  16  19
ENDBRANCH  13  15
ENDBRANCH   1  13
BRANCH   4  26
ATOM     26  S   UNL d   1      26.024 -16.389  -0.298  0.00  0.00     0.283 S 
ATOM     27  O   UNL d   1      26.943 -17.359   0.264  0.00  0.00    -0.198 OA
ATOM     28  O   UNL d   1      25.785 -15.133   0.390  0.00  0.00    -0.198 OA
BRANCH  26  29
ATOM     29  C   UNL d   1      24.446 -17.182  -0.424  0.00  0.00     0.081 A 
ATOM     30  C   UNL d   1      24.371 -18.569  -0.274  0.00  0.00     0.027 A 
ATOM     31  C   UNL d   1      23.138 -19.205  -0.411  0.00  0.00     0.020 A 
ATOM     32  C   UNL d   1      21.999 -18.454  -0.706  0.00  0.00     0.011 A 
ATOM     33 BR   UNL d   1      20.325 -19.317  -0.864  0.00  0.00    -0.051 Br
ATOM     34  C   UNL d   1      22.081 -17.072  -0.886  0.00  0.00     0.020 A 
ATOM     35  C   UNL d   1      23.312 -16.431  -0.753  0.00  0.00     0.027 A 
ENDBRANCH  26  29
ENDBRANCH   4  26
TORSDOF 5
ENDMDL
MODEL 4
REMARK VINA RESULT:    -9.309      2.348      3.360
REMARK INTER + INTRA:         -11.893
REMARK INTER:                 -10.800
REMARK INTRA:                  -1.093
REMARK CONF_INDEPENDENT:        1.492
REMARK UNBOUND:                -1.093
REMARK  5 active torsions:
REMARK  status: ('A' for Active; 'I' for Inactive)
REMARK       I    between atoms: C_2  and  N_3 
REMARK    1  A    between atoms: C_2  and  C_27 
REMARK    2  A    between atoms: N_3  and  N_4 
REMARK    3  A    between atoms: N_4  and  C_5 
REMARK    4  A    between atoms: N_8  and  S_9 
REMARK    5  A    between atoms: S_9  and  C_12 
ROOT
ATOM      1  C   UNL d   1      29.915 -16.494  -6.052  0.00  0.00     0.101 A 
ATOM      2  C   UNL d   1      29.718 -16.463  -4.733  0.00  0.00     0.068 A 
ATOM      3  C   UNL d   1      30.105 -17.515  -3.759  0.00  0.00     0.079 A 
ATOM      4  N   UNL d   1      29.895 -17.450  -2.477  0.00  0.00    -0.160 NA
ATOM      5  C   UNL d   1      30.788 -18.704  -4.370  0.00  0.00    -0.015 A 
ATOM      6  C   UNL d   1      30.992 -18.770  -5.703  0.00  0.00     0.007 A 
ATOM      7  C   UNL d   1      31.655 -19.944  -6.370  0.00  0.00     0.070 C 
ATOM      8  C   UNL d   1      31.715 -21.164  -5.501  0.00  0.00    -0.026 C 
ATOM      9  C   UNL d   1      31.512 -21.116  -4.176  0.00  0.00    -0.026 C 
ATOM     10  C   UNL d   1      31.209 -19.829  -3.448  0.00  0.00     0.068 C 
ATOM     11  C   UNL d   1      30.555 -17.698  -6.641  0.00  0.00     0.207 A 
ATOM     12  O   UNL d   1      30.737 -17.792  -7.856  0.00  0.00    -0.285 OA
ENDROOT
BRANCH   1  13
ATOM     13  N   UNL d   1      29.505 -15.450  -6.866  0.00  0.00    -0.294 N 
ATOM     14  H   UNL d   1      30.125 -15.232  -7.656  0.00  0.00     0.187 HD
BRANCH  13  15
ATOM     15  N   UNL d   1      28.849 -14.326  -6.317  0.00  0.00    -0.265 N 
ATOM     16  C   UNL d   1      27.591 -14.485  -5.769  0.00  0.00     0.269 C 
ATOM     17  O   UNL d   1      26.986 -15.555  -5.740  0.00  0.00    -0.266 OA
ATOM     18  H   UNL d   1      29.343 -13.438  -6.299  0.00  0.00     0.190 HD
BRANCH  16  19
ATOM     19  C   UNL d   1      27.004 -13.224  -5.214  0.00  0.00     0.032 C 
ATOM     20  C   UNL d   1      27.137 -12.059  -5.890  0.00  0.00     0.010 C 
ATOM     21  C   UNL d   1      26.646 -10.759  -5.302  0.00  0.00     0.147 C 
ATOM     22  N   UNL d   1      25.529 -11.061  -4.419  0.00  0.00    -0.395 N 
ATOM     23  C   UNL d   1      25.576 -12.155  -3.592  0.00  0.00     0.084 C 
ATOM     24  H   UNL d   1      24.807 -10.363  -4.280  0.00  0.00     0.159 HD
ATOM     25  C   UNL d   1      26.338 -13.213  -3.914  0.00  0.00     0.033 C 
ENDBRANCH  16  19
ENDBRANCH  13  15
ENDBRANCH   1  13
BRANCH   4  26
ATOM     26  S   UNL d   1      29.144 -16.135  -1.868  0.00  0.00     0.283 S 
ATOM     27  O   UNL d   1      29.765 -15.809  -0.599  0.00  0.00    -0.198 OA
ATOM     28  O   UNL d   1      29.052 -15.127  -2.909  0.00  0.00    -0.198 OA
BRANCH  26  29
ATOM     29  C   UNL d   1      27.481 -16.631  -1.521  0.00  0.00     0.081 A 
ATOM     30  C   UNL d   1      26.444 -16.113  -2.300  0.00  0.00     0.027 A 
ATOM     31  C   UNL d   1      25.127 -16.467  -2.007  0.00  0.00     0.020 A 
ATOM     32  C   UNL d   1      24.861 -17.324  -0.938  0.00  0.00     0.011 A 
ATOM     33 BR   UNL d   1      23.078 -17.825  -0.562  0.00  0.00    -0.051 Br
ATOM     34  C   UNL d   1      25.897 -17.818  -0.143  0.00  0.00     0.020 A 
ATOM     35  C   UNL d   1      27.215 -17.464  -0.428  0.00  0.00     0.027 A 
ENDBRANCH  26  29
ENDBRANCH   4  26
TORSDOF 5
ENDMDL
MODEL 5
REMARK VINA RESULT:    -9.112      3.553      7.417
REMARK INTER + INTRA:         -12.324
REMARK INTER:                 -10.603
REMARK INTRA:                  -1.721
REMARK CONF_INDEPENDENT:        1.492
REMARK UNBOUND:                -1.721
REMARK  5 active torsions:
REMARK  status: ('A' for Active; 'I' for Inactive)
REMARK       I    between atoms: C_2  and  N_3 
REMARK    1  A    between atoms: C_2  and  C_27 
REMARK    2  A    between atoms: N_3  and  N_4 
REMARK    3  A    between atoms: N_4  and  C_5 
REMARK    4  A    between atoms: N_8  and  S_9 
REMARK    5  A    between atoms: S_9  and  C_12 
ROOT
ATOM      1  C   UNL d   1      30.301 -16.195  -1.859  0.00  0.00     0.101 A 
ATOM      2  C   UNL d   1      29.024 -16.358  -1.511  0.00  0.00     0.068 A 
ATOM      3  C   UNL d   1      27.836 -16.093  -2.362  0.00  0.00     0.079 A 
ATOM      4  N   UNL d   1      26.604 -16.264  -1.987  0.00  0.00    -0.160 NA
ATOM      5  C   UNL d   1      28.162 -15.601  -3.743  0.00  0.00    -0.015 A 
ATOM      6  C   UNL d   1      29.445 -15.415  -4.121  0.00  0.00     0.007 A 
ATOM      7  C   UNL d   1      29.827 -14.908  -5.485  0.00  0.00     0.070 C 
ATOM      8  C   UNL d   1      28.685 -14.278  -6.226  0.00  0.00    -0.026 C 
ATOM      9  C   UNL d   1      27.407 -14.452  -5.861  0.00  0.00    -0.026 C 
ATOM     10  C   UNL d   1      27.009 -15.297  -4.676  0.00  0.00     0.068 C 
ATOM     11  C   UNL d   1      30.600 -15.668  -3.215  0.00  0.00     0.207 A 
ATOM     12  O   UNL d   1      31.760 -15.471  -3.580  0.00  0.00    -0.285 OA
ENDROOT
BRANCH   1  13
ATOM     13  N   UNL d   1      31.330 -16.473  -0.974  0.00  0.00    -0.294 N 
ATOM     14  H   UNL d   1      32.272 -16.212  -1.290  0.00  0.00     0.187 HD
BRANCH  13  15
ATOM     15  N   UNL d   1      31.290 -17.632  -0.167  0.00  0.00    -0.265 N 
ATOM     16  C   UNL d   1      32.455 -18.344   0.041  0.00  0.00     0.269 C 
ATOM     17  O   UNL d   1      33.542 -18.041  -0.447  0.00  0.00    -0.266 OA
ATOM     18  H   UNL d   1      30.411 -17.884   0.275  0.00  0.00     0.190 HD
BRANCH  16  19
ATOM     19  C   UNL d   1      32.285 -19.548   0.918  0.00  0.00     0.032 C 
ATOM     20  C   UNL d   1      31.790 -20.697   0.403  0.00  0.00     0.010 C 
ATOM     21  C   UNL d   1      31.512 -21.888   1.286  0.00  0.00     0.147 C 
ATOM     22  N   UNL d   1      32.433 -21.834   2.413  0.00  0.00    -0.395 N 
ATOM     23  C   UNL d   1      32.708 -20.638   3.026  0.00  0.00     0.084 C 
ATOM     24  H   UNL d   1      32.720 -22.699   2.857  0.00  0.00     0.159 HD
ATOM     25  C   UNL d   1      32.586 -19.487   2.346  0.00  0.00     0.033 C 
ENDBRANCH  16  19
ENDBRANCH  13  15
ENDBRANCH   1  13
BRANCH   4  26
ATOM     26  S   UNL d   1      26.308 -16.797  -0.473  0.00  0.00     0.283 S 
ATOM     27  O   UNL d   1      27.176 -17.930  -0.216  0.00  0.00    -0.198 OA
ATOM     28  O   UNL d   1      26.313 -15.661   0.431  0.00  0.00    -0.198 OA
BRANCH  26  29
ATOM     29  C   UNL d   1      24.646 -17.407  -0.479  0.00  0.00     0.081 A 
ATOM     30  C   UNL d   1      24.432 -18.787  -0.446  0.00  0.00     0.027 A 
ATOM     31  C   UNL d   1      23.127 -19.276  -0.491  0.00  0.00     0.020 A 
ATOM     32  C   UNL d   1      22.055 -18.386  -0.577  0.00  0.00     0.011 A 
ATOM     33 BR   UNL d   1      20.287 -19.053  -0.609  0.00  0.00    -0.051 Br
ATOM     34  C   UNL d   1      22.273 -17.009  -0.640  0.00  0.00     0.020 A 
ATOM     35  C   UNL d   1      23.576 -16.514  -0.599  0.00  0.00     0.027 A 
ENDBRANCH  26  29
ENDBRANCH   4  26
TORSDOF 5
ENDMDL
MODEL 6
REMARK VINA RESULT:    -8.832      3.969      8.963
REMARK INTER + INTRA:         -12.015
REMARK INTER:                 -10.324
REMARK INTRA:                  -1.692
REMARK CONF_INDEPENDENT:        1.492
REMARK UNBOUND:                -1.692
REMARK  5 active torsions:
REMARK  status: ('A' for Active; 'I' for Inactive)
REMARK       I    between atoms: C_2  and  N_3 
REMARK    1  A    between atoms: C_2  and  C_27 
REMARK    2  A    between atoms: N_3  and  N_4 
REMARK    3  A    between atoms: N_4  and  C_5 
REMARK    4  A    between atoms: N_8  and  S_9 
REMARK    5  A    between atoms: S_9  and  C_12 
ROOT
ATOM      1  C   UNL d   1      28.304 -17.074  -1.462  0.00  0.00     0.101 A 
ATOM      2  C   UNL d   1      27.838 -16.197  -2.352  0.00  0.00     0.068 A 
ATOM      3  C   UNL d   1      26.427 -15.760  -2.505  0.00  0.00     0.079 A 
ATOM      4  N   UNL d   1      26.010 -14.901  -3.387  0.00  0.00    -0.160 NA
ATOM      5  C   UNL d   1      25.474 -16.393  -1.533  0.00  0.00    -0.015 A 
ATOM      6  C   UNL d   1      25.914 -17.294  -0.627  0.00  0.00     0.007 A 
ATOM      7  C   UNL d   1      25.000 -17.971   0.358  0.00  0.00     0.070 C 
ATOM      8  C   UNL d   1      23.549 -17.855  -0.001  0.00  0.00    -0.026 C 
ATOM      9  C   UNL d   1      23.098 -16.967  -0.899  0.00  0.00    -0.026 C 
ATOM     10  C   UNL d   1      24.012 -16.010  -1.624  0.00  0.00     0.068 C 
ATOM     11  C   UNL d   1      27.338 -17.720  -0.538  0.00  0.00     0.207 A 
ATOM     12  O   UNL d   1      27.709 -18.559   0.286  0.00  0.00    -0.285 OA
ENDROOT
BRANCH   1  13
ATOM     13  N   UNL d   1      29.648 -17.409  -1.416  0.00  0.00    -0.294 N 
ATOM     14  H   UNL d   1      30.172 -17.272  -2.289  0.00  0.00     0.187 HD
BRANCH  13  15
ATOM     15  N   UNL d   1      30.089 -18.506  -0.643  0.00  0.00    -0.265 N 
ATOM     16  C   UNL d   1      31.189 -19.226  -1.066  0.00  0.00     0.269 C 
ATOM     17  O   UNL d   1      31.815 -18.981  -2.096  0.00  0.00    -0.266 OA
ATOM     18  H   UNL d   1      29.608 -18.707   0.230  0.00  0.00     0.190 HD
BRANCH  16  19
ATOM     19  C   UNL d   1      31.561 -20.359  -0.159  0.00  0.00     0.032 C 
ATOM     20  C   UNL d   1      32.727 -20.325   0.526  0.00  0.00     0.010 C 
ATOM     21  C   UNL d   1      33.171 -21.499   1.364  0.00  0.00     0.147 C 
ATOM     22  N   UNL d   1      31.979 -22.196   1.825  0.00  0.00    -0.395 N 
ATOM     23  C   UNL d   1      30.916 -22.384   0.978  0.00  0.00     0.084 C 
ATOM     24  H   UNL d   1      32.011 -22.701   2.703  0.00  0.00     0.159 HD
ATOM     25  C   UNL d   1      30.711 -21.542  -0.047  0.00  0.00     0.033 C 
ENDBRANCH  16  19
ENDBRANCH  13  15
ENDBRANCH   1  13
BRANCH   4  26
ATOM     26  S   UNL d   1      27.089 -14.246  -4.421  0.00  0.00     0.283 S 
ATOM     27  O   UNL d   1      28.351 -14.094  -3.722  0.00  0.00    -0.198 OA
ATOM     28  O   UNL d   1      27.039 -14.981  -5.673  0.00  0.00    -0.198 OA
BRANCH  26  29
ATOM     29  C   UNL d   1      26.499 -12.618  -4.788  0.00  0.00     0.081 A 
ATOM     30  C   UNL d   1      26.663 -12.114  -6.080  0.00  0.00     0.027 A 
ATOM     31  C   UNL d   1      26.237 -10.818  -6.367  0.00  0.00     0.020 A 
ATOM     32  C   UNL d   1      25.664 -10.038  -5.360  0.00  0.00     0.011 A 
ATOM     33 BR   UNL d   1      25.062  -8.292  -5.760  0.00  0.00    -0.051 Br
ATOM     34  C   UNL d   1      25.529 -10.533  -4.062  0.00  0.00     0.020 A 
ATOM     35  C   UNL d   1      25.956 -11.827  -3.769  0.00  0.00     0.027 A 
ENDBRANCH  26  29
ENDBRANCH   4  26
TORSDOF 5
ENDMDL
MODEL 7
REMARK VINA RESULT:    -8.742      5.255      7.894
REMARK INTER + INTRA:         -11.854
REMARK INTER:                 -10.234
REMARK INTRA:                  -1.620
REMARK CONF_INDEPENDENT:        1.492
REMARK UNBOUND:                -1.620
REMARK  5 active torsions:
REMARK  status: ('A' for Active; 'I' for Inactive)
REMARK       I    between atoms: C_2  and  N_3 
REMARK    1  A    between atoms: C_2  and  C_27 
REMARK    2  A    between atoms: N_3  and  N_4 
REMARK    3  A    between atoms: N_4  and  C_5 
REMARK    4  A    between atoms: N_8  and  S_9 
REMARK    5  A    between atoms: S_9  and  C_12 
ROOT
ATOM      1  C   UNL d   1      28.493 -13.815   2.098  0.00  0.00     0.101 A 
ATOM      2  C   UNL d   1      28.376 -14.492   0.954  0.00  0.00     0.068 A 
ATOM      3  C   UNL d   1      28.081 -13.919  -0.383  0.00  0.00     0.079 A 
ATOM      4  N   UNL d   1      27.974 -14.612  -1.478  0.00  0.00    -0.160 NA
ATOM      5  C   UNL d   1      27.914 -12.427  -0.395  0.00  0.00    -0.015 A 
ATOM      6  C   UNL d   1      28.015 -11.715   0.749  0.00  0.00     0.007 A 
ATOM      7  C   UNL d   1      27.839 -10.222   0.798  0.00  0.00     0.070 C 
ATOM      8  C   UNL d   1      27.178  -9.661  -0.426  0.00  0.00    -0.026 C 
ATOM      9  C   UNL d   1      27.068 -10.356  -1.567  0.00  0.00    -0.026 C 
ATOM     10  C   UNL d   1      27.601 -11.760  -1.718  0.00  0.00     0.068 C 
ATOM     11  C   UNL d   1      28.283 -12.345   2.072  0.00  0.00     0.207 A 
ATOM     12  O   UNL d   1      28.351 -11.674   3.103  0.00  0.00    -0.285 OA
ENDROOT
BRANCH   1  13
ATOM     13  N   UNL d   1      28.769 -14.461   3.293  0.00  0.00    -0.294 N 
ATOM     14  H   UNL d   1      28.357 -15.397   3.398  0.00  0.00     0.187 HD
BRANCH  13  15
ATOM     15  N   UNL d   1      28.865 -13.731   4.498  0.00  0.00    -0.265 N 
ATOM     16  C   UNL d   1      28.524 -14.350   5.686  0.00  0.00     0.269 C 
ATOM     17  O   UNL d   1      28.122 -15.509   5.765  0.00  0.00    -0.266 OA
ATOM     18  H   UNL d   1      29.228 -12.783   4.462  0.00  0.00     0.190 HD
BRANCH  16  19
ATOM     19  C   UNL d   1      28.675 -13.475   6.893  0.00  0.00     0.032 C 
ATOM     20  C   UNL d   1      28.571 -12.132   6.774  0.00  0.00     0.010 C 
ATOM     21  C   UNL d   1      28.822 -11.225   7.954  0.00  0.00     0.147 C 
ATOM     22  N   UNL d   1      28.483 -11.961   9.163  0.00  0.00    -0.395 N 
ATOM     23  C   UNL d   1      28.832 -13.282   9.290  0.00  0.00     0.084 C 
ATOM     24  H   UNL d   1      28.161 -11.451   9.978  0.00  0.00     0.159 HD
ATOM     25  C   UNL d   1      28.998 -14.045   8.199  0.00  0.00     0.033 C 
ENDBRANCH  16  19
ENDBRANCH  13  15
ENDBRANCH   1  13
BRANCH   4  26
ATOM     26  S   UNL d   1      28.161 -16.231  -1.406  0.00  0.00     0.283 S 
ATOM     27  O   UNL d   1      28.551 -16.699  -2.722  0.00  0.00    -0.198 OA
ATOM     28  O   UNL d   1      28.979 -16.555  -0.251  0.00  0.00    -0.198 OA
BRANCH  26  29
ATOM     29  C   UNL d   1      26.558 -16.901  -1.071  0.00  0.00     0.081 A 
ATOM     30  C   UNL d   1      25.481 -16.515  -1.872  0.00  0.00     0.027 A 
ATOM     31  C   UNL d   1      24.208 -17.007  -1.590  0.00  0.00     0.020 A 
ATOM     32  C   UNL d   1      24.022 -17.869  -0.507  0.00  0.00     0.011 A 
ATOM     33 BR   UNL d   1      22.299 -18.556  -0.144  0.00  0.00    -0.051 Br
ATOM     34  C   UNL d   1      25.094 -18.230   0.311  0.00  0.00     0.020 A 
ATOM     35  C   UNL d   1      26.369 -17.738   0.035  0.00  0.00     0.027 A 
ENDBRANCH  26  29
ENDBRANCH   4  26
TORSDOF 5
ENDMDL
MODEL 8
REMARK VINA RESULT:    -8.290      3.769      7.174
REMARK INTER + INTRA:         -12.007
REMARK INTER:                  -9.782
REMARK INTRA:                  -2.225
REMARK CONF_INDEPENDENT:        1.492
REMARK UNBOUND:                -2.225
REMARK  5 active torsions:
REMARK  status: ('A' for Active; 'I' for Inactive)
REMARK       I    between atoms: C_2  and  N_3 
REMARK    1  A    between atoms: C_2  and  C_27 
REMARK    2  A    between atoms: N_3  and  N_4 
REMARK    3  A    between atoms: N_4  and  C_5 
REMARK    4  A    between atoms: N_8  and  S_9 
REMARK    5  A    between atoms: S_9  and  C_12 
ROOT
ATOM      1  C   UNL d   1      27.282 -17.135  -0.905  0.00  0.00     0.101 A 
ATOM      2  C   UNL d   1      26.750 -16.273  -1.773  0.00  0.00     0.068 A 
ATOM      3  C   UNL d   1      25.304 -16.017  -1.987  0.00  0.00     0.079 A 
ATOM      4  N   UNL d   1      24.821 -15.168  -2.845  0.00  0.00    -0.160 NA
ATOM      5  C   UNL d   1      24.395 -16.828  -1.110  0.00  0.00    -0.015 A 
ATOM      6  C   UNL d   1      24.903 -17.717  -0.229  0.00  0.00     0.007 A 
ATOM      7  C   UNL d   1      24.038 -18.567   0.661  0.00  0.00     0.070 C 
ATOM      8  C   UNL d   1      22.605 -18.621   0.223  0.00  0.00    -0.026 C 
ATOM      9  C   UNL d   1      22.087 -17.747  -0.653  0.00  0.00    -0.026 C 
ATOM     10  C   UNL d   1      22.901 -16.636  -1.268  0.00  0.00     0.068 C 
ATOM     11  C   UNL d   1      26.365 -17.957  -0.076  0.00  0.00     0.207 A 
ATOM     12  O   UNL d   1      26.801 -18.789   0.722  0.00  0.00    -0.285 OA
ENDROOT
BRANCH   1  13
ATOM     13  N   UNL d   1      28.655 -17.293  -0.796  0.00  0.00    -0.294 N 
ATOM     14  H   UNL d   1      29.009 -18.243  -0.961  0.00  0.00     0.187 HD
BRANCH  13  15
ATOM     15  N   UNL d   1      29.387 -16.561   0.165  0.00  0.00    -0.265 N 
ATOM     16  C   UNL d   1      29.683 -15.234  -0.085  0.00  0.00     0.269 C 
ATOM     17  O   UNL d   1      29.358 -14.640  -1.111  0.00  0.00    -0.266 OA
ATOM     18  H   UNL d   1      29.637 -17.020   1.036  0.00  0.00     0.190 HD
BRANCH  16  19
ATOM     19  C   UNL d   1      30.456 -14.566   1.011  0.00  0.00     0.032 C 
ATOM     20  C   UNL d   1      29.811 -13.838   1.950  0.00  0.00     0.010 C 
ATOM     21  C   UNL d   1      30.575 -13.071   3.001  0.00  0.00     0.147 C 
ATOM     22  N   UNL d   1      31.832 -13.768   3.236  0.00  0.00    -0.395 N 
ATOM     23  C   UNL d   1      32.543 -14.287   2.184  0.00  0.00     0.084 C 
ATOM     24  H   UNL d   1      32.269 -13.702   4.149  0.00  0.00     0.159 HD
ATOM     25  C   UNL d   1      31.915 -14.633   1.050  0.00  0.00     0.033 C 
ENDBRANCH  16  19
ENDBRANCH  13  15
ENDBRANCH   1  13
BRANCH   4  26
ATOM     26  S   UNL d   1      25.856 -14.315  -3.776  0.00  0.00     0.283 S 
ATOM     27  O   UNL d   1      26.809 -15.241  -4.357  0.00  0.00    -0.198 OA
ATOM     28  O   UNL d   1      25.089 -13.431  -4.636  0.00  0.00    -0.198 OA
BRANCH  26  29
ATOM     29  C   UNL d   1      26.758 -13.262  -2.676  0.00  0.00     0.081 A 
ATOM     30  C   UNL d   1      27.820 -12.507  -3.181  0.00  0.00     0.027 A 
ATOM     31  C   UNL d   1      28.561 -11.705  -2.313  0.00  0.00     0.020 A 
ATOM     32  C   UNL d   1      28.241 -11.675  -0.955  0.00  0.00     0.011 A 
ATOM     33 BR   UNL d   1      29.230 -10.565   0.213  0.00  0.00    -0.051 Br
ATOM     34  C   UNL d   1      27.200 -12.453  -0.447  0.00  0.00     0.020 A 
ATOM     35  C   UNL d   1      26.457 -13.259  -1.309  0.00  0.00     0.027 A 
ENDBRANCH  26  29
ENDBRANCH   4  26
TORSDOF 5
ENDMDL
MODEL 9
REMARK VINA RESULT:    -7.877      3.446      5.851
REMARK INTER + INTRA:         -11.897
REMARK INTER:                  -9.368
REMARK INTRA:                  -2.528
REMARK CONF_INDEPENDENT:        1.492
REMARK UNBOUND:                -2.528
REMARK  5 active torsions:
REMARK  status: ('A' for Active; 'I' for Inactive)
REMARK       I    between atoms: C_2  and  N_3 
REMARK    1  A    between atoms: C_2  and  C_27 
REMARK    2  A    between atoms: N_3  and  N_4 
REMARK    3  A    between atoms: N_4  and  C_5 
REMARK    4  A    between atoms: N_8  and  S_9 
REMARK    5  A    between atoms: S_9  and  C_12 
ROOT
ATOM      1  C   UNL d   1      28.529 -15.857  -3.111  0.00  0.00     0.101 A 
ATOM      2  C   UNL d   1      27.322 -15.347  -3.357  0.00  0.00     0.068 A 
ATOM      3  C   UNL d   1      26.098 -15.544  -2.539  0.00  0.00     0.079 A 
ATOM      4  N   UNL d   1      24.936 -15.030  -2.811  0.00  0.00    -0.160 NA
ATOM      5  C   UNL d   1      26.298 -16.402  -1.324  0.00  0.00    -0.015 A 
ATOM      6  C   UNL d   1      27.506 -16.942  -1.054  0.00  0.00     0.007 A 
ATOM      7  C   UNL d   1      27.757 -17.823   0.139  0.00  0.00     0.070 C 
ATOM      8  C   UNL d   1      26.500 -18.350   0.764  0.00  0.00    -0.026 C 
ATOM      9  C   UNL d   1      25.293 -17.826   0.505  0.00  0.00    -0.026 C 
ATOM     10  C   UNL d   1      25.098 -16.663  -0.437  0.00  0.00     0.068 C 
ATOM     11  C   UNL d   1      28.695 -16.737  -1.927  0.00  0.00     0.207 A 
ATOM     12  O   UNL d   1      29.782 -17.257  -1.668  0.00  0.00    -0.285 OA
ENDROOT
BRANCH   1  13
ATOM     13  N   UNL d   1      29.602 -15.606  -3.953  0.00  0.00    -0.294 N 
ATOM     14  H   UNL d   1      30.520 -15.910  -3.607  0.00  0.00     0.187 HD
BRANCH  13  15
ATOM     15  N   UNL d   1      29.639 -14.433  -4.739  0.00  0.00    -0.265 N 
ATOM     16  C   UNL d   1      28.787 -14.324  -5.821  0.00  0.00     0.269 C 
ATOM     17  O   UNL d   1      27.994 -15.200  -6.161  0.00  0.00    -0.266 OA
ATOM     18  H   UNL d   1      30.262 -13.681  -4.458  0.00  0.00     0.190 HD
BRANCH  16  19
ATOM     19  C   UNL d   1      28.916 -13.033  -6.570  0.00  0.00     0.032 C 
ATOM     20  C   UNL d   1      28.539 -12.961  -7.867  0.00  0.00     0.010 C 
ATOM     21  C   UNL d   1      28.755 -11.702  -8.671  0.00  0.00     0.147 C 
ATOM     22  N   UNL d   1      28.722 -10.574  -7.752  0.00  0.00    -0.395 N 
ATOM     23  C   UNL d   1      29.333 -10.659  -6.527  0.00  0.00     0.084 C 
ATOM     24  H   UNL d   1      28.412  -9.670  -8.092  0.00  0.00     0.159 HD
ATOM     25  C   UNL d   1      29.506 -11.854  -5.941  0.00  0.00     0.033 C 
ENDBRANCH  16  19
ENDBRANCH  13  15
ENDBRANCH   1  13
BRANCH   4  26
ATOM     26  S   UNL d   1      24.776 -14.107  -4.147  0.00  0.00     0.283 S 
ATOM     27  O   UNL d   1      25.428 -14.789  -5.248  0.00  0.00    -0.198 OA
ATOM     28  O   UNL d   1      23.387 -13.700  -4.269  0.00  0.00    -0.198 OA
BRANCH  26  29
ATOM     29  C   UNL d   1      25.692 -12.625  -3.838  0.00  0.00     0.081 A 
ATOM     30  C   UNL d   1      25.915 -11.735  -4.891  0.00  0.00     0.027 A 
ATOM     31  C   UNL d   1      26.670 -10.584  -4.665  0.00  0.00     0.020 A 
ATOM     32  C   UNL d   1      27.201 -10.342  -3.397  0.00  0.00     0.011 A 
ATOM     33 BR   UNL d   1      28.200  -8.768  -3.087  0.00  0.00    -0.051 Br
ATOM     34  C   UNL d   1      27.003 -11.248  -2.354  0.00  0.00     0.020 A 
ATOM     35  C   UNL d   1      26.251 -12.401  -2.575  0.00  0.00     0.027 A 
ENDBRANCH  26  29
ENDBRANCH   4  26
TORSDOF 5
ENDMDL
