MODEL 1
REMARK VINA RESULT:    -8.457      0.000      0.000
REMARK INTER + INTRA:         -11.217
REMARK INTER:                  -9.948
REMARK INTRA:                  -1.268
REMARK CONF_INDEPENDENT:        1.492
REMARK UNBOUND:                -1.268
REMARK  5 active torsions:
REMARK  status: ('A' for Active; 'I' for Inactive)
REMARK    1  A    between atoms: C_5  and  C_6 
REMARK       I    between atoms: C_6  and  N_8 
REMARK    2  A    between atoms: N_8  and  N_9 
REMARK       I    between atoms: N_9  and  C_10 
REMARK    3  A    between atoms: C_10  and  C_12 
REMARK    4  A    between atoms: C_12  and  C_13 
REMARK    5  A    between atoms: C_18  and  O_19 
ROOT
ATOM      1  C   UNL d   1      24.122 -16.979  -0.777  0.00  0.00     0.272 C 
ATOM      2  O   UNL d   1      23.457 -16.026  -1.212  0.00  0.00    -0.266 OA
ATOM      3  N   UNL d   1      23.519 -18.063  -0.158  0.00  0.00    -0.263 N 
ATOM      4  H   UNL d   1      24.016 -18.872   0.216  0.00  0.00     0.190 HD
ENDROOT
BRANCH   3   5
ATOM      5  N   UNL d   1      22.090 -18.130  -0.006  0.00  0.00    -0.267 N 
ATOM      6  C   UNL d   1      21.385 -18.800  -0.989  0.00  0.00     0.236 C 
ATOM      7  O   UNL d   1      22.018 -19.325  -1.914  0.00  0.00    -0.272 OA
ATOM      8  H   UNL d   1      21.692 -17.687   0.817  0.00  0.00     0.190 HD
BRANCH   6   9
ATOM      9  C   UNL d   1      19.828 -18.860  -0.895  0.00  0.00     0.113 C 
BRANCH   9  10
ATOM     10  C   UNL d   1      19.462 -20.069   0.017  0.00  0.00     0.017 C 
ATOM     11  C   UNL d   1      19.658 -19.736   1.471  0.00  0.00    -0.026 C 
ATOM     12  C   UNL d   1      18.904 -20.495   2.270  0.00  0.00    -0.030 C 
ATOM     13  C   UNL d   1      18.030 -21.414   1.487  0.00  0.00     0.027 C 
ATOM     14  C   UNL d   1      18.116 -20.830   0.053  0.00  0.00     0.012 C 
ENDBRANCH   9  10
ENDBRANCH   6   9
ENDBRANCH   3   5
BRANCH   1  15
ATOM     15  C   UNL d   1      25.626 -16.951  -0.934  0.00  0.00     0.066 A 
ATOM     16  C   UNL d   1      26.264 -16.226  -1.954  0.00  0.00     0.020 A 
ATOM     17  C   UNL d   1      27.670 -16.205  -2.066  0.00  0.00     0.008 A 
ATOM     18  C   UNL d   1      28.474 -16.898  -1.157  0.00  0.00    -0.059 A 
ATOM     19  C   UNL d   1      29.974 -16.876  -1.236  0.00  0.00     0.048 C 
ATOM     20  C   UNL d   1      27.850 -17.630  -0.145  0.00  0.00     0.044 A 
ATOM     21  C   UNL d   1      26.452 -17.663  -0.039  0.00  0.00     0.082 A 
BRANCH  21  22
ATOM     22  O   UNL d   1      25.977 -18.436   0.991  0.00  0.00    -0.360 OA
ATOM     23  H   UNL d   1      26.683 -18.514   1.667  0.00  0.00     0.217 HD
ENDBRANCH  21  22
ENDBRANCH   1  15
TORSDOF 5
ENDMDL
MODEL 2
REMARK VINA RESULT:    -7.812      1.370      7.980
REMARK INTER + INTRA:         -11.167
REMARK INTER:                  -9.303
REMARK INTRA:                  -1.864
REMARK CONF_INDEPENDENT:        1.492
REMARK UNBOUND:                -1.864
REMARK  5 active torsions:
REMARK  status: ('A' for Active; 'I' for Inactive)
REMARK    1  A    between atoms: C_5  and  C_6 
REMARK       I    between atoms: C_6  and  N_8 
REMARK    2  A    between atoms: N_8  and  N_9 
REMARK       I    between atoms: N_9  and  C_10 
REMARK    3  A    between atoms: C_10  and  C_12 
REMARK    4  A    between atoms: C_12  and  C_13 
REMARK    5  A    between atoms: C_18  and  O_19 
ROOT
ATOM      1  C   UNL d   1      21.931 -18.151  -0.251  0.00  0.00     0.272 C 
ATOM      2  O   UNL d   1      21.604 -17.246  -1.034  0.00  0.00    -0.266 OA
ATOM      3  N   UNL d   1      23.248 -18.323   0.151  0.00  0.00    -0.263 N 
ATOM      4  H   UNL d   1      23.571 -19.048   0.792  0.00  0.00     0.190 HD
ENDROOT
BRANCH   3   5
ATOM      5  N   UNL d   1      24.287 -17.447  -0.318  0.00  0.00    -0.267 N 
ATOM      6  C   UNL d   1      25.555 -17.646   0.196  0.00  0.00     0.236 C 
ATOM      7  O   UNL d   1      25.729 -18.575   0.995  0.00  0.00    -0.272 OA
ATOM      8  H   UNL d   1      24.024 -16.744  -1.002  0.00  0.00     0.190 HD
BRANCH   6   9
ATOM      9  C   UNL d   1      26.709 -16.692  -0.247  0.00  0.00     0.113 C 
BRANCH   9  10
ATOM     10  C   UNL d   1      26.490 -16.361  -1.753  0.00  0.00     0.017 C 
ATOM     11  C   UNL d   1      25.452 -15.287  -1.931  0.00  0.00    -0.026 C 
ATOM     12  C   UNL d   1      25.598 -14.629  -3.084  0.00  0.00    -0.030 C 
ATOM     13  C   UNL d   1      26.793 -15.104  -3.839  0.00  0.00     0.027 C 
ATOM     14  C   UNL d   1      27.567 -15.923  -2.773  0.00  0.00     0.012 C 
ENDBRANCH   9  10
ENDBRANCH   6   9
ENDBRANCH   3   5
BRANCH   1  15
ATOM     15  C   UNL d   1      20.863 -19.081   0.275  0.00  0.00     0.066 A 
ATOM     16  C   UNL d   1      20.656 -19.291   1.650  0.00  0.00     0.020 A 
ATOM     17  C   UNL d   1      19.640 -20.152   2.113  0.00  0.00     0.008 A 
ATOM     18  C   UNL d   1      18.798 -20.818   1.218  0.00  0.00    -0.059 A 
ATOM     19  C   UNL d   1      17.692 -21.724   1.681  0.00  0.00     0.048 C 
ATOM     20  C   UNL d   1      19.001 -20.625  -0.150  0.00  0.00     0.044 A 
ATOM     21  C   UNL d   1      20.019 -19.779  -0.613  0.00  0.00     0.082 A 
BRANCH  21  22
ATOM     22  O   UNL d   1      20.114 -19.698  -1.980  0.00  0.00    -0.360 OA
ATOM     23  H   UNL d   1      20.315 -18.768  -2.220  0.00  0.00     0.217 HD
ENDBRANCH  21  22
ENDBRANCH   1  15
TORSDOF 5
ENDMDL
MODEL 3
REMARK VINA RESULT:    -7.439      2.858      4.137
REMARK INTER + INTRA:         -10.844
REMARK INTER:                  -8.930
REMARK INTRA:                  -1.914
REMARK CONF_INDEPENDENT:        1.492
REMARK UNBOUND:                -1.914
REMARK  5 active torsions:
REMARK  status: ('A' for Active; 'I' for Inactive)
REMARK    1  A    between atoms: C_5  and  C_6 
REMARK       I    between atoms: C_6  and  N_8 
REMARK    2  A    between atoms: N_8  and  N_9 
REMARK       I    between atoms: N_9  and  C_10 
REMARK    3  A    between atoms: C_10  and  C_12 
REMARK    4  A    between atoms: C_12  and  C_13 
REMARK    5  A    between atoms: C_18  and  O_19 
ROOT
ATOM      1  C   UNL d   1      25.874 -15.668  -2.034  0.00  0.00     0.272 C 
ATOM      2  O   UNL d   1      26.840 -16.397  -1.760  0.00  0.00    -0.266 OA
ATOM      3  N   UNL d   1      24.568 -16.079  -1.813  0.00  0.00    -0.263 N 
ATOM      4  H   UNL d   1      23.739 -15.521  -2.019  0.00  0.00     0.190 HD
ENDROOT
BRANCH   3   5
ATOM      5  N   UNL d   1      24.283 -17.368  -1.243  0.00  0.00    -0.267 N 
ATOM      6  C   UNL d   1      22.998 -17.577  -0.777  0.00  0.00     0.236 C 
ATOM      7  O   UNL d   1      22.168 -16.668  -0.905  0.00  0.00    -0.272 OA
ATOM      8  H   UNL d   1      25.042 -18.043  -1.226  0.00  0.00     0.190 HD
BRANCH   6   9
ATOM      9  C   UNL d   1      22.650 -18.945  -0.107  0.00  0.00     0.113 C 
BRANCH   9  10
ATOM     10  C   UNL d   1      21.115 -18.959   0.156  0.00  0.00     0.017 C 
ATOM     11  C   UNL d   1      20.344 -19.171  -1.119  0.00  0.00    -0.026 C 
ATOM     12  C   UNL d   1      19.135 -19.693  -0.898  0.00  0.00    -0.030 C 
ATOM     13  C   UNL d   1      18.918 -19.979   0.549  0.00  0.00     0.027 C 
ATOM     14  C   UNL d   1      20.349 -19.879   1.136  0.00  0.00     0.012 C 
ENDBRANCH   9  10
ENDBRANCH   6   9
ENDBRANCH   3   5
BRANCH   1  15
ATOM     15  C   UNL d   1      26.136 -14.300  -2.621  0.00  0.00     0.066 A 
ATOM     16  C   UNL d   1      27.296 -13.563  -2.326  0.00  0.00     0.020 A 
ATOM     17  C   UNL d   1      27.522 -12.295  -2.900  0.00  0.00     0.008 A 
ATOM     18  C   UNL d   1      26.602 -11.735  -3.791  0.00  0.00    -0.059 A 
ATOM     19  C   UNL d   1      26.826 -10.397  -4.438  0.00  0.00     0.048 C 
ATOM     20  C   UNL d   1      25.442 -12.454  -4.084  0.00  0.00     0.044 A 
ATOM     21  C   UNL d   1      25.209 -13.709  -3.504  0.00  0.00     0.082 A 
BRANCH  21  22
ATOM     22  O   UNL d   1      24.021 -14.293  -3.868  0.00  0.00    -0.360 OA
ATOM     23  H   UNL d   1      23.801 -14.000  -4.778  0.00  0.00     0.217 HD
ENDBRANCH  21  22
ENDBRANCH   1  15
TORSDOF 5
ENDMDL
MODEL 4
REMARK VINA RESULT:    -7.324      2.335      3.627
REMARK INTER + INTRA:         -10.002
REMARK INTER:                  -8.816
REMARK INTRA:                  -1.186
REMARK CONF_INDEPENDENT:        1.492
REMARK UNBOUND:                -1.186
REMARK  5 active torsions:
REMARK  status: ('A' for Active; 'I' for Inactive)
REMARK    1  A    between atoms: C_5  and  C_6 
REMARK       I    between atoms: C_6  and  N_8 
REMARK    2  A    between atoms: N_8  and  N_9 
REMARK       I    between atoms: N_9  and  C_10 
REMARK    3  A    between atoms: C_10  and  C_12 
REMARK    4  A    between atoms: C_12  and  C_13 
REMARK    5  A    between atoms: C_18  and  O_19 
ROOT
ATOM      1  C   UNL d   1      25.313 -15.928  -2.127  0.00  0.00     0.272 C 
ATOM      2  O   UNL d   1      24.215 -15.353  -2.066  0.00  0.00    -0.266 OA
ATOM      3  N   UNL d   1      25.672 -16.907  -1.212  0.00  0.00    -0.263 N 
ATOM      4  H   UNL d   1      26.559 -17.411  -1.217  0.00  0.00     0.190 HD
ENDROOT
BRANCH   3   5
ATOM      5  N   UNL d   1      24.775 -17.303  -0.161  0.00  0.00    -0.267 N 
ATOM      6  C   UNL d   1      23.690 -18.081  -0.521  0.00  0.00     0.236 C 
ATOM      7  O   UNL d   1      23.571 -18.415  -1.707  0.00  0.00    -0.272 OA
ATOM      8  H   UNL d   1      25.001 -16.993   0.780  0.00  0.00     0.190 HD
BRANCH   6   9
ATOM      9  C   UNL d   1      22.661 -18.499   0.577  0.00  0.00     0.113 C 
BRANCH   9  10
ATOM     10  C   UNL d   1      21.528 -19.303  -0.127  0.00  0.00     0.017 C 
ATOM     11  C   UNL d   1      20.526 -19.821   0.868  0.00  0.00    -0.026 C 
ATOM     12  C   UNL d   1      19.330 -20.043   0.315  0.00  0.00    -0.030 C 
ATOM     13  C   UNL d   1      19.312 -19.650  -1.123  0.00  0.00     0.027 C 
ATOM     14  C   UNL d   1      20.605 -18.806  -1.264  0.00  0.00     0.012 C 
ENDBRANCH   9  10
ENDBRANCH   6   9
ENDBRANCH   3   5
BRANCH   1  15
ATOM     15  C   UNL d   1      26.275 -15.549  -3.230  0.00  0.00     0.066 A 
ATOM     16  C   UNL d   1      27.639 -15.885  -3.189  0.00  0.00     0.020 A 
ATOM     17  C   UNL d   1      28.511 -15.532  -4.239  0.00  0.00     0.008 A 
ATOM     18  C   UNL d   1      28.041 -14.845  -5.363  0.00  0.00    -0.059 A 
ATOM     19  C   UNL d   1      28.940 -14.475  -6.509  0.00  0.00     0.048 C 
ATOM     20  C   UNL d   1      26.690 -14.497  -5.410  0.00  0.00     0.044 A 
ATOM     21  C   UNL d   1      25.824 -14.836  -4.360  0.00  0.00     0.082 A 
BRANCH  21  22
ATOM     22  O   UNL d   1      24.529 -14.416  -4.532  0.00  0.00    -0.360 OA
ATOM     23  H   UNL d   1      24.112 -14.335  -3.648  0.00  0.00     0.217 HD
ENDBRANCH  21  22
ENDBRANCH   1  15
TORSDOF 5
ENDMDL
MODEL 5
REMARK VINA RESULT:    -7.246      1.424      2.355
REMARK INTER + INTRA:         -10.823
REMARK INTER:                  -8.737
REMARK INTRA:                  -2.086
REMARK CONF_INDEPENDENT:        1.492
REMARK UNBOUND:                -2.086
REMARK  5 active torsions:
REMARK  status: ('A' for Active; 'I' for Inactive)
REMARK    1  A    between atoms: C_5  and  C_6 
REMARK       I    between atoms: C_6  and  N_8 
REMARK    2  A    between atoms: N_8  and  N_9 
REMARK       I    between atoms: N_9  and  C_10 
REMARK    3  A    between atoms: C_10  and  C_12 
REMARK    4  A    between atoms: C_12  and  C_13 
REMARK    5  A    between atoms: C_18  and  O_19 
ROOT
ATOM      1  C   UNL d   1      24.477 -18.150  -0.460  0.00  0.00     0.272 C 
ATOM      2  O   UNL d   1      24.842 -19.299  -0.166  0.00  0.00    -0.266 OA
ATOM      3  N   UNL d   1      23.175 -17.879  -0.852  0.00  0.00    -0.263 N 
ATOM      4  H   UNL d   1      22.822 -16.955  -1.103  0.00  0.00     0.190 HD
ENDROOT
BRANCH   3   5
ATOM      5  N   UNL d   1      22.189 -18.924  -0.923  0.00  0.00    -0.267 N 
ATOM      6  C   UNL d   1      20.877 -18.536  -1.128  0.00  0.00     0.236 C 
ATOM      7  O   UNL d   1      20.634 -17.331  -1.270  0.00  0.00    -0.272 OA
ATOM      8  H   UNL d   1      22.521 -19.879  -0.825  0.00  0.00     0.190 HD
BRANCH   6   9
ATOM      9  C   UNL d   1      19.763 -19.630  -1.166  0.00  0.00     0.113 C 
BRANCH   9  10
ATOM     10  C   UNL d   1      19.167 -19.740   0.268  0.00  0.00     0.017 C 
ATOM     11  C   UNL d   1      18.443 -21.044   0.460  0.00  0.00    -0.026 C 
ATOM     12  C   UNL d   1      18.377 -21.402   1.745  0.00  0.00    -0.030 C 
ATOM     13  C   UNL d   1      19.100 -20.436   2.620  0.00  0.00     0.027 C 
ATOM     14  C   UNL d   1      19.934 -19.613   1.605  0.00  0.00     0.012 C 
ENDBRANCH   9  10
ENDBRANCH   6   9
ENDBRANCH   3   5
BRANCH   1  15
ATOM     15  C   UNL d   1      25.482 -17.024  -0.381  0.00  0.00     0.066 A 
ATOM     16  C   UNL d   1      26.609 -17.075   0.457  0.00  0.00     0.020 A 
ATOM     17  C   UNL d   1      27.539 -16.016   0.498  0.00  0.00     0.008 A 
ATOM     18  C   UNL d   1      27.374 -14.884  -0.305  0.00  0.00    -0.059 A 
ATOM     19  C   UNL d   1      28.360 -13.749  -0.301  0.00  0.00     0.048 C 
ATOM     20  C   UNL d   1      26.254 -14.817  -1.134  0.00  0.00     0.044 A 
ATOM     21  C   UNL d   1      25.321 -15.864  -1.167  0.00  0.00     0.082 A 
BRANCH  21  22
ATOM     22  O   UNL d   1      24.261 -15.655  -2.014  0.00  0.00    -0.360 OA
ATOM     23  H   UNL d   1      24.365 -16.248  -2.788  0.00  0.00     0.217 HD
ENDBRANCH  21  22
ENDBRANCH   1  15
TORSDOF 5
ENDMDL
MODEL 6
REMARK VINA RESULT:    -6.990      4.060      5.914
REMARK INTER + INTRA:         -10.528
REMARK INTER:                  -8.482
REMARK INTRA:                  -2.047
REMARK CONF_INDEPENDENT:        1.492
REMARK UNBOUND:                -2.047
REMARK  5 active torsions:
REMARK  status: ('A' for Active; 'I' for Inactive)
REMARK    1  A    between atoms: C_5  and  C_6 
REMARK       I    between atoms: C_6  and  N_8 
REMARK    2  A    between atoms: N_8  and  N_9 
REMARK       I    between atoms: N_9  and  C_10 
REMARK    3  A    between atoms: C_10  and  C_12 
REMARK    4  A    between atoms: C_12  and  C_13 
REMARK    5  A    between atoms: C_18  and  O_19 
ROOT
ATOM      1  C   UNL d   1      25.805 -14.465  -4.024  0.00  0.00     0.272 C 
ATOM      2  O   UNL d   1      24.597 -14.182  -4.044  0.00  0.00    -0.266 OA
ATOM      3  N   UNL d   1      26.331 -15.340  -3.085  0.00  0.00    -0.263 N 
ATOM      4  H   UNL d   1      27.314 -15.607  -3.025  0.00  0.00     0.190 HD
ENDROOT
BRANCH   3   5
ATOM      5  N   UNL d   1      25.490 -15.965  -2.102  0.00  0.00    -0.267 N 
ATOM      6  C   UNL d   1      26.099 -16.835  -1.216  0.00  0.00     0.236 C 
ATOM      7  O   UNL d   1      27.323 -16.999  -1.298  0.00  0.00    -0.272 OA
ATOM      8  H   UNL d   1      24.503 -15.722  -2.115  0.00  0.00     0.190 HD
BRANCH   6   9
ATOM      9  C   UNL d   1      25.221 -17.575  -0.157  0.00  0.00     0.113 C 
BRANCH   9  10
ATOM     10  C   UNL d   1      23.835 -17.852  -0.811  0.00  0.00     0.017 C 
ATOM     11  C   UNL d   1      23.337 -19.230  -0.473  0.00  0.00    -0.026 C 
ATOM     12  C   UNL d   1      22.007 -19.322  -0.554  0.00  0.00    -0.030 C 
ATOM     13  C   UNL d   1      21.387 -18.009  -0.894  0.00  0.00     0.027 C 
ATOM     14  C   UNL d   1      22.548 -17.010  -0.650  0.00  0.00     0.012 C 
ENDBRANCH   9  10
ENDBRANCH   6   9
ENDBRANCH   3   5
BRANCH   1  15
ATOM     15  C   UNL d   1      26.718 -13.839  -5.054  0.00  0.00     0.066 A 
ATOM     16  C   UNL d   1      27.740 -14.561  -5.694  0.00  0.00     0.020 A 
ATOM     17  C   UNL d   1      28.566 -13.955  -6.663  0.00  0.00     0.008 A 
ATOM     18  C   UNL d   1      28.386 -12.618  -7.026  0.00  0.00    -0.059 A 
ATOM     19  C   UNL d   1      29.235 -11.951  -8.072  0.00  0.00     0.048 C 
ATOM     20  C   UNL d   1      27.380 -11.888  -6.391  0.00  0.00     0.044 A 
ATOM     21  C   UNL d   1      26.566 -12.485  -5.418  0.00  0.00     0.082 A 
BRANCH  21  22
ATOM     22  O   UNL d   1      25.631 -11.645  -4.865  0.00  0.00    -0.360 OA
ATOM     23  H   UNL d   1      24.780 -12.130  -4.805  0.00  0.00     0.217 HD
ENDBRANCH  21  22
ENDBRANCH   1  15
TORSDOF 5
ENDMDL
MODEL 7
REMARK VINA RESULT:    -6.809      1.467      2.213
REMARK INTER + INTRA:         -10.270
REMARK INTER:                  -8.300
REMARK INTRA:                  -1.970
REMARK CONF_INDEPENDENT:        1.492
REMARK UNBOUND:                -1.970
REMARK  5 active torsions:
REMARK  status: ('A' for Active; 'I' for Inactive)
REMARK    1  A    between atoms: C_5  and  C_6 
REMARK       I    between atoms: C_6  and  N_8 
REMARK    2  A    between atoms: N_8  and  N_9 
REMARK       I    between atoms: N_9  and  C_10 
REMARK    3  A    between atoms: C_10  and  C_12 
REMARK    4  A    between atoms: C_12  and  C_13 
REMARK    5  A    between atoms: C_18  and  O_19 
ROOT
ATOM      1  C   UNL d   1      24.892 -17.412  -0.374  0.00  0.00     0.272 C 
ATOM      2  O   UNL d   1      25.530 -17.734   0.640  0.00  0.00    -0.266 OA
ATOM      3  N   UNL d   1      23.550 -17.731  -0.520  0.00  0.00    -0.263 N 
ATOM      4  H   UNL d   1      22.979 -17.490  -1.330  0.00  0.00     0.190 HD
ENDROOT
BRANCH   3   5
ATOM      5  N   UNL d   1      22.840 -18.438   0.511  0.00  0.00    -0.267 N 
ATOM      6  C   UNL d   1      21.478 -18.604   0.335  0.00  0.00     0.236 C 
ATOM      7  O   UNL d   1      20.961 -18.168  -0.701  0.00  0.00    -0.272 OA
ATOM      8  H   UNL d   1      23.386 -18.778   1.298  0.00  0.00     0.190 HD
BRANCH   6   9
ATOM      9  C   UNL d   1      20.654 -19.326   1.448  0.00  0.00     0.113 C 
BRANCH   9  10
ATOM     10  C   UNL d   1      19.728 -20.362   0.745  0.00  0.00     0.017 C 
ATOM     11  C   UNL d   1      18.829 -21.052   1.735  0.00  0.00    -0.026 C 
ATOM     12  C   UNL d   1      17.719 -21.528   1.165  0.00  0.00    -0.030 C 
ATOM     13  C   UNL d   1      17.655 -21.180  -0.283  0.00  0.00     0.027 C 
ATOM     14  C   UNL d   1      18.750 -20.092  -0.422  0.00  0.00     0.012 C 
ENDBRANCH   9  10
ENDBRANCH   6   9
ENDBRANCH   3   5
BRANCH   1  15
ATOM     15  C   UNL d   1      25.602 -16.653  -1.472  0.00  0.00     0.066 A 
ATOM     16  C   UNL d   1      24.912 -15.876  -2.418  0.00  0.00     0.020 A 
ATOM     17  C   UNL d   1      25.602 -15.165  -3.422  0.00  0.00     0.008 A 
ATOM     18  C   UNL d   1      26.997 -15.201  -3.499  0.00  0.00    -0.059 A 
ATOM     19  C   UNL d   1      27.762 -14.436  -4.542  0.00  0.00     0.048 C 
ATOM     20  C   UNL d   1      27.692 -15.977  -2.570  0.00  0.00     0.044 A 
ATOM     21  C   UNL d   1      27.008 -16.696  -1.579  0.00  0.00     0.082 A 
BRANCH  21  22
ATOM     22  O   UNL d   1      27.816 -17.429  -0.747  0.00  0.00    -0.360 OA
ATOM     23  H   UNL d   1      27.335 -17.579   0.095  0.00  0.00     0.217 HD
ENDBRANCH  21  22
ENDBRANCH   1  15
TORSDOF 5
ENDMDL
MODEL 8
REMARK VINA RESULT:    -6.767      5.306      6.935
REMARK INTER + INTRA:         -10.284
REMARK INTER:                  -8.258
REMARK INTRA:                  -2.026
REMARK CONF_INDEPENDENT:        1.492
REMARK UNBOUND:                -2.026
REMARK  5 active torsions:
REMARK  status: ('A' for Active; 'I' for Inactive)
REMARK    1  A    between atoms: C_5  and  C_6 
REMARK       I    between atoms: C_6  and  N_8 
REMARK    2  A    between atoms: N_8  and  N_9 
REMARK       I    between atoms: N_9  and  C_10 
REMARK    3  A    between atoms: C_10  and  C_12 
REMARK    4  A    between atoms: C_12  and  C_13 
REMARK    5  A    between atoms: C_18  and  O_19 
ROOT
ATOM      1  C   UNL d   1      27.271 -13.469   2.528  0.00  0.00     0.272 C 
ATOM      2  O   UNL d   1      26.704 -12.557   1.907  0.00  0.00    -0.266 OA
ATOM      3  N   UNL d   1      27.495 -14.711   1.950  0.00  0.00    -0.263 N 
ATOM      4  H   UNL d   1      27.956 -15.494   2.414  0.00  0.00     0.190 HD
ENDROOT
BRANCH   3   5
ATOM      5  N   UNL d   1      27.086 -14.984   0.599  0.00  0.00    -0.267 N 
ATOM      6  C   UNL d   1      27.088 -16.308   0.199  0.00  0.00     0.236 C 
ATOM      7  O   UNL d   1      27.406 -17.173   1.025  0.00  0.00    -0.272 OA
ATOM      8  H   UNL d   1      26.815 -14.189   0.028  0.00  0.00     0.190 HD
BRANCH   6   9
ATOM      9  C   UNL d   1      26.697 -16.654  -1.273  0.00  0.00     0.113 C 
BRANCH   9  10
ATOM     10  C   UNL d   1      25.230 -17.176  -1.256  0.00  0.00     0.017 C 
ATOM     11  C   UNL d   1      25.016 -18.169  -0.146  0.00  0.00    -0.026 C 
ATOM     12  C   UNL d   1      23.735 -18.241   0.228  0.00  0.00    -0.030 C 
ATOM     13  C   UNL d   1      22.891 -17.266  -0.519  0.00  0.00     0.027 C 
ATOM     14  C   UNL d   1      23.942 -16.325  -1.162  0.00  0.00     0.012 C 
ENDBRANCH   9  10
ENDBRANCH   6   9
ENDBRANCH   3   5
BRANCH   1  15
ATOM     15  C   UNL d   1      27.729 -13.212   3.945  0.00  0.00     0.066 A 
ATOM     16  C   UNL d   1      27.781 -11.922   4.499  0.00  0.00     0.020 A 
ATOM     17  C   UNL d   1      28.197 -11.713   5.829  0.00  0.00     0.008 A 
ATOM     18  C   UNL d   1      28.561 -12.788   6.645  0.00  0.00    -0.059 A 
ATOM     19  C   UNL d   1      28.987 -12.601   8.075  0.00  0.00     0.048 C 
ATOM     20  C   UNL d   1      28.523 -14.074   6.103  0.00  0.00     0.044 A 
ATOM     21  C   UNL d   1      28.122 -14.282   4.776  0.00  0.00     0.082 A 
BRANCH  21  22
ATOM     22  O   UNL d   1      28.149 -15.594   4.372  0.00  0.00    -0.360 OA
ATOM     23  H   UNL d   1      29.049 -15.793   4.036  0.00  0.00     0.217 HD
ENDBRANCH  21  22
ENDBRANCH   1  15
TORSDOF 5
ENDMDL
MODEL 9
REMARK VINA RESULT:    -6.535      4.002      5.825
REMARK INTER + INTRA:         -10.107
REMARK INTER:                  -8.026
REMARK INTRA:                  -2.081
REMARK CONF_INDEPENDENT:        1.492
REMARK UNBOUND:                -2.081
REMARK  5 active torsions:
REMARK  status: ('A' for Active; 'I' for Inactive)
REMARK    1  A    between atoms: C_5  and  C_6 
REMARK       I    between atoms: C_6  and  N_8 
REMARK    2  A    between atoms: N_8  and  N_9 
REMARK       I    between atoms: N_9  and  C_10 
REMARK    3  A    between atoms: C_10  and  C_12 
REMARK    4  A    between atoms: C_12  and  C_13 
REMARK    5  A    between atoms: C_18  and  O_19 
ROOT
ATOM      1  C   UNL d   1      25.924 -15.120  -3.932  0.00  0.00     0.272 C 
ATOM      2  O   UNL d   1      25.521 -16.016  -4.691  0.00  0.00    -0.266 OA
ATOM      3  N   UNL d   1      26.026 -15.320  -2.563  0.00  0.00    -0.263 N 
ATOM      4  H   UNL d   1      26.350 -14.620  -1.895  0.00  0.00     0.190 HD
ENDROOT
BRANCH   3   5
ATOM      5  N   UNL d   1      25.678 -16.583  -1.970  0.00  0.00    -0.267 N 
ATOM      6  C   UNL d   1      25.788 -16.682  -0.595  0.00  0.00     0.236 C 
ATOM      7  O   UNL d   1      26.142 -15.682   0.042  0.00  0.00    -0.272 OA
ATOM      8  H   UNL d   1      25.368 -17.318  -2.599  0.00  0.00     0.190 HD
BRANCH   6   9
ATOM      9  C   UNL d   1      25.466 -18.046   0.093  0.00  0.00     0.113 C 
BRANCH   9  10
ATOM     10  C   UNL d   1      23.918 -18.212   0.101  0.00  0.00     0.017 C 
ATOM     11  C   UNL d   1      23.232 -16.974  -0.407  0.00  0.00    -0.026 C 
ATOM     12  C   UNL d   1      22.016 -17.232  -0.895  0.00  0.00    -0.030 C 
ATOM     13  C   UNL d   1      21.709 -18.691  -0.856  0.00  0.00     0.027 C 
ATOM     14  C   UNL d   1      23.099 -19.326  -0.593  0.00  0.00     0.012 C 
ENDBRANCH   9  10
ENDBRANCH   6   9
ENDBRANCH   3   5
BRANCH   1  15
ATOM     15  C   UNL d   1      26.313 -13.784  -4.522  0.00  0.00     0.066 A 
ATOM     16  C   UNL d   1      25.835 -12.566  -4.010  0.00  0.00     0.020 A 
ATOM     17  C   UNL d   1      26.228 -11.333  -4.571  0.00  0.00     0.008 A 
ATOM     18  C   UNL d   1      27.117 -11.284  -5.648  0.00  0.00    -0.059 A 
ATOM     19  C   UNL d   1      27.574  -9.986  -6.252  0.00  0.00     0.048 C 
ATOM     20  C   UNL d   1      27.591 -12.489  -6.171  0.00  0.00     0.044 A 
ATOM     21  C   UNL d   1      27.191 -13.716  -5.624  0.00  0.00     0.082 A 
BRANCH  21  22
ATOM     22  O   UNL d   1      27.721 -14.818  -6.248  0.00  0.00    -0.360 OA
ATOM     23  H   UNL d   1      27.348 -15.620  -5.824  0.00  0.00     0.217 HD
ENDBRANCH  21  22
ENDBRANCH   1  15
TORSDOF 5
ENDMDL
