MODEL 1
REMARK VINA RESULT:    -9.733      0.000      0.000
REMARK INTER + INTRA:         -14.525
REMARK INTER:                 -11.821
REMARK INTRA:                  -2.703
REMARK CONF_INDEPENDENT:        2.088
REMARK UNBOUND:                -2.703
REMARK  7 active torsions:
REMARK  status: ('A' for Active; 'I' for Inactive)
REMARK    1  A    between atoms: C_6  and  C_5 
REMARK    2  A    between atoms: C_6  and  N_14 
REMARK    3  A    between atoms: C_6  and  C_7 
REMARK       I    between atoms: C_7  and  N_9 
REMARK    4  A    between atoms: N_9  and  C_10 
REMARK       I    between atoms: N_14  and  C_15 
REMARK    5  A    between atoms: N_14  and  C_26 
REMARK    6  A    between atoms: C_15  and  C_17 
REMARK    7  A    between atoms: C_21  and  N_22 
ROOT
ATOM      1  N   UNL d   1      27.647 -15.603  -0.251  0.00  0.00    -0.296 N 
ATOM      2  C   UNL d   1      28.564 -14.622   0.566  0.00  0.00     0.259 C 
ATOM      3  O   UNL d   1      29.782 -14.599   0.349  0.00  0.00    -0.267 OA
ENDROOT
BRANCH   1   4
ATOM      4  C   UNL d   1      26.174 -15.372  -0.582  0.00  0.00     0.219 C 
BRANCH   4   5
ATOM      5  C   UNL d   1      25.927 -14.716  -1.899  0.00  0.00     0.246 C 
ATOM      6  O   UNL d   1      25.678 -15.365  -2.887  0.00  0.00    -0.271 OA
ATOM      7  N   UNL d   1      25.905 -13.352  -1.901  0.00  0.00    -0.351 N 
ATOM      8  H   UNL d   1      26.036 -12.806  -1.075  0.00  0.00     0.163 HD
BRANCH   7   9
ATOM      9  C   UNL d   1      26.488 -12.825  -3.065  0.00  0.00     0.022 C 
ATOM     10  C   UNL d   1      25.572 -13.348  -4.644  0.00  0.00     0.037 C 
ATOM     11  C   UNL d   1      25.737 -11.431  -3.455  0.00  0.00     0.037 C 
ATOM     12  C   UNL d   1      28.510 -13.185  -2.553  0.00  0.00     0.037 C 
ENDBRANCH   7   9
ENDBRANCH   4   5
BRANCH   4  13
ATOM     13  C   UNL d   1      25.108 -16.485  -0.498  0.00  0.00    -0.020 C 
ATOM     14  C   UNL d   1      23.790 -16.140  -0.945  0.00  0.00     0.011 C 
ATOM     15  C   UNL d   1      22.756 -17.051  -0.932  0.00  0.00     0.007 C 
ATOM     16  C   UNL d   1      22.948 -18.247  -0.270  0.00  0.00    -0.061 C 
ATOM     17  C   UNL d   1      21.868 -19.250  -0.122  0.00  0.00     0.048 C 
ATOM     18  C   UNL d   1      24.198 -18.575   0.230  0.00  0.00     0.014 C 
ATOM     19  C   UNL d   1      25.307 -17.793  -0.041  0.00  0.00    -0.053 C 
ATOM     20  C   UNL d   1      26.592 -18.388   0.396  0.00  0.00     0.049 C 
ENDBRANCH   4  13
ENDBRANCH   1   4
BRANCH   1  21
ATOM     21  C   UNL d   1      28.336 -16.525  -1.328  0.00  0.00     0.040 C 
ATOM     22  C   UNL d   1      29.341 -17.389  -0.920  0.00  0.00     0.030 C 
ATOM     23  C   UNL d   1      30.370 -17.797  -1.798  0.00  0.00     0.004 C 
ATOM     24  C   UNL d   1      30.417 -17.383  -3.127  0.00  0.00     0.024 C 
ATOM     25  C   UNL d   1      29.367 -16.630  -3.607  0.00  0.00     0.036 C 
ATOM     26 CL   UNL d   1      29.619 -15.801  -5.130  0.00  0.00    -0.084 Cl
ATOM     27  C   UNL d   1      28.262 -16.325  -2.758  0.00  0.00     0.053 C 
ENDBRANCH   1  21
BRANCH   2  28
ATOM     28  C   UNL d   1      28.242 -13.766   1.903  0.00  0.00     0.035 C 
ATOM     29  C   UNL d   1      28.531 -13.820   3.271  0.00  0.00     0.017 C 
ATOM     30  C   UNL d   1      28.081 -12.650   4.315  0.00  0.00     0.003 C 
ATOM     31  C   UNL d   1      27.405 -11.338   4.045  0.00  0.00     0.036 C 
ATOM     32  C   UNL d   1      26.982 -11.244   2.795  0.00  0.00     0.103 C 
ATOM     33  C   UNL d   1      27.413 -12.661   1.798  0.00  0.00     0.053 C 
BRANCH  32  34
ATOM     34  N   UNL d   1      26.515  -9.455   2.170  0.00  0.00    -0.116 N 
ATOM     35  O   UNL d   1      26.372  -9.274   1.005  0.00  0.00    -0.532 OA
ATOM     36  O   UNL d   1      26.280  -8.445   2.964  0.00  0.00    -0.532 OA
ENDBRANCH  32  34
ENDBRANCH   2  28
TORSDOF 7
ENDMDL
MODEL 2
REMARK VINA RESULT:    -9.648      1.909      3.657
REMARK INTER + INTRA:         -14.328
REMARK INTER:                 -11.736
REMARK INTRA:                  -2.591
REMARK CONF_INDEPENDENT:        2.088
REMARK UNBOUND:                -2.591
REMARK  7 active torsions:
REMARK  status: ('A' for Active; 'I' for Inactive)
REMARK    1  A    between atoms: C_6  and  C_5 
REMARK    2  A    between atoms: C_6  and  N_14 
REMARK    3  A    between atoms: C_6  and  C_7 
REMARK       I    between atoms: C_7  and  N_9 
REMARK    4  A    between atoms: N_9  and  C_10 
REMARK       I    between atoms: N_14  and  C_15 
REMARK    5  A    between atoms: N_14  and  C_26 
REMARK    6  A    between atoms: C_15  and  C_17 
REMARK    7  A    between atoms: C_21  and  N_22 
ROOT
ATOM      1  N   UNL d   1      28.274 -14.431  -1.441  0.00  0.00    -0.296 N 
ATOM      2  C   UNL d   1      28.244 -12.860  -1.470  0.00  0.00     0.259 C 
ATOM      3  O   UNL d   1      28.241 -12.267  -2.555  0.00  0.00    -0.267 OA
ENDROOT
BRANCH   1   4
ATOM      4  C   UNL d   1      27.688 -15.311  -0.340  0.00  0.00     0.219 C 
BRANCH   4   5
ATOM      5  C   UNL d   1      27.484 -14.620   0.967  0.00  0.00     0.246 C 
ATOM      6  O   UNL d   1      26.708 -13.700   1.077  0.00  0.00    -0.271 OA
ATOM      7  N   UNL d   1      28.147 -15.143   2.038  0.00  0.00    -0.351 N 
ATOM      8  H   UNL d   1      28.733 -15.950   1.973  0.00  0.00     0.163 HD
BRANCH   7   9
ATOM      9  C   UNL d   1      28.606 -14.138   2.906  0.00  0.00     0.022 C 
ATOM     10  C   UNL d   1      27.221 -12.965   3.465  0.00  0.00     0.037 C 
ATOM     11  C   UNL d   1      28.397 -14.628   4.448  0.00  0.00     0.037 C 
ATOM     12  C   UNL d   1      30.381 -13.654   1.860  0.00  0.00     0.037 C 
ENDBRANCH   7   9
ENDBRANCH   4   5
BRANCH   4  13
ATOM     13  C   UNL d   1      26.414 -16.163  -0.530  0.00  0.00    -0.020 C 
ATOM     14  C   UNL d   1      26.318 -17.352   0.266  0.00  0.00     0.011 C 
ATOM     15  C   UNL d   1      25.224 -18.187   0.197  0.00  0.00     0.007 C 
ATOM     16  C   UNL d   1      24.311 -17.984  -0.819  0.00  0.00    -0.061 C 
ATOM     17  C   UNL d   1      23.154 -18.883  -1.033  0.00  0.00     0.048 C 
ATOM     18  C   UNL d   1      24.421 -16.876  -1.644  0.00  0.00     0.014 C 
ATOM     19  C   UNL d   1      25.347 -15.880  -1.389  0.00  0.00    -0.053 C 
ATOM     20  C   UNL d   1      25.198 -14.678  -2.244  0.00  0.00     0.049 C 
ENDBRANCH   4  13
ENDBRANCH   1   4
BRANCH   1  21
ATOM     21  C   UNL d   1      28.300 -15.189  -2.823  0.00  0.00     0.040 C 
ATOM     22  C   UNL d   1      29.080 -16.330  -2.944  0.00  0.00     0.030 C 
ATOM     23  C   UNL d   1      29.626 -16.728  -4.184  0.00  0.00     0.004 C 
ATOM     24  C   UNL d   1      29.387 -16.019  -5.359  0.00  0.00     0.024 C 
ATOM     25  C   UNL d   1      28.512 -14.956  -5.307  0.00  0.00     0.036 C 
ATOM     26 CL   UNL d   1      28.523 -13.855  -6.670  0.00  0.00    -0.084 Cl
ATOM     27  C   UNL d   1      27.859 -14.631  -4.082  0.00  0.00     0.053 C 
ENDBRANCH   1  21
BRANCH   2  28
ATOM     28  C   UNL d   1      28.491 -11.792  -0.277  0.00  0.00     0.035 C 
ATOM     29  C   UNL d   1      29.571 -11.170   0.358  0.00  0.00     0.017 C 
ATOM     30  C   UNL d   1      29.380 -10.022   1.502  0.00  0.00     0.003 C 
ATOM     31  C   UNL d   1      28.124  -9.377   2.007  0.00  0.00     0.036 C 
ATOM     32  C   UNL d   1      27.037  -9.982   1.554  0.00  0.00     0.103 C 
ATOM     33  C   UNL d   1      27.395 -11.318   0.425  0.00  0.00     0.053 C 
BRANCH  32  34
ATOM     34  N   UNL d   1      25.361  -8.999   1.732  0.00  0.00    -0.116 N 
ATOM     35  O   UNL d   1      24.490  -9.467   2.389  0.00  0.00    -0.532 OA
ATOM     36  O   UNL d   1      25.155  -7.813   1.227  0.00  0.00    -0.532 OA
ENDBRANCH  32  34
ENDBRANCH   2  28
TORSDOF 7
ENDMDL
MODEL 3
REMARK VINA RESULT:    -9.200      3.427      6.995
REMARK INTER + INTRA:         -14.895
REMARK INTER:                 -11.288
REMARK INTRA:                  -3.607
REMARK CONF_INDEPENDENT:        2.088
REMARK UNBOUND:                -3.607
REMARK  7 active torsions:
REMARK  status: ('A' for Active; 'I' for Inactive)
REMARK    1  A    between atoms: C_6  and  C_5 
REMARK    2  A    between atoms: C_6  and  N_14 
REMARK    3  A    between atoms: C_6  and  C_7 
REMARK       I    between atoms: C_7  and  N_9 
REMARK    4  A    between atoms: N_9  and  C_10 
REMARK       I    between atoms: N_14  and  C_15 
REMARK    5  A    between atoms: N_14  and  C_26 
REMARK    6  A    between atoms: C_15  and  C_17 
REMARK    7  A    between atoms: C_21  and  N_22 
ROOT
ATOM      1  N   UNL d   1      26.463 -14.655  -2.960  0.00  0.00    -0.296 N 
ATOM      2  C   UNL d   1      25.095 -15.167  -2.380  0.00  0.00     0.259 C 
ATOM      3  O   UNL d   1      24.094 -14.443  -2.439  0.00  0.00    -0.267 OA
ENDROOT
BRANCH   1   4
ATOM      4  C   UNL d   1      27.572 -15.537  -3.527  0.00  0.00     0.219 C 
BRANCH   4   5
ATOM      5  C   UNL d   1      28.090 -15.108  -4.860  0.00  0.00     0.246 C 
ATOM      6  O   UNL d   1      27.427 -15.236  -5.861  0.00  0.00    -0.271 OA
ATOM      7  N   UNL d   1      29.303 -14.485  -4.865  0.00  0.00    -0.351 N 
ATOM      8  H   UNL d   1      29.827 -14.307  -4.033  0.00  0.00     0.163 HD
BRANCH   7   9
ATOM      9  C   UNL d   1      30.068 -14.846  -5.987  0.00  0.00     0.022 C 
ATOM     10  C   UNL d   1      31.862 -15.283  -5.541  0.00  0.00     0.037 C 
ATOM     11  C   UNL d   1      30.036 -16.469  -6.154  0.00  0.00     0.037 C 
ATOM     12  C   UNL d   1      29.382 -13.330  -7.295  0.00  0.00     0.037 C 
ENDBRANCH   7   9
ENDBRANCH   4   5
BRANCH   4  13
ATOM     13  C   UNL d   1      28.836 -15.921  -2.727  0.00  0.00    -0.020 C 
ATOM     14  C   UNL d   1      29.562 -17.067  -3.192  0.00  0.00     0.011 C 
ATOM     15  C   UNL d   1      30.712 -17.500  -2.571  0.00  0.00     0.007 C 
ATOM     16  C   UNL d   1      31.043 -16.947  -1.350  0.00  0.00    -0.061 C 
ATOM     17  C   UNL d   1      32.208 -17.412  -0.562  0.00  0.00     0.048 C 
ATOM     18  C   UNL d   1      30.315 -15.881  -0.848  0.00  0.00     0.014 C 
ATOM     19  C   UNL d   1      29.343 -15.253  -1.607  0.00  0.00    -0.053 C 
ATOM     20  C   UNL d   1      28.804 -14.013  -1.001  0.00  0.00     0.049 C 
ENDBRANCH   4  13
ENDBRANCH   1   4
BRANCH   1  21
ATOM     21  C   UNL d   1      26.493 -13.216  -3.603  0.00  0.00     0.040 C 
ATOM     22  C   UNL d   1      25.616 -12.930  -4.638  0.00  0.00     0.030 C 
ATOM     23  C   UNL d   1      25.922 -11.966  -5.625  0.00  0.00     0.004 C 
ATOM     24  C   UNL d   1      27.102 -11.228  -5.598  0.00  0.00     0.024 C 
ATOM     25  C   UNL d   1      27.941 -11.388  -4.516  0.00  0.00     0.036 C 
ATOM     26 CL   UNL d   1      29.570 -10.767  -4.679  0.00  0.00    -0.084 Cl
ATOM     27  C   UNL d   1      27.572 -12.266  -3.453  0.00  0.00     0.053 C 
ENDBRANCH   1  21
BRANCH   2  28
ATOM     28  C   UNL d   1      24.779 -16.438  -1.425  0.00  0.00     0.035 C 
ATOM     29  C   UNL d   1      25.363 -17.095  -0.336  0.00  0.00     0.017 C 
ATOM     30  C   UNL d   1      24.637 -18.335   0.438  0.00  0.00     0.003 C 
ATOM     31  C   UNL d   1      23.274 -18.924   0.230  0.00  0.00     0.036 C 
ATOM     32  C   UNL d   1      22.688 -18.450  -0.859  0.00  0.00     0.103 C 
ATOM     33  C   UNL d   1      23.657 -17.205  -1.694  0.00  0.00     0.053 C 
BRANCH  32  34
ATOM     34  N   UNL d   1      20.766 -18.753  -1.009  0.00  0.00    -0.116 N 
ATOM     35  O   UNL d   1      20.030 -17.827  -0.895  0.00  0.00    -0.532 OA
ATOM     36  O   UNL d   1      20.231 -19.908  -1.297  0.00  0.00    -0.532 OA
ENDBRANCH  32  34
ENDBRANCH   2  28
TORSDOF 7
ENDMDL
MODEL 4
REMARK VINA RESULT:    -9.077      2.969      6.692
REMARK INTER + INTRA:         -14.909
REMARK INTER:                 -11.165
REMARK INTRA:                  -3.744
REMARK CONF_INDEPENDENT:        2.088
REMARK UNBOUND:                -3.744
REMARK  7 active torsions:
REMARK  status: ('A' for Active; 'I' for Inactive)
REMARK    1  A    between atoms: C_6  and  C_5 
REMARK    2  A    between atoms: C_6  and  N_14 
REMARK    3  A    between atoms: C_6  and  C_7 
REMARK       I    between atoms: C_7  and  N_9 
REMARK    4  A    between atoms: N_9  and  C_10 
REMARK       I    between atoms: N_14  and  C_15 
REMARK    5  A    between atoms: N_14  and  C_26 
REMARK    6  A    between atoms: C_15  and  C_17 
REMARK    7  A    between atoms: C_21  and  N_22 
ROOT
ATOM      1  N   UNL d   1      26.443 -13.761  -2.706  0.00  0.00    -0.296 N 
ATOM      2  C   UNL d   1      25.750 -15.160  -2.890  0.00  0.00     0.259 C 
ATOM      3  O   UNL d   1      25.169 -15.421  -3.951  0.00  0.00    -0.267 OA
ENDROOT
BRANCH   1   4
ATOM      4  C   UNL d   1      27.654 -13.481  -1.820  0.00  0.00     0.219 C 
BRANCH   4   5
ATOM      5  C   UNL d   1      28.223 -12.108  -1.959  0.00  0.00     0.246 C 
ATOM      6  O   UNL d   1      29.311 -11.926  -2.452  0.00  0.00    -0.271 OA
ATOM      7  N   UNL d   1      27.411 -11.076  -1.588  0.00  0.00    -0.351 N 
ATOM      8  H   UNL d   1      26.481 -11.211  -1.249  0.00  0.00     0.163 HD
BRANCH   7   9
ATOM      9  C   UNL d   1      28.134 -10.048  -0.960  0.00  0.00     0.022 C 
ATOM     10  C   UNL d   1      27.285  -9.414   0.616  0.00  0.00     0.037 C 
ATOM     11  C   UNL d   1      29.098 -10.695   0.184  0.00  0.00     0.037 C 
ATOM     12  C   UNL d   1      28.634  -8.953  -2.701  0.00  0.00     0.037 C 
ENDBRANCH   7   9
ENDBRANCH   4   5
BRANCH   4  13
ATOM     13  C   UNL d   1      27.668 -13.752  -0.301  0.00  0.00    -0.020 C 
ATOM     14  C   UNL d   1      26.663 -13.087   0.476  0.00  0.00     0.011 C 
ATOM     15  C   UNL d   1      26.563 -13.259   1.839  0.00  0.00     0.007 C 
ATOM     16  C   UNL d   1      27.590 -13.913   2.491  0.00  0.00    -0.061 C 
ATOM     17  C   UNL d   1      27.619 -14.067   3.964  0.00  0.00     0.048 C 
ATOM     18  C   UNL d   1      28.609 -14.509   1.765  0.00  0.00     0.014 C 
ATOM     19  C   UNL d   1      28.555 -14.590   0.385  0.00  0.00    -0.053 C 
ATOM     20  C   UNL d   1      29.618 -15.430  -0.218  0.00  0.00     0.049 C 
ENDBRANCH   4  13
ENDBRANCH   1   4
BRANCH   1  21
ATOM     21  C   UNL d   1      26.364 -12.740  -3.905  0.00  0.00     0.040 C 
ATOM     22  C   UNL d   1      27.370 -12.753  -4.859  0.00  0.00     0.030 C 
ATOM     23  C   UNL d   1      27.716 -11.594  -5.588  0.00  0.00     0.004 C 
ATOM     24  C   UNL d   1      27.048 -10.384  -5.415  0.00  0.00     0.024 C 
ATOM     25  C   UNL d   1      25.959 -10.361  -4.573  0.00  0.00     0.036 C 
ATOM     26 CL   UNL d   1      25.380  -8.787  -4.069  0.00  0.00    -0.084 Cl
ATOM     27  C   UNL d   1      25.527 -11.562  -3.934  0.00  0.00     0.053 C 
ENDBRANCH   1  21
BRANCH   2  28
ATOM     28  C   UNL d   1      25.403 -16.303  -1.795  0.00  0.00     0.035 C 
ATOM     29  C   UNL d   1      25.937 -16.799  -0.601  0.00  0.00     0.017 C 
ATOM     30  C   UNL d   1      25.191 -17.944   0.290  0.00  0.00     0.003 C 
ATOM     31  C   UNL d   1      23.850 -18.586   0.091  0.00  0.00     0.036 C 
ATOM     32  C   UNL d   1      23.316 -18.272  -1.079  0.00  0.00     0.103 C 
ATOM     33  C   UNL d   1      24.310 -17.124  -2.018  0.00  0.00     0.053 C 
BRANCH  32  34
ATOM     34  N   UNL d   1      21.410 -18.634  -1.287  0.00  0.00    -0.116 N 
ATOM     35  O   UNL d   1      20.629 -17.829  -0.899  0.00  0.00    -0.532 OA
ATOM     36  O   UNL d   1      20.931 -19.687  -1.893  0.00  0.00    -0.532 OA
ENDBRANCH  32  34
ENDBRANCH   2  28
TORSDOF 7
ENDMDL
MODEL 5
REMARK VINA RESULT:    -9.047      2.409      4.772
REMARK INTER + INTRA:         -14.793
REMARK INTER:                 -11.136
REMARK INTRA:                  -3.658
REMARK CONF_INDEPENDENT:        2.088
REMARK UNBOUND:                -3.658
REMARK  7 active torsions:
REMARK  status: ('A' for Active; 'I' for Inactive)
REMARK    1  A    between atoms: C_6  and  C_5 
REMARK    2  A    between atoms: C_6  and  N_14 
REMARK    3  A    between atoms: C_6  and  C_7 
REMARK       I    between atoms: C_7  and  N_9 
REMARK    4  A    between atoms: N_9  and  C_10 
REMARK       I    between atoms: N_14  and  C_15 
REMARK    5  A    between atoms: N_14  and  C_26 
REMARK    6  A    between atoms: C_15  and  C_17 
REMARK    7  A    between atoms: C_21  and  N_22 
ROOT
ATOM      1  N   UNL d   1      26.425 -14.363  -0.754  0.00  0.00    -0.296 N 
ATOM      2  C   UNL d   1      27.445 -13.513   0.088  0.00  0.00     0.259 C 
ATOM      3  O   UNL d   1      27.843 -13.938   1.179  0.00  0.00    -0.267 OA
ENDROOT
BRANCH   1   4
ATOM      4  C   UNL d   1      26.300 -14.349  -2.275  0.00  0.00     0.219 C 
BRANCH   4   5
ATOM      5  C   UNL d   1      25.924 -13.028  -2.858  0.00  0.00     0.246 C 
ATOM      6  O   UNL d   1      24.780 -12.773  -3.149  0.00  0.00    -0.271 OA
ATOM      7  N   UNL d   1      26.922 -12.102  -2.953  0.00  0.00    -0.351 N 
ATOM      8  H   UNL d   1      27.857 -12.277  -2.645  0.00  0.00     0.163 HD
BRANCH   7   9
ATOM      9  C   UNL d   1      26.811 -11.338  -4.126  0.00  0.00     0.022 C 
ATOM     10  C   UNL d   1      28.414 -11.326  -5.146  0.00  0.00     0.037 C 
ATOM     11  C   UNL d   1      26.391 -12.316  -5.362  0.00  0.00     0.037 C 
ATOM     12  C   UNL d   1      25.787  -9.686  -3.289  0.00  0.00     0.037 C 
ENDBRANCH   7   9
ENDBRANCH   4   5
BRANCH   4  13
ATOM     13  C   UNL d   1      27.400 -14.887  -3.216  0.00  0.00    -0.020 C 
ATOM     14  C   UNL d   1      28.740 -14.872  -2.705  0.00  0.00     0.011 C 
ATOM     15  C   UNL d   1      29.805 -15.338  -3.444  0.00  0.00     0.007 C 
ATOM     16  C   UNL d   1      29.600 -15.619  -4.780  0.00  0.00    -0.061 C 
ATOM     17  C   UNL d   1      30.702 -16.036  -5.678  0.00  0.00     0.048 C 
ATOM     18  C   UNL d   1      28.322 -15.576  -5.313  0.00  0.00     0.014 C 
ATOM     19  C   UNL d   1      27.213 -15.396  -4.506  0.00  0.00    -0.053 C 
ATOM     20  C   UNL d   1      25.917 -15.575  -5.203  0.00  0.00     0.049 C 
ENDBRANCH   4  13
ENDBRANCH   1   4
BRANCH   1  21
ATOM     21  C   UNL d   1      25.950 -15.742  -0.155  0.00  0.00     0.040 C 
ATOM     22  C   UNL d   1      26.910 -16.660   0.246  0.00  0.00     0.030 C 
ATOM     23  C   UNL d   1      26.657 -18.050   0.236  0.00  0.00     0.004 C 
ATOM     24  C   UNL d   1      25.425 -18.575  -0.145  0.00  0.00     0.024 C 
ATOM     25  C   UNL d   1      24.404 -17.693  -0.426  0.00  0.00     0.036 C 
ATOM     26 CL   UNL d   1      23.009 -18.338  -1.265  0.00  0.00    -0.084 Cl
ATOM     27  C   UNL d   1      24.619 -16.289  -0.291  0.00  0.00     0.053 C 
ENDBRANCH   1  21
BRANCH   2  28
ATOM     28  C   UNL d   1      27.908 -11.970  -0.087  0.00  0.00     0.035 C 
ATOM     29  C   UNL d   1      28.779 -11.228  -0.892  0.00  0.00     0.017 C 
ATOM     30  C   UNL d   1      28.881  -9.601  -0.814  0.00  0.00     0.003 C 
ATOM     31  C   UNL d   1      28.073  -8.631  -0.004  0.00  0.00     0.036 C 
ATOM     32  C   UNL d   1      27.302  -9.243   0.881  0.00  0.00     0.103 C 
ATOM     33  C   UNL d   1      27.398 -11.023   0.786  0.00  0.00     0.053 C 
BRANCH  32  34
ATOM     34  N   UNL d   1      25.872  -8.174   1.669  0.00  0.00    -0.116 N 
ATOM     35  O   UNL d   1      25.904  -7.943   2.833  0.00  0.00    -0.532 OA
ATOM     36  O   UNL d   1      24.904  -7.632   0.980  0.00  0.00    -0.532 OA
ENDBRANCH  32  34
ENDBRANCH   2  28
TORSDOF 7
ENDMDL
MODEL 6
REMARK VINA RESULT:    -8.986      2.448      6.822
REMARK INTER + INTRA:         -14.168
REMARK INTER:                 -11.074
REMARK INTRA:                  -3.094
REMARK CONF_INDEPENDENT:        2.088
REMARK UNBOUND:                -3.094
REMARK  7 active torsions:
REMARK  status: ('A' for Active; 'I' for Inactive)
REMARK    1  A    between atoms: C_6  and  C_5 
REMARK    2  A    between atoms: C_6  and  N_14 
REMARK    3  A    between atoms: C_6  and  C_7 
REMARK       I    between atoms: C_7  and  N_9 
REMARK    4  A    between atoms: N_9  and  C_10 
REMARK       I    between atoms: N_14  and  C_15 
REMARK    5  A    between atoms: N_14  and  C_26 
REMARK    6  A    between atoms: C_15  and  C_17 
REMARK    7  A    between atoms: C_21  and  N_22 
ROOT
ATOM      1  N   UNL d   1      26.730 -14.342  -2.166  0.00  0.00    -0.296 N 
ATOM      2  C   UNL d   1      25.641 -15.453  -2.386  0.00  0.00     0.259 C 
ATOM      3  O   UNL d   1      24.855 -15.361  -3.337  0.00  0.00    -0.267 OA
ENDROOT
BRANCH   1   4
ATOM      4  C   UNL d   1      28.091 -14.552  -1.506  0.00  0.00     0.219 C 
BRANCH   4   5
ATOM      5  C   UNL d   1      28.083 -14.453  -0.017  0.00  0.00     0.246 C 
ATOM      6  O   UNL d   1      27.501 -15.264   0.663  0.00  0.00    -0.271 OA
ATOM      7  N   UNL d   1      28.841 -13.458   0.528  0.00  0.00    -0.351 N 
ATOM      8  H   UNL d   1      29.386 -12.827  -0.023  0.00  0.00     0.163 HD
BRANCH   7   9
ATOM      9  C   UNL d   1      28.220 -12.888   1.652  0.00  0.00     0.022 C 
ATOM     10  C   UNL d   1      28.137 -10.993   1.560  0.00  0.00     0.037 C 
ATOM     11  C   UNL d   1      26.635 -12.669   1.332  0.00  0.00     0.037 C 
ATOM     12  C   UNL d   1      29.159 -14.081   3.126  0.00  0.00     0.037 C 
ENDBRANCH   7   9
ENDBRANCH   4   5
BRANCH   4  13
ATOM     13  C   UNL d   1      28.996 -15.765  -1.808  0.00  0.00    -0.020 C 
ATOM     14  C   UNL d   1      29.597 -16.410  -0.676  0.00  0.00     0.011 C 
ATOM     15  C   UNL d   1      30.413 -17.511  -0.815  0.00  0.00     0.007 C 
ATOM     16  C   UNL d   1      30.831 -17.858  -2.085  0.00  0.00    -0.061 C 
ATOM     17  C   UNL d   1      31.782 -18.967  -2.328  0.00  0.00     0.048 C 
ATOM     18  C   UNL d   1      30.315 -17.204  -3.192  0.00  0.00     0.014 C 
ATOM     19  C   UNL d   1      29.275 -16.299  -3.071  0.00  0.00    -0.053 C 
ATOM     20  C   UNL d   1      28.710 -15.845  -4.364  0.00  0.00     0.049 C 
ENDBRANCH   4  13
ENDBRANCH   1   4
BRANCH   1  21
ATOM     21  C   UNL d   1      26.771 -13.142  -3.187  0.00  0.00     0.040 C 
ATOM     22  C   UNL d   1      25.578 -12.693  -3.735  0.00  0.00     0.030 C 
ATOM     23  C   UNL d   1      25.530 -12.083  -5.009  0.00  0.00     0.004 C 
ATOM     24  C   UNL d   1      26.676 -11.870  -5.771  0.00  0.00     0.024 C 
ATOM     25  C   UNL d   1      27.894 -12.183  -5.209  0.00  0.00     0.036 C 
ATOM     26 CL   UNL d   1      29.266 -12.279  -6.295  0.00  0.00    -0.084 Cl
ATOM     27  C   UNL d   1      27.956 -12.678  -3.872  0.00  0.00     0.053 C 
ENDBRANCH   1  21
BRANCH   2  28
ATOM     28  C   UNL d   1      25.147 -16.638  -1.398  0.00  0.00     0.035 C 
ATOM     29  C   UNL d   1      25.571 -17.254  -0.215  0.00  0.00     0.017 C 
ATOM     30  C   UNL d   1      24.691 -18.397   0.549  0.00  0.00     0.003 C 
ATOM     31  C   UNL d   1      23.322 -18.920   0.230  0.00  0.00     0.036 C 
ATOM     32  C   UNL d   1      22.884 -18.486  -0.941  0.00  0.00     0.103 C 
ATOM     33  C   UNL d   1      24.012 -17.356  -1.739  0.00  0.00     0.053 C 
BRANCH  32  34
ATOM     34  N   UNL d   1      20.973 -18.688  -1.280  0.00  0.00    -0.116 N 
ATOM     35  O   UNL d   1      20.235 -17.825  -0.929  0.00  0.00    -0.532 OA
ATOM     36  O   UNL d   1      20.451 -19.689  -1.935  0.00  0.00    -0.532 OA
ENDBRANCH  32  34
ENDBRANCH   2  28
TORSDOF 7
ENDMDL
MODEL 7
REMARK VINA RESULT:    -8.942      2.827      5.683
REMARK INTER + INTRA:         -14.152
REMARK INTER:                 -11.030
REMARK INTRA:                  -3.121
REMARK CONF_INDEPENDENT:        2.088
REMARK UNBOUND:                -3.121
REMARK  7 active torsions:
REMARK  status: ('A' for Active; 'I' for Inactive)
REMARK    1  A    between atoms: C_6  and  C_5 
REMARK    2  A    between atoms: C_6  and  N_14 
REMARK    3  A    between atoms: C_6  and  C_7 
REMARK       I    between atoms: C_7  and  N_9 
REMARK    4  A    between atoms: N_9  and  C_10 
REMARK       I    between atoms: N_14  and  C_15 
REMARK    5  A    between atoms: N_14  and  C_26 
REMARK    6  A    between atoms: C_15  and  C_17 
REMARK    7  A    between atoms: C_21  and  N_22 
ROOT
ATOM      1  N   UNL d   1      27.686 -14.706   0.207  0.00  0.00    -0.296 N 
ATOM      2  C   UNL d   1      28.895 -15.664  -0.095  0.00  0.00     0.259 C 
ATOM      3  O   UNL d   1      29.730 -15.895   0.788  0.00  0.00    -0.267 OA
ENDROOT
BRANCH   1   4
ATOM      4  C   UNL d   1      26.312 -14.774  -0.455  0.00  0.00     0.219 C 
BRANCH   4   5
ATOM      5  C   UNL d   1      26.273 -14.278  -1.862  0.00  0.00     0.246 C 
ATOM      6  O   UNL d   1      26.453 -15.022  -2.795  0.00  0.00    -0.271 OA
ATOM      7  N   UNL d   1      25.932 -12.967  -2.032  0.00  0.00    -0.351 N 
ATOM      8  H   UNL d   1      25.708 -12.361  -1.270  0.00  0.00     0.163 HD
BRANCH   7   9
ATOM      9  C   UNL d   1      26.660 -12.373  -3.076  0.00  0.00     0.022 C 
ATOM     10  C   UNL d   1      27.211 -10.602  -2.669  0.00  0.00     0.037 C 
ATOM     11  C   UNL d   1      28.254 -12.604  -2.814  0.00  0.00     0.037 C 
ATOM     12  C   UNL d   1      25.436 -13.022  -4.676  0.00  0.00     0.037 C 
ENDBRANCH   7   9
ENDBRANCH   4   5
BRANCH   4  13
ATOM     13  C   UNL d   1      25.447 -16.052  -0.471  0.00  0.00    -0.020 C 
ATOM     14  C   UNL d   1      24.200 -15.969  -1.173  0.00  0.00     0.011 C 
ATOM     15  C   UNL d   1      23.347 -17.047  -1.270  0.00  0.00     0.007 C 
ATOM     16  C   UNL d   1      23.604 -18.156  -0.489  0.00  0.00    -0.061 C 
ATOM     17  C   UNL d   1      22.696 -19.326  -0.455  0.00  0.00     0.048 C 
ATOM     18  C   UNL d   1      24.773 -18.232   0.250  0.00  0.00     0.014 C 
ATOM     19  C   UNL d   1      25.769 -17.280   0.118  0.00  0.00    -0.053 C 
ATOM     20  C   UNL d   1      27.029 -17.615   0.824  0.00  0.00     0.049 C 
ENDBRANCH   4  13
ENDBRANCH   1   4
BRANCH   1  21
ATOM     21  C   UNL d   1      27.595 -14.073   1.648  0.00  0.00     0.040 C 
ATOM     22  C   UNL d   1      27.469 -12.697   1.765  0.00  0.00     0.030 C 
ATOM     23  C   UNL d   1      27.945 -12.002   2.899  0.00  0.00     0.004 C 
ATOM     24  C   UNL d   1      28.537 -12.659   3.974  0.00  0.00     0.024 C 
ATOM     25  C   UNL d   1      28.565 -14.036   3.956  0.00  0.00     0.036 C 
ATOM     26 CL   UNL d   1      29.637 -14.822   5.097  0.00  0.00    -0.084 Cl
ATOM     27  C   UNL d   1      27.968 -14.746   2.872  0.00  0.00     0.053 C 
ENDBRANCH   1  21
BRANCH   2  28
ATOM     28  C   UNL d   1      29.437 -16.243  -1.508  0.00  0.00     0.035 C 
ATOM     29  C   UNL d   1      30.243 -17.292  -1.965  0.00  0.00     0.017 C 
ATOM     30  C   UNL d   1      30.467 -17.605  -3.551  0.00  0.00     0.003 C 
ATOM     31  C   UNL d   1      29.842 -16.957  -4.750  0.00  0.00     0.036 C 
ATOM     32  C   UNL d   1      29.154 -15.873  -4.429  0.00  0.00     0.103 C 
ATOM     33  C   UNL d   1      29.113 -15.563  -2.671  0.00  0.00     0.053 C 
BRANCH  32  34
ATOM     34  N   UNL d   1      27.917 -15.199  -5.779  0.00  0.00    -0.116 N 
ATOM     35  O   UNL d   1      28.352 -14.589  -6.700  0.00  0.00    -0.532 OA
ATOM     36  O   UNL d   1      26.633 -15.436  -5.774  0.00  0.00    -0.532 OA
ENDBRANCH  32  34
ENDBRANCH   2  28
TORSDOF 7
ENDMDL
MODEL 8
REMARK VINA RESULT:    -8.855      2.803      7.067
REMARK INTER + INTRA:         -14.383
REMARK INTER:                 -10.943
REMARK INTRA:                  -3.440
REMARK CONF_INDEPENDENT:        2.088
REMARK UNBOUND:                -3.440
REMARK  7 active torsions:
REMARK  status: ('A' for Active; 'I' for Inactive)
REMARK    1  A    between atoms: C_6  and  C_5 
REMARK    2  A    between atoms: C_6  and  N_14 
REMARK    3  A    between atoms: C_6  and  C_7 
REMARK       I    between atoms: C_7  and  N_9 
REMARK    4  A    between atoms: N_9  and  C_10 
REMARK       I    between atoms: N_14  and  C_15 
REMARK    5  A    between atoms: N_14  and  C_26 
REMARK    6  A    between atoms: C_15  and  C_17 
REMARK    7  A    between atoms: C_21  and  N_22 
ROOT
ATOM      1  N   UNL d   1      26.391 -13.389  -3.158  0.00  0.00    -0.296 N 
ATOM      2  C   UNL d   1      25.324 -14.527  -2.970  0.00  0.00     0.259 C 
ATOM      3  O   UNL d   1      24.215 -14.423  -3.507  0.00  0.00    -0.267 OA
ENDROOT
BRANCH   1   4
ATOM      4  C   UNL d   1      27.906 -13.577  -3.128  0.00  0.00     0.219 C 
BRANCH   4   5
ATOM      5  C   UNL d   1      28.566 -13.115  -1.872  0.00  0.00     0.246 C 
ATOM      6  O   UNL d   1      29.764 -13.176  -1.733  0.00  0.00    -0.271 OA
ATOM      7  N   UNL d   1      27.755 -12.537  -0.939  0.00  0.00    -0.351 N 
ATOM      8  H   UNL d   1      26.773 -12.413  -1.075  0.00  0.00     0.163 HD
BRANCH   7   9
ATOM      9  C   UNL d   1      28.139 -12.882   0.368  0.00  0.00     0.022 C 
ATOM     10  C   UNL d   1      26.660 -13.333   1.471  0.00  0.00     0.037 C 
ATOM     11  C   UNL d   1      28.315 -14.501   0.463  0.00  0.00     0.037 C 
ATOM     12  C   UNL d   1      29.559 -11.339   0.658  0.00  0.00     0.037 C 
ENDBRANCH   7   9
ENDBRANCH   4   5
BRANCH   4  13
ATOM     13  C   UNL d   1      28.595 -14.919  -3.454  0.00  0.00    -0.020 C 
ATOM     14  C   UNL d   1      28.966 -15.735  -2.335  0.00  0.00     0.011 C 
ATOM     15  C   UNL d   1      29.575 -16.960  -2.498  0.00  0.00     0.007 C 
ATOM     16  C   UNL d   1      30.030 -17.301  -3.756  0.00  0.00    -0.061 C 
ATOM     17  C   UNL d   1      30.777 -18.554  -4.013  0.00  0.00     0.048 C 
ATOM     18  C   UNL d   1      29.740 -16.495  -4.845  0.00  0.00     0.014 C 
ATOM     19  C   UNL d   1      28.878 -15.418  -4.731  0.00  0.00    -0.053 C 
ATOM     20  C   UNL d   1      28.520 -14.786  -6.023  0.00  0.00     0.049 C 
ENDBRANCH   4  13
ENDBRANCH   1   4
BRANCH   1  21
ATOM     21  C   UNL d   1      25.989 -12.146  -4.041  0.00  0.00     0.040 C 
ATOM     22  C   UNL d   1      26.306 -12.157  -5.391  0.00  0.00     0.030 C 
ATOM     23  C   UNL d   1      26.529 -10.962  -6.111  0.00  0.00     0.004 C 
ATOM     24  C   UNL d   1      26.412  -9.708  -5.516  0.00  0.00     0.024 C 
ATOM     25  C   UNL d   1      25.973  -9.648  -4.212  0.00  0.00     0.036 C 
ATOM     26 CL   UNL d   1      26.201  -8.130  -3.368  0.00  0.00    -0.084 Cl
ATOM     27  C   UNL d   1      25.622 -10.847  -3.523  0.00  0.00     0.053 C 
ENDBRANCH   1  21
BRANCH   2  28
ATOM     28  C   UNL d   1      25.300 -15.770  -1.930  0.00  0.00     0.035 C 
ATOM     29  C   UNL d   1      26.094 -16.282  -0.898  0.00  0.00     0.017 C 
ATOM     30  C   UNL d   1      25.641 -17.556   0.015  0.00  0.00     0.003 C 
ATOM     31  C   UNL d   1      24.353 -18.326   0.008  0.00  0.00     0.036 C 
ATOM     32  C   UNL d   1      23.581 -17.995  -1.015  0.00  0.00     0.103 C 
ATOM     33  C   UNL d   1      24.267 -16.688  -2.019  0.00  0.00     0.053 C 
BRANCH  32  34
ATOM     34  N   UNL d   1      21.713 -18.549  -0.905  0.00  0.00    -0.116 N 
ATOM     35  O   UNL d   1      21.464 -19.702  -0.775  0.00  0.00    -0.532 OA
ATOM     36  O   UNL d   1      20.707 -17.717  -0.895  0.00  0.00    -0.532 OA
ENDBRANCH  32  34
ENDBRANCH   2  28
TORSDOF 7
ENDMDL
MODEL 9
REMARK VINA RESULT:    -8.557      3.502      7.570
REMARK INTER + INTRA:         -14.120
REMARK INTER:                 -10.645
REMARK INTRA:                  -3.475
REMARK CONF_INDEPENDENT:        2.088
REMARK UNBOUND:                -3.475
REMARK  7 active torsions:
REMARK  status: ('A' for Active; 'I' for Inactive)
REMARK    1  A    between atoms: C_6  and  C_5 
REMARK    2  A    between atoms: C_6  and  N_14 
REMARK    3  A    between atoms: C_6  and  C_7 
REMARK       I    between atoms: C_7  and  N_9 
REMARK    4  A    between atoms: N_9  and  C_10 
REMARK       I    between atoms: N_14  and  C_15 
REMARK    5  A    between atoms: N_14  and  C_26 
REMARK    6  A    between atoms: C_15  and  C_17 
REMARK    7  A    between atoms: C_21  and  N_22 
ROOT
ATOM      1  N   UNL d   1      26.343 -13.330  -2.887  0.00  0.00    -0.296 N 
ATOM      2  C   UNL d   1      25.193 -14.393  -2.755  0.00  0.00     0.259 C 
ATOM      3  O   UNL d   1      24.099 -14.182  -3.294  0.00  0.00    -0.267 OA
ENDROOT
BRANCH   1   4
ATOM      4  C   UNL d   1      27.839 -13.633  -2.857  0.00  0.00     0.219 C 
BRANCH   4   5
ATOM      5  C   UNL d   1      28.234 -14.727  -1.922  0.00  0.00     0.246 C 
ATOM      6  O   UNL d   1      28.352 -14.528  -0.736  0.00  0.00    -0.271 OA
ATOM      7  N   UNL d   1      28.362 -15.971  -2.466  0.00  0.00    -0.351 N 
ATOM      8  H   UNL d   1      28.195 -16.161  -3.433  0.00  0.00     0.163 HD
BRANCH   7   9
ATOM      9  C   UNL d   1      29.430 -16.681  -1.893  0.00  0.00     0.022 C 
ATOM     10  C   UNL d   1      30.477 -17.599  -3.185  0.00  0.00     0.037 C 
ATOM     11  C   UNL d   1      30.767 -15.747  -1.919  0.00  0.00     0.037 C 
ATOM     12  C   UNL d   1      28.373 -17.501  -0.252  0.00  0.00     0.037 C 
ENDBRANCH   7   9
ENDBRANCH   4   5
BRANCH   4  13
ATOM     13  C   UNL d   1      28.673 -13.892  -4.129  0.00  0.00    -0.020 C 
ATOM     14  C   UNL d   1      30.024 -13.411  -4.116  0.00  0.00     0.011 C 
ATOM     15  C   UNL d   1      30.871 -13.594  -5.187  0.00  0.00     0.007 C 
ATOM     16  C   UNL d   1      30.336 -14.055  -6.373  0.00  0.00    -0.061 C 
ATOM     17  C   UNL d   1      31.146 -14.195  -7.604  0.00  0.00     0.048 C 
ATOM     18  C   UNL d   1      29.013 -14.464  -6.428  0.00  0.00     0.014 C 
ATOM     19  C   UNL d   1      28.243 -14.559  -5.282  0.00  0.00    -0.053 C 
ATOM     20  C   UNL d   1      26.922 -15.200  -5.488  0.00  0.00     0.049 C 
ENDBRANCH   4  13
ENDBRANCH   1   4
BRANCH   1  21
ATOM     21  C   UNL d   1      26.042 -12.024  -3.717  0.00  0.00     0.040 C 
ATOM     22  C   UNL d   1      25.893 -12.127  -5.092  0.00  0.00     0.030 C 
ATOM     23  C   UNL d   1      26.197 -11.050  -5.954  0.00  0.00     0.004 C 
ATOM     24  C   UNL d   1      26.633  -9.817  -5.473  0.00  0.00     0.024 C 
ATOM     25  C   UNL d   1      26.670  -9.632  -4.108  0.00  0.00     0.036 C 
ATOM     26 CL   UNL d   1      27.572  -8.249  -3.522  0.00  0.00    -0.084 Cl
ATOM     27  C   UNL d   1      26.239 -10.675  -3.236  0.00  0.00     0.053 C 
ENDBRANCH   1  21
BRANCH   2  28
ATOM     28  C   UNL d   1      25.067 -15.674  -1.772  0.00  0.00     0.035 C 
ATOM     29  C   UNL d   1      25.748 -16.221  -0.679  0.00  0.00     0.017 C 
ATOM     30  C   UNL d   1      25.209 -17.532   0.130  0.00  0.00     0.003 C 
ATOM     31  C   UNL d   1      23.938 -18.307  -0.046  0.00  0.00     0.036 C 
ATOM     32  C   UNL d   1      23.279 -17.942  -1.134  0.00  0.00     0.103 C 
ATOM     33  C   UNL d   1      24.057 -16.594  -2.008  0.00  0.00     0.053 C 
BRANCH  32  34
ATOM     34  N   UNL d   1      21.415 -18.508  -1.250  0.00  0.00    -0.116 N 
ATOM     35  O   UNL d   1      20.561 -17.716  -1.020  0.00  0.00    -0.532 OA
ATOM     36  O   UNL d   1      21.038 -19.698  -1.634  0.00  0.00    -0.532 OA
ENDBRANCH  32  34
ENDBRANCH   2  28
TORSDOF 7
ENDMDL
