MODEL 1
REMARK VINA RESULT:    -9.355      0.000      0.000
REMARK INTER + INTRA:         -12.853
REMARK INTER:                 -11.741
REMARK INTRA:                  -1.112
REMARK CONF_INDEPENDENT:        2.386
REMARK UNBOUND:                -1.112
REMARK  8 active torsions:
REMARK  status: ('A' for Active; 'I' for Inactive)
REMARK    1  A    between atoms: O_2  and  C_3 
REMARK    2  A    between atoms: C_3  and  C_5 
REMARK    3  A    between atoms: C_5  and  N_6 
REMARK       I    between atoms: N_6  and  C_7 
REMARK    4  A    between atoms: C_7  and  C_9 
REMARK    5  A    between atoms: C_12  and  N_13 
REMARK    6  A    between atoms: N_13  and  C_14 
REMARK    7  A    between atoms: C_14  and  C_15 
REMARK    8  A    between atoms: C_25  and  N_26 
ROOT
ATOM      1  C   UNL d   1      23.630 -17.386  -0.661  0.00  0.00     0.034 A 
ATOM      2  C   UNL d   1      24.651 -17.925   0.111  0.00  0.00     0.019 A 
ATOM      3  C   UNL d   1      25.958 -17.423   0.004  0.00  0.00     0.032 A 
ATOM      4  C   UNL d   1      26.320 -16.400  -0.915  0.00  0.00     0.061 A 
ATOM      5  C   UNL d   1      25.242 -15.813  -1.656  0.00  0.00     0.130 A 
ATOM      6  C   UNL d   1      23.924 -16.332  -1.519  0.00  0.00     0.055 A 
ENDROOT
BRANCH   4   7
ATOM      7  N   UNL d   1      27.697 -16.150  -0.959  0.00  0.00    -0.382 N 
ATOM      8  H   UNL d   1      28.329 -16.910  -1.202  0.00  0.00     0.160 HD
BRANCH   7   9
ATOM      9  C   UNL d   1      28.223 -14.829  -0.790  0.00  0.00     0.178 C 
BRANCH   9  10
ATOM     10  C   UNL d   1      28.248 -14.315   0.573  0.00  0.00     0.044 A 
ATOM     11  C   UNL d   1      27.851 -13.097   1.055  0.00  0.00     0.125 A 
ATOM     12  N   UNL d   1      27.901 -13.170   2.430  0.00  0.00    -0.311 N 
ATOM     13  C   UNL d   1      27.628 -12.178   3.362  0.00  0.00     0.014 A 
ATOM     14  C   UNL d   1      28.272 -14.416   2.786  0.00  0.00     0.112 A 
ATOM     15  C   UNL d   1      27.205 -10.797   2.960  0.00  0.00     0.068 C 
ATOM     16  C   UNL d   1      27.780 -12.530   4.659  0.00  0.00     0.025 A 
ATOM     17  C   UNL d   1      28.178 -13.863   5.100  0.00  0.00     0.006 A 
ATOM     18  C   UNL d   1      28.420 -14.824   4.195  0.00  0.00     0.049 A 
ATOM     19  N   UNL d   1      28.462 -15.118   1.680  0.00  0.00    -0.343 N 
ATOM     20  H   UNL d   1      28.687 -16.110   1.653  0.00  0.00     0.167 HD
ENDBRANCH   9  10
ENDBRANCH   7   9
ENDBRANCH   4   7
BRANCH   5  21
ATOM     21  N   UNL d   1      25.284 -14.637  -2.590  0.00  0.00    -0.113 N 
ATOM     22  O   UNL d   1      25.681 -13.529  -2.217  0.00  0.00    -0.532 OA
ATOM     23  O   UNL d   1      24.901 -14.813  -3.751  0.00  0.00    -0.532 OA
ENDBRANCH   5  21
BRANCH   1  24
ATOM     24  C   UNL d   1      22.229 -17.852  -0.467  0.00  0.00     0.252 C 
ATOM     25  N   UNL d   1      22.042 -19.040   0.203  0.00  0.00    -0.348 N 
ATOM     26  H   UNL d   1      22.821 -19.547   0.612  0.00  0.00     0.163 HD
ATOM     27  O   UNL d   1      21.311 -17.161  -0.897  0.00  0.00    -0.268 OA
BRANCH  25  28
ATOM     28  C   UNL d   1      20.699 -19.554   0.511  0.00  0.00     0.233 C 
BRANCH  28  29
ATOM     29  C   UNL d   1      19.935 -19.880  -0.775  0.00  0.00     0.276 C 
ATOM     30  O   UNL d   1      20.400 -19.701  -1.896  0.00  0.00    -0.263 OA
BRANCH  29  31
ATOM     31  O   UNL d   1      18.697 -20.392  -0.517  0.00  0.00    -0.325 OA
ATOM     32  C   UNL d   1      18.405 -20.581   0.876  0.00  0.00     0.213 C 
ENDBRANCH  29  31
ENDBRANCH  28  29
ENDBRANCH  25  28
ENDBRANCH   1  24
TORSDOF 8
ENDMDL
MODEL 2
REMARK VINA RESULT:    -9.003      3.161      5.449
REMARK INTER + INTRA:         -13.768
REMARK INTER:                 -11.390
REMARK INTRA:                  -2.378
REMARK CONF_INDEPENDENT:        2.386
REMARK UNBOUND:                -2.378
REMARK  8 active torsions:
REMARK  status: ('A' for Active; 'I' for Inactive)
REMARK    1  A    between atoms: O_2  and  C_3 
REMARK    2  A    between atoms: C_3  and  C_5 
REMARK    3  A    between atoms: C_5  and  N_6 
REMARK       I    between atoms: N_6  and  C_7 
REMARK    4  A    between atoms: C_7  and  C_9 
REMARK    5  A    between atoms: C_12  and  N_13 
REMARK    6  A    between atoms: N_13  and  C_14 
REMARK    7  A    between atoms: C_14  and  C_15 
REMARK    8  A    between atoms: C_25  and  N_26 
ROOT
ATOM      1  C   UNL d   1      23.662 -17.541  -0.584  0.00  0.00     0.034 A 
ATOM      2  C   UNL d   1      24.637 -18.091   0.239  0.00  0.00     0.019 A 
ATOM      3  C   UNL d   1      25.955 -17.612   0.189  0.00  0.00     0.032 A 
ATOM      4  C   UNL d   1      26.377 -16.602  -0.719  0.00  0.00     0.061 A 
ATOM      5  C   UNL d   1      25.346 -16.003  -1.513  0.00  0.00     0.130 A 
ATOM      6  C   UNL d   1      24.014 -16.499  -1.435  0.00  0.00     0.055 A 
ENDROOT
BRANCH   4   7
ATOM      7  N   UNL d   1      27.759 -16.377  -0.700  0.00  0.00    -0.382 N 
ATOM      8  H   UNL d   1      28.151 -15.770   0.017  0.00  0.00     0.160 HD
BRANCH   7   9
ATOM      9  C   UNL d   1      28.642 -17.074  -1.586  0.00  0.00     0.178 C 
BRANCH   9  10
ATOM     10  C   UNL d   1      28.901 -16.437  -2.871  0.00  0.00     0.044 A 
ATOM     11  C   UNL d   1      29.811 -16.763  -3.840  0.00  0.00     0.125 A 
ATOM     12  N   UNL d   1      29.534 -15.976  -4.937  0.00  0.00    -0.311 N 
ATOM     13  C   UNL d   1      30.202 -15.913  -6.151  0.00  0.00     0.014 A 
ATOM     14  C   UNL d   1      28.451 -15.220  -4.666  0.00  0.00     0.112 A 
ATOM     15  C   UNL d   1      31.400 -16.764  -6.449  0.00  0.00     0.068 C 
ATOM     16  C   UNL d   1      29.716 -15.025  -7.047  0.00  0.00     0.025 A 
ATOM     17  C   UNL d   1      28.548 -14.184  -6.808  0.00  0.00     0.006 A 
ATOM     18  C   UNL d   1      27.892 -14.264  -5.640  0.00  0.00     0.049 A 
ATOM     19  N   UNL d   1      28.050 -15.504  -3.437  0.00  0.00    -0.343 N 
ATOM     20  H   UNL d   1      27.214 -15.126  -2.996  0.00  0.00     0.167 HD
ENDBRANCH   9  10
ENDBRANCH   7   9
ENDBRANCH   4   7
BRANCH   5  21
ATOM     21  N   UNL d   1      25.452 -14.836  -2.453  0.00  0.00    -0.113 N 
ATOM     22  O   UNL d   1      25.150 -14.938  -3.646  0.00  0.00    -0.532 OA
ATOM     23  O   UNL d   1      25.859 -13.764  -1.994  0.00  0.00    -0.532 OA
ENDBRANCH   5  21
BRANCH   1  24
ATOM     24  C   UNL d   1      22.246 -17.981  -0.453  0.00  0.00     0.252 C 
ATOM     25  N   UNL d   1      22.010 -19.183   0.176  0.00  0.00    -0.348 N 
ATOM     26  H   UNL d   1      22.763 -19.718   0.596  0.00  0.00     0.163 HD
ATOM     27  O   UNL d   1      21.358 -17.258  -0.894  0.00  0.00    -0.268 OA
BRANCH  25  28
ATOM     28  C   UNL d   1      20.646 -19.676   0.422  0.00  0.00     0.233 C 
BRANCH  28  29
ATOM     29  C   UNL d   1      19.874 -19.811  -0.893  0.00  0.00     0.276 C 
ATOM     30  O   UNL d   1      20.399 -19.700  -1.996  0.00  0.00    -0.263 OA
BRANCH  29  31
ATOM     31  O   UNL d   1      18.552 -20.074  -0.683  0.00  0.00    -0.325 OA
ATOM     32  C   UNL d   1      18.273 -20.839   0.500  0.00  0.00     0.213 C 
ENDBRANCH  29  31
ENDBRANCH  28  29
ENDBRANCH  25  28
ENDBRANCH   1  24
TORSDOF 8
ENDMDL
MODEL 3
REMARK VINA RESULT:    -8.966      0.725      1.704
REMARK INTER + INTRA:         -13.238
REMARK INTER:                 -11.352
REMARK INTRA:                  -1.886
REMARK CONF_INDEPENDENT:        2.386
REMARK UNBOUND:                -1.886
REMARK  8 active torsions:
REMARK  status: ('A' for Active; 'I' for Inactive)
REMARK    1  A    between atoms: O_2  and  C_3 
REMARK    2  A    between atoms: C_3  and  C_5 
REMARK    3  A    between atoms: C_5  and  N_6 
REMARK       I    between atoms: N_6  and  C_7 
REMARK    4  A    between atoms: C_7  and  C_9 
REMARK    5  A    between atoms: C_12  and  N_13 
REMARK    6  A    between atoms: N_13  and  C_14 
REMARK    7  A    between atoms: C_14  and  C_15 
REMARK    8  A    between atoms: C_25  and  N_26 
ROOT
ATOM      1  C   UNL d   1      23.677 -17.544  -0.749  0.00  0.00     0.034 A 
ATOM      2  C   UNL d   1      24.670 -18.168  -0.002  0.00  0.00     0.019 A 
ATOM      3  C   UNL d   1      26.008 -17.766  -0.131  0.00  0.00     0.032 A 
ATOM      4  C   UNL d   1      26.429 -16.763  -1.047  0.00  0.00     0.061 A 
ATOM      5  C   UNL d   1      25.385 -16.087  -1.760  0.00  0.00     0.130 A 
ATOM      6  C   UNL d   1      24.034 -16.506  -1.602  0.00  0.00     0.055 A 
ENDROOT
BRANCH   4   7
ATOM      7  N   UNL d   1      27.821 -16.618  -1.116  0.00  0.00    -0.382 N 
ATOM      8  H   UNL d   1      28.277 -16.657  -2.025  0.00  0.00     0.160 HD
BRANCH   7   9
ATOM      9  C   UNL d   1      28.597 -16.298   0.044  0.00  0.00     0.178 C 
BRANCH   9  10
ATOM     10  C   UNL d   1      28.170 -15.128   0.801  0.00  0.00     0.044 A 
ATOM     11  C   UNL d   1      28.363 -14.825   2.122  0.00  0.00     0.125 A 
ATOM     12  N   UNL d   1      27.936 -13.527   2.306  0.00  0.00    -0.311 N 
ATOM     13  C   UNL d   1      27.895 -12.785   3.478  0.00  0.00     0.014 A 
ATOM     14  C   UNL d   1      27.537 -13.029   1.119  0.00  0.00     0.112 A 
ATOM     15  C   UNL d   1      28.350 -13.342   4.793  0.00  0.00     0.068 C 
ATOM     16  C   UNL d   1      27.404 -11.531   3.365  0.00  0.00     0.025 A 
ATOM     17  C   UNL d   1      26.959 -10.941   2.106  0.00  0.00     0.006 A 
ATOM     18  C   UNL d   1      27.021 -11.655   0.972  0.00  0.00     0.049 A 
ATOM     19  N   UNL d   1      27.693 -13.974   0.205  0.00  0.00    -0.343 N 
ATOM     20  H   UNL d   1      27.530 -13.851  -0.792  0.00  0.00     0.167 HD
ENDBRANCH   9  10
ENDBRANCH   7   9
ENDBRANCH   4   7
BRANCH   5  21
ATOM     21  N   UNL d   1      25.499 -14.908  -2.684  0.00  0.00    -0.113 N 
ATOM     22  O   UNL d   1      25.157 -14.980  -3.868  0.00  0.00    -0.532 OA
ATOM     23  O   UNL d   1      25.954 -13.857  -2.220  0.00  0.00    -0.532 OA
ENDBRANCH   5  21
BRANCH   1  24
ATOM     24  C   UNL d   1      22.249 -17.904  -0.531  0.00  0.00     0.252 C 
ATOM     25  N   UNL d   1      21.984 -19.106   0.086  0.00  0.00    -0.348 N 
ATOM     26  H   UNL d   1      22.730 -19.695   0.443  0.00  0.00     0.163 HD
ATOM     27  O   UNL d   1      21.379 -17.119  -0.895  0.00  0.00    -0.268 OA
BRANCH  25  28
ATOM     28  C   UNL d   1      20.613 -19.524   0.413  0.00  0.00     0.233 C 
BRANCH  28  29
ATOM     29  C   UNL d   1      19.802 -19.770  -0.862  0.00  0.00     0.276 C 
ATOM     30  O   UNL d   1      20.284 -19.700  -1.988  0.00  0.00    -0.263 OA
BRANCH  29  31
ATOM     31  O   UNL d   1      18.501 -20.076  -0.589  0.00  0.00    -0.325 OA
ATOM     32  C   UNL d   1      18.308 -20.872   0.591  0.00  0.00     0.213 C 
ENDBRANCH  29  31
ENDBRANCH  28  29
ENDBRANCH  25  28
ENDBRANCH   1  24
TORSDOF 8
ENDMDL
MODEL 4
REMARK VINA RESULT:    -8.427      4.119      6.537
REMARK INTER + INTRA:         -12.454
REMARK INTER:                 -10.814
REMARK INTRA:                  -1.640
REMARK CONF_INDEPENDENT:        2.386
REMARK UNBOUND:                -1.640
REMARK  8 active torsions:
REMARK  status: ('A' for Active; 'I' for Inactive)
REMARK    1  A    between atoms: O_2  and  C_3 
REMARK    2  A    between atoms: C_3  and  C_5 
REMARK    3  A    between atoms: C_5  and  N_6 
REMARK       I    between atoms: N_6  and  C_7 
REMARK    4  A    between atoms: C_7  and  C_9 
REMARK    5  A    between atoms: C_12  and  N_13 
REMARK    6  A    between atoms: N_13  and  C_14 
REMARK    7  A    between atoms: C_14  and  C_15 
REMARK    8  A    between atoms: C_25  and  N_26 
ROOT
ATOM      1  C   UNL d   1      24.744 -16.880  -1.036  0.00  0.00     0.034 A 
ATOM      2  C   UNL d   1      25.828 -16.928  -0.168  0.00  0.00     0.019 A 
ATOM      3  C   UNL d   1      27.095 -16.502  -0.596  0.00  0.00     0.032 A 
ATOM      4  C   UNL d   1      27.355 -16.059  -1.922  0.00  0.00     0.061 A 
ATOM      5  C   UNL d   1      26.213 -15.954  -2.783  0.00  0.00     0.130 A 
ATOM      6  C   UNL d   1      24.936 -16.381  -2.320  0.00  0.00     0.055 A 
ENDROOT
BRANCH   4   7
ATOM      7  N   UNL d   1      28.711 -15.817  -2.175  0.00  0.00    -0.382 N 
ATOM      8  H   UNL d   1      29.020 -14.862  -2.339  0.00  0.00     0.160 HD
BRANCH   7   9
ATOM      9  C   UNL d   1      29.685 -16.864  -2.087  0.00  0.00     0.178 C 
BRANCH   9  10
ATOM     10  C   UNL d   1      30.272 -17.304  -3.345  0.00  0.00     0.044 A 
ATOM     11  C   UNL d   1      31.052 -18.398  -3.609  0.00  0.00     0.125 A 
ATOM     12  N   UNL d   1      31.193 -18.472  -4.978  0.00  0.00    -0.311 N 
ATOM     13  C   UNL d   1      31.925 -19.384  -5.727  0.00  0.00     0.014 A 
ATOM     14  C   UNL d   1      30.479 -17.479  -5.544  0.00  0.00     0.112 A 
ATOM     15  C   UNL d   1      32.709 -20.493  -5.092  0.00  0.00     0.068 C 
ATOM     16  C   UNL d   1      31.899 -19.203  -7.066  0.00  0.00     0.025 A 
ATOM     17  C   UNL d   1      31.143 -18.147  -7.731  0.00  0.00     0.006 A 
ATOM     18  C   UNL d   1      30.420 -17.281  -7.004  0.00  0.00     0.049 A 
ATOM     19  N   UNL d   1      29.905 -16.784  -4.574  0.00  0.00    -0.343 N 
ATOM     20  H   UNL d   1      29.255 -16.015  -4.717  0.00  0.00     0.167 HD
ENDBRANCH   9  10
ENDBRANCH   7   9
ENDBRANCH   4   7
BRANCH   5  21
ATOM     21  N   UNL d   1      26.143 -15.397  -4.176  0.00  0.00    -0.113 N 
ATOM     22  O   UNL d   1      25.149 -14.786  -4.579  0.00  0.00    -0.532 OA
ATOM     23  O   UNL d   1      27.118 -15.575  -4.914  0.00  0.00    -0.532 OA
ENDBRANCH   5  21
BRANCH   1  24
ATOM     24  C   UNL d   1      23.384 -17.235  -0.545  0.00  0.00     0.252 C 
ATOM     25  N   UNL d   1      23.052 -18.570  -0.507  0.00  0.00    -0.348 N 
ATOM     26  H   UNL d   1      23.727 -19.292  -0.737  0.00  0.00     0.163 HD
ATOM     27  O   UNL d   1      22.630 -16.335  -0.189  0.00  0.00    -0.268 OA
BRANCH  25  28
ATOM     28  C   UNL d   1      21.762 -19.034   0.028  0.00  0.00     0.233 C 
BRANCH  28  29
ATOM     29  C   UNL d   1      20.613 -18.620  -0.895  0.00  0.00     0.276 C 
ATOM     30  O   UNL d   1      20.435 -17.466  -1.270  0.00  0.00    -0.263 OA
BRANCH  29  31
ATOM     31  O   UNL d   1      19.831 -19.682  -1.244  0.00  0.00    -0.325 OA
ATOM     32  C   UNL d   1      19.335 -20.451  -0.137  0.00  0.00     0.213 C 
ENDBRANCH  29  31
ENDBRANCH  28  29
ENDBRANCH  25  28
ENDBRANCH   1  24
TORSDOF 8
ENDMDL
MODEL 5
REMARK VINA RESULT:    -8.225      3.208      4.678
REMARK INTER + INTRA:         -12.942
REMARK INTER:                 -10.612
REMARK INTRA:                  -2.330
REMARK CONF_INDEPENDENT:        2.386
REMARK UNBOUND:                -2.330
REMARK  8 active torsions:
REMARK  status: ('A' for Active; 'I' for Inactive)
REMARK    1  A    between atoms: O_2  and  C_3 
REMARK    2  A    between atoms: C_3  and  C_5 
REMARK    3  A    between atoms: C_5  and  N_6 
REMARK       I    between atoms: N_6  and  C_7 
REMARK    4  A    between atoms: C_7  and  C_9 
REMARK    5  A    between atoms: C_12  and  N_13 
REMARK    6  A    between atoms: N_13  and  C_14 
REMARK    7  A    between atoms: C_14  and  C_15 
REMARK    8  A    between atoms: C_25  and  N_26 
ROOT
ATOM      1  C   UNL d   1      24.625 -17.534  -1.181  0.00  0.00     0.034 A 
ATOM      2  C   UNL d   1      25.506 -17.257  -0.143  0.00  0.00     0.019 A 
ATOM      3  C   UNL d   1      26.551 -16.339  -0.330  0.00  0.00     0.032 A 
ATOM      4  C   UNL d   1      26.802 -15.695  -1.573  0.00  0.00     0.061 A 
ATOM      5  C   UNL d   1      25.845 -15.944  -2.611  0.00  0.00     0.130 A 
ATOM      6  C   UNL d   1      24.787 -16.870  -2.392  0.00  0.00     0.055 A 
ENDROOT
BRANCH   4   7
ATOM      7  N   UNL d   1      27.976 -14.932  -1.580  0.00  0.00    -0.382 N 
ATOM      8  H   UNL d   1      28.830 -15.342  -1.950  0.00  0.00     0.160 HD
BRANCH   7   9
ATOM      9  C   UNL d   1      27.972 -13.553  -1.192  0.00  0.00     0.178 C 
BRANCH   9  10
ATOM     10  C   UNL d   1      27.277 -12.635  -2.085  0.00  0.00     0.044 A 
ATOM     11  C   UNL d   1      27.030 -11.296  -1.940  0.00  0.00     0.125 A 
ATOM     12  N   UNL d   1      26.509 -10.850  -3.136  0.00  0.00    -0.311 N 
ATOM     13  C   UNL d   1      26.067  -9.577  -3.468  0.00  0.00     0.014 A 
ATOM     14  C   UNL d   1      26.482 -11.877  -4.008  0.00  0.00     0.112 A 
ATOM     15  C   UNL d   1      26.110  -8.436  -2.496  0.00  0.00     0.068 C 
ATOM     16  C   UNL d   1      25.581  -9.430  -4.721  0.00  0.00     0.025 A 
ATOM     17  C   UNL d   1      25.529 -10.506  -5.706  0.00  0.00     0.006 A 
ATOM     18  C   UNL d   1      25.978 -11.729  -5.386  0.00  0.00     0.049 A 
ATOM     19  N   UNL d   1      26.960 -12.948  -3.395  0.00  0.00    -0.343 N 
ATOM     20  H   UNL d   1      27.114 -13.851  -3.838  0.00  0.00     0.167 HD
ENDBRANCH   9  10
ENDBRANCH   7   9
ENDBRANCH   4   7
BRANCH   5  21
ATOM     21  N   UNL d   1      25.762 -15.314  -3.973  0.00  0.00    -0.113 N 
ATOM     22  O   UNL d   1      24.908 -14.464  -4.240  0.00  0.00    -0.532 OA
ATOM     23  O   UNL d   1      26.577 -15.681  -4.825  0.00  0.00    -0.532 OA
ENDBRANCH   5  21
BRANCH   1  24
ATOM     24  C   UNL d   1      23.458 -18.428  -0.944  0.00  0.00     0.252 C 
ATOM     25  N   UNL d   1      22.695 -18.193   0.177  0.00  0.00    -0.348 N 
ATOM     26  H   UNL d   1      22.875 -17.400   0.785  0.00  0.00     0.163 HD
ATOM     27  O   UNL d   1      23.221 -19.319  -1.754  0.00  0.00    -0.268 OA
BRANCH  25  28
ATOM     28  C   UNL d   1      21.480 -18.970   0.466  0.00  0.00     0.233 C 
BRANCH  28  29
ATOM     29  C   UNL d   1      20.460 -18.824  -0.666  0.00  0.00     0.276 C 
ATOM     30  O   UNL d   1      20.273 -17.772  -1.270  0.00  0.00    -0.263 OA
BRANCH  29  31
ATOM     31  O   UNL d   1      19.805 -19.993  -0.917  0.00  0.00    -0.325 OA
ATOM     32  C   UNL d   1      19.489 -20.766   0.252  0.00  0.00     0.213 C 
ENDBRANCH  29  31
ENDBRANCH  28  29
ENDBRANCH  25  28
ENDBRANCH   1  24
TORSDOF 8
ENDMDL
MODEL 6
REMARK VINA RESULT:    -8.208      4.100      6.196
REMARK INTER + INTRA:         -12.936
REMARK INTER:                 -10.595
REMARK INTRA:                  -2.341
REMARK CONF_INDEPENDENT:        2.386
REMARK UNBOUND:                -2.341
REMARK  8 active torsions:
REMARK  status: ('A' for Active; 'I' for Inactive)
REMARK    1  A    between atoms: O_2  and  C_3 
REMARK    2  A    between atoms: C_3  and  C_5 
REMARK    3  A    between atoms: C_5  and  N_6 
REMARK       I    between atoms: N_6  and  C_7 
REMARK    4  A    between atoms: C_7  and  C_9 
REMARK    5  A    between atoms: C_12  and  N_13 
REMARK    6  A    between atoms: N_13  and  C_14 
REMARK    7  A    between atoms: C_14  and  C_15 
REMARK    8  A    between atoms: C_25  and  N_26 
ROOT
ATOM      1  C   UNL d   1      25.318 -17.377  -0.960  0.00  0.00     0.034 A 
ATOM      2  C   UNL d   1      26.641 -17.378  -0.535  0.00  0.00     0.019 A 
ATOM      3  C   UNL d   1      27.604 -16.622  -1.221  0.00  0.00     0.032 A 
ATOM      4  C   UNL d   1      27.308 -15.874  -2.393  0.00  0.00     0.061 A 
ATOM      5  C   UNL d   1      25.928 -15.832  -2.779  0.00  0.00     0.130 A 
ATOM      6  C   UNL d   1      24.969 -16.598  -2.058  0.00  0.00     0.055 A 
ENDROOT
BRANCH   4   7
ATOM      7  N   UNL d   1      28.440 -15.312  -2.998  0.00  0.00    -0.382 N 
ATOM      8  H   UNL d   1      29.160 -14.898  -2.410  0.00  0.00     0.160 HD
BRANCH   7   9
ATOM      9  C   UNL d   1      28.661 -15.416  -4.410  0.00  0.00     0.178 C 
BRANCH   9  10
ATOM     10  C   UNL d   1      28.374 -14.223  -5.195  0.00  0.00     0.044 A 
ATOM     11  C   UNL d   1      28.947 -13.786  -6.360  0.00  0.00     0.125 A 
ATOM     12  N   UNL d   1      28.202 -12.713  -6.799  0.00  0.00    -0.311 N 
ATOM     13  C   UNL d   1      28.408 -11.911  -7.913  0.00  0.00     0.014 A 
ATOM     14  C   UNL d   1      27.169 -12.525  -5.953  0.00  0.00     0.112 A 
ATOM     15  C   UNL d   1      29.553 -12.131  -8.856  0.00  0.00     0.068 C 
ATOM     16  C   UNL d   1      27.520 -10.907  -8.090  0.00  0.00     0.025 A 
ATOM     17  C   UNL d   1      26.385 -10.659  -7.207  0.00  0.00     0.006 A 
ATOM     18  C   UNL d   1      26.178 -11.451  -6.143  0.00  0.00     0.049 A 
ATOM     19  N   UNL d   1      27.251 -13.439  -4.999  0.00  0.00    -0.343 N 
ATOM     20  H   UNL d   1      26.563 -13.572  -4.261  0.00  0.00     0.167 HD
ENDBRANCH   9  10
ENDBRANCH   7   9
ENDBRANCH   4   7
BRANCH   5  21
ATOM     21  N   UNL d   1      25.289 -15.029  -3.876  0.00  0.00    -0.113 N 
ATOM     22  O   UNL d   1      24.545 -14.076  -3.630  0.00  0.00    -0.532 OA
ATOM     23  O   UNL d   1      25.530 -15.359  -5.042  0.00  0.00    -0.532 OA
ENDBRANCH   5  21
BRANCH   1  24
ATOM     24  C   UNL d   1      24.284 -18.097  -0.167  0.00  0.00     0.252 C 
ATOM     25  N   UNL d   1      23.064 -18.315  -0.767  0.00  0.00    -0.348 N 
ATOM     26  H   UNL d   1      22.894 -18.060  -1.734  0.00  0.00     0.163 HD
ATOM     27  O   UNL d   1      24.561 -18.470   0.968  0.00  0.00    -0.268 OA
BRANCH  25  28
ATOM     28  C   UNL d   1      21.997 -19.078  -0.100  0.00  0.00     0.233 C 
BRANCH  28  29
ATOM     29  C   UNL d   1      20.665 -18.901  -0.832  0.00  0.00     0.276 C 
ATOM     30  O   UNL d   1      20.277 -17.822  -1.270  0.00  0.00    -0.263 OA
BRANCH  29  31
ATOM     31  O   UNL d   1      19.980 -20.076  -0.939  0.00  0.00    -0.325 OA
ATOM     32  C   UNL d   1      19.457 -20.579   0.300  0.00  0.00     0.213 C 
ENDBRANCH  29  31
ENDBRANCH  28  29
ENDBRANCH  25  28
ENDBRANCH   1  24
TORSDOF 8
ENDMDL
MODEL 7
REMARK VINA RESULT:    -8.050      3.917      6.184
REMARK INTER + INTRA:         -12.430
REMARK INTER:                 -10.437
REMARK INTRA:                  -1.993
REMARK CONF_INDEPENDENT:        2.386
REMARK UNBOUND:                -1.993
REMARK  8 active torsions:
REMARK  status: ('A' for Active; 'I' for Inactive)
REMARK    1  A    between atoms: O_2  and  C_3 
REMARK    2  A    between atoms: C_3  and  C_5 
REMARK    3  A    between atoms: C_5  and  N_6 
REMARK       I    between atoms: N_6  and  C_7 
REMARK    4  A    between atoms: C_7  and  C_9 
REMARK    5  A    between atoms: C_12  and  N_13 
REMARK    6  A    between atoms: N_13  and  C_14 
REMARK    7  A    between atoms: C_14  and  C_15 
REMARK    8  A    between atoms: C_25  and  N_26 
ROOT
ATOM      1  C   UNL d   1      25.468 -16.858  -1.113  0.00  0.00     0.034 A 
ATOM      2  C   UNL d   1      26.363 -16.148  -0.322  0.00  0.00     0.019 A 
ATOM      3  C   UNL d   1      27.094 -15.081  -0.865  0.00  0.00     0.032 A 
ATOM      4  C   UNL d   1      27.010 -14.703  -2.234  0.00  0.00     0.061 A 
ATOM      5  C   UNL d   1      26.035 -15.403  -3.018  0.00  0.00     0.130 A 
ATOM      6  C   UNL d   1      25.298 -16.474  -2.439  0.00  0.00     0.055 A 
ENDROOT
BRANCH   4   7
ATOM      7  N   UNL d   1      27.928 -13.710  -2.596  0.00  0.00    -0.382 N 
ATOM      8  H   UNL d   1      28.559 -13.338  -1.889  0.00  0.00     0.160 HD
BRANCH   7   9
ATOM      9  C   UNL d   1      28.080 -13.294  -3.958  0.00  0.00     0.178 C 
BRANCH   9  10
ATOM     10  C   UNL d   1      28.889 -14.157  -4.808  0.00  0.00     0.044 A 
ATOM     11  C   UNL d   1      29.999 -13.857  -5.552  0.00  0.00     0.125 A 
ATOM     12  N   UNL d   1      30.505 -15.050  -6.023  0.00  0.00    -0.311 N 
ATOM     13  C   UNL d   1      31.597 -15.262  -6.853  0.00  0.00     0.014 A 
ATOM     14  C   UNL d   1      29.754 -16.060  -5.542  0.00  0.00     0.112 A 
ATOM     15  C   UNL d   1      32.434 -14.134  -7.377  0.00  0.00     0.068 C 
ATOM     16  C   UNL d   1      31.853 -16.550  -7.173  0.00  0.00     0.025 A 
ATOM     17  C   UNL d   1      31.075 -17.682  -6.680  0.00  0.00     0.006 A 
ATOM     18  C   UNL d   1      30.033 -17.473  -5.861  0.00  0.00     0.049 A 
ATOM     19  N   UNL d   1      28.795 -15.537  -4.794  0.00  0.00    -0.343 N 
ATOM     20  H   UNL d   1      28.120 -16.075  -4.255  0.00  0.00     0.167 HD
ENDBRANCH   9  10
ENDBRANCH   7   9
ENDBRANCH   4   7
BRANCH   5  21
ATOM     21  N   UNL d   1      25.622 -15.145  -4.439  0.00  0.00    -0.113 N 
ATOM     22  O   UNL d   1      26.259 -15.606  -5.391  0.00  0.00    -0.532 OA
ATOM     23  O   UNL d   1      24.620 -14.447  -4.627  0.00  0.00    -0.532 OA
ENDBRANCH   5  21
BRANCH   1  24
ATOM     24  C   UNL d   1      24.620 -17.920  -0.506  0.00  0.00     0.252 C 
ATOM     25  N   UNL d   1      23.277 -17.911  -0.810  0.00  0.00    -0.348 N 
ATOM     26  H   UNL d   1      22.888 -17.252  -1.476  0.00  0.00     0.163 HD
ATOM     27  O   UNL d   1      25.148 -18.754   0.222  0.00  0.00    -0.268 OA
BRANCH  25  28
ATOM     28  C   UNL d   1      22.364 -18.956  -0.321  0.00  0.00     0.233 C 
BRANCH  28  29
ATOM     29  C   UNL d   1      20.963 -18.770  -0.909  0.00  0.00     0.276 C 
ATOM     30  O   UNL d   1      20.525 -17.682  -1.271  0.00  0.00    -0.263 OA
BRANCH  29  31
ATOM     31  O   UNL d   1      20.280 -19.948  -0.983  0.00  0.00    -0.325 OA
ATOM     32  C   UNL d   1      19.741 -20.408   0.266  0.00  0.00     0.213 C 
ENDBRANCH  29  31
ENDBRANCH  28  29
ENDBRANCH  25  28
ENDBRANCH   1  24
TORSDOF 8
ENDMDL
MODEL 8
REMARK VINA RESULT:    -7.853      3.072      5.294
REMARK INTER + INTRA:         -12.535
REMARK INTER:                 -10.239
REMARK INTRA:                  -2.296
REMARK CONF_INDEPENDENT:        2.386
REMARK UNBOUND:                -2.296
REMARK  8 active torsions:
REMARK  status: ('A' for Active; 'I' for Inactive)
REMARK    1  A    between atoms: O_2  and  C_3 
REMARK    2  A    between atoms: C_3  and  C_5 
REMARK    3  A    between atoms: C_5  and  N_6 
REMARK       I    between atoms: N_6  and  C_7 
REMARK    4  A    between atoms: C_7  and  C_9 
REMARK    5  A    between atoms: C_12  and  N_13 
REMARK    6  A    between atoms: N_13  and  C_14 
REMARK    7  A    between atoms: C_14  and  C_15 
REMARK    8  A    between atoms: C_25  and  N_26 
ROOT
ATOM      1  C   UNL d   1      25.226 -16.892  -1.058  0.00  0.00     0.034 A 
ATOM      2  C   UNL d   1      25.931 -16.132  -0.132  0.00  0.00     0.019 A 
ATOM      3  C   UNL d   1      26.658 -15.006  -0.550  0.00  0.00     0.032 A 
ATOM      4  C   UNL d   1      26.761 -14.615  -1.913  0.00  0.00     0.061 A 
ATOM      5  C   UNL d   1      25.975 -15.371  -2.844  0.00  0.00     0.130 A 
ATOM      6  C   UNL d   1      25.237 -16.501  -2.392  0.00  0.00     0.055 A 
ENDROOT
BRANCH   4   7
ATOM      7  N   UNL d   1      27.649 -13.552  -2.123  0.00  0.00    -0.382 N 
ATOM      8  H   UNL d   1      27.678 -12.791  -1.447  0.00  0.00     0.160 HD
BRANCH   7   9
ATOM      9  C   UNL d   1      28.597 -13.572  -3.196  0.00  0.00     0.178 C 
BRANCH   9  10
ATOM     10  C   UNL d   1      29.296 -14.831  -3.414  0.00  0.00     0.044 A 
ATOM     11  C   UNL d   1      29.914 -15.654  -2.511  0.00  0.00     0.125 A 
ATOM     12  N   UNL d   1      30.258 -16.807  -3.184  0.00  0.00    -0.311 N 
ATOM     13  C   UNL d   1      30.936 -17.920  -2.708  0.00  0.00     0.014 A 
ATOM     14  C   UNL d   1      29.820 -16.715  -4.456  0.00  0.00     0.112 A 
ATOM     15  C   UNL d   1      31.411 -18.021  -1.289  0.00  0.00     0.068 C 
ATOM     16  C   UNL d   1      31.156 -18.906  -3.607  0.00  0.00     0.025 A 
ATOM     17  C   UNL d   1      30.704 -18.859  -4.993  0.00  0.00     0.006 A 
ATOM     18  C   UNL d   1      30.030 -17.790  -5.443  0.00  0.00     0.049 A 
ATOM     19  N   UNL d   1      29.223 -15.542  -4.599  0.00  0.00    -0.343 N 
ATOM     20  H   UNL d   1      28.743 -15.234  -5.441  0.00  0.00     0.167 HD
ENDBRANCH   9  10
ENDBRANCH   7   9
ENDBRANCH   4   7
BRANCH   5  21
ATOM     21  N   UNL d   1      25.771 -15.121  -4.311  0.00  0.00    -0.113 N 
ATOM     22  O   UNL d   1      24.796 -14.489  -4.728  0.00  0.00    -0.532 OA
ATOM     23  O   UNL d   1      26.612 -15.575  -5.093  0.00  0.00    -0.532 OA
ENDBRANCH   5  21
BRANCH   1  24
ATOM     24  C   UNL d   1      24.374 -18.022  -0.595  0.00  0.00     0.252 C 
ATOM     25  N   UNL d   1      23.031 -17.966  -0.891  0.00  0.00    -0.348 N 
ATOM     26  H   UNL d   1      22.643 -17.222  -1.462  0.00  0.00     0.163 HD
ATOM     27  O   UNL d   1      24.899 -18.948   0.014  0.00  0.00    -0.268 OA
BRANCH  25  28
ATOM     28  C   UNL d   1      22.113 -19.063  -0.544  0.00  0.00     0.233 C 
BRANCH  28  29
ATOM     29  C   UNL d   1      20.683 -18.731  -0.978  0.00  0.00     0.276 C 
ATOM     30  O   UNL d   1      20.315 -17.598  -1.270  0.00  0.00    -0.263 OA
BRANCH  29  31
ATOM     31  O   UNL d   1      19.888 -19.839  -1.005  0.00  0.00    -0.325 OA
ATOM     32  C   UNL d   1      19.669 -20.450   0.276  0.00  0.00     0.213 C 
ENDBRANCH  29  31
ENDBRANCH  28  29
ENDBRANCH  25  28
ENDBRANCH   1  24
TORSDOF 8
ENDMDL
MODEL 9
REMARK VINA RESULT:    -7.558      2.623      3.642
REMARK INTER + INTRA:         -12.375
REMARK INTER:                  -9.945
REMARK INTRA:                  -2.431
REMARK CONF_INDEPENDENT:        2.386
REMARK UNBOUND:                -2.431
REMARK  8 active torsions:
REMARK  status: ('A' for Active; 'I' for Inactive)
REMARK    1  A    between atoms: O_2  and  C_3 
REMARK    2  A    between atoms: C_3  and  C_5 
REMARK    3  A    between atoms: C_5  and  N_6 
REMARK       I    between atoms: N_6  and  C_7 
REMARK    4  A    between atoms: C_7  and  C_9 
REMARK    5  A    between atoms: C_12  and  N_13 
REMARK    6  A    between atoms: N_13  and  C_14 
REMARK    7  A    between atoms: C_14  and  C_15 
REMARK    8  A    between atoms: C_25  and  N_26 
ROOT
ATOM      1  C   UNL d   1      24.002 -17.355  -0.814  0.00  0.00     0.034 A 
ATOM      2  C   UNL d   1      24.989 -17.468   0.157  0.00  0.00     0.019 A 
ATOM      3  C   UNL d   1      26.285 -16.990  -0.094  0.00  0.00     0.032 A 
ATOM      4  C   UNL d   1      26.673 -16.428  -1.341  0.00  0.00     0.061 A 
ATOM      5  C   UNL d   1      25.627 -16.261  -2.307  0.00  0.00     0.130 A 
ATOM      6  C   UNL d   1      24.318 -16.743  -2.022  0.00  0.00     0.055 A 
ENDROOT
BRANCH   4   7
ATOM      7  N   UNL d   1      28.043 -16.149  -1.426  0.00  0.00    -0.382 N 
ATOM      8  H   UNL d   1      28.697 -16.719  -0.894  0.00  0.00     0.160 HD
BRANCH   7   9
ATOM      9  C   UNL d   1      28.550 -15.164  -2.333  0.00  0.00     0.178 C 
BRANCH   9  10
ATOM     10  C   UNL d   1      27.948 -13.840  -2.248  0.00  0.00     0.044 A 
ATOM     11  C   UNL d   1      28.230 -12.806  -1.394  0.00  0.00     0.125 A 
ATOM     12  N   UNL d   1      27.522 -11.711  -1.839  0.00  0.00    -0.311 N 
ATOM     13  C   UNL d   1      27.451 -10.441  -1.284  0.00  0.00     0.014 A 
ATOM     14  C   UNL d   1      26.860 -12.048  -2.964  0.00  0.00     0.112 A 
ATOM     15  C   UNL d   1      28.197 -10.069  -0.038  0.00  0.00     0.068 C 
ATOM     16  C   UNL d   1      26.653  -9.559  -1.929  0.00  0.00     0.025 A 
ATOM     17  C   UNL d   1      25.915  -9.870  -3.149  0.00  0.00     0.006 A 
ATOM     18  C   UNL d   1      26.005 -11.093  -3.693  0.00  0.00     0.049 A 
ATOM     19  N   UNL d   1      27.126 -13.317  -3.230  0.00  0.00    -0.343 N 
ATOM     20  H   UNL d   1      26.809 -13.816  -4.058  0.00  0.00     0.167 HD
ENDBRANCH   9  10
ENDBRANCH   7   9
ENDBRANCH   4   7
BRANCH   5  21
ATOM     21  N   UNL d   1      25.693 -15.584  -3.646  0.00  0.00    -0.113 N 
ATOM     22  O   UNL d   1      26.564 -15.871  -4.472  0.00  0.00    -0.532 OA
ATOM     23  O   UNL d   1      24.844 -14.722  -3.896  0.00  0.00    -0.532 OA
ENDBRANCH   5  21
BRANCH   1  24
ATOM     24  C   UNL d   1      22.606 -17.769  -0.504  0.00  0.00     0.252 C 
ATOM     25  N   UNL d   1      22.412 -19.051  -0.041  0.00  0.00    -0.348 N 
ATOM     26  H   UNL d   1      23.192 -19.671   0.149  0.00  0.00     0.163 HD
ATOM     27  O   UNL d   1      21.699 -16.957  -0.660  0.00  0.00    -0.268 OA
BRANCH  25  28
ATOM     28  C   UNL d   1      21.083 -19.537   0.363  0.00  0.00     0.233 C 
BRANCH  28  29
ATOM     29  C   UNL d   1      20.212 -19.817  -0.864  0.00  0.00     0.276 C 
ATOM     30  O   UNL d   1      20.617 -19.699  -2.017  0.00  0.00    -0.263 OA
BRANCH  29  31
ATOM     31  O   UNL d   1      18.954 -20.214  -0.517  0.00  0.00    -0.325 OA
ATOM     32  C   UNL d   1      18.710 -20.263   0.897  0.00  0.00     0.213 C 
ENDBRANCH  29  31
ENDBRANCH  28  29
ENDBRANCH  25  28
ENDBRANCH   1  24
TORSDOF 8
ENDMDL
