MODEL 1
REMARK VINA RESULT:   -28.481      0.000      0.000
REMARK INTER + INTRA:         -30.726
REMARK INTER:                 -30.270
REMARK INTRA:                  -0.455
REMARK CONF_INDEPENDENT:        1.790
REMARK UNBOUND:                -0.455
REMARK  6 active torsions:
REMARK  status: ('A' for Active; 'I' for Inactive)
REMARK    1  A    between atoms: C_8  and  S_9 
REMARK    2  A    between atoms: S_9  and  C_10 
REMARK    3  A    between atoms: C_10  and  C_11 
REMARK       I    between atoms: C_11  and  N_13 
REMARK    4  A    between atoms: N_13  and  C_14 
REMARK    5  A    between atoms: C_17  and  S_18 
REMARK    6  A    between atoms: S_18  and  N_19 
ROOT
ATOM      1  C   UNL d   1      26.223 -16.667  -1.846  0.00  0.00     0.231 C 
ATOM      2  O   UNL d   1      27.450 -16.754  -1.763  0.00  0.00    -0.272 OA
ATOM      3  N   UNL d   1      25.615 -15.806  -2.780  0.00  0.00    -0.327 N 
ATOM      4  H   UNL d   1      24.644 -15.549  -2.651  0.00  0.00     0.169 HD
ENDROOT
BRANCH   1   5
ATOM      5  C   UNL d   1      25.272 -17.460  -0.892  0.00  0.00     0.185 C 
BRANCH   5   6
ATOM      6  S   UNL d   1      23.766 -16.462  -0.547  0.00  0.00    -0.079 SA
BRANCH   6   7
ATOM      7  C   UNL d   1      22.424 -17.540  -0.221  0.00  0.00     0.227 A 
ATOM      8  N   UNL d   1      22.156 -18.092   0.964  0.00  0.00    -0.124 NA
ATOM      9  N   UNL d   1      21.032 -18.827   0.692  0.00  0.00    -0.062 N 
ATOM     10  C   UNL d   1      20.267 -19.637   1.544  0.00  0.00     0.052 A 
ATOM     11  C   UNL d   1      20.675 -18.684  -0.658  0.00  0.00     0.752 A 
ATOM     12  C   UNL d   1      19.189 -20.271   1.056  0.00  0.00     0.055 A 
ATOM     13  C   UNL d   1      20.655 -19.787   2.974  0.00  0.00     0.071 C 
ATOM     14  C   UNL d   1      18.877 -20.074  -0.388  0.00  0.00     0.051 A 
ATOM     15  C   UNL d   1      17.657 -20.821  -0.892  0.00  0.00     0.071 C 
ATOM     16  N   UNL d   1      19.578 -19.325  -1.194  0.00  0.00    -0.066 NA
ATOM     17  N   UNL d   1      21.547 -17.878  -1.227  0.00  0.00    -0.033 NA
ENDBRANCH   6   7
ENDBRANCH   5   6
ENDBRANCH   1   5
BRANCH   3  18
ATOM     18  C   UNL d   1      26.386 -15.009  -3.689  0.00  0.00     0.034 A 
ATOM     19  C   UNL d   1      27.498 -15.546  -4.356  0.00  0.00     0.031 A 
ATOM     20  C   UNL d   1      28.210 -14.778  -5.304  0.00  0.00     0.027 A 
ATOM     21  C   UNL d   1      27.846 -13.448  -5.543  0.00  0.00     0.079 A 
ATOM     22  C   UNL d   1      26.776 -12.887  -4.850  0.00  0.00     0.027 A 
ATOM     23  C   UNL d   1      26.050 -13.671  -3.939  0.00  0.00     0.031 A 
BRANCH  21  24
ATOM     24  S   UNL d   1      28.719 -12.487  -6.761  0.00  0.00     0.256 S 
ATOM     25  O   UNL d   1      27.809 -11.483  -7.269  0.00  0.00    -0.201 OA
ATOM     26  O   UNL d   1      30.031 -12.175  -6.256  0.00  0.00    -0.201 OA
BRANCH  24  27
ATOM     27  N   UNL d   1      28.941 -13.606  -7.980  0.00  0.00    -0.324 N 
ATOM     28  H   UNL d   1      29.894 -13.905  -8.150  0.00  0.00     0.169 HD
ATOM     29  H   UNL d   1      28.259 -13.584  -8.733  0.00  0.00     0.169 HD
ENDBRANCH  24  27
ENDBRANCH  21  24
ENDBRANCH   3  18
TORSDOF 6
ENDMDL
MODEL 2
REMARK VINA RESULT:   -28.040      0.889      1.101
REMARK INTER + INTRA:         -30.267
REMARK INTER:                 -29.830
REMARK INTRA:                  -0.437
REMARK CONF_INDEPENDENT:        1.790
REMARK UNBOUND:                -0.437
REMARK  6 active torsions:
REMARK  status: ('A' for Active; 'I' for Inactive)
REMARK    1  A    between atoms: C_8  and  S_9 
REMARK    2  A    between atoms: S_9  and  C_10 
REMARK    3  A    between atoms: C_10  and  C_11 
REMARK       I    between atoms: C_11  and  N_13 
REMARK    4  A    between atoms: N_13  and  C_14 
REMARK    5  A    between atoms: C_17  and  S_18 
REMARK    6  A    between atoms: S_18  and  N_19 
ROOT
ATOM      1  C   UNL d   1      26.008 -16.544  -2.157  0.00  0.00     0.231 C 
ATOM      2  O   UNL d   1      27.232 -16.658  -2.248  0.00  0.00    -0.272 OA
ATOM      3  N   UNL d   1      25.307 -15.581  -2.907  0.00  0.00    -0.327 N 
ATOM      4  H   UNL d   1      24.369 -15.325  -2.624  0.00  0.00     0.169 HD
ENDROOT
BRANCH   1   5
ATOM      5  C   UNL d   1      25.168 -17.421  -1.170  0.00  0.00     0.185 C 
BRANCH   5   6
ATOM      6  S   UNL d   1      23.741 -16.448  -0.539  0.00  0.00    -0.079 SA
BRANCH   6   7
ATOM      7  C   UNL d   1      22.404 -17.533  -0.214  0.00  0.00     0.227 A 
ATOM      8  N   UNL d   1      22.142 -18.092   0.969  0.00  0.00    -0.124 NA
ATOM      9  N   UNL d   1      21.020 -18.832   0.696  0.00  0.00    -0.062 N 
ATOM     10  C   UNL d   1      20.262 -19.649   1.546  0.00  0.00     0.052 A 
ATOM     11  C   UNL d   1      20.659 -18.683  -0.652  0.00  0.00     0.752 A 
ATOM     12  C   UNL d   1      19.185 -20.285   1.058  0.00  0.00     0.055 A 
ATOM     13  C   UNL d   1      20.655 -19.805   2.973  0.00  0.00     0.071 C 
ATOM     14  C   UNL d   1      18.868 -20.082  -0.384  0.00  0.00     0.051 A 
ATOM     15  C   UNL d   1      17.649 -20.831  -0.889  0.00  0.00     0.071 C 
ATOM     16  N   UNL d   1      19.563 -19.325  -1.188  0.00  0.00    -0.066 NA
ATOM     17  N   UNL d   1      21.526 -17.870  -1.219  0.00  0.00    -0.033 NA
ENDBRANCH   6   7
ENDBRANCH   5   6
ENDBRANCH   1   5
BRANCH   3  18
ATOM     18  C   UNL d   1      25.973 -14.704  -3.825  0.00  0.00     0.034 A 
ATOM     19  C   UNL d   1      27.022 -15.167  -4.634  0.00  0.00     0.031 A 
ATOM     20  C   UNL d   1      27.627 -14.318  -5.586  0.00  0.00     0.027 A 
ATOM     21  C   UNL d   1      27.222 -12.982  -5.691  0.00  0.00     0.079 A 
ATOM     22  C   UNL d   1      26.217 -12.496  -4.858  0.00  0.00     0.027 A 
ATOM     23  C   UNL d   1      25.595 -13.359  -3.942  0.00  0.00     0.031 A 
BRANCH  21  24
ATOM     24  S   UNL d   1      27.958 -11.917  -6.913  0.00  0.00     0.256 S 
ATOM     25  O   UNL d   1      28.947 -12.687  -7.635  0.00  0.00    -0.201 OA
ATOM     26  O   UNL d   1      26.915 -11.167  -7.565  0.00  0.00    -0.201 OA
BRANCH  24  27
ATOM     27  N   UNL d   1      28.789 -10.830  -5.957  0.00  0.00    -0.324 N 
ATOM     28  H   UNL d   1      29.800 -10.888  -5.982  0.00  0.00     0.169 HD
ATOM     29  H   UNL d   1      28.306 -10.514  -5.120  0.00  0.00     0.169 HD
ENDBRANCH  24  27
ENDBRANCH  21  24
ENDBRANCH   3  18
TORSDOF 6
ENDMDL
MODEL 3
REMARK VINA RESULT:   -27.771      4.212      5.021
REMARK INTER + INTRA:         -29.966
REMARK INTER:                 -29.561
REMARK INTRA:                  -0.405
REMARK CONF_INDEPENDENT:        1.790
REMARK UNBOUND:                -0.405
REMARK  6 active torsions:
REMARK  status: ('A' for Active; 'I' for Inactive)
REMARK    1  A    between atoms: C_8  and  S_9 
REMARK    2  A    between atoms: S_9  and  C_10 
REMARK    3  A    between atoms: C_10  and  C_11 
REMARK       I    between atoms: C_11  and  N_13 
REMARK    4  A    between atoms: N_13  and  C_14 
REMARK    5  A    between atoms: C_17  and  S_18 
REMARK    6  A    between atoms: S_18  and  N_19 
ROOT
ATOM      1  C   UNL d   1      26.411 -17.258  -0.660  0.00  0.00     0.231 C 
ATOM      2  O   UNL d   1      26.709 -18.044   0.241  0.00  0.00    -0.272 OA
ATOM      3  N   UNL d   1      27.245 -16.171  -0.984  0.00  0.00    -0.327 N 
ATOM      4  H   UNL d   1      26.864 -15.403  -1.523  0.00  0.00     0.169 HD
ENDROOT
BRANCH   1   5
ATOM      5  C   UNL d   1      25.074 -17.387  -1.461  0.00  0.00     0.185 C 
BRANCH   5   6
ATOM      6  S   UNL d   1      23.746 -16.448  -0.603  0.00  0.00    -0.079 SA
BRANCH   6   7
ATOM      7  C   UNL d   1      22.406 -17.527  -0.264  0.00  0.00     0.227 A 
ATOM      8  N   UNL d   1      22.144 -18.069   0.926  0.00  0.00    -0.124 NA
ATOM      9  N   UNL d   1      21.020 -18.810   0.664  0.00  0.00    -0.062 N 
ATOM     10  C   UNL d   1      20.260 -19.615   1.524  0.00  0.00     0.052 A 
ATOM     11  C   UNL d   1      20.659 -18.678  -0.686  0.00  0.00     0.752 A 
ATOM     12  C   UNL d   1      19.182 -20.255   1.045  0.00  0.00     0.055 A 
ATOM     13  C   UNL d   1      20.654 -19.753   2.954  0.00  0.00     0.071 C 
ATOM     14  C   UNL d   1      18.865 -20.070  -0.399  0.00  0.00     0.051 A 
ATOM     15  C   UNL d   1      17.645 -20.824  -0.894  0.00  0.00     0.071 C 
ATOM     16  N   UNL d   1      19.561 -19.325  -1.213  0.00  0.00    -0.066 NA
ATOM     17  N   UNL d   1      21.528 -17.874  -1.264  0.00  0.00    -0.033 NA
ENDBRANCH   6   7
ENDBRANCH   5   6
ENDBRANCH   1   5
BRANCH   3  18
ATOM     18  C   UNL d   1      28.483 -15.936  -0.301  0.00  0.00     0.034 A 
ATOM     19  C   UNL d   1      29.595 -16.767  -0.515  0.00  0.00     0.031 A 
ATOM     20  C   UNL d   1      30.832 -16.489   0.106  0.00  0.00     0.027 A 
ATOM     21  C   UNL d   1      30.946 -15.410   0.990  0.00  0.00     0.079 A 
ATOM     22  C   UNL d   1      29.837 -14.608   1.250  0.00  0.00     0.027 A 
ATOM     23  C   UNL d   1      28.622 -14.869   0.598  0.00  0.00     0.031 A 
BRANCH  21  24
ATOM     24  S   UNL d   1      32.512 -15.035   1.748  0.00  0.00     0.256 S 
ATOM     25  O   UNL d   1      32.955 -16.216   2.457  0.00  0.00    -0.201 OA
ATOM     26  O   UNL d   1      33.335 -14.335   0.796  0.00  0.00    -0.201 OA
BRANCH  24  27
ATOM     27  N   UNL d   1      32.069 -13.912   2.900  0.00  0.00    -0.324 N 
ATOM     28  H   UNL d   1      32.342 -14.113   3.856  0.00  0.00     0.169 HD
ATOM     29  H   UNL d   1      31.228 -13.378   2.701  0.00  0.00     0.169 HD
ENDBRANCH  24  27
ENDBRANCH  21  24
ENDBRANCH   3  18
TORSDOF 6
ENDMDL
MODEL 4
REMARK VINA RESULT:   -27.654      4.571      5.465
REMARK INTER + INTRA:         -29.891
REMARK INTER:                 -29.443
REMARK INTRA:                  -0.447
REMARK CONF_INDEPENDENT:        1.790
REMARK UNBOUND:                -0.447
REMARK  6 active torsions:
REMARK  status: ('A' for Active; 'I' for Inactive)
REMARK    1  A    between atoms: C_8  and  S_9 
REMARK    2  A    between atoms: S_9  and  C_10 
REMARK    3  A    between atoms: C_10  and  C_11 
REMARK       I    between atoms: C_11  and  N_13 
REMARK    4  A    between atoms: N_13  and  C_14 
REMARK    5  A    between atoms: C_17  and  S_18 
REMARK    6  A    between atoms: S_18  and  N_19 
ROOT
ATOM      1  C   UNL d   1      26.434 -16.742   0.258  0.00  0.00     0.231 C 
ATOM      2  O   UNL d   1      27.216 -17.356   0.987  0.00  0.00    -0.272 OA
ATOM      3  N   UNL d   1      26.471 -15.337   0.169  0.00  0.00    -0.327 N 
ATOM      4  H   UNL d   1      25.669 -14.849  -0.210  0.00  0.00     0.169 HD
ENDROOT
BRANCH   1   5
ATOM      5  C   UNL d   1      25.327 -17.475  -0.568  0.00  0.00     0.185 C 
BRANCH   5   6
ATOM      6  S   UNL d   1      23.771 -16.495  -0.525  0.00  0.00    -0.079 SA
BRANCH   6   7
ATOM      7  C   UNL d   1      22.424 -17.568  -0.205  0.00  0.00     0.227 A 
ATOM      8  N   UNL d   1      22.158 -18.132   0.975  0.00  0.00    -0.124 NA
ATOM      9  N   UNL d   1      21.028 -18.858   0.699  0.00  0.00    -0.062 N 
ATOM     10  C   UNL d   1      20.262 -19.672   1.546  0.00  0.00     0.052 A 
ATOM     11  C   UNL d   1      20.666 -18.697  -0.647  0.00  0.00     0.752 A 
ATOM     12  C   UNL d   1      19.178 -20.295   1.056  0.00  0.00     0.055 A 
ATOM     13  C   UNL d   1      20.655 -19.841   2.972  0.00  0.00     0.071 C 
ATOM     14  C   UNL d   1      18.862 -20.080  -0.385  0.00  0.00     0.051 A 
ATOM     15  C   UNL d   1      17.635 -20.814  -0.893  0.00  0.00     0.071 C 
ATOM     16  N   UNL d   1      19.563 -19.325  -1.185  0.00  0.00    -0.066 NA
ATOM     17  N   UNL d   1      21.541 -17.890  -1.211  0.00  0.00    -0.033 NA
ENDBRANCH   6   7
ENDBRANCH   5   6
ENDBRANCH   1   5
BRANCH   3  18
ATOM     18  C   UNL d   1      27.425 -14.557   0.900  0.00  0.00     0.034 A 
ATOM     19  C   UNL d   1      27.064 -13.327   1.474  0.00  0.00     0.031 A 
ATOM     20  C   UNL d   1      27.989 -12.597   2.253  0.00  0.00     0.027 A 
ATOM     21  C   UNL d   1      29.297 -13.068   2.412  0.00  0.00     0.079 A 
ATOM     22  C   UNL d   1      29.682 -14.261   1.806  0.00  0.00     0.027 A 
ATOM     23  C   UNL d   1      28.745 -14.999   1.066  0.00  0.00     0.031 A 
BRANCH  21  24
ATOM     24  S   UNL d   1      30.455 -12.168   3.421  0.00  0.00     0.256 S 
ATOM     25  O   UNL d   1      30.930 -11.038   2.651  0.00  0.00    -0.201 OA
ATOM     26  O   UNL d   1      29.915 -12.042   4.750  0.00  0.00    -0.201 OA
BRANCH  24  27
ATOM     27  N   UNL d   1      31.721 -13.251   3.530  0.00  0.00    -0.324 N 
ATOM     28  H   UNL d   1      32.023 -13.680   2.663  0.00  0.00     0.169 HD
ATOM     29  H   UNL d   1      31.809 -13.744   4.413  0.00  0.00     0.169 HD
ENDBRANCH  24  27
ENDBRANCH  21  24
ENDBRANCH   3  18
TORSDOF 6
ENDMDL
MODEL 5
REMARK VINA RESULT:   -27.555      2.073      2.321
REMARK INTER + INTRA:         -29.816
REMARK INTER:                 -29.345
REMARK INTRA:                  -0.472
REMARK CONF_INDEPENDENT:        1.790
REMARK UNBOUND:                -0.472
REMARK  6 active torsions:
REMARK  status: ('A' for Active; 'I' for Inactive)
REMARK    1  A    between atoms: C_8  and  S_9 
REMARK    2  A    between atoms: S_9  and  C_10 
REMARK    3  A    between atoms: C_10  and  C_11 
REMARK       I    between atoms: C_11  and  N_13 
REMARK    4  A    between atoms: N_13  and  C_14 
REMARK    5  A    between atoms: C_17  and  S_18 
REMARK    6  A    between atoms: S_18  and  N_19 
ROOT
ATOM      1  C   UNL d   1      25.289 -15.957  -2.813  0.00  0.00     0.231 C 
ATOM      2  O   UNL d   1      25.748 -16.125  -3.944  0.00  0.00    -0.272 OA
ATOM      3  N   UNL d   1      25.258 -14.679  -2.221  0.00  0.00    -0.327 N 
ATOM      4  H   UNL d   1      25.136 -14.606  -1.219  0.00  0.00     0.169 HD
ENDROOT
BRANCH   1   5
ATOM      5  C   UNL d   1      24.764 -17.150  -1.949  0.00  0.00     0.185 C 
BRANCH   5   6
ATOM      6  S   UNL d   1      23.812 -16.504  -0.514  0.00  0.00    -0.079 SA
BRANCH   6   7
ATOM      7  C   UNL d   1      22.458 -17.569  -0.196  0.00  0.00     0.227 A 
ATOM      8  N   UNL d   1      22.179 -18.120   0.987  0.00  0.00    -0.124 NA
ATOM      9  N   UNL d   1      21.049 -18.844   0.709  0.00  0.00    -0.062 N 
ATOM     10  C   UNL d   1      20.273 -19.648   1.556  0.00  0.00     0.052 A 
ATOM     11  C   UNL d   1      20.700 -18.696  -0.642  0.00  0.00     0.752 A 
ATOM     12  C   UNL d   1      19.191 -20.271   1.062  0.00  0.00     0.055 A 
ATOM     13  C   UNL d   1      20.653 -19.804   2.987  0.00  0.00     0.071 C 
ATOM     14  C   UNL d   1      18.888 -20.069  -0.383  0.00  0.00     0.051 A 
ATOM     15  C   UNL d   1      17.663 -20.803  -0.894  0.00  0.00     0.071 C 
ATOM     16  N   UNL d   1      19.599 -19.325  -1.185  0.00  0.00    -0.066 NA
ATOM     17  N   UNL d   1      21.583 -17.897  -1.206  0.00  0.00    -0.033 NA
ENDBRANCH   6   7
ENDBRANCH   5   6
ENDBRANCH   1   5
BRANCH   3  18
ATOM     18  C   UNL d   1      25.735 -13.515  -2.907  0.00  0.00     0.034 A 
ATOM     19  C   UNL d   1      25.398 -13.278  -4.249  0.00  0.00     0.031 A 
ATOM     20  C   UNL d   1      25.812 -12.095  -4.898  0.00  0.00     0.027 A 
ATOM     21  C   UNL d   1      26.616 -11.170  -4.223  0.00  0.00     0.079 A 
ATOM     22  C   UNL d   1      27.001 -11.417  -2.907  0.00  0.00     0.027 A 
ATOM     23  C   UNL d   1      26.551 -12.578  -2.258  0.00  0.00     0.031 A 
BRANCH  21  24
ATOM     24  S   UNL d   1      27.113  -9.660  -5.026  0.00  0.00     0.256 S 
ATOM     25  O   UNL d   1      27.857  -8.873  -4.067  0.00  0.00    -0.201 OA
ATOM     26  O   UNL d   1      27.609  -9.974  -6.341  0.00  0.00    -0.201 OA
BRANCH  24  27
ATOM     27  N   UNL d   1      25.645  -8.898  -5.249  0.00  0.00    -0.324 N 
ATOM     28  H   UNL d   1      25.625  -7.898  -5.083  0.00  0.00     0.169 HD
ATOM     29  H   UNL d   1      24.819  -9.468  -5.090  0.00  0.00     0.169 HD
ENDBRANCH  24  27
ENDBRANCH  21  24
ENDBRANCH   3  18
TORSDOF 6
ENDMDL
MODEL 6
REMARK VINA RESULT:   -27.302      1.166      1.263
REMARK INTER + INTRA:         -29.450
REMARK INTER:                 -29.092
REMARK INTRA:                  -0.358
REMARK CONF_INDEPENDENT:        1.790
REMARK UNBOUND:                -0.358
REMARK  6 active torsions:
REMARK  status: ('A' for Active; 'I' for Inactive)
REMARK    1  A    between atoms: C_8  and  S_9 
REMARK    2  A    between atoms: S_9  and  C_10 
REMARK    3  A    between atoms: C_10  and  C_11 
REMARK       I    between atoms: C_11  and  N_13 
REMARK    4  A    between atoms: N_13  and  C_14 
REMARK    5  A    between atoms: C_17  and  S_18 
REMARK    6  A    between atoms: S_18  and  N_19 
ROOT
ATOM      1  C   UNL d   1      25.470 -16.083  -2.742  0.00  0.00     0.231 C 
ATOM      2  O   UNL d   1      24.780 -15.242  -3.321  0.00  0.00    -0.272 OA
ATOM      3  N   UNL d   1      26.870 -16.104  -2.888  0.00  0.00    -0.327 N 
ATOM      4  H   UNL d   1      27.377 -16.943  -2.635  0.00  0.00     0.169 HD
ENDROOT
BRANCH   1   5
ATOM      5  C   UNL d   1      24.834 -17.204  -1.855  0.00  0.00     0.185 C 
BRANCH   5   6
ATOM      6  S   UNL d   1      23.750 -16.445  -0.579  0.00  0.00    -0.079 SA
BRANCH   6   7
ATOM      7  C   UNL d   1      22.411 -17.526  -0.245  0.00  0.00     0.227 A 
ATOM      8  N   UNL d   1      22.147 -18.072   0.943  0.00  0.00    -0.124 NA
ATOM      9  N   UNL d   1      21.025 -18.813   0.676  0.00  0.00    -0.062 N 
ATOM     10  C   UNL d   1      20.264 -19.620   1.534  0.00  0.00     0.052 A 
ATOM     11  C   UNL d   1      20.665 -18.678  -0.673  0.00  0.00     0.752 A 
ATOM     12  C   UNL d   1      19.187 -20.261   1.051  0.00  0.00     0.055 A 
ATOM     13  C   UNL d   1      20.654 -19.762   2.964  0.00  0.00     0.071 C 
ATOM     14  C   UNL d   1      18.873 -20.073  -0.394  0.00  0.00     0.051 A 
ATOM     15  C   UNL d   1      17.654 -20.826  -0.892  0.00  0.00     0.071 C 
ATOM     16  N   UNL d   1      19.570 -19.325  -1.205  0.00  0.00    -0.066 NA
ATOM     17  N   UNL d   1      21.535 -17.872  -1.248  0.00  0.00    -0.033 NA
ENDBRANCH   6   7
ENDBRANCH   5   6
ENDBRANCH   1   5
BRANCH   3  18
ATOM     18  C   UNL d   1      27.561 -15.143  -3.696  0.00  0.00     0.034 A 
ATOM     19  C   UNL d   1      27.331 -15.063  -5.079  0.00  0.00     0.031 A 
ATOM     20  C   UNL d   1      27.961 -14.067  -5.857  0.00  0.00     0.027 A 
ATOM     21  C   UNL d   1      28.870 -13.184  -5.263  0.00  0.00     0.079 A 
ATOM     22  C   UNL d   1      29.146 -13.286  -3.902  0.00  0.00     0.027 A 
ATOM     23  C   UNL d   1      28.485 -14.254  -3.129  0.00  0.00     0.031 A 
BRANCH  21  24
ATOM     24  S   UNL d   1      29.641 -11.906  -6.234  0.00  0.00     0.256 S 
ATOM     25  O   UNL d   1      28.592 -11.137  -6.867  0.00  0.00    -0.201 OA
ATOM     26  O   UNL d   1      30.697 -11.307  -5.460  0.00  0.00    -0.201 OA
BRANCH  24  27
ATOM     27  N   UNL d   1      30.387 -12.796  -7.433  0.00  0.00    -0.324 N 
ATOM     28  H   UNL d   1      29.781 -13.356  -8.023  0.00  0.00     0.169 HD
ATOM     29  H   UNL d   1      31.341 -13.087  -7.243  0.00  0.00     0.169 HD
ENDBRANCH  24  27
ENDBRANCH  21  24
ENDBRANCH   3  18
TORSDOF 6
ENDMDL
