MODEL 1
REMARK VINA RESULT:   -29.579      0.000      0.000
REMARK INTER + INTRA:         -31.366
REMARK INTER:                 -30.772
REMARK INTRA:                  -0.594
REMARK CONF_INDEPENDENT:        1.193
REMARK UNBOUND:                -0.594
REMARK  4 active torsions:
REMARK  status: ('A' for Active; 'I' for Inactive)
REMARK    1  A    between atoms: C_2  and  C_3 
REMARK    2  A    between atoms: C_3  and  C_4 
REMARK    3  A    between atoms: C_6  and  C_7 
REMARK       I    between atoms: C_7  and  N_9 
REMARK    4  A    between atoms: N_9  and  C_10 
ROOT
ATOM      1  C   UNL d   1      19.971 -19.635  -0.123  0.00  0.00     0.057 A 
ATOM      2  C   UNL d   1      21.366 -19.554   0.084  0.00  0.00     0.065 A 
ATOM      3  C   UNL d   1      21.791 -18.439  -0.607  0.00  0.00     0.119 A 
ATOM      4  N   UNL d   1      20.646 -17.931  -1.176  0.00  0.00    -0.273 N 
ATOM      5  N   UNL d   1      19.530 -18.637  -0.895  0.00  0.00    -0.179 NA
ATOM      6  H   UNL d   1      20.563 -17.107  -1.767  0.00  0.00     0.189 HD
ENDROOT
BRANCH   3   7
ATOM      7  C   UNL d   1      23.091 -17.836  -0.785  0.00  0.00     0.270 C 
ATOM      8  O   UNL d   1      23.208 -16.710  -1.270  0.00  0.00    -0.266 OA
ATOM      9  N   UNL d   1      24.188 -18.592  -0.380  0.00  0.00    -0.351 N 
ATOM     10  H   UNL d   1      24.037 -19.514   0.006  0.00  0.00     0.163 HD
BRANCH   9  11
ATOM     11  C   UNL d   1      25.539 -18.113  -0.504  0.00  0.00     0.085 A 
ATOM     12  C   UNL d   1      26.016 -16.878   0.219  0.00  0.00     0.027 A 
ATOM     13  C   UNL d   1      26.548 -18.225   0.611  0.00  0.00     0.027 A 
ENDBRANCH   9  11
ENDBRANCH   3   7
BRANCH   1  14
ATOM     14  C   UNL d   1      19.061 -20.690   0.409  0.00  0.00     0.061 C 
BRANCH  14  15
ATOM     15  C   UNL d   1      18.544 -20.338   1.804  0.00  0.00     0.002 C 
ATOM     16  C   UNL d   1      19.644 -20.447   2.845  0.00  0.00     0.005 C 
ENDBRANCH  14  15
ENDBRANCH   1  14
TORSDOF 4
ENDMDL
MODEL 2
REMARK VINA RESULT:   -29.445      0.957      1.125
REMARK INTER + INTRA:         -31.177
REMARK INTER:                 -30.639
REMARK INTRA:                  -0.539
REMARK CONF_INDEPENDENT:        1.193
REMARK UNBOUND:                -0.539
REMARK  4 active torsions:
REMARK  status: ('A' for Active; 'I' for Inactive)
REMARK    1  A    between atoms: C_2  and  C_3 
REMARK    2  A    between atoms: C_3  and  C_4 
REMARK    3  A    between atoms: C_6  and  C_7 
REMARK       I    between atoms: C_7  and  N_9 
REMARK    4  A    between atoms: N_9  and  C_10 
ROOT
ATOM      1  C   UNL d   1      20.571 -19.538  -0.249  0.00  0.00     0.057 A 
ATOM      2  C   UNL d   1      21.947 -19.235  -0.144  0.00  0.00     0.065 A 
ATOM      3  C   UNL d   1      22.118 -18.016  -0.766  0.00  0.00     0.119 A 
ATOM      4  N   UNL d   1      20.858 -17.671  -1.199  0.00  0.00    -0.273 N 
ATOM      5  N   UNL d   1      19.904 -18.576  -0.896  0.00  0.00    -0.179 NA
ATOM      6  H   UNL d   1      20.588 -16.834  -1.708  0.00  0.00     0.189 HD
ENDROOT
BRANCH   3   7
ATOM      7  C   UNL d   1      23.280 -17.188  -0.988  0.00  0.00     0.270 C 
ATOM      8  O   UNL d   1      23.165 -15.994  -1.269  0.00  0.00    -0.266 OA
ATOM      9  N   UNL d   1      24.520 -17.811  -0.870  0.00  0.00    -0.351 N 
ATOM     10  H   UNL d   1      24.558 -18.795  -0.645  0.00  0.00     0.163 HD
BRANCH   9  11
ATOM     11  C   UNL d   1      25.757 -17.103  -1.070  0.00  0.00     0.085 A 
ATOM     12  C   UNL d   1      26.086 -15.844  -0.308  0.00  0.00     0.027 A 
ATOM     13  C   UNL d   1      26.867 -17.100  -0.049  0.00  0.00     0.027 A 
ENDBRANCH   9  11
ENDBRANCH   3   7
BRANCH   1  14
ATOM     14  C   UNL d   1      19.898 -20.769   0.257  0.00  0.00     0.061 C 
BRANCH  14  15
ATOM     15  C   UNL d   1      18.647 -20.436   1.070  0.00  0.00     0.002 C 
ATOM     16  C   UNL d   1      17.654 -21.585   1.052  0.00  0.00     0.005 C 
ENDBRANCH  14  15
ENDBRANCH   1  14
TORSDOF 4
ENDMDL
MODEL 3
REMARK VINA RESULT:   -29.265      1.415      1.665
REMARK INTER + INTRA:         -30.908
REMARK INTER:                 -30.458
REMARK INTRA:                  -0.450
REMARK CONF_INDEPENDENT:        1.193
REMARK UNBOUND:                -0.450
REMARK  4 active torsions:
REMARK  status: ('A' for Active; 'I' for Inactive)
REMARK    1  A    between atoms: C_2  and  C_3 
REMARK    2  A    between atoms: C_3  and  C_4 
REMARK    3  A    between atoms: C_6  and  C_7 
REMARK       I    between atoms: C_7  and  N_9 
REMARK    4  A    between atoms: N_9  and  C_10 
ROOT
ATOM      1  C   UNL d   1      19.852 -19.650  -0.076  0.00  0.00     0.057 A 
ATOM      2  C   UNL d   1      21.237 -19.673   0.201  0.00  0.00     0.065 A 
ATOM      3  C   UNL d   1      21.783 -18.616  -0.496  0.00  0.00     0.119 A 
ATOM      4  N   UNL d   1      20.712 -18.036  -1.136  0.00  0.00    -0.273 N 
ATOM      5  N   UNL d   1      19.531 -18.644  -0.895  0.00  0.00    -0.179 NA
ATOM      6  H   UNL d   1      20.724 -17.227  -1.752  0.00  0.00     0.189 HD
ENDROOT
BRANCH   3   7
ATOM      7  C   UNL d   1      23.134 -18.122  -0.621  0.00  0.00     0.270 C 
ATOM      8  O   UNL d   1      24.100 -18.878  -0.511  0.00  0.00    -0.266 OA
ATOM      9  N   UNL d   1      23.277 -16.759  -0.870  0.00  0.00    -0.351 N 
ATOM     10  H   UNL d   1      22.451 -16.182  -0.945  0.00  0.00     0.163 HD
BRANCH   9  11
ATOM     11  C   UNL d   1      24.567 -16.136  -1.013  0.00  0.00     0.085 A 
ATOM     12  C   UNL d   1      25.655 -16.744  -1.861  0.00  0.00     0.027 A 
ATOM     13  C   UNL d   1      25.007 -15.460  -2.287  0.00  0.00     0.027 A 
ENDBRANCH   9  11
ENDBRANCH   3   7
BRANCH   1  14
ATOM     14  C   UNL d   1      18.835 -20.614   0.436  0.00  0.00     0.061 C 
BRANCH  14  15
ATOM     15  C   UNL d   1      18.416 -20.286   1.869  0.00  0.00     0.002 C 
ATOM     16  C   UNL d   1      19.580 -20.440   2.833  0.00  0.00     0.005 C 
ENDBRANCH  14  15
ENDBRANCH   1  14
TORSDOF 4
ENDMDL
MODEL 4
REMARK VINA RESULT:   -27.462      1.639      2.034
REMARK INTER + INTRA:         -29.097
REMARK INTER:                 -28.655
REMARK INTRA:                  -0.442
REMARK CONF_INDEPENDENT:        1.193
REMARK UNBOUND:                -0.442
REMARK  4 active torsions:
REMARK  status: ('A' for Active; 'I' for Inactive)
REMARK    1  A    between atoms: C_2  and  C_3 
REMARK    2  A    between atoms: C_3  and  C_4 
REMARK    3  A    between atoms: C_6  and  C_7 
REMARK       I    between atoms: C_7  and  N_9 
REMARK    4  A    between atoms: N_9  and  C_10 
ROOT
ATOM      1  C   UNL d   1      20.171 -19.287   0.214  0.00  0.00     0.057 A 
ATOM      2  C   UNL d   1      21.494 -19.051   0.649  0.00  0.00     0.065 A 
ATOM      3  C   UNL d   1      22.047 -18.180  -0.266  0.00  0.00     0.119 A 
ATOM      4  N   UNL d   1      21.040 -17.953  -1.176  0.00  0.00    -0.273 N 
ATOM      5  N   UNL d   1      19.893 -18.611  -0.905  0.00  0.00    -0.179 NA
ATOM      6  H   UNL d   1      21.076 -17.362  -2.003  0.00  0.00     0.189 HD
ENDROOT
BRANCH   3   7
ATOM      7  C   UNL d   1      23.353 -17.574  -0.373  0.00  0.00     0.270 C 
ATOM      8  O   UNL d   1      24.256 -17.869   0.411  0.00  0.00    -0.266 OA
ATOM      9  N   UNL d   1      23.528 -16.650  -1.400  0.00  0.00    -0.351 N 
ATOM     10  H   UNL d   1      22.751 -16.438  -2.011  0.00  0.00     0.163 HD
BRANCH   9  11
ATOM     11  C   UNL d   1      24.777 -15.969  -1.616  0.00  0.00     0.085 A 
ATOM     12  C   UNL d   1      26.089 -16.711  -1.671  0.00  0.00     0.027 A 
ATOM     13  C   UNL d   1      25.543 -16.067  -2.912  0.00  0.00     0.027 A 
ENDBRANCH   9  11
ENDBRANCH   3   7
BRANCH   1  14
ATOM     14  C   UNL d   1      19.175 -20.184   0.869  0.00  0.00     0.061 C 
BRANCH  14  15
ATOM     15  C   UNL d   1      18.072 -20.608  -0.102  0.00  0.00     0.002 C 
ATOM     16  C   UNL d   1      17.290 -21.794   0.434  0.00  0.00     0.005 C 
ENDBRANCH  14  15
ENDBRANCH   1  14
TORSDOF 4
ENDMDL
