MODEL 1
REMARK VINA RESULT:    -6.899      0.000      0.000
REMARK INTER + INTRA:          -8.377
REMARK INTER:                  -7.794
REMARK INTRA:                  -0.583
REMARK CONF_INDEPENDENT:        0.895
REMARK UNBOUND:                -0.583
REMARK  3 active torsions:
REMARK  status: ('A' for Active; 'I' for Inactive)
REMARK    1  A    between atoms: C_6  and  C_7 
REMARK       I    between atoms: C_7  and  N_9 
REMARK    2  A    between atoms: N_9  and  N_10 
REMARK       I    between atoms: N_10  and  C_11 
REMARK    3  A    between atoms: C_11  and  C_13 
ROOT
ATOM      1  C   UNL d   1      26.092 -16.093  -2.841  0.00  0.00     0.270 C 
ATOM      2  O   UNL d   1      25.434 -15.947  -3.875  0.00  0.00    -0.266 OA
ATOM      3  N   UNL d   1      27.405 -15.630  -2.728  0.00  0.00    -0.263 N 
ATOM      4  H   UNL d   1      27.980 -16.004  -1.985  0.00  0.00     0.190 HD
ENDROOT
BRANCH   3   5
ATOM      5  N   UNL d   1      28.120 -15.371  -3.950  0.00  0.00    -0.263 N 
ATOM      6  C   UNL d   1      27.487 -14.690  -4.984  0.00  0.00     0.271 C 
ATOM      7  O   UNL d   1      27.399 -15.199  -6.103  0.00  0.00    -0.266 OA
ATOM      8  H   UNL d   1      28.691 -16.167  -4.231  0.00  0.00     0.190 HD
BRANCH   6   9
ATOM      9  C   UNL d   1      26.997 -13.280  -4.769  0.00  0.00     0.055 A 
ATOM     10  C   UNL d   1      26.088 -13.058  -3.701  0.00  0.00     0.019 A 
ATOM     11  C   UNL d   1      25.530 -11.790  -3.466  0.00  0.00     0.001 A 
ATOM     12  C   UNL d   1      25.895 -10.713  -4.262  0.00  0.00     0.002 A 
ATOM     13  C   UNL d   1      26.780 -10.911  -5.308  0.00  0.00     0.025 A 
ATOM     14  C   UNL d   1      27.287 -12.182  -5.599  0.00  0.00     0.049 A 
ATOM     15 CL   UNL d   1      28.142 -12.202  -7.099  0.00  0.00    -0.083 Cl
ENDBRANCH   6   9
ENDBRANCH   3   5
BRANCH   1  16
ATOM     16  C   UNL d   1      25.487 -16.798  -1.648  0.00  0.00     0.034 A 
ATOM     17  C   UNL d   1      26.316 -17.132  -0.564  0.00  0.00     0.017 A 
ATOM     18  C   UNL d   1      25.813 -17.837   0.539  0.00  0.00     0.002 A 
ATOM     19  C   UNL d   1      24.468 -18.196   0.589  0.00  0.00     0.007 A 
ATOM     20  C   UNL d   1      23.613 -17.842  -0.456  0.00  0.00    -0.061 A 
ATOM     21  C   UNL d   1      22.155 -18.197  -0.411  0.00  0.00     0.048 C 
ATOM     22  C   UNL d   1      24.128 -17.146  -1.567  0.00  0.00     0.024 A 
ENDBRANCH   1  16
TORSDOF 3
ENDMDL
MODEL 2
REMARK VINA RESULT:    -6.742      1.887      2.813
REMARK INTER + INTRA:          -8.574
REMARK INTER:                  -7.637
REMARK INTRA:                  -0.937
REMARK CONF_INDEPENDENT:        0.895
REMARK UNBOUND:                -0.937
REMARK  3 active torsions:
REMARK  status: ('A' for Active; 'I' for Inactive)
REMARK    1  A    between atoms: C_6  and  C_7 
REMARK       I    between atoms: C_7  and  N_9 
REMARK    2  A    between atoms: N_9  and  N_10 
REMARK       I    between atoms: N_10  and  C_11 
REMARK    3  A    between atoms: C_11  and  C_13 
ROOT
ATOM      1  C   UNL d   1      25.158 -14.912  -3.355  0.00  0.00     0.270 C 
ATOM      2  O   UNL d   1      25.155 -15.366  -4.503  0.00  0.00    -0.266 OA
ATOM      3  N   UNL d   1      25.075 -13.541  -3.101  0.00  0.00    -0.263 N 
ATOM      4  H   UNL d   1      25.350 -13.208  -2.187  0.00  0.00     0.190 HD
ENDROOT
BRANCH   3   5
ATOM      5  N   UNL d   1      25.415 -12.650  -4.179  0.00  0.00    -0.263 N 
ATOM      6  C   UNL d   1      26.750 -12.383  -4.454  0.00  0.00     0.271 C 
ATOM      7  O   UNL d   1      27.169 -11.224  -4.452  0.00  0.00    -0.266 OA
ATOM      8  H   UNL d   1      24.788 -11.846  -4.218  0.00  0.00     0.190 HD
BRANCH   6   9
ATOM      9  C   UNL d   1      27.674 -13.504  -4.862  0.00  0.00     0.055 A 
ATOM     10  C   UNL d   1      28.076 -14.420  -3.854  0.00  0.00     0.019 A 
ATOM     11  C   UNL d   1      28.984 -15.457  -4.127  0.00  0.00     0.001 A 
ATOM     12  C   UNL d   1      29.478 -15.626  -5.412  0.00  0.00     0.002 A 
ATOM     13  C   UNL d   1      29.097 -14.741  -6.408  0.00  0.00     0.025 A 
ATOM     14  C   UNL d   1      28.252 -13.661  -6.134  0.00  0.00     0.049 A 
ATOM     15 CL   UNL d   1      28.155 -12.570  -7.469  0.00  0.00    -0.083 Cl
ENDBRANCH   6   9
ENDBRANCH   3   5
BRANCH   1  16
ATOM     16  C   UNL d   1      25.263 -15.845  -2.169  0.00  0.00     0.034 A 
ATOM     17  C   UNL d   1      26.513 -16.021  -1.553  0.00  0.00     0.017 A 
ATOM     18  C   UNL d   1      26.673 -16.918  -0.487  0.00  0.00     0.002 A 
ATOM     19  C   UNL d   1      25.580 -17.633  -0.002  0.00  0.00     0.007 A 
ATOM     20  C   UNL d   1      24.318 -17.447  -0.570  0.00  0.00    -0.061 A 
ATOM     21  C   UNL d   1      23.122 -18.189  -0.047  0.00  0.00     0.048 C 
ATOM     22  C   UNL d   1      24.168 -16.554  -1.649  0.00  0.00     0.024 A 
ENDBRANCH   1  16
TORSDOF 3
ENDMDL
MODEL 3
REMARK VINA RESULT:    -6.610      1.890      3.029
REMARK INTER + INTRA:          -8.554
REMARK INTER:                  -7.505
REMARK INTRA:                  -1.048
REMARK CONF_INDEPENDENT:        0.895
REMARK UNBOUND:                -1.048
REMARK  3 active torsions:
REMARK  status: ('A' for Active; 'I' for Inactive)
REMARK    1  A    between atoms: C_6  and  C_7 
REMARK       I    between atoms: C_7  and  N_9 
REMARK    2  A    between atoms: N_9  and  N_10 
REMARK       I    between atoms: N_10  and  C_11 
REMARK    3  A    between atoms: C_11  and  C_13 
ROOT
ATOM      1  C   UNL d   1      24.803 -15.199  -2.770  0.00  0.00     0.270 C 
ATOM      2  O   UNL d   1      23.838 -14.449  -2.941  0.00  0.00    -0.266 OA
ATOM      3  N   UNL d   1      25.945 -15.131  -3.573  0.00  0.00    -0.263 N 
ATOM      4  H   UNL d   1      26.575 -15.921  -3.573  0.00  0.00     0.190 HD
ENDROOT
BRANCH   3   5
ATOM      5  N   UNL d   1      25.814 -14.483  -4.851  0.00  0.00    -0.263 N 
ATOM      6  C   UNL d   1      26.902 -13.810  -5.395  0.00  0.00     0.271 C 
ATOM      7  O   UNL d   1      26.810 -12.619  -5.699  0.00  0.00    -0.266 OA
ATOM      8  H   UNL d   1      24.913 -14.015  -4.948  0.00  0.00     0.190 HD
BRANCH   6   9
ATOM      9  C   UNL d   1      28.170 -14.562  -5.714  0.00  0.00     0.055 A 
ATOM     10  C   UNL d   1      28.576 -15.575  -4.806  0.00  0.00     0.019 A 
ATOM     11  C   UNL d   1      29.776 -16.283  -4.988  0.00  0.00     0.001 A 
ATOM     12  C   UNL d   1      30.574 -16.024  -6.094  0.00  0.00     0.002 A 
ATOM     13  C   UNL d   1      30.193 -15.038  -6.989  0.00  0.00     0.025 A 
ATOM     14  C   UNL d   1      29.039 -14.276  -6.782  0.00  0.00     0.049 A 
ATOM     15 CL   UNL d   1      28.942 -12.950  -7.884  0.00  0.00    -0.083 Cl
ENDBRANCH   6   9
ENDBRANCH   3   5
BRANCH   1  16
ATOM     16  C   UNL d   1      24.773 -16.238  -1.672  0.00  0.00     0.034 A 
ATOM     17  C   UNL d   1      25.972 -16.572  -1.020  0.00  0.00     0.017 A 
ATOM     18  C   UNL d   1      26.005 -17.570  -0.036  0.00  0.00     0.002 A 
ATOM     19  C   UNL d   1      24.835 -18.232   0.332  0.00  0.00     0.007 A 
ATOM     20  C   UNL d   1      23.623 -17.892  -0.272  0.00  0.00    -0.061 A 
ATOM     21  C   UNL d   1      22.347 -18.575   0.127  0.00  0.00     0.048 C 
ATOM     22  C   UNL d   1      23.600 -16.897  -1.269  0.00  0.00     0.024 A 
ENDBRANCH   1  16
TORSDOF 3
ENDMDL
MODEL 4
REMARK VINA RESULT:    -6.581      3.214      7.097
REMARK INTER + INTRA:          -8.236
REMARK INTER:                  -7.476
REMARK INTRA:                  -0.760
REMARK CONF_INDEPENDENT:        0.895
REMARK UNBOUND:                -0.760
REMARK  3 active torsions:
REMARK  status: ('A' for Active; 'I' for Inactive)
REMARK    1  A    between atoms: C_6  and  C_7 
REMARK       I    between atoms: C_7  and  N_9 
REMARK    2  A    between atoms: N_9  and  N_10 
REMARK       I    between atoms: N_10  and  C_11 
REMARK    3  A    between atoms: C_11  and  C_13 
ROOT
ATOM      1  C   UNL d   1      27.706 -15.276  -4.979  0.00  0.00     0.270 C 
ATOM      2  O   UNL d   1      26.641 -15.200  -5.597  0.00  0.00    -0.266 OA
ATOM      3  N   UNL d   1      27.762 -15.175  -3.586  0.00  0.00    -0.263 N 
ATOM      4  H   UNL d   1      28.656 -14.972  -3.159  0.00  0.00     0.190 HD
ENDROOT
BRANCH   3   5
ATOM      5  N   UNL d   1      26.641 -14.561  -2.924  0.00  0.00    -0.263 N 
ATOM      6  C   UNL d   1      25.623 -15.359  -2.415  0.00  0.00     0.271 C 
ATOM      7  O   UNL d   1      24.457 -15.189  -2.777  0.00  0.00    -0.266 OA
ATOM      8  H   UNL d   1      26.338 -13.711  -3.401  0.00  0.00     0.190 HD
BRANCH   6   9
ATOM      9  C   UNL d   1      25.926 -16.370  -1.337  0.00  0.00     0.055 A 
ATOM     10  C   UNL d   1      27.290 -16.673  -1.088  0.00  0.00     0.019 A 
ATOM     11  C   UNL d   1      27.664 -17.647  -0.147  0.00  0.00     0.001 A 
ATOM     12  C   UNL d   1      26.692 -18.311   0.588  0.00  0.00     0.002 A 
ATOM     13  C   UNL d   1      25.355 -18.028   0.357  0.00  0.00     0.025 A 
ATOM     14  C   UNL d   1      24.966 -17.114  -0.627  0.00  0.00     0.049 A 
ATOM     15 CL   UNL d   1      23.261 -17.149  -0.895  0.00  0.00    -0.083 Cl
ENDBRANCH   6   9
ENDBRANCH   3   5
BRANCH   1  16
ATOM     16  C   UNL d   1      29.007 -15.474  -5.725  0.00  0.00     0.034 A 
ATOM     17  C   UNL d   1      29.564 -14.387  -6.418  0.00  0.00     0.017 A 
ATOM     18  C   UNL d   1      30.738 -14.536  -7.171  0.00  0.00     0.002 A 
ATOM     19  C   UNL d   1      31.387 -15.768  -7.222  0.00  0.00     0.007 A 
ATOM     20  C   UNL d   1      30.877 -16.855  -6.509  0.00  0.00    -0.061 A 
ATOM     21  C   UNL d   1      31.574 -18.184  -6.530  0.00  0.00     0.048 C 
ATOM     22  C   UNL d   1      29.690 -16.701  -5.766  0.00  0.00     0.024 A 
ENDBRANCH   1  16
TORSDOF 3
ENDMDL
MODEL 5
REMARK VINA RESULT:    -6.572      3.141      6.791
REMARK INTER + INTRA:          -8.335
REMARK INTER:                  -7.467
REMARK INTRA:                  -0.868
REMARK CONF_INDEPENDENT:        0.895
REMARK UNBOUND:                -0.868
REMARK  3 active torsions:
REMARK  status: ('A' for Active; 'I' for Inactive)
REMARK    1  A    between atoms: C_6  and  C_7 
REMARK       I    between atoms: C_7  and  N_9 
REMARK    2  A    between atoms: N_9  and  N_10 
REMARK       I    between atoms: N_10  and  C_11 
REMARK    3  A    between atoms: C_11  and  C_13 
ROOT
ATOM      1  C   UNL d   1      28.031 -15.481  -5.025  0.00  0.00     0.270 C 
ATOM      2  O   UNL d   1      27.077 -15.200  -5.756  0.00  0.00    -0.266 OA
ATOM      3  N   UNL d   1      27.955 -15.367  -3.634  0.00  0.00    -0.263 N 
ATOM      4  H   UNL d   1      28.819 -15.343  -3.110  0.00  0.00     0.190 HD
ENDROOT
BRANCH   3   5
ATOM      5  N   UNL d   1      26.919 -14.524  -3.098  0.00  0.00    -0.263 N 
ATOM      6  C   UNL d   1      25.678 -15.071  -2.793  0.00  0.00     0.271 C 
ATOM      7  O   UNL d   1      24.653 -14.616  -3.303  0.00  0.00    -0.266 OA
ATOM      8  H   UNL d   1      26.898 -13.612  -3.554  0.00  0.00     0.190 HD
BRANCH   6   9
ATOM      9  C   UNL d   1      25.569 -16.159  -1.753  0.00  0.00     0.055 A 
ATOM     10  C   UNL d   1      24.409 -16.976  -1.780  0.00  0.00     0.019 A 
ATOM     11  C   UNL d   1      24.192 -17.973  -0.814  0.00  0.00     0.001 A 
ATOM     12  C   UNL d   1      25.141 -18.200   0.174  0.00  0.00     0.002 A 
ATOM     13  C   UNL d   1      26.279 -17.411   0.215  0.00  0.00     0.025 A 
ATOM     14  C   UNL d   1      26.473 -16.368  -0.696  0.00  0.00     0.049 A 
ATOM     15 CL   UNL d   1      27.821 -15.381  -0.261  0.00  0.00    -0.083 Cl
ENDBRANCH   6   9
ENDBRANCH   3   5
BRANCH   1  16
ATOM     16  C   UNL d   1      29.336 -15.955  -5.624  0.00  0.00     0.034 A 
ATOM     17  C   UNL d   1      29.935 -15.191  -6.639  0.00  0.00     0.017 A 
ATOM     18  C   UNL d   1      31.115 -15.619  -7.264  0.00  0.00     0.002 A 
ATOM     19  C   UNL d   1      31.729 -16.805  -6.867  0.00  0.00     0.007 A 
ATOM     20  C   UNL d   1      31.177 -17.563  -5.833  0.00  0.00    -0.061 A 
ATOM     21  C   UNL d   1      31.836 -18.831  -5.373  0.00  0.00     0.048 C 
ATOM     22  C   UNL d   1      29.985 -17.133  -5.218  0.00  0.00     0.024 A 
ENDBRANCH   1  16
TORSDOF 3
ENDMDL
MODEL 6
REMARK VINA RESULT:    -6.549      2.217      3.125
REMARK INTER + INTRA:          -8.667
REMARK INTER:                  -7.444
REMARK INTRA:                  -1.223
REMARK CONF_INDEPENDENT:        0.895
REMARK UNBOUND:                -1.223
REMARK  3 active torsions:
REMARK  status: ('A' for Active; 'I' for Inactive)
REMARK    1  A    between atoms: C_6  and  C_7 
REMARK       I    between atoms: C_7  and  N_9 
REMARK    2  A    between atoms: N_9  and  N_10 
REMARK       I    between atoms: N_10  and  C_11 
REMARK    3  A    between atoms: C_11  and  C_13 
ROOT
ATOM      1  C   UNL d   1      25.190 -15.201  -3.256  0.00  0.00     0.270 C 
ATOM      2  O   UNL d   1      25.524 -15.618  -4.368  0.00  0.00    -0.266 OA
ATOM      3  N   UNL d   1      24.780 -13.881  -3.052  0.00  0.00    -0.263 N 
ATOM      4  H   UNL d   1      24.780 -13.522  -2.107  0.00  0.00     0.190 HD
ENDROOT
BRANCH   3   5
ATOM      5  N   UNL d   1      25.156 -12.913  -4.049  0.00  0.00    -0.263 N 
ATOM      6  C   UNL d   1      26.480 -12.500  -4.139  0.00  0.00     0.271 C 
ATOM      7  O   UNL d   1      26.768 -11.305  -4.048  0.00  0.00    -0.266 OA
ATOM      8  H   UNL d   1      24.457 -12.177  -4.146  0.00  0.00     0.190 HD
BRANCH   6   9
ATOM      9  C   UNL d   1      27.563 -13.501  -4.455  0.00  0.00     0.055 A 
ATOM     10  C   UNL d   1      27.597 -14.036  -5.770  0.00  0.00     0.019 A 
ATOM     11  C   UNL d   1      28.530 -15.021  -6.136  0.00  0.00     0.001 A 
ATOM     12  C   UNL d   1      29.469 -15.463  -5.215  0.00  0.00     0.002 A 
ATOM     13  C   UNL d   1      29.450 -14.952  -3.927  0.00  0.00     0.025 A 
ATOM     14  C   UNL d   1      28.482 -14.026  -3.528  0.00  0.00     0.049 A 
ATOM     15 CL   UNL d   1      28.514 -13.761  -1.822  0.00  0.00    -0.083 Cl
ENDBRANCH   6   9
ENDBRANCH   3   5
BRANCH   1  16
ATOM     16  C   UNL d   1      25.224 -16.122  -2.057  0.00  0.00     0.034 A 
ATOM     17  C   UNL d   1      26.411 -16.226  -1.314  0.00  0.00     0.017 A 
ATOM     18  C   UNL d   1      26.510 -17.109  -0.229  0.00  0.00     0.002 A 
ATOM     19  C   UNL d   1      25.414 -17.883   0.148  0.00  0.00     0.007 A 
ATOM     20  C   UNL d   1      24.209 -17.770  -0.548  0.00  0.00    -0.061 A 
ATOM     21  C   UNL d   1      23.008 -18.575  -0.144  0.00  0.00     0.048 C 
ATOM     22  C   UNL d   1      24.122 -16.890  -1.645  0.00  0.00     0.024 A 
ENDBRANCH   1  16
TORSDOF 3
ENDMDL
MODEL 7
REMARK VINA RESULT:    -6.319      4.606      6.745
REMARK INTER + INTRA:          -8.444
REMARK INTER:                  -7.214
REMARK INTRA:                  -1.230
REMARK CONF_INDEPENDENT:        0.895
REMARK UNBOUND:                -1.230
REMARK  3 active torsions:
REMARK  status: ('A' for Active; 'I' for Inactive)
REMARK    1  A    between atoms: C_6  and  C_7 
REMARK       I    between atoms: C_7  and  N_9 
REMARK    2  A    between atoms: N_9  and  N_10 
REMARK       I    between atoms: N_10  and  C_11 
REMARK    3  A    between atoms: C_11  and  C_13 
ROOT
ATOM      1  C   UNL d   1      27.317 -13.382   0.641  0.00  0.00     0.270 C 
ATOM      2  O   UNL d   1      27.728 -12.543  -0.166  0.00  0.00    -0.266 OA
ATOM      3  N   UNL d   1      26.622 -14.523   0.232  0.00  0.00    -0.263 N 
ATOM      4  H   UNL d   1      26.082 -15.025   0.923  0.00  0.00     0.190 HD
ENDROOT
BRANCH   3   5
ATOM      5  N   UNL d   1      26.023 -14.496  -1.076  0.00  0.00    -0.263 N 
ATOM      6  C   UNL d   1      25.720 -15.691  -1.718  0.00  0.00     0.271 C 
ATOM      7  O   UNL d   1      26.186 -15.937  -2.832  0.00  0.00    -0.266 OA
ATOM      8  H   UNL d   1      26.433 -13.771  -1.666  0.00  0.00     0.190 HD
BRANCH   6   9
ATOM      9  C   UNL d   1      24.734 -16.651  -1.098  0.00  0.00     0.055 A 
ATOM     10  C   UNL d   1      23.353 -16.371  -1.270  0.00  0.00     0.019 A 
ATOM     11  C   UNL d   1      22.365 -17.174  -0.675  0.00  0.00     0.001 A 
ATOM     12  C   UNL d   1      22.729 -18.288   0.068  0.00  0.00     0.002 A 
ATOM     13  C   UNL d   1      24.073 -18.575   0.246  0.00  0.00     0.025 A 
ATOM     14  C   UNL d   1      25.068 -17.744  -0.279  0.00  0.00     0.049 A 
ATOM     15 CL   UNL d   1      26.634 -18.170   0.311  0.00  0.00    -0.083 Cl
ENDBRANCH   6   9
ENDBRANCH   3   5
BRANCH   1  16
ATOM     16  C   UNL d   1      27.550 -13.190   2.123  0.00  0.00     0.034 A 
ATOM     17  C   UNL d   1      27.527 -11.889   2.651  0.00  0.00     0.017 A 
ATOM     18  C   UNL d   1      27.794 -11.656   4.008  0.00  0.00     0.002 A 
ATOM     19  C   UNL d   1      28.062 -12.723   4.864  0.00  0.00     0.007 A 
ATOM     20  C   UNL d   1      28.052 -14.030   4.373  0.00  0.00    -0.061 A 
ATOM     21  C   UNL d   1      28.313 -15.195   5.283  0.00  0.00     0.048 C 
ATOM     22  C   UNL d   1      27.795 -14.255   3.006  0.00  0.00     0.024 A 
ENDBRANCH   1  16
TORSDOF 3
ENDMDL
MODEL 8
REMARK VINA RESULT:    -6.303      2.581      3.963
REMARK INTER + INTRA:          -8.385
REMARK INTER:                  -7.197
REMARK INTRA:                  -1.188
REMARK CONF_INDEPENDENT:        0.895
REMARK UNBOUND:                -1.188
REMARK  3 active torsions:
REMARK  status: ('A' for Active; 'I' for Inactive)
REMARK    1  A    between atoms: C_6  and  C_7 
REMARK       I    between atoms: C_7  and  N_9 
REMARK    2  A    between atoms: N_9  and  N_10 
REMARK       I    between atoms: N_10  and  C_11 
REMARK    3  A    between atoms: C_11  and  C_13 
ROOT
ATOM      1  C   UNL d   1      25.575 -15.471  -3.075  0.00  0.00     0.270 C 
ATOM      2  O   UNL d   1      24.702 -14.694  -3.470  0.00  0.00    -0.266 OA
ATOM      3  N   UNL d   1      26.836 -15.536  -3.675  0.00  0.00    -0.263 N 
ATOM      4  H   UNL d   1      27.405 -16.353  -3.501  0.00  0.00     0.190 HD
ENDROOT
BRANCH   3   5
ATOM      5  N   UNL d   1      26.958 -15.005  -5.007  0.00  0.00    -0.263 N 
ATOM      6  C   UNL d   1      28.193 -14.550  -5.454  0.00  0.00     0.271 C 
ATOM      7  O   UNL d   1      28.321 -13.394  -5.862  0.00  0.00    -0.266 OA
ATOM      8  H   UNL d   1      26.157 -14.427  -5.260  0.00  0.00     0.190 HD
BRANCH   6   9
ATOM      9  C   UNL d   1      29.362 -15.500  -5.540  0.00  0.00     0.055 A 
ATOM     10  C   UNL d   1      29.746 -15.950  -6.830  0.00  0.00     0.019 A 
ATOM     11  C   UNL d   1      30.781 -16.885  -7.002  0.00  0.00     0.001 A 
ATOM     12  C   UNL d   1      31.477 -17.359  -5.899  0.00  0.00     0.002 A 
ATOM     13  C   UNL d   1      31.115 -16.931  -4.632  0.00  0.00     0.025 A 
ATOM     14  C   UNL d   1      30.040 -16.057  -4.441  0.00  0.00     0.049 A 
ATOM     15 CL   UNL d   1      29.632 -15.900  -2.771  0.00  0.00    -0.083 Cl
ENDBRANCH   6   9
ENDBRANCH   3   5
BRANCH   1  16
ATOM     16  C   UNL d   1      25.298 -16.400  -1.914  0.00  0.00     0.034 A 
ATOM     17  C   UNL d   1      26.356 -16.753  -1.060  0.00  0.00     0.017 A 
ATOM     18  C   UNL d   1      26.161 -17.656  -0.004  0.00  0.00     0.002 A 
ATOM     19  C   UNL d   1      24.899 -18.199   0.230  0.00  0.00     0.007 A 
ATOM     20  C   UNL d   1      23.822 -17.835  -0.579  0.00  0.00    -0.061 A 
ATOM     21  C   UNL d   1      22.449 -18.389  -0.329  0.00  0.00     0.048 C 
ATOM     22  C   UNL d   1      24.028 -16.938  -1.645  0.00  0.00     0.024 A 
ENDBRANCH   1  16
TORSDOF 3
ENDMDL
MODEL 9
REMARK VINA RESULT:    -5.975      3.933      6.915
REMARK INTER + INTRA:          -8.109
REMARK INTER:                  -6.870
REMARK INTRA:                  -1.239
REMARK CONF_INDEPENDENT:        0.895
REMARK UNBOUND:                -1.239
REMARK  3 active torsions:
REMARK  status: ('A' for Active; 'I' for Inactive)
REMARK    1  A    between atoms: C_6  and  C_7 
REMARK       I    between atoms: C_7  and  N_9 
REMARK    2  A    between atoms: N_9  and  N_10 
REMARK       I    between atoms: N_10  and  C_11 
REMARK    3  A    between atoms: C_11  and  C_13 
ROOT
ATOM      1  C   UNL d   1      29.996 -17.270  -2.195  0.00  0.00     0.270 C 
ATOM      2  O   UNL d   1      30.962 -17.352  -1.432  0.00  0.00    -0.266 OA
ATOM      3  N   UNL d   1      28.692 -17.100  -1.723  0.00  0.00    -0.263 N 
ATOM      4  H   UNL d   1      27.927 -17.308  -2.350  0.00  0.00     0.190 HD
ENDROOT
BRANCH   3   5
ATOM      5  N   UNL d   1      28.438 -17.447  -0.349  0.00  0.00    -0.263 N 
ATOM      6  C   UNL d   1      27.353 -16.884   0.313  0.00  0.00     0.271 C 
ATOM      7  O   UNL d   1      27.519 -16.251   1.357  0.00  0.00    -0.266 OA
ATOM      8  H   UNL d   1      29.301 -17.508   0.192  0.00  0.00     0.190 HD
BRANCH   6   9
ATOM      9  C   UNL d   1      25.952 -17.134  -0.188  0.00  0.00     0.055 A 
ATOM     10  C   UNL d   1      25.227 -18.202   0.401  0.00  0.00     0.019 A 
ATOM     11  C   UNL d   1      23.941 -18.548  -0.045  0.00  0.00     0.001 A 
ATOM     12  C   UNL d   1      23.337 -17.816  -1.058  0.00  0.00     0.002 A 
ATOM     13  C   UNL d   1      24.031 -16.770  -1.645  0.00  0.00     0.025 A 
ATOM     14  C   UNL d   1      25.340 -16.461  -1.261  0.00  0.00     0.049 A 
ATOM     15 CL   UNL d   1      26.063 -15.308  -2.323  0.00  0.00    -0.083 Cl
ENDBRANCH   6   9
ENDBRANCH   3   5
BRANCH   1  16
ATOM     16  C   UNL d   1      30.198 -17.363  -3.691  0.00  0.00     0.034 A 
ATOM     17  C   UNL d   1      30.173 -16.184  -4.454  0.00  0.00     0.017 A 
ATOM     18  C   UNL d   1      30.298 -16.225  -5.851  0.00  0.00     0.002 A 
ATOM     19  C   UNL d   1      30.476 -17.443  -6.504  0.00  0.00     0.007 A 
ATOM     20  C   UNL d   1      30.545 -18.626  -5.766  0.00  0.00    -0.061 A 
ATOM     21  C   UNL d   1      30.762 -19.946  -6.447  0.00  0.00     0.048 C 
ATOM     22  C   UNL d   1      30.406 -18.578  -4.365  0.00  0.00     0.024 A 
ENDBRANCH   1  16
TORSDOF 3
ENDMDL
