MODEL 1
REMARK VINA RESULT:    -8.434      0.000      0.000
REMARK INTER + INTRA:         -12.762
REMARK INTER:                 -10.821
REMARK INTRA:                  -1.942
REMARK CONF_INDEPENDENT:        2.386
REMARK UNBOUND:                -1.942
REMARK  8 active torsions:
REMARK  status: ('A' for Active; 'I' for Inactive)
REMARK    1  A    between atoms: C_3  and  C_4 
REMARK    2  A    between atoms: C_4  and  C_5 
REMARK       I    between atoms: C_5  and  N_7 
REMARK    3  A    between atoms: CA_8  and  N_7 
REMARK    4  A    between atoms: CA_8  and  C_20 
REMARK    5  A    between atoms: CA_8  and  C_9 
REMARK    6  A    between atoms: C_9  and  C_10 
REMARK    7  A    between atoms: C_16  and  O_17 
REMARK    8  A    between atoms: C_28  and  O_29 
ROOT
ATOM      1  C   UNL d   1      28.783 -14.830  -1.578  0.00  0.00     0.222 C 
ATOM      2  O   UNL d   1      29.765 -15.566  -1.609  0.00  0.00    -0.273 OA
ATOM      3  N   UNL d   1      27.920 -15.108  -2.580  0.00  0.00    -0.346 N 
ATOM      4  H   UNL d   1      28.162 -16.006  -2.985  0.00  0.00     0.163 HD
ENDROOT
BRANCH   3   5
ATOM      5  CA  UNL d   1      26.549 -14.649  -2.872  0.00  0.00     0.189 C 
BRANCH   5   6
ATOM      6  C   UNL d   1      25.964 -15.034  -4.267  0.00  0.00     0.197 C 
ATOM      7  O   UNL d   1      24.780 -14.650  -4.495  0.00  0.00    -0.646 OA
ATOM      8  OXT UNL d   1      26.749 -15.657  -5.039  0.00  0.00    -0.646 OA
ENDBRANCH   5   6
BRANCH   5   9
ATOM      9  C   UNL d   1      25.657 -14.777  -1.646  0.00  0.00     0.077 C 
BRANCH   9  10
ATOM     10  C   UNL d   1      25.602 -16.123  -0.972  0.00  0.00    -0.028 C 
ATOM     11  C   UNL d   1      26.569 -16.809  -0.253  0.00  0.00     0.096 C 
ATOM     12  N   UNL d   1      26.167 -18.103  -0.117  0.00  0.00    -0.365 N 
ATOM     13  C   UNL d   1      24.824 -18.176  -0.365  0.00  0.00     0.043 A 
ATOM     14  H   UNL d   1      26.764 -18.852   0.203  0.00  0.00     0.165 HD
ATOM     15  C   UNL d   1      23.931 -19.219  -0.146  0.00  0.00     0.033 A 
ATOM     16  C   UNL d   1      24.443 -16.943  -0.897  0.00  0.00     0.001 A 
ATOM     17  C   UNL d   1      22.583 -18.954  -0.402  0.00  0.00     0.039 A 
ATOM     18  C   UNL d   1      22.177 -17.714  -0.897  0.00  0.00     0.066 A 
ATOM     19  C   UNL d   1      23.089 -16.706  -1.180  0.00  0.00     0.050 A 
BRANCH  18  20
ATOM     20  O   UNL d   1      20.861 -17.424  -1.111  0.00  0.00    -0.361 OA
ATOM     21  H   UNL d   1      20.772 -16.462  -1.174  0.00  0.00     0.217 HD
ENDBRANCH  18  20
ENDBRANCH   9  10
ENDBRANCH   5   9
ENDBRANCH   3   5
BRANCH   1  22
ATOM     22  C   UNL d   1      28.555 -13.632  -0.613  0.00  0.00     0.148 C 
BRANCH  22  23
ATOM     23  C   UNL d   1      28.454 -13.720   0.892  0.00  0.00     0.033 C 
ATOM     24  C   UNL d   1      29.509 -14.137   1.653  0.00  0.00    -0.036 C 
ATOM     25  C   UNL d   1      30.885 -14.507   1.145  0.00  0.00     0.050 C 
ATOM     26  C   UNL d   1      29.336 -14.254   3.106  0.00  0.00     0.005 A 
ATOM     27  C   UNL d   1      30.338 -14.610   4.013  0.00  0.00     0.017 A 
ATOM     28  C   UNL d   1      28.079 -14.006   3.630  0.00  0.00     0.092 A 
ATOM     29  C   UNL d   1      30.054 -14.686   5.382  0.00  0.00     0.037 A 
ATOM     30  C   UNL d   1      28.776 -14.410   5.852  0.00  0.00     0.068 A 
ATOM     31  C   UNL d   1      27.774 -14.064   4.977  0.00  0.00     0.074 A 
ATOM     32  O   UNL d   1      26.994 -13.675   2.848  0.00  0.00    -0.274 OA
ATOM     33  C   UNL d   1      27.153 -13.385   1.527  0.00  0.00     0.295 C 
ATOM     34  O   UNL d   1      26.179 -12.860   0.995  0.00  0.00    -0.259 OA
BRANCH  30  35
ATOM     35  O   UNL d   1      28.530 -14.493   7.186  0.00  0.00    -0.361 OA
ATOM     36  H   UNL d   1      28.838 -15.364   7.488  0.00  0.00     0.217 HD
ENDBRANCH  30  35
ENDBRANCH  22  23
ENDBRANCH   1  22
TORSDOF 8
ENDMDL
MODEL 2
REMARK VINA RESULT:    -8.429      1.211      1.829
REMARK INTER + INTRA:         -12.635
REMARK INTER:                 -10.816
REMARK INTRA:                  -1.820
REMARK CONF_INDEPENDENT:        2.386
REMARK UNBOUND:                -1.820
REMARK  8 active torsions:
REMARK  status: ('A' for Active; 'I' for Inactive)
REMARK    1  A    between atoms: C_3  and  C_4 
REMARK    2  A    between atoms: C_4  and  C_5 
REMARK       I    between atoms: C_5  and  N_7 
REMARK    3  A    between atoms: CA_8  and  N_7 
REMARK    4  A    between atoms: CA_8  and  C_20 
REMARK    5  A    between atoms: CA_8  and  C_9 
REMARK    6  A    between atoms: C_9  and  C_10 
REMARK    7  A    between atoms: C_16  and  O_17 
REMARK    8  A    between atoms: C_28  and  O_29 
ROOT
ATOM      1  C   UNL d   1      28.744 -15.413  -1.549  0.00  0.00     0.222 C 
ATOM      2  O   UNL d   1      29.567 -16.318  -1.653  0.00  0.00    -0.273 OA
ATOM      3  N   UNL d   1      27.786 -15.500  -2.499  0.00  0.00    -0.346 N 
ATOM      4  H   UNL d   1      27.831 -16.417  -2.931  0.00  0.00     0.163 HD
ENDROOT
BRANCH   3   5
ATOM      5  CA  UNL d   1      26.511 -14.786  -2.697  0.00  0.00     0.189 C 
BRANCH   5   6
ATOM      6  C   UNL d   1      25.869 -14.883  -4.116  0.00  0.00     0.197 C 
ATOM      7  O   UNL d   1      24.800 -14.227  -4.286  0.00  0.00    -0.646 OA
ATOM      8  OXT UNL d   1      26.504 -15.578  -4.961  0.00  0.00    -0.646 OA
ENDBRANCH   5   6
BRANCH   5   9
ATOM      9  C   UNL d   1      25.612 -14.924  -1.477  0.00  0.00     0.077 C 
BRANCH   9  10
ATOM     10  C   UNL d   1      25.474 -16.298  -0.876  0.00  0.00    -0.028 C 
ATOM     11  C   UNL d   1      26.394 -17.076  -0.189  0.00  0.00     0.096 C 
ATOM     12  N   UNL d   1      25.917 -18.350  -0.124  0.00  0.00    -0.365 N 
ATOM     13  C   UNL d   1      24.573 -18.331  -0.381  0.00  0.00     0.043 A 
ATOM     14  H   UNL d   1      26.466 -19.148   0.159  0.00  0.00     0.165 HD
ATOM     15  C   UNL d   1      23.620 -19.331  -0.222  0.00  0.00     0.033 A 
ATOM     16  C   UNL d   1      24.268 -17.052  -0.850  0.00  0.00     0.001 A 
ATOM     17  C   UNL d   1      22.292 -18.974  -0.470  0.00  0.00     0.039 A 
ATOM     18  C   UNL d   1      21.962 -17.689  -0.901  0.00  0.00     0.066 A 
ATOM     19  C   UNL d   1      22.933 -16.722  -1.126  0.00  0.00     0.050 A 
BRANCH  18  20
ATOM     20  O   UNL d   1      20.666 -17.312  -1.106  0.00  0.00    -0.361 OA
ATOM     21  H   UNL d   1      20.423 -17.555  -2.011  0.00  0.00     0.217 HD
ENDBRANCH  18  20
ENDBRANCH   9  10
ENDBRANCH   5   9
ENDBRANCH   3   5
BRANCH   1  22
ATOM     22  C   UNL d   1      28.803 -14.218  -0.556  0.00  0.00     0.148 C 
BRANCH  22  23
ATOM     23  C   UNL d   1      28.985 -14.325   0.940  0.00  0.00     0.033 C 
ATOM     24  C   UNL d   1      28.001 -13.938   1.806  0.00  0.00    -0.036 C 
ATOM     25  C   UNL d   1      26.632 -13.419   1.427  0.00  0.00     0.050 C 
ATOM     26  C   UNL d   1      28.254 -14.016   3.250  0.00  0.00     0.005 A 
ATOM     27  C   UNL d   1      27.327 -13.711   4.250  0.00  0.00     0.017 A 
ATOM     28  C   UNL d   1      29.514 -14.409   3.667  0.00  0.00     0.092 A 
ATOM     29  C   UNL d   1      27.682 -13.825   5.599  0.00  0.00     0.037 A 
ATOM     30  C   UNL d   1      28.959 -14.241   5.957  0.00  0.00     0.068 A 
ATOM     31  C   UNL d   1      29.889 -14.539   4.991  0.00  0.00     0.074 A 
ATOM     32  O   UNL d   1      30.533 -14.711   2.789  0.00  0.00    -0.274 OA
ATOM     33  C   UNL d   1      30.288 -14.822   1.454  0.00  0.00     0.295 C 
ATOM     34  O   UNL d   1      31.194 -15.339   0.806  0.00  0.00    -0.259 OA
BRANCH  30  35
ATOM     35  O   UNL d   1      29.276 -14.341   7.275  0.00  0.00    -0.361 OA
ATOM     36  H   UNL d   1      30.133 -14.796   7.338  0.00  0.00     0.217 HD
ENDBRANCH  30  35
ENDBRANCH  22  23
ENDBRANCH   1  22
TORSDOF 8
ENDMDL
MODEL 3
REMARK VINA RESULT:    -8.260      3.942      6.825
REMARK INTER + INTRA:         -12.123
REMARK INTER:                 -10.647
REMARK INTRA:                  -1.476
REMARK CONF_INDEPENDENT:        2.386
REMARK UNBOUND:                -1.476
REMARK  8 active torsions:
REMARK  status: ('A' for Active; 'I' for Inactive)
REMARK    1  A    between atoms: C_3  and  C_4 
REMARK    2  A    between atoms: C_4  and  C_5 
REMARK       I    between atoms: C_5  and  N_7 
REMARK    3  A    between atoms: CA_8  and  N_7 
REMARK    4  A    between atoms: CA_8  and  C_20 
REMARK    5  A    between atoms: CA_8  and  C_9 
REMARK    6  A    between atoms: C_9  and  C_10 
REMARK    7  A    between atoms: C_16  and  O_17 
REMARK    8  A    between atoms: C_28  and  O_29 
ROOT
ATOM      1  C   UNL d   1      28.620 -12.966  -3.008  0.00  0.00     0.222 C 
ATOM      2  O   UNL d   1      29.472 -12.116  -2.764  0.00  0.00    -0.273 OA
ATOM      3  N   UNL d   1      29.093 -13.922  -3.837  0.00  0.00    -0.346 N 
ATOM      4  H   UNL d   1      30.104 -13.850  -3.882  0.00  0.00     0.163 HD
ENDROOT
BRANCH   3   5
ATOM      5  CA  UNL d   1      28.546 -15.218  -4.280  0.00  0.00     0.189 C 
BRANCH   5   6
ATOM      6  C   UNL d   1      27.648 -15.200  -5.556  0.00  0.00     0.197 C 
ATOM      7  O   UNL d   1      26.450 -15.575  -5.394  0.00  0.00    -0.646 OA
ATOM      8  OXT UNL d   1      28.200 -14.776  -6.611  0.00  0.00    -0.646 OA
ENDBRANCH   5   6
BRANCH   5   9
ATOM      9  C   UNL d   1      29.578 -16.327  -4.128  0.00  0.00     0.077 C 
BRANCH   9  10
ATOM     10  C   UNL d   1      30.223 -16.843  -5.388  0.00  0.00    -0.028 C 
ATOM     11  C   UNL d   1      30.774 -16.159  -6.461  0.00  0.00     0.096 C 
ATOM     12  N   UNL d   1      30.941 -17.037  -7.489  0.00  0.00    -0.365 N 
ATOM     13  C   UNL d   1      30.895 -18.311  -6.994  0.00  0.00     0.043 A 
ATOM     14  H   UNL d   1      31.152 -16.765  -8.439  0.00  0.00     0.165 HD
ATOM     15  C   UNL d   1      31.222 -19.517  -7.603  0.00  0.00     0.033 A 
ATOM     16  C   UNL d   1      30.453 -18.217  -5.674  0.00  0.00     0.001 A 
ATOM     17  C   UNL d   1      31.177 -20.658  -6.797  0.00  0.00     0.039 A 
ATOM     18  C   UNL d   1      30.775 -20.579  -5.464  0.00  0.00     0.066 A 
ATOM     19  C   UNL d   1      30.381 -19.378  -4.889  0.00  0.00     0.050 A 
BRANCH  18  20
ATOM     20  O   UNL d   1      30.766 -21.676  -4.651  0.00  0.00    -0.361 OA
ATOM     21  H   UNL d   1      30.482 -22.437  -5.178  0.00  0.00     0.217 HD
ENDBRANCH  18  20
ENDBRANCH   9  10
ENDBRANCH   5   9
ENDBRANCH   3   5
BRANCH   1  22
ATOM     22  C   UNL d   1      27.133 -12.941  -2.553  0.00  0.00     0.148 C 
BRANCH  22  23
ATOM     23  C   UNL d   1      26.308 -14.149  -2.178  0.00  0.00     0.033 C 
ATOM     24  C   UNL d   1      26.700 -14.997  -1.180  0.00  0.00    -0.036 C 
ATOM     25  C   UNL d   1      27.926 -14.843  -0.309  0.00  0.00     0.050 C 
ATOM     26  C   UNL d   1      25.884 -16.184  -0.894  0.00  0.00     0.005 A 
ATOM     27  C   UNL d   1      26.128 -17.105   0.128  0.00  0.00     0.017 A 
ATOM     28  C   UNL d   1      24.790 -16.429  -1.705  0.00  0.00     0.092 A 
ATOM     29  C   UNL d   1      25.277 -18.201   0.307  0.00  0.00     0.037 A 
ATOM     30  C   UNL d   1      24.183 -18.386  -0.530  0.00  0.00     0.068 A 
ATOM     31  C   UNL d   1      23.928 -17.498  -1.546  0.00  0.00     0.074 A 
ATOM     32  O   UNL d   1      24.450 -15.620  -2.769  0.00  0.00    -0.274 OA
ATOM     33  C   UNL d   1      25.071 -14.422  -2.956  0.00  0.00     0.295 C 
ATOM     34  O   UNL d   1      24.523 -13.680  -3.765  0.00  0.00    -0.259 OA
BRANCH  30  35
ATOM     35  O   UNL d   1      23.374 -19.461  -0.333  0.00  0.00    -0.361 OA
ATOM     36  H   UNL d   1      23.137 -19.482   0.610  0.00  0.00     0.217 HD
ENDBRANCH  30  35
ENDBRANCH  22  23
ENDBRANCH   1  22
TORSDOF 8
ENDMDL
MODEL 4
REMARK VINA RESULT:    -8.196      1.348      1.635
REMARK INTER + INTRA:         -12.283
REMARK INTER:                 -10.583
REMARK INTRA:                  -1.700
REMARK CONF_INDEPENDENT:        2.386
REMARK UNBOUND:                -1.700
REMARK  8 active torsions:
REMARK  status: ('A' for Active; 'I' for Inactive)
REMARK    1  A    between atoms: C_3  and  C_4 
REMARK    2  A    between atoms: C_4  and  C_5 
REMARK       I    between atoms: C_5  and  N_7 
REMARK    3  A    between atoms: CA_8  and  N_7 
REMARK    4  A    between atoms: CA_8  and  C_20 
REMARK    5  A    between atoms: CA_8  and  C_9 
REMARK    6  A    between atoms: C_9  and  C_10 
REMARK    7  A    between atoms: C_16  and  O_17 
REMARK    8  A    between atoms: C_28  and  O_29 
ROOT
ATOM      1  C   UNL d   1      28.051 -13.843  -1.207  0.00  0.00     0.222 C 
ATOM      2  O   UNL d   1      29.237 -14.091  -1.007  0.00  0.00    -0.273 OA
ATOM      3  N   UNL d   1      27.660 -14.238  -2.439  0.00  0.00    -0.346 N 
ATOM      4  H   UNL d   1      28.365 -14.856  -2.826  0.00  0.00     0.163 HD
ENDROOT
BRANCH   3   5
ATOM      5  CA  UNL d   1      26.338 -14.329  -3.084  0.00  0.00     0.189 C 
BRANCH   5   6
ATOM      6  C   UNL d   1      26.281 -15.055  -4.465  0.00  0.00     0.197 C 
ATOM      7  O   UNL d   1      27.365 -15.575  -4.861  0.00  0.00    -0.646 OA
ATOM      8  OXT UNL d   1      25.148 -15.082  -5.026  0.00  0.00    -0.646 OA
ENDBRANCH   5   6
BRANCH   5   9
ATOM      9  C   UNL d   1      25.249 -14.620  -2.061  0.00  0.00     0.077 C 
BRANCH   9  10
ATOM     10  C   UNL d   1      25.334 -15.927  -1.317  0.00  0.00    -0.028 C 
ATOM     11  C   UNL d   1      26.405 -16.525  -0.669  0.00  0.00     0.096 C 
ATOM     12  N   UNL d   1      26.088 -17.827  -0.427  0.00  0.00    -0.365 N 
ATOM     13  C   UNL d   1      24.732 -17.977  -0.529  0.00  0.00     0.043 A 
ATOM     14  H   UNL d   1      26.753 -18.528  -0.133  0.00  0.00     0.165 HD
ATOM     15  C   UNL d   1      23.923 -19.048  -0.166  0.00  0.00     0.033 A 
ATOM     16  C   UNL d   1      24.234 -16.796  -1.081  0.00  0.00     0.001 A 
ATOM     17  C   UNL d   1      22.544 -18.862  -0.293  0.00  0.00     0.039 A 
ATOM     18  C   UNL d   1      22.025 -17.673  -0.805  0.00  0.00     0.066 A 
ATOM     19  C   UNL d   1      22.848 -16.640  -1.233  0.00  0.00     0.050 A 
BRANCH  18  20
ATOM     20  O   UNL d   1      20.680 -17.459  -0.895  0.00  0.00    -0.361 OA
ATOM     21  H   UNL d   1      20.470 -17.252  -1.818  0.00  0.00     0.217 HD
ENDBRANCH  18  20
ENDBRANCH   9  10
ENDBRANCH   5   9
ENDBRANCH   3   5
BRANCH   1  22
ATOM     22  C   UNL d   1      27.095 -13.066  -0.257  0.00  0.00     0.148 C 
BRANCH  22  23
ATOM     23  C   UNL d   1      27.351 -12.774   1.203  0.00  0.00     0.033 C 
ATOM     24  C   UNL d   1      27.639 -13.773   2.089  0.00  0.00    -0.036 C 
ATOM     25  C   UNL d   1      27.790 -15.241   1.760  0.00  0.00     0.050 C 
ATOM     26  C   UNL d   1      27.827 -13.435   3.506  0.00  0.00     0.005 A 
ATOM     27  C   UNL d   1      28.180 -14.339   4.511  0.00  0.00     0.017 A 
ATOM     28  C   UNL d   1      27.626 -12.121   3.890  0.00  0.00     0.092 A 
ATOM     29  C   UNL d   1      28.333 -13.899   5.831  0.00  0.00     0.037 A 
ATOM     30  C   UNL d   1      28.134 -12.562   6.155  0.00  0.00     0.068 A 
ATOM     31  C   UNL d   1      27.779 -11.658   5.183  0.00  0.00     0.074 A 
ATOM     32  O   UNL d   1      27.245 -11.133   3.008  0.00  0.00    -0.274 OA
ATOM     33  C   UNL d   1      27.235 -11.366   1.666  0.00  0.00     0.295 C 
ATOM     34  O   UNL d   1      27.133 -10.360   0.969  0.00  0.00    -0.259 OA
BRANCH  30  35
ATOM     35  O   UNL d   1      28.289 -12.164   7.445  0.00  0.00    -0.361 OA
ATOM     36  H   UNL d   1      28.979 -12.721   7.844  0.00  0.00     0.217 HD
ENDBRANCH  30  35
ENDBRANCH  22  23
ENDBRANCH   1  22
TORSDOF 8
ENDMDL
MODEL 5
REMARK VINA RESULT:    -7.910      3.535      6.603
REMARK INTER + INTRA:         -12.578
REMARK INTER:                 -10.296
REMARK INTRA:                  -2.282
REMARK CONF_INDEPENDENT:        2.386
REMARK UNBOUND:                -2.282
REMARK  8 active torsions:
REMARK  status: ('A' for Active; 'I' for Inactive)
REMARK    1  A    between atoms: C_3  and  C_4 
REMARK    2  A    between atoms: C_4  and  C_5 
REMARK       I    between atoms: C_5  and  N_7 
REMARK    3  A    between atoms: CA_8  and  N_7 
REMARK    4  A    between atoms: CA_8  and  C_20 
REMARK    5  A    between atoms: CA_8  and  C_9 
REMARK    6  A    between atoms: C_9  and  C_10 
REMARK    7  A    between atoms: C_16  and  O_17 
REMARK    8  A    between atoms: C_28  and  O_29 
ROOT
ATOM      1  C   UNL d   1      28.395 -14.325  -1.685  0.00  0.00     0.222 C 
ATOM      2  O   UNL d   1      28.544 -13.234  -1.143  0.00  0.00    -0.273 OA
ATOM      3  N   UNL d   1      28.206 -14.198  -3.017  0.00  0.00    -0.346 N 
ATOM      4  H   UNL d   1      28.461 -13.257  -3.299  0.00  0.00     0.163 HD
ENDROOT
BRANCH   3   5
ATOM      5  CA  UNL d   1      28.159 -15.179  -4.116  0.00  0.00     0.189 C 
BRANCH   5   6
ATOM      6  C   UNL d   1      26.859 -15.203  -4.979  0.00  0.00     0.197 C 
ATOM      7  O   UNL d   1      25.768 -15.185  -4.337  0.00  0.00    -0.646 OA
ATOM      8  OXT UNL d   1      27.030 -15.198  -6.232  0.00  0.00    -0.646 OA
ENDBRANCH   5   6
BRANCH   5   9
ATOM      9  C   UNL d   1      29.505 -15.276  -4.820  0.00  0.00     0.077 C 
BRANCH   9  10
ATOM     10  C   UNL d   1      30.069 -16.656  -5.040  0.00  0.00    -0.028 C 
ATOM     11  C   UNL d   1      30.454 -17.294  -6.209  0.00  0.00     0.096 C 
ATOM     12  N   UNL d   1      30.597 -18.623  -5.947  0.00  0.00    -0.365 N 
ATOM     13  C   UNL d   1      30.708 -18.796  -4.594  0.00  0.00     0.043 A 
ATOM     14  H   UNL d   1      30.692 -19.335  -6.657  0.00  0.00     0.165 HD
ATOM     15  C   UNL d   1      31.078 -19.921  -3.866  0.00  0.00     0.033 A 
ATOM     16  C   UNL d   1      30.387 -17.574  -4.002  0.00  0.00     0.001 A 
ATOM     17  C   UNL d   1      31.208 -19.758  -2.484  0.00  0.00     0.039 A 
ATOM     18  C   UNL d   1      30.929 -18.533  -1.877  0.00  0.00     0.066 A 
ATOM     19  C   UNL d   1      30.490 -17.438  -2.608  0.00  0.00     0.050 A 
BRANCH  18  20
ATOM     20  O   UNL d   1      31.092 -18.345  -0.535  0.00  0.00    -0.361 OA
ATOM     21  H   UNL d   1      30.367 -18.795  -0.079  0.00  0.00     0.217 HD
ENDBRANCH  18  20
ENDBRANCH   9  10
ENDBRANCH   5   9
ENDBRANCH   3   5
BRANCH   1  22
ATOM     22  C   UNL d   1      28.304 -15.706  -0.976  0.00  0.00     0.148 C 
BRANCH  22  23
ATOM     23  C   UNL d   1      27.045 -16.520  -0.792  0.00  0.00     0.033 C 
ATOM     24  C   UNL d   1      25.811 -15.991  -1.051  0.00  0.00    -0.036 C 
ATOM     25  C   UNL d   1      25.529 -14.603  -1.580  0.00  0.00     0.050 C 
ATOM     26  C   UNL d   1      24.619 -16.812  -0.804  0.00  0.00     0.005 A 
ATOM     27  C   UNL d   1      23.304 -16.427  -1.074  0.00  0.00     0.017 A 
ATOM     28  C   UNL d   1      24.801 -18.066  -0.246  0.00  0.00     0.092 A 
ATOM     29  C   UNL d   1      22.244 -17.299  -0.799  0.00  0.00     0.037 A 
ATOM     30  C   UNL d   1      22.489 -18.554  -0.252  0.00  0.00     0.068 A 
ATOM     31  C   UNL d   1      23.774 -18.950   0.028  0.00  0.00     0.074 A 
ATOM     32  O   UNL d   1      26.041 -18.560   0.098  0.00  0.00    -0.274 OA
ATOM     33  C   UNL d   1      27.176 -17.907  -0.275  0.00  0.00     0.295 C 
ATOM     34  O   UNL d   1      28.210 -18.557  -0.145  0.00  0.00    -0.259 OA
BRANCH  30  35
ATOM     35  O   UNL d   1      21.440 -19.378   0.005  0.00  0.00    -0.361 OA
ATOM     36  H   UNL d   1      21.755 -20.077   0.604  0.00  0.00     0.217 HD
ENDBRANCH  30  35
ENDBRANCH  22  23
ENDBRANCH   1  22
TORSDOF 8
ENDMDL
MODEL 6
REMARK VINA RESULT:    -7.783      4.264      7.121
REMARK INTER + INTRA:         -11.850
REMARK INTER:                 -10.170
REMARK INTRA:                  -1.681
REMARK CONF_INDEPENDENT:        2.386
REMARK UNBOUND:                -1.681
REMARK  8 active torsions:
REMARK  status: ('A' for Active; 'I' for Inactive)
REMARK    1  A    between atoms: C_3  and  C_4 
REMARK    2  A    between atoms: C_4  and  C_5 
REMARK       I    between atoms: C_5  and  N_7 
REMARK    3  A    between atoms: CA_8  and  N_7 
REMARK    4  A    between atoms: CA_8  and  C_20 
REMARK    5  A    between atoms: CA_8  and  C_9 
REMARK    6  A    between atoms: C_9  and  C_10 
REMARK    7  A    between atoms: C_16  and  O_17 
REMARK    8  A    between atoms: C_28  and  O_29 
ROOT
ATOM      1  C   UNL d   1      28.027 -14.939  -5.388  0.00  0.00     0.222 C 
ATOM      2  O   UNL d   1      27.085 -15.172  -6.140  0.00  0.00    -0.273 OA
ATOM      3  N   UNL d   1      29.153 -14.647  -6.076  0.00  0.00    -0.346 N 
ATOM      4  H   UNL d   1      28.909 -14.457  -7.043  0.00  0.00     0.163 HD
ENDROOT
BRANCH   3   5
ATOM      5  CA  UNL d   1      30.471 -14.135  -5.660  0.00  0.00     0.189 C 
BRANCH   5   6
ATOM      6  C   UNL d   1      30.486 -13.121  -4.474  0.00  0.00     0.197 C 
ATOM      7  O   UNL d   1      29.705 -12.130  -4.584  0.00  0.00    -0.646 OA
ATOM      8  OXT UNL d   1      31.248 -13.414  -3.508  0.00  0.00    -0.646 OA
ENDBRANCH   5   6
BRANCH   5   9
ATOM      9  C   UNL d   1      31.520 -15.238  -5.691  0.00  0.00     0.077 C 
BRANCH   9  10
ATOM     10  C   UNL d   1      31.120 -16.584  -5.145  0.00  0.00    -0.028 C 
ATOM     11  C   UNL d   1      30.723 -16.955  -3.870  0.00  0.00     0.096 C 
ATOM     12  N   UNL d   1      30.774 -18.313  -3.782  0.00  0.00    -0.365 N 
ATOM     13  C   UNL d   1      30.799 -18.836  -5.046  0.00  0.00     0.043 A 
ATOM     14  H   UNL d   1      30.711 -18.829  -2.916  0.00  0.00     0.165 HD
ATOM     15  C   UNL d   1      30.637 -20.150  -5.471  0.00  0.00     0.033 A 
ATOM     16  C   UNL d   1      31.010 -17.770  -5.921  0.00  0.00     0.001 A 
ATOM     17  C   UNL d   1      30.604 -20.361  -6.853  0.00  0.00     0.039 A 
ATOM     18  C   UNL d   1      30.773 -19.302  -7.745  0.00  0.00     0.066 A 
ATOM     19  C   UNL d   1      31.007 -18.006  -7.305  0.00  0.00     0.050 A 
BRANCH  18  20
ATOM     20  O   UNL d   1      30.700 -19.484  -9.095  0.00  0.00    -0.361 OA
ATOM     21  H   UNL d   1      29.785 -19.707  -9.319  0.00  0.00     0.217 HD
ENDBRANCH  18  20
ENDBRANCH   9  10
ENDBRANCH   5   9
ENDBRANCH   3   5
BRANCH   1  22
ATOM     22  C   UNL d   1      28.027 -15.066  -3.839  0.00  0.00     0.148 C 
BRANCH  22  23
ATOM     23  C   UNL d   1      26.887 -15.594  -2.998  0.00  0.00     0.033 C 
ATOM     24  C   UNL d   1      27.112 -16.427  -1.938  0.00  0.00    -0.036 C 
ATOM     25  C   UNL d   1      28.461 -16.885  -1.433  0.00  0.00     0.050 C 
ATOM     26  C   UNL d   1      25.962 -16.950  -1.190  0.00  0.00     0.005 A 
ATOM     27  C   UNL d   1      26.039 -17.761  -0.054  0.00  0.00     0.017 A 
ATOM     28  C   UNL d   1      24.694 -16.634  -1.645  0.00  0.00     0.092 A 
ATOM     29  C   UNL d   1      24.870 -18.199   0.579  0.00  0.00     0.037 A 
ATOM     30  C   UNL d   1      23.623 -17.835   0.084  0.00  0.00     0.068 A 
ATOM     31  C   UNL d   1      23.524 -17.045  -1.035  0.00  0.00     0.074 A 
ATOM     32  O   UNL d   1      24.472 -15.869  -2.770  0.00  0.00    -0.274 OA
ATOM     33  C   UNL d   1      25.501 -15.221  -3.384  0.00  0.00     0.295 C 
ATOM     34  O   UNL d   1      25.160 -14.376  -4.206  0.00  0.00    -0.259 OA
BRANCH  30  35
ATOM     35  O   UNL d   1      22.506 -18.277   0.719  0.00  0.00    -0.361 OA
ATOM     36  H   UNL d   1      21.988 -17.497   0.981  0.00  0.00     0.217 HD
ENDBRANCH  30  35
ENDBRANCH  22  23
ENDBRANCH   1  22
TORSDOF 8
ENDMDL
MODEL 7
REMARK VINA RESULT:    -7.303      3.938      7.153
REMARK INTER + INTRA:         -12.057
REMARK INTER:                  -9.690
REMARK INTRA:                  -2.367
REMARK CONF_INDEPENDENT:        2.386
REMARK UNBOUND:                -2.367
REMARK  8 active torsions:
REMARK  status: ('A' for Active; 'I' for Inactive)
REMARK    1  A    between atoms: C_3  and  C_4 
REMARK    2  A    between atoms: C_4  and  C_5 
REMARK       I    between atoms: C_5  and  N_7 
REMARK    3  A    between atoms: CA_8  and  N_7 
REMARK    4  A    between atoms: CA_8  and  C_20 
REMARK    5  A    between atoms: CA_8  and  C_9 
REMARK    6  A    between atoms: C_9  and  C_10 
REMARK    7  A    between atoms: C_16  and  O_17 
REMARK    8  A    between atoms: C_28  and  O_29 
ROOT
ATOM      1  C   UNL d   1      29.209 -13.490  -4.305  0.00  0.00     0.222 C 
ATOM      2  O   UNL d   1      29.920 -12.606  -4.774  0.00  0.00    -0.273 OA
ATOM      3  N   UNL d   1      27.901 -13.153  -4.350  0.00  0.00    -0.346 N 
ATOM      4  H   UNL d   1      27.786 -12.357  -4.968  0.00  0.00     0.163 HD
ENDROOT
BRANCH   3   5
ATOM      5  CA  UNL d   1      26.666 -13.914  -4.087  0.00  0.00     0.189 C 
BRANCH   5   6
ATOM      6  C   UNL d   1      26.490 -15.254  -4.868  0.00  0.00     0.197 C 
ATOM      7  O   UNL d   1      27.347 -15.485  -5.770  0.00  0.00    -0.646 OA
ATOM      8  OXT UNL d   1      25.530 -15.987  -4.493  0.00  0.00    -0.646 OA
ENDBRANCH   5   6
BRANCH   5   9
ATOM      9  C   UNL d   1      26.304 -13.876  -2.610  0.00  0.00     0.077 C 
BRANCH   9  10
ATOM     10  C   UNL d   1      26.662 -15.084  -1.783  0.00  0.00    -0.028 C 
ATOM     11  C   UNL d   1      27.886 -15.498  -1.279  0.00  0.00     0.096 C 
ATOM     12  N   UNL d   1      27.768 -16.794  -0.876  0.00  0.00    -0.365 N 
ATOM     13  C   UNL d   1      26.441 -17.092  -0.731  0.00  0.00     0.043 A 
ATOM     14  H   UNL d   1      28.550 -17.388  -0.641  0.00  0.00     0.165 HD
ATOM     15  C   UNL d   1      25.834 -18.197  -0.145  0.00  0.00     0.033 A 
ATOM     16  C   UNL d   1      25.725 -16.032  -1.288  0.00  0.00     0.001 A 
ATOM     17  C   UNL d   1      24.439 -18.167  -0.050  0.00  0.00     0.039 A 
ATOM     18  C   UNL d   1      23.708 -17.097  -0.565  0.00  0.00     0.066 A 
ATOM     19  C   UNL d   1      24.323 -16.035  -1.214  0.00  0.00     0.050 A 
BRANCH  18  20
ATOM     20  O   UNL d   1      22.350 -17.033  -0.442  0.00  0.00    -0.361 OA
ATOM     21  H   UNL d   1      22.132 -17.077   0.500  0.00  0.00     0.217 HD
ENDBRANCH  18  20
ENDBRANCH   9  10
ENDBRANCH   5   9
ENDBRANCH   3   5
BRANCH   1  22
ATOM     22  C   UNL d   1      29.692 -14.800  -3.621  0.00  0.00     0.148 C 
BRANCH  22  23
ATOM     23  C   UNL d   1      30.013 -16.096  -4.328  0.00  0.00     0.033 C 
ATOM     24  C   UNL d   1      30.301 -16.126  -5.663  0.00  0.00    -0.036 C 
ATOM     25  C   UNL d   1      30.389 -14.929  -6.584  0.00  0.00     0.050 C 
ATOM     26  C   UNL d   1      30.554 -17.421  -6.307  0.00  0.00     0.005 A 
ATOM     27  C   UNL d   1      30.915 -17.600  -7.645  0.00  0.00     0.017 A 
ATOM     28  C   UNL d   1      30.414 -18.564  -5.540  0.00  0.00     0.092 A 
ATOM     29  C   UNL d   1      31.134 -18.888  -8.149  0.00  0.00     0.037 A 
ATOM     30  C   UNL d   1      30.994 -19.999  -7.326  0.00  0.00     0.068 A 
ATOM     31  C   UNL d   1      30.633 -19.846  -6.009  0.00  0.00     0.074 A 
ATOM     32  O   UNL d   1      30.034 -18.535  -4.216  0.00  0.00    -0.274 OA
ATOM     33  C   UNL d   1      29.964 -17.355  -3.539  0.00  0.00     0.295 C 
ATOM     34  O   UNL d   1      29.870 -17.465  -2.320  0.00  0.00    -0.259 OA
BRANCH  30  35
ATOM     35  O   UNL d   1      31.212 -21.236  -7.843  0.00  0.00    -0.361 OA
ATOM     36  H   UNL d   1      30.780 -21.881  -7.257  0.00  0.00     0.217 HD
ENDBRANCH  30  35
ENDBRANCH  22  23
ENDBRANCH   1  22
TORSDOF 8
ENDMDL
MODEL 8
REMARK VINA RESULT:    -7.200      1.726      2.541
REMARK INTER + INTRA:         -12.259
REMARK INTER:                  -9.586
REMARK INTRA:                  -2.673
REMARK CONF_INDEPENDENT:        2.386
REMARK UNBOUND:                -2.673
REMARK  8 active torsions:
REMARK  status: ('A' for Active; 'I' for Inactive)
REMARK    1  A    between atoms: C_3  and  C_4 
REMARK    2  A    between atoms: C_4  and  C_5 
REMARK       I    between atoms: C_5  and  N_7 
REMARK    3  A    between atoms: CA_8  and  N_7 
REMARK    4  A    between atoms: CA_8  and  C_20 
REMARK    5  A    between atoms: CA_8  and  C_9 
REMARK    6  A    between atoms: C_9  and  C_10 
REMARK    7  A    between atoms: C_16  and  O_17 
REMARK    8  A    between atoms: C_28  and  O_29 
ROOT
ATOM      1  C   UNL d   1      29.219 -14.215  -2.393  0.00  0.00     0.222 C 
ATOM      2  O   UNL d   1      30.291 -14.811  -2.444  0.00  0.00    -0.273 OA
ATOM      3  N   UNL d   1      28.451 -14.479  -3.473  0.00  0.00    -0.346 N 
ATOM      4  H   UNL d   1      28.831 -15.284  -3.960  0.00  0.00     0.163 HD
ENDROOT
BRANCH   3   5
ATOM      5  CA  UNL d   1      27.047 -14.167  -3.799  0.00  0.00     0.189 C 
BRANCH   5   6
ATOM      6  C   UNL d   1      26.407 -14.970  -4.974  0.00  0.00     0.197 C 
ATOM      7  O   UNL d   1      27.216 -15.575  -5.737  0.00  0.00    -0.646 OA
ATOM      8  OXT UNL d   1      25.143 -14.965  -5.019  0.00  0.00    -0.646 OA
ENDBRANCH   5   6
BRANCH   5   9
ATOM      9  C   UNL d   1      26.229 -13.944  -2.535  0.00  0.00     0.077 C 
BRANCH   9  10
ATOM     10  C   UNL d   1      25.583 -15.153  -1.911  0.00  0.00    -0.028 C 
ATOM     11  C   UNL d   1      24.272 -15.601  -1.968  0.00  0.00     0.096 C 
ATOM     12  N   UNL d   1      24.097 -16.543  -1.000  0.00  0.00    -0.365 N 
ATOM     13  C   UNL d   1      25.324 -16.997  -0.600  0.00  0.00     0.043 A 
ATOM     14  H   UNL d   1      23.198 -16.897  -0.708  0.00  0.00     0.165 HD
ATOM     15  C   UNL d   1      25.657 -18.089   0.194  0.00  0.00     0.033 A 
ATOM     16  C   UNL d   1      26.275 -16.144  -1.163  0.00  0.00     0.001 A 
ATOM     17  C   UNL d   1      27.019 -18.366   0.339  0.00  0.00     0.039 A 
ATOM     18  C   UNL d   1      27.984 -17.548  -0.248  0.00  0.00     0.066 A 
ATOM     19  C   UNL d   1      27.639 -16.417  -0.977  0.00  0.00     0.050 A 
BRANCH  18  20
ATOM     20  O   UNL d   1      29.316 -17.828  -0.152  0.00  0.00    -0.361 OA
ATOM     21  H   UNL d   1      29.645 -17.442   0.673  0.00  0.00     0.217 HD
ENDBRANCH  18  20
ENDBRANCH   9  10
ENDBRANCH   5   9
ENDBRANCH   3   5
BRANCH   1  22
ATOM     22  C   UNL d   1      28.786 -13.180  -1.317  0.00  0.00     0.148 C 
BRANCH  22  23
ATOM     23  C   UNL d   1      28.630 -13.458   0.160  0.00  0.00     0.033 C 
ATOM     24  C   UNL d   1      29.698 -13.818   0.933  0.00  0.00    -0.036 C 
ATOM     25  C   UNL d   1      31.133 -13.939   0.472  0.00  0.00     0.050 C 
ATOM     26  C   UNL d   1      29.477 -14.127   2.352  0.00  0.00     0.005 A 
ATOM     27  C   UNL d   1      30.476 -14.452   3.273  0.00  0.00     0.017 A 
ATOM     28  C   UNL d   1      28.175 -14.112   2.822  0.00  0.00     0.092 A 
ATOM     29  C   UNL d   1      30.144 -14.726   4.605  0.00  0.00     0.037 A 
ATOM     30  C   UNL d   1      28.820 -14.680   5.023  0.00  0.00     0.068 A 
ATOM     31  C   UNL d   1      27.820 -14.370   4.133  0.00  0.00     0.074 A 
ATOM     32  O   UNL d   1      27.091 -13.839   2.017  0.00  0.00    -0.274 OA
ATOM     33  C   UNL d   1      27.267 -13.376   0.748  0.00  0.00     0.295 C 
ATOM     34  O   UNL d   1      26.255 -12.926   0.219  0.00  0.00    -0.259 OA
BRANCH  30  35
ATOM     35  O   UNL d   1      28.528 -14.952   6.322  0.00  0.00    -0.361 OA
ATOM     36  H   UNL d   1      28.707 -15.896   6.473  0.00  0.00     0.217 HD
ENDBRANCH  30  35
ENDBRANCH  22  23
ENDBRANCH   1  22
TORSDOF 8
ENDMDL
MODEL 9
REMARK VINA RESULT:    -7.127      4.374      7.454
REMARK INTER + INTRA:         -11.937
REMARK INTER:                  -9.513
REMARK INTRA:                  -2.424
REMARK CONF_INDEPENDENT:        2.386
REMARK UNBOUND:                -2.424
REMARK  8 active torsions:
REMARK  status: ('A' for Active; 'I' for Inactive)
REMARK    1  A    between atoms: C_3  and  C_4 
REMARK    2  A    between atoms: C_4  and  C_5 
REMARK       I    between atoms: C_5  and  N_7 
REMARK    3  A    between atoms: CA_8  and  N_7 
REMARK    4  A    between atoms: CA_8  and  C_20 
REMARK    5  A    between atoms: CA_8  and  C_9 
REMARK    6  A    between atoms: C_9  and  C_10 
REMARK    7  A    between atoms: C_16  and  O_17 
REMARK    8  A    between atoms: C_28  and  O_29 
ROOT
ATOM      1  C   UNL d   1      28.068 -14.866  -5.360  0.00  0.00     0.222 C 
ATOM      2  O   UNL d   1      27.203 -15.236  -6.148  0.00  0.00    -0.273 OA
ATOM      3  N   UNL d   1      29.239 -14.617  -5.986  0.00  0.00    -0.346 N 
ATOM      4  H   UNL d   1      29.075 -14.566  -6.986  0.00  0.00     0.163 HD
ENDROOT
BRANCH   3   5
ATOM      5  CA  UNL d   1      30.499 -13.997  -5.536  0.00  0.00     0.189 C 
BRANCH   5   6
ATOM      6  C   UNL d   1      31.782 -14.882  -5.616  0.00  0.00     0.197 C 
ATOM      7  O   UNL d   1      32.750 -14.521  -4.885  0.00  0.00    -0.646 OA
ATOM      8  OXT UNL d   1      31.707 -15.892  -6.374  0.00  0.00    -0.646 OA
ENDBRANCH   5   6
BRANCH   5   9
ATOM      9  C   UNL d   1      30.585 -12.545  -5.984  0.00  0.00     0.077 C 
BRANCH   9  10
ATOM     10  C   UNL d   1      29.510 -12.048  -6.915  0.00  0.00    -0.028 C 
ATOM     11  C   UNL d   1      29.492 -11.955  -8.299  0.00  0.00     0.096 C 
ATOM     12  N   UNL d   1      28.449 -11.159  -8.663  0.00  0.00    -0.365 N 
ATOM     13  C   UNL d   1      27.576 -11.068  -7.613  0.00  0.00     0.043 A 
ATOM     14  H   UNL d   1      28.319 -10.783  -9.591  0.00  0.00     0.165 HD
ATOM     15  C   UNL d   1      26.284 -10.557  -7.569  0.00  0.00     0.033 A 
ATOM     16  C   UNL d   1      28.217 -11.624  -6.505  0.00  0.00     0.001 A 
ATOM     17  C   UNL d   1      25.594 -10.704  -6.363  0.00  0.00     0.039 A 
ATOM     18  C   UNL d   1      26.203 -11.293  -5.255  0.00  0.00     0.066 A 
ATOM     19  C   UNL d   1      27.520 -11.733  -5.292  0.00  0.00     0.050 A 
BRANCH  18  20
ATOM     20  O   UNL d   1      25.530 -11.483  -4.083  0.00  0.00    -0.361 OA
ATOM     21  H   UNL d   1      24.734 -12.001  -4.275  0.00  0.00     0.217 HD
ENDBRANCH  18  20
ENDBRANCH   9  10
ENDBRANCH   5   9
ENDBRANCH   3   5
BRANCH   1  22
ATOM     22  C   UNL d   1      27.937 -14.788  -3.812  0.00  0.00     0.148 C 
BRANCH  22  23
ATOM     23  C   UNL d   1      26.813 -15.378  -2.993  0.00  0.00     0.033 C 
ATOM     24  C   UNL d   1      27.059 -16.261  -1.980  0.00  0.00    -0.036 C 
ATOM     25  C   UNL d   1      28.420 -16.724  -1.510  0.00  0.00     0.050 C 
ATOM     26  C   UNL d   1      25.924 -16.842  -1.252  0.00  0.00     0.005 A 
ATOM     27  C   UNL d   1      26.023 -17.710  -0.161  0.00  0.00     0.017 A 
ATOM     28  C   UNL d   1      24.648 -16.522  -1.680  0.00  0.00     0.092 A 
ATOM     29  C   UNL d   1      24.866 -18.200   0.456  0.00  0.00     0.037 A 
ATOM     30  C   UNL d   1      23.609 -17.830  -0.009  0.00  0.00     0.068 A 
ATOM     31  C   UNL d   1      23.489 -16.983  -1.084  0.00  0.00     0.074 A 
ATOM     32  O   UNL d   1      24.405 -15.702  -2.762  0.00  0.00    -0.274 OA
ATOM     33  C   UNL d   1      25.418 -15.007  -3.348  0.00  0.00     0.295 C 
ATOM     34  O   UNL d   1      25.058 -14.125  -4.121  0.00  0.00    -0.259 OA
BRANCH  30  35
ATOM     35  O   UNL d   1      22.504 -18.322   0.610  0.00  0.00    -0.361 OA
ATOM     36  H   UNL d   1      22.740 -19.186   0.990  0.00  0.00     0.217 HD
ENDBRANCH  30  35
ENDBRANCH  22  23
ENDBRANCH   1  22
TORSDOF 8
ENDMDL
