MODEL 1
REMARK VINA RESULT:   -10.598      0.000      0.000
REMARK INTER + INTRA:         -15.392
REMARK INTER:                 -13.581
REMARK INTRA:                  -1.811
REMARK CONF_INDEPENDENT:        2.983
REMARK UNBOUND:                -1.811
REMARK  10 active torsions:
REMARK  status: ('A' for Active; 'I' for Inactive)
REMARK    1  A    between atoms: N_1  and  C_2 
REMARK    2  A    between atoms: C_6  and  N_7 
REMARK    3  A    between atoms: C_10  and  C_11 
REMARK    4  A    between atoms: C_11  and  N_12 
REMARK    5  A    between atoms: C_17  and  C_18 
REMARK       I    between atoms: C_18  and  N_20 
REMARK    6  A    between atoms: N_20  and  N_21 
REMARK    7  A    between atoms: C_22  and  C_23 
REMARK    8  A    between atoms: C_26  and  O_27 
REMARK    9  A    between atoms: O_27  and  C_28 
REMARK   10  A    between atoms: C_28  and  C_29 
ROOT
ATOM      1  C   UNL d   1      28.177 -13.092   3.996  0.00  0.00     0.292 C 
ATOM      2  O   UNL d   1      27.388 -13.453   4.846  0.00  0.00    -0.264 OA
ATOM      3  N   UNL d   1      28.459 -13.789   2.686  0.00  0.00    -0.242 N 
ATOM      4  H   UNL d   1      28.996 -13.370   1.956  0.00  0.00     0.192 HD
ENDROOT
BRANCH   1   5
ATOM      5  C   UNL d   1      28.466 -12.070   4.865  0.00  0.00     0.153 C 
ATOM      6  C   UNL d   1      29.269 -12.170   6.064  0.00  0.00     0.112 C 
ATOM      7  N   UNL d   1      29.584 -10.871   6.310  0.00  0.00    -0.160 NA
ATOM      8  N   UNL d   1      29.022 -10.098   5.321  0.00  0.00     0.012 NA
ATOM      9  N   UNL d   1      28.203 -10.840   4.519  0.00  0.00    -0.207 N 
BRANCH   6  10
ATOM     10  C   UNL d   1      29.873 -13.555   6.849  0.00  0.00     0.297 C 
BRANCH  10  11
ATOM     11  N   UNL d   1      31.400 -13.490   7.737  0.00  0.00    -0.066 N 
ATOM     12  C   UNL d   1      31.522 -14.829   8.869  0.00  0.00     0.235 C 
ATOM     13  C   UNL d   1      31.142 -14.349  10.255  0.00  0.00     0.029 C 
ATOM     14  C   UNL d   1      31.441 -12.449  10.116  0.00  0.00     0.029 C 
ATOM     15  C   UNL d   1      31.475 -12.025   8.585  0.00  0.00     0.235 C 
ATOM     16  H   UNL d   1      32.168 -13.561   7.059  0.00  0.00     0.280 HD
ENDBRANCH  10  11
ENDBRANCH   6  10
BRANCH   9  17
ATOM     17  C   UNL d   1      27.379 -10.683   3.331  0.00  0.00     0.225 C 
ATOM     18  N   UNL d   1      26.277  -9.920   3.448  0.00  0.00    -0.081 NA
ATOM     19  O   UNL d   1      25.891  -9.628   2.136  0.00  0.00    -0.103 OA
ATOM     20  N   UNL d   1      26.886  -9.953   1.226  0.00  0.00    -0.083 NA
ATOM     21  C   UNL d   1      27.838 -10.574   1.930  0.00  0.00     0.201 C 
BRANCH  21  22
ATOM     22  N   UNL d   1      29.085 -10.687   1.391  0.00  0.00    -0.379 N 
ATOM     23  H   UNL d   1      29.891 -10.889   1.995  0.00  0.00     0.158 HD
ATOM     24  H   UNL d   1      29.323 -10.753   0.408  0.00  0.00     0.158 HD
ENDBRANCH  21  22
ENDBRANCH   9  17
ENDBRANCH   1   5
BRANCH   3  25
ATOM     25  N   UNL d   1      27.647 -14.937   2.084  0.00  0.00    -0.183 NA
ATOM     26  C   UNL d   1      27.354 -15.042   0.825  0.00  0.00     0.150 C 
BRANCH  26  27
ATOM     27  C   UNL d   1      26.424 -16.089   0.230  0.00  0.00    -0.017 A 
ATOM     28  C   UNL d   1      25.294 -15.629  -0.447  0.00  0.00     0.015 A 
ATOM     29  C   UNL d   1      24.220 -16.495  -0.726  0.00  0.00     0.037 A 
ATOM     30  C   UNL d   1      24.310 -17.867  -0.461  0.00  0.00     0.069 A 
ATOM     31  C   UNL d   1      25.457 -18.346   0.165  0.00  0.00     0.037 A 
ATOM     32  C   UNL d   1      26.512 -17.467   0.501  0.00  0.00     0.015 A 
BRANCH  30  33
ATOM     33  O   UNL d   1      23.257 -18.637  -0.866  0.00  0.00    -0.347 OA
BRANCH  33  34
ATOM     34  C   UNL d   1      21.961 -18.011  -0.947  0.00  0.00     0.214 C 
BRANCH  34  35
ATOM     35  C   UNL d   1      20.948 -18.978  -0.385  0.00  0.00    -0.034 C 
ATOM     36  C   UNL d   1      19.867 -19.441  -1.150  0.00  0.00     0.012 C 
ATOM     37  C   UNL d   1      18.796 -20.076  -0.520  0.00  0.00     0.043 C 
ATOM     38  C   UNL d   1      18.880 -20.391   0.831  0.00  0.00     0.116 C 
ATOM     39  F   UNL d   1      17.886 -21.077   1.411  0.00  0.00    -0.206 F 
ATOM     40  C   UNL d   1      19.989 -20.026   1.582  0.00  0.00     0.043 C 
ATOM     41  C   UNL d   1      21.026 -19.326   0.971  0.00  0.00     0.012 C 
ENDBRANCH  34  35
ENDBRANCH  33  34
ENDBRANCH  30  33
ENDBRANCH  26  27
ENDBRANCH   3  25
TORSDOF 10
ENDMDL
MODEL 2
REMARK VINA RESULT:   -10.190      3.585      5.258
REMARK INTER + INTRA:         -15.720
REMARK INTER:                 -13.173
REMARK INTRA:                  -2.546
REMARK CONF_INDEPENDENT:        2.983
REMARK UNBOUND:                -2.546
REMARK  10 active torsions:
REMARK  status: ('A' for Active; 'I' for Inactive)
REMARK    1  A    between atoms: N_1  and  C_2 
REMARK    2  A    between atoms: C_6  and  N_7 
REMARK    3  A    between atoms: C_10  and  C_11 
REMARK    4  A    between atoms: C_11  and  N_12 
REMARK    5  A    between atoms: C_17  and  C_18 
REMARK       I    between atoms: C_18  and  N_20 
REMARK    6  A    between atoms: N_20  and  N_21 
REMARK    7  A    between atoms: C_22  and  C_23 
REMARK    8  A    between atoms: C_26  and  O_27 
REMARK    9  A    between atoms: O_27  and  C_28 
REMARK   10  A    between atoms: C_28  and  C_29 
ROOT
ATOM      1  C   UNL d   1      30.052 -15.072   0.126  0.00  0.00     0.292 C 
ATOM      2  O   UNL d   1      29.918 -15.925   0.980  0.00  0.00    -0.264 OA
ATOM      3  N   UNL d   1      29.038 -14.698  -0.929  0.00  0.00    -0.242 N 
ATOM      4  H   UNL d   1      29.130 -13.886  -1.504  0.00  0.00     0.192 HD
ENDROOT
BRANCH   1   5
ATOM      5  C   UNL d   1      31.303 -14.896   0.663  0.00  0.00     0.153 C 
ATOM      6  C   UNL d   1      31.613 -14.208   1.897  0.00  0.00     0.112 C 
ATOM      7  N   UNL d   1      32.863 -14.663   2.176  0.00  0.00    -0.160 NA
ATOM      8  N   UNL d   1      33.226 -15.552   1.190  0.00  0.00     0.012 NA
ATOM      9  N   UNL d   1      32.309 -15.568   0.177  0.00  0.00    -0.207 N 
BRANCH   6  10
ATOM     10  C   UNL d   1      30.606 -13.255   2.887  0.00  0.00     0.297 C 
BRANCH  10  11
ATOM     11  N   UNL d   1      30.489 -13.575   4.620  0.00  0.00    -0.066 N 
ATOM     12  C   UNL d   1      29.590 -15.054   4.924  0.00  0.00     0.235 C 
ATOM     13  C   UNL d   1      28.160 -14.706   5.285  0.00  0.00     0.029 C 
ATOM     14  C   UNL d   1      28.334 -12.885   5.896  0.00  0.00     0.029 C 
ATOM     15  C   UNL d   1      29.699 -12.272   5.363  0.00  0.00     0.235 C 
ATOM     16  H   UNL d   1      31.440 -13.687   4.991  0.00  0.00     0.280 HD
ENDBRANCH  10  11
ENDBRANCH   6  10
BRANCH   9  17
ATOM     17  C   UNL d   1      32.058 -16.262  -1.075  0.00  0.00     0.225 C 
ATOM     18  N   UNL d   1      33.026 -16.209  -2.009  0.00  0.00    -0.081 NA
ATOM     19  O   UNL d   1      32.716 -17.225  -2.918  0.00  0.00    -0.103 OA
ATOM     20  N   UNL d   1      31.747 -18.081  -2.418  0.00  0.00    -0.083 NA
ATOM     21  C   UNL d   1      31.340 -17.540  -1.264  0.00  0.00     0.201 C 
BRANCH  21  22
ATOM     22  N   UNL d   1      30.668 -18.323  -0.374  0.00  0.00    -0.379 N 
ATOM     23  H   UNL d   1      29.905 -17.925   0.189  0.00  0.00     0.158 HD
ATOM     24  H   UNL d   1      30.714 -19.331  -0.289  0.00  0.00     0.158 HD
ENDBRANCH  21  22
ENDBRANCH   9  17
ENDBRANCH   1   5
BRANCH   3  25
ATOM     25  N   UNL d   1      27.579 -15.156  -0.978  0.00  0.00    -0.183 NA
ATOM     26  C   UNL d   1      27.137 -16.244  -0.428  0.00  0.00     0.150 C 
BRANCH  26  27
ATOM     27  C   UNL d   1      25.728 -16.793  -0.592  0.00  0.00    -0.017 A 
ATOM     28  C   UNL d   1      24.806 -15.996  -1.272  0.00  0.00     0.015 A 
ATOM     29  C   UNL d   1      23.425 -16.253  -1.178  0.00  0.00     0.037 A 
ATOM     30  C   UNL d   1      22.945 -17.390  -0.519  0.00  0.00     0.069 A 
ATOM     31  C   UNL d   1      23.860 -18.223   0.117  0.00  0.00     0.037 A 
ATOM     32  C   UNL d   1      25.243 -17.934   0.075  0.00  0.00     0.015 A 
BRANCH  30  33
ATOM     33  O   UNL d   1      21.596 -17.604  -0.576  0.00  0.00    -0.347 OA
BRANCH  33  34
ATOM     34  C   UNL d   1      21.135 -18.808  -1.220  0.00  0.00     0.214 C 
BRANCH  34  35
ATOM     35  C   UNL d   1      20.105 -19.445  -0.319  0.00  0.00    -0.034 C 
ATOM     36  C   UNL d   1      20.323 -19.596   1.059  0.00  0.00     0.012 C 
ATOM     37  C   UNL d   1      19.505 -20.450   1.799  0.00  0.00     0.043 C 
ATOM     38  C   UNL d   1      18.384 -21.017   1.205  0.00  0.00     0.116 C 
ATOM     39  F   UNL d   1      17.555 -21.767   1.942  0.00  0.00    -0.206 F 
ATOM     40  C   UNL d   1      18.100 -20.798  -0.136  0.00  0.00     0.043 C 
ATOM     41  C   UNL d   1      18.956 -20.005  -0.895  0.00  0.00     0.012 C 
ENDBRANCH  34  35
ENDBRANCH  33  34
ENDBRANCH  30  33
ENDBRANCH  26  27
ENDBRANCH   3  25
TORSDOF 10
ENDMDL
MODEL 3
REMARK VINA RESULT:    -9.999      4.129      5.975
REMARK INTER + INTRA:         -16.460
REMARK INTER:                 -12.982
REMARK INTRA:                  -3.479
REMARK CONF_INDEPENDENT:        2.983
REMARK UNBOUND:                -3.479
REMARK  10 active torsions:
REMARK  status: ('A' for Active; 'I' for Inactive)
REMARK    1  A    between atoms: N_1  and  C_2 
REMARK    2  A    between atoms: C_6  and  N_7 
REMARK    3  A    between atoms: C_10  and  C_11 
REMARK    4  A    between atoms: C_11  and  N_12 
REMARK    5  A    between atoms: C_17  and  C_18 
REMARK       I    between atoms: C_18  and  N_20 
REMARK    6  A    between atoms: N_20  and  N_21 
REMARK    7  A    between atoms: C_22  and  C_23 
REMARK    8  A    between atoms: C_26  and  O_27 
REMARK    9  A    between atoms: O_27  and  C_28 
REMARK   10  A    between atoms: C_28  and  C_29 
ROOT
ATOM      1  C   UNL d   1      31.062 -15.999   0.741  0.00  0.00     0.292 C 
ATOM      2  O   UNL d   1      31.228 -17.201   0.802  0.00  0.00    -0.264 OA
ATOM      3  N   UNL d   1      29.756 -15.290   0.474  0.00  0.00    -0.242 N 
ATOM      4  H   UNL d   1      29.642 -14.304   0.591  0.00  0.00     0.192 HD
ENDROOT
BRANCH   1   5
ATOM      5  C   UNL d   1      32.415 -15.919   0.956  0.00  0.00     0.153 C 
ATOM      6  C   UNL d   1      33.401 -16.906   0.568  0.00  0.00     0.112 C 
ATOM      7  N   UNL d   1      34.557 -16.194   0.620  0.00  0.00    -0.160 NA
ATOM      8  N   UNL d   1      34.253 -14.904   0.989  0.00  0.00     0.012 NA
ATOM      9  N   UNL d   1      32.938 -14.789   1.343  0.00  0.00    -0.207 N 
BRANCH   6  10
ATOM     10  C   UNL d   1      33.174 -18.484  -0.028  0.00  0.00     0.297 C 
BRANCH  10  11
ATOM     11  N   UNL d   1      32.038 -19.586   0.757  0.00  0.00    -0.066 N 
ATOM     12  C   UNL d   1      32.656 -20.117   2.314  0.00  0.00     0.235 C 
ATOM     13  C   UNL d   1      33.282 -21.488   2.164  0.00  0.00     0.029 C 
ATOM     14  C   UNL d   1      32.420 -22.149   0.570  0.00  0.00     0.029 C 
ATOM     15  C   UNL d   1      31.804 -20.933  -0.246  0.00  0.00     0.235 C 
ATOM     16  H   UNL d   1      31.155 -19.084   0.907  0.00  0.00     0.280 HD
ENDBRANCH  10  11
ENDBRANCH   6  10
BRANCH   9  17
ATOM     17  C   UNL d   1      31.992 -13.769   1.765  0.00  0.00     0.225 C 
ATOM     18  N   UNL d   1      31.415 -13.033   0.799  0.00  0.00    -0.081 NA
ATOM     19  O   UNL d   1      30.316 -12.420   1.410  0.00  0.00    -0.103 OA
ATOM     20  N   UNL d   1      30.039 -12.983   2.647  0.00  0.00    -0.083 NA
ATOM     21  C   UNL d   1      31.032 -13.847   2.887  0.00  0.00     0.201 C 
BRANCH  21  22
ATOM     22  N   UNL d   1      30.852 -14.804   3.840  0.00  0.00    -0.379 N 
ATOM     23  H   UNL d   1      30.509 -15.736   3.576  0.00  0.00     0.158 HD
ATOM     24  H   UNL d   1      31.165 -14.775   4.803  0.00  0.00     0.158 HD
ENDBRANCH  21  22
ENDBRANCH   9  17
ENDBRANCH   1   5
BRANCH   3  25
ATOM     25  N   UNL d   1      28.368 -15.934   0.461  0.00  0.00    -0.183 NA
ATOM     26  C   UNL d   1      27.803 -16.427  -0.597  0.00  0.00     0.150 C 
BRANCH  26  27
ATOM     27  C   UNL d   1      26.369 -16.933  -0.664  0.00  0.00    -0.017 A 
ATOM     28  C   UNL d   1      25.480 -16.226  -1.475  0.00  0.00     0.015 A 
ATOM     29  C   UNL d   1      24.089 -16.400  -1.340  0.00  0.00     0.037 A 
ATOM     30  C   UNL d   1      23.563 -17.381  -0.492  0.00  0.00     0.069 A 
ATOM     31  C   UNL d   1      24.444 -18.130   0.282  0.00  0.00     0.037 A 
ATOM     32  C   UNL d   1      25.838 -17.915   0.192  0.00  0.00     0.015 A 
BRANCH  30  33
ATOM     33  O   UNL d   1      22.205 -17.540  -0.513  0.00  0.00    -0.347 OA
BRANCH  33  34
ATOM     34  C   UNL d   1      21.680 -18.733  -1.127  0.00  0.00     0.214 C 
BRANCH  34  35
ATOM     35  C   UNL d   1      20.541 -19.228  -0.269  0.00  0.00    -0.034 C 
ATOM     36  C   UNL d   1      20.661 -19.336   1.125  0.00  0.00     0.012 C 
ATOM     37  C   UNL d   1      19.720 -20.074   1.844  0.00  0.00     0.043 C 
ATOM     38  C   UNL d   1      18.587 -20.558   1.202  0.00  0.00     0.116 C 
ATOM     39  F   UNL d   1      17.645 -21.191   1.914  0.00  0.00    -0.206 F 
ATOM     40  C   UNL d   1      18.406 -20.374  -0.162  0.00  0.00     0.043 C 
ATOM     41  C   UNL d   1      19.380 -19.701  -0.895  0.00  0.00     0.012 C 
ENDBRANCH  34  35
ENDBRANCH  33  34
ENDBRANCH  30  33
ENDBRANCH  26  27
ENDBRANCH   3  25
TORSDOF 10
ENDMDL
MODEL 4
REMARK VINA RESULT:    -9.683      3.588      5.139
REMARK INTER + INTRA:         -16.370
REMARK INTER:                 -12.666
REMARK INTRA:                  -3.704
REMARK CONF_INDEPENDENT:        2.983
REMARK UNBOUND:                -3.704
REMARK  10 active torsions:
REMARK  status: ('A' for Active; 'I' for Inactive)
REMARK    1  A    between atoms: N_1  and  C_2 
REMARK    2  A    between atoms: C_6  and  N_7 
REMARK    3  A    between atoms: C_10  and  C_11 
REMARK    4  A    between atoms: C_11  and  N_12 
REMARK    5  A    between atoms: C_17  and  C_18 
REMARK       I    between atoms: C_18  and  N_20 
REMARK    6  A    between atoms: N_20  and  N_21 
REMARK    7  A    between atoms: C_22  and  C_23 
REMARK    8  A    between atoms: C_26  and  O_27 
REMARK    9  A    between atoms: O_27  and  C_28 
REMARK   10  A    between atoms: C_28  and  C_29 
ROOT
ATOM      1  C   UNL d   1      30.714 -15.314   0.441  0.00  0.00     0.292 C 
ATOM      2  O   UNL d   1      29.986 -14.543   1.032  0.00  0.00    -0.264 OA
ATOM      3  N   UNL d   1      30.313 -16.641  -0.157  0.00  0.00    -0.242 N 
ATOM      4  H   UNL d   1      30.908 -17.162  -0.767  0.00  0.00     0.192 HD
ENDROOT
BRANCH   1   5
ATOM      5  C   UNL d   1      31.705 -14.406   0.717  0.00  0.00     0.153 C 
ATOM      6  C   UNL d   1      31.859 -13.658   1.946  0.00  0.00     0.112 C 
ATOM      7  N   UNL d   1      33.155 -13.253   1.877  0.00  0.00    -0.160 NA
ATOM      8  N   UNL d   1      33.698 -13.745   0.713  0.00  0.00     0.012 NA
ATOM      9  N   UNL d   1      32.742 -14.329  -0.070  0.00  0.00    -0.207 N 
BRANCH   6  10
ATOM     10  C   UNL d   1      30.789 -13.507   3.262  0.00  0.00     0.297 C 
BRANCH  10  11
ATOM     11  N   UNL d   1      29.558 -14.738   3.564  0.00  0.00    -0.066 N 
ATOM     12  C   UNL d   1      27.958 -14.135   3.158  0.00  0.00     0.235 C 
ATOM     13  C   UNL d   1      27.259 -13.679   4.422  0.00  0.00     0.029 C 
ATOM     14  C   UNL d   1      28.207 -14.666   5.781  0.00  0.00     0.029 C 
ATOM     15  C   UNL d   1      29.602 -15.162   5.205  0.00  0.00     0.235 C 
ATOM     16  H   UNL d   1      29.764 -15.551   2.970  0.00  0.00     0.280 HD
ENDBRANCH  10  11
ENDBRANCH   6  10
BRANCH   9  17
ATOM     17  C   UNL d   1      32.632 -15.045  -1.330  0.00  0.00     0.225 C 
ATOM     18  N   UNL d   1      32.792 -16.380  -1.292  0.00  0.00    -0.081 NA
ATOM     19  O   UNL d   1      32.280 -16.848  -2.506  0.00  0.00    -0.103 OA
ATOM     20  N   UNL d   1      31.552 -15.868  -3.165  0.00  0.00    -0.083 NA
ATOM     21  C   UNL d   1      31.715 -14.749  -2.452  0.00  0.00     0.201 C 
BRANCH  21  22
ATOM     22  N   UNL d   1      30.842 -13.719  -2.640  0.00  0.00    -0.379 N 
ATOM     23  H   UNL d   1      31.007 -12.814  -2.181  0.00  0.00     0.158 HD
ATOM     24  H   UNL d   1      30.096 -13.666  -3.322  0.00  0.00     0.158 HD
ENDBRANCH  21  22
ENDBRANCH   9  17
ENDBRANCH   1   5
BRANCH   3  25
ATOM     25  N   UNL d   1      28.881 -17.153  -0.335  0.00  0.00    -0.183 NA
ATOM     26  C   UNL d   1      27.853 -16.388  -0.533  0.00  0.00     0.150 C 
BRANCH  26  27
ATOM     27  C   UNL d   1      26.407 -16.862  -0.561  0.00  0.00    -0.017 A 
ATOM     28  C   UNL d   1      26.041 -17.851   0.352  0.00  0.00     0.015 A 
ATOM     29  C   UNL d   1      24.851 -18.584   0.182  0.00  0.00     0.037 A 
ATOM     30  C   UNL d   1      23.935 -18.250  -0.823  0.00  0.00     0.069 A 
ATOM     31  C   UNL d   1      24.266 -17.227  -1.707  0.00  0.00     0.037 A 
ATOM     32  C   UNL d   1      25.488 -16.531  -1.574  0.00  0.00     0.015 A 
BRANCH  30  33
ATOM     33  O   UNL d   1      22.763 -18.953  -0.837  0.00  0.00    -0.347 OA
BRANCH  33  34
ATOM     34  C   UNL d   1      21.533 -18.204  -0.880  0.00  0.00     0.214 C 
BRANCH  34  35
ATOM     35  C   UNL d   1      20.488 -18.993  -0.130  0.00  0.00    -0.034 C 
ATOM     36  C   UNL d   1      20.645 -19.322   1.225  0.00  0.00     0.012 C 
ATOM     37  C   UNL d   1      19.828 -20.297   1.799  0.00  0.00     0.043 C 
ATOM     38  C   UNL d   1      18.761 -20.816   1.075  0.00  0.00     0.116 C 
ATOM     39  F   UNL d   1      17.929 -21.687   1.659  0.00  0.00    -0.206 F 
ATOM     40  C   UNL d   1      18.534 -20.426  -0.238  0.00  0.00     0.043 C 
ATOM     41  C   UNL d   1      19.393 -19.508  -0.836  0.00  0.00     0.012 C 
ENDBRANCH  34  35
ENDBRANCH  33  34
ENDBRANCH  30  33
ENDBRANCH  26  27
ENDBRANCH   3  25
TORSDOF 10
ENDMDL
MODEL 5
REMARK VINA RESULT:    -9.641      2.606      5.463
REMARK INTER + INTRA:         -15.440
REMARK INTER:                 -12.624
REMARK INTRA:                  -2.816
REMARK CONF_INDEPENDENT:        2.983
REMARK UNBOUND:                -2.816
REMARK  10 active torsions:
REMARK  status: ('A' for Active; 'I' for Inactive)
REMARK    1  A    between atoms: N_1  and  C_2 
REMARK    2  A    between atoms: C_6  and  N_7 
REMARK    3  A    between atoms: C_10  and  C_11 
REMARK    4  A    between atoms: C_11  and  N_12 
REMARK    5  A    between atoms: C_17  and  C_18 
REMARK       I    between atoms: C_18  and  N_20 
REMARK    6  A    between atoms: N_20  and  N_21 
REMARK    7  A    between atoms: C_22  and  C_23 
REMARK    8  A    between atoms: C_26  and  O_27 
REMARK    9  A    between atoms: O_27  and  C_28 
REMARK   10  A    between atoms: C_28  and  C_29 
ROOT
ATOM      1  C   UNL d   1      28.793 -13.684   1.437  0.00  0.00     0.292 C 
ATOM      2  O   UNL d   1      28.253 -13.131   0.500  0.00  0.00    -0.264 OA
ATOM      3  N   UNL d   1      28.397 -15.011   2.038  0.00  0.00    -0.242 N 
ATOM      4  H   UNL d   1      28.967 -15.496   2.700  0.00  0.00     0.192 HD
ENDROOT
BRANCH   1   5
ATOM      5  C   UNL d   1      29.605 -12.578   1.471  0.00  0.00     0.153 C 
ATOM      6  C   UNL d   1      30.154 -11.887   0.324  0.00  0.00     0.112 C 
ATOM      7  N   UNL d   1      30.507 -10.686   0.853  0.00  0.00    -0.160 NA
ATOM      8  N   UNL d   1      30.169 -10.687   2.186  0.00  0.00     0.012 NA
ATOM      9  N   UNL d   1      29.751 -11.923   2.589  0.00  0.00    -0.207 N 
BRANCH   6  10
ATOM     10  C   UNL d   1      30.156 -12.345  -1.316  0.00  0.00     0.297 C 
BRANCH  10  11
ATOM     11  N   UNL d   1      29.106 -13.647  -1.885  0.00  0.00    -0.066 N 
ATOM     12  C   UNL d   1      29.929 -15.198  -1.796  0.00  0.00     0.235 C 
ATOM     13  C   UNL d   1      30.469 -15.558  -3.166  0.00  0.00     0.029 C 
ATOM     14  C   UNL d   1      29.351 -14.499  -4.327  0.00  0.00     0.029 C 
ATOM     15  C   UNL d   1      28.669 -13.332  -3.493  0.00  0.00     0.235 C 
ATOM     16  H   UNL d   1      28.277 -13.680  -1.280  0.00  0.00     0.280 HD
ENDBRANCH  10  11
ENDBRANCH   6  10
BRANCH   9  17
ATOM     17  C   UNL d   1      29.236 -12.584   3.778  0.00  0.00     0.225 C 
ATOM     18  N   UNL d   1      27.920 -12.458   4.025  0.00  0.00    -0.081 NA
ATOM     19  O   UNL d   1      27.624 -13.454   4.961  0.00  0.00    -0.103 OA
ATOM     20  N   UNL d   1      28.662 -14.368   5.080  0.00  0.00    -0.083 NA
ATOM     21  C   UNL d   1      29.663 -13.884   4.337  0.00  0.00     0.201 C 
BRANCH  21  22
ATOM     22  N   UNL d   1      30.670 -14.725   3.967  0.00  0.00    -0.379 N 
ATOM     23  H   UNL d   1      31.534 -14.768   4.521  0.00  0.00     0.158 HD
ATOM     24  H   UNL d   1      30.628 -15.462   3.274  0.00  0.00     0.158 HD
ENDBRANCH  21  22
ENDBRANCH   9  17
ENDBRANCH   1   5
BRANCH   3  25
ATOM     25  N   UNL d   1      27.402 -16.010   1.443  0.00  0.00    -0.183 NA
ATOM     26  C   UNL d   1      26.928 -15.936   0.238  0.00  0.00     0.150 C 
BRANCH  26  27
ATOM     27  C   UNL d   1      25.828 -16.825  -0.322  0.00  0.00    -0.017 A 
ATOM     28  C   UNL d   1      24.785 -16.198  -1.005  0.00  0.00     0.015 A 
ATOM     29  C   UNL d   1      23.576 -16.876  -1.253  0.00  0.00     0.037 A 
ATOM     30  C   UNL d   1      23.435 -18.235  -0.950  0.00  0.00     0.069 A 
ATOM     31  C   UNL d   1      24.491 -18.885  -0.317  0.00  0.00     0.037 A 
ATOM     32  C   UNL d   1      25.682 -18.190  -0.012  0.00  0.00     0.015 A 
BRANCH  30  33
ATOM     33  O   UNL d   1      22.262 -18.826  -1.327  0.00  0.00    -0.347 OA
BRANCH  33  34
ATOM     34  C   UNL d   1      21.033 -18.207  -0.899  0.00  0.00     0.214 C 
BRANCH  34  35
ATOM     35  C   UNL d   1      20.182 -19.274  -0.253  0.00  0.00    -0.034 C 
ATOM     36  C   UNL d   1      19.052 -19.804  -0.894  0.00  0.00     0.012 C 
ATOM     37  C   UNL d   1      18.127 -20.548  -0.160  0.00  0.00     0.043 C 
ATOM     38  C   UNL d   1      18.411 -20.897   1.155  0.00  0.00     0.116 C 
ATOM     39  F   UNL d   1      17.560 -21.683   1.827  0.00  0.00    -0.206 F 
ATOM     40  C   UNL d   1      19.575 -20.461   1.773  0.00  0.00     0.043 C 
ATOM     41  C   UNL d   1      20.464 -19.657   1.065  0.00  0.00     0.012 C 
ENDBRANCH  34  35
ENDBRANCH  33  34
ENDBRANCH  30  33
ENDBRANCH  26  27
ENDBRANCH   3  25
TORSDOF 10
ENDMDL
MODEL 6
REMARK VINA RESULT:    -9.552      4.840     11.202
REMARK INTER + INTRA:         -15.377
REMARK INTER:                 -12.535
REMARK INTRA:                  -2.841
REMARK CONF_INDEPENDENT:        2.983
REMARK UNBOUND:                -2.841
REMARK  10 active torsions:
REMARK  status: ('A' for Active; 'I' for Inactive)
REMARK    1  A    between atoms: N_1  and  C_2 
REMARK    2  A    between atoms: C_6  and  N_7 
REMARK    3  A    between atoms: C_10  and  C_11 
REMARK    4  A    between atoms: C_11  and  N_12 
REMARK    5  A    between atoms: C_17  and  C_18 
REMARK       I    between atoms: C_18  and  N_20 
REMARK    6  A    between atoms: N_20  and  N_21 
REMARK    7  A    between atoms: C_22  and  C_23 
REMARK    8  A    between atoms: C_26  and  O_27 
REMARK    9  A    between atoms: O_27  and  C_28 
REMARK   10  A    between atoms: C_28  and  C_29 
ROOT
ATOM      1  C   UNL d   1      26.263 -14.564  -1.249  0.00  0.00     0.292 C 
ATOM      2  O   UNL d   1      25.909 -13.417  -1.428  0.00  0.00    -0.264 OA
ATOM      3  N   UNL d   1      26.945 -15.105  -0.014  0.00  0.00    -0.242 N 
ATOM      4  H   UNL d   1      27.072 -16.082   0.149  0.00  0.00     0.192 HD
ENDROOT
BRANCH   1   5
ATOM      5  C   UNL d   1      25.793 -14.786  -2.519  0.00  0.00     0.153 C 
ATOM      6  C   UNL d   1      25.839 -13.849  -3.621  0.00  0.00     0.112 C 
ATOM      7  N   UNL d   1      25.652 -14.659  -4.696  0.00  0.00    -0.160 NA
ATOM      8  N   UNL d   1      25.528 -15.952  -4.244  0.00  0.00     0.012 NA
ATOM      9  N   UNL d   1      25.464 -15.995  -2.880  0.00  0.00    -0.207 N 
BRANCH   6  10
ATOM     10  C   UNL d   1      26.251 -12.197  -3.620  0.00  0.00     0.297 C 
BRANCH  10  11
ATOM     11  N   UNL d   1      25.670 -11.126  -4.899  0.00  0.00    -0.066 N 
ATOM     12  C   UNL d   1      26.821 -11.055  -6.226  0.00  0.00     0.235 C 
ATOM     13  C   UNL d   1      27.663  -9.802  -6.092  0.00  0.00     0.029 C 
ATOM     14  C   UNL d   1      26.538  -8.680  -4.999  0.00  0.00     0.029 C 
ATOM     15  C   UNL d   1      25.456  -9.573  -4.255  0.00  0.00     0.235 C 
ATOM     16  H   UNL d   1      24.782 -11.501  -5.254  0.00  0.00     0.280 HD
ENDBRANCH  10  11
ENDBRANCH   6  10
BRANCH   9  17
ATOM     17  C   UNL d   1      25.382 -16.972  -1.807  0.00  0.00     0.225 C 
ATOM     18  N   UNL d   1      26.542 -17.396  -1.274  0.00  0.00    -0.081 NA
ATOM     19  O   UNL d   1      26.192 -18.006  -0.066  0.00  0.00    -0.103 OA
ATOM     20  N   UNL d   1      24.884 -17.717   0.293  0.00  0.00    -0.083 NA
ATOM     21  C   UNL d   1      24.360 -17.049  -0.741  0.00  0.00     0.201 C 
BRANCH  21  22
ATOM     22  N   UNL d   1      23.222 -16.324  -0.544  0.00  0.00    -0.379 N 
ATOM     23  H   UNL d   1      22.798 -15.809  -1.326  0.00  0.00     0.158 HD
ATOM     24  H   UNL d   1      22.618 -16.342   0.268  0.00  0.00     0.158 HD
ENDBRANCH  21  22
ENDBRANCH   9  17
ENDBRANCH   1   5
BRANCH   3  25
ATOM     25  N   UNL d   1      27.106 -14.372   1.319  0.00  0.00    -0.183 NA
ATOM     26  C   UNL d   1      28.151 -14.468   2.082  0.00  0.00     0.150 C 
BRANCH  26  27
ATOM     27  C   UNL d   1      28.269 -13.872   3.477  0.00  0.00    -0.017 A 
ATOM     28  C   UNL d   1      28.383 -14.763   4.545  0.00  0.00     0.015 A 
ATOM     29  C   UNL d   1      28.156 -14.335   5.867  0.00  0.00     0.037 A 
ATOM     30  C   UNL d   1      27.948 -12.983   6.163  0.00  0.00     0.069 A 
ATOM     31  C   UNL d   1      27.886 -12.076   5.109  0.00  0.00     0.037 A 
ATOM     32  C   UNL d   1      28.054 -12.514   3.776  0.00  0.00     0.015 A 
BRANCH  30  33
ATOM     33  O   UNL d   1      27.844 -12.657   7.486  0.00  0.00    -0.347 OA
BRANCH  33  34
ATOM     34  C   UNL d   1      29.015 -12.134   8.142  0.00  0.00     0.214 C 
BRANCH  34  35
ATOM     35  C   UNL d   1      29.561 -13.217   9.041  0.00  0.00    -0.034 C 
ATOM     36  C   UNL d   1      30.814 -13.805   8.810  0.00  0.00     0.012 C 
ATOM     37  C   UNL d   1      31.150 -14.994   9.460  0.00  0.00     0.043 C 
ATOM     38  C   UNL d   1      30.314 -15.498  10.449  0.00  0.00     0.116 C 
ATOM     39  F   UNL d   1      30.683 -16.591  11.129  0.00  0.00    -0.206 F 
ATOM     40  C   UNL d   1      29.115 -14.871  10.758  0.00  0.00     0.043 C 
ATOM     41  C   UNL d   1      28.743 -13.726  10.059  0.00  0.00     0.012 C 
ENDBRANCH  34  35
ENDBRANCH  33  34
ENDBRANCH  30  33
ENDBRANCH  26  27
ENDBRANCH   3  25
TORSDOF 10
ENDMDL
MODEL 7
REMARK VINA RESULT:    -9.477      3.518      6.044
REMARK INTER + INTRA:         -16.061
REMARK INTER:                 -12.460
REMARK INTRA:                  -3.601
REMARK CONF_INDEPENDENT:        2.983
REMARK UNBOUND:                -3.601
REMARK  10 active torsions:
REMARK  status: ('A' for Active; 'I' for Inactive)
REMARK    1  A    between atoms: N_1  and  C_2 
REMARK    2  A    between atoms: C_6  and  N_7 
REMARK    3  A    between atoms: C_10  and  C_11 
REMARK    4  A    between atoms: C_11  and  N_12 
REMARK    5  A    between atoms: C_17  and  C_18 
REMARK       I    between atoms: C_18  and  N_20 
REMARK    6  A    between atoms: N_20  and  N_21 
REMARK    7  A    between atoms: C_22  and  C_23 
REMARK    8  A    between atoms: C_26  and  O_27 
REMARK    9  A    between atoms: O_27  and  C_28 
REMARK   10  A    between atoms: C_28  and  C_29 
ROOT
ATOM      1  C   UNL d   1      30.676 -15.251   0.759  0.00  0.00     0.292 C 
ATOM      2  O   UNL d   1      30.777 -16.448   0.940  0.00  0.00    -0.264 OA
ATOM      3  N   UNL d   1      29.417 -14.508   0.382  0.00  0.00    -0.242 N 
ATOM      4  H   UNL d   1      29.351 -13.511   0.401  0.00  0.00     0.192 HD
ENDROOT
BRANCH   1   5
ATOM      5  C   UNL d   1      32.025 -15.217   1.011  0.00  0.00     0.153 C 
ATOM      6  C   UNL d   1      33.003 -16.181   0.553  0.00  0.00     0.112 C 
ATOM      7  N   UNL d   1      34.169 -15.499   0.699  0.00  0.00    -0.160 NA
ATOM      8  N   UNL d   1      33.877 -14.245   1.183  0.00  0.00     0.012 NA
ATOM      9  N   UNL d   1      32.557 -14.139   1.517  0.00  0.00    -0.207 N 
BRANCH   6  10
ATOM     10  C   UNL d   1      32.765 -17.690  -0.197  0.00  0.00     0.297 C 
BRANCH  10  11
ATOM     11  N   UNL d   1      31.162 -18.167  -0.766  0.00  0.00    -0.066 N 
ATOM     12  C   UNL d   1      31.225 -19.723  -1.581  0.00  0.00     0.235 C 
ATOM     13  C   UNL d   1      31.267 -19.503  -3.080  0.00  0.00     0.029 C 
ATOM     14  C   UNL d   1      30.515 -17.734  -3.245  0.00  0.00     0.029 C 
ATOM     15  C   UNL d   1      30.593 -16.988  -1.844  0.00  0.00     0.235 C 
ATOM     16  H   UNL d   1      30.542 -18.248   0.049  0.00  0.00     0.280 HD
ENDBRANCH  10  11
ENDBRANCH   6  10
BRANCH   9  17
ATOM     17  C   UNL d   1      31.617 -13.147   2.013  0.00  0.00     0.225 C 
ATOM     18  N   UNL d   1      31.038 -12.344   1.103  0.00  0.00    -0.081 NA
ATOM     19  O   UNL d   1      29.945 -11.770   1.760  0.00  0.00    -0.103 OA
ATOM     20  N   UNL d   1      29.673 -12.415   2.957  0.00  0.00    -0.083 NA
ATOM     21  C   UNL d   1      30.663 -13.297   3.132  0.00  0.00     0.201 C 
BRANCH  21  22
ATOM     22  N   UNL d   1      30.484 -14.316   4.019  0.00  0.00    -0.379 N 
ATOM     23  H   UNL d   1      30.065 -15.202   3.708  0.00  0.00     0.158 HD
ATOM     24  H   UNL d   1      30.862 -14.385   4.956  0.00  0.00     0.158 HD
ENDBRANCH  21  22
ENDBRANCH   9  17
ENDBRANCH   1   5
BRANCH   3  25
ATOM     25  N   UNL d   1      27.998 -15.081   0.384  0.00  0.00    -0.183 NA
ATOM     26  C   UNL d   1      27.650 -16.168  -0.233  0.00  0.00     0.150 C 
BRANCH  26  27
ATOM     27  C   UNL d   1      26.221 -16.673  -0.370  0.00  0.00    -0.017 A 
ATOM     28  C   UNL d   1      25.916 -17.897   0.224  0.00  0.00     0.015 A 
ATOM     29  C   UNL d   1      24.748 -18.599  -0.130  0.00  0.00     0.037 A 
ATOM     30  C   UNL d   1      23.792 -18.028  -0.979  0.00  0.00     0.069 A 
ATOM     31  C   UNL d   1      24.061 -16.781  -1.535  0.00  0.00     0.037 A 
ATOM     32  C   UNL d   1      25.262 -16.103  -1.228  0.00  0.00     0.015 A 
BRANCH  30  33
ATOM     33  O   UNL d   1      22.645 -18.745  -1.175  0.00  0.00    -0.347 OA
BRANCH  33  34
ATOM     34  C   UNL d   1      21.392 -18.096  -0.886  0.00  0.00     0.214 C 
BRANCH  34  35
ATOM     35  C   UNL d   1      20.478 -19.120  -0.258  0.00  0.00    -0.034 C 
ATOM     36  C   UNL d   1      19.391 -19.666  -0.958  0.00  0.00     0.012 C 
ATOM     37  C   UNL d   1      18.401 -20.363  -0.263  0.00  0.00     0.043 C 
ATOM     38  C   UNL d   1      18.579 -20.652   1.084  0.00  0.00     0.116 C 
ATOM     39  F   UNL d   1      17.667 -21.394   1.725  0.00  0.00    -0.206 F 
ATOM     40  C   UNL d   1      19.699 -20.201   1.769  0.00  0.00     0.043 C 
ATOM     41  C   UNL d   1      20.652 -19.443   1.095  0.00  0.00     0.012 C 
ENDBRANCH  34  35
ENDBRANCH  33  34
ENDBRANCH  30  33
ENDBRANCH  26  27
ENDBRANCH   3  25
TORSDOF 10
ENDMDL
MODEL 8
REMARK VINA RESULT:    -8.827      3.523      6.335
REMARK INTER + INTRA:         -15.586
REMARK INTER:                 -11.810
REMARK INTRA:                  -3.776
REMARK CONF_INDEPENDENT:        2.983
REMARK UNBOUND:                -3.776
REMARK  10 active torsions:
REMARK  status: ('A' for Active; 'I' for Inactive)
REMARK    1  A    between atoms: N_1  and  C_2 
REMARK    2  A    between atoms: C_6  and  N_7 
REMARK    3  A    between atoms: C_10  and  C_11 
REMARK    4  A    between atoms: C_11  and  N_12 
REMARK    5  A    between atoms: C_17  and  C_18 
REMARK       I    between atoms: C_18  and  N_20 
REMARK    6  A    between atoms: N_20  and  N_21 
REMARK    7  A    between atoms: C_22  and  C_23 
REMARK    8  A    between atoms: C_26  and  O_27 
REMARK    9  A    between atoms: O_27  and  C_28 
REMARK   10  A    between atoms: C_28  and  C_29 
ROOT
ATOM      1  C   UNL d   1      29.963 -12.230   8.440  0.00  0.00     0.292 C 
ATOM      2  O   UNL d   1      30.862 -12.393   7.640  0.00  0.00    -0.264 OA
ATOM      3  N   UNL d   1      28.487 -12.182   8.127  0.00  0.00    -0.242 N 
ATOM      4  H   UNL d   1      27.783 -12.206   8.836  0.00  0.00     0.192 HD
ENDROOT
BRANCH   1   5
ATOM      5  C   UNL d   1      30.968 -12.125   9.370  0.00  0.00     0.153 C 
ATOM      6  C   UNL d   1      32.241 -11.464   9.180  0.00  0.00     0.112 C 
ATOM      7  N   UNL d   1      32.664 -11.281  10.458  0.00  0.00    -0.160 NA
ATOM      8  N   UNL d   1      31.703 -11.780  11.305  0.00  0.00     0.012 NA
ATOM      9  N   UNL d   1      30.728 -12.440  10.612  0.00  0.00    -0.207 N 
BRANCH   6  10
ATOM     10  C   UNL d   1      32.939 -10.852   7.753  0.00  0.00     0.297 C 
BRANCH  10  11
ATOM     11  N   UNL d   1      32.965 -11.825   6.278  0.00  0.00    -0.066 N 
ATOM     12  C   UNL d   1      34.582 -11.875   5.590  0.00  0.00     0.235 C 
ATOM     13  C   UNL d   1      34.679 -10.865   4.464  0.00  0.00     0.029 C 
ATOM     14  C   UNL d   1      32.828 -10.637   3.971  0.00  0.00     0.029 C 
ATOM     15  C   UNL d   1      31.895 -11.141   5.155  0.00  0.00     0.235 C 
ATOM     16  H   UNL d   1      32.681 -12.782   6.519  0.00  0.00     0.280 HD
ENDBRANCH  10  11
ENDBRANCH   6  10
BRANCH   9  17
ATOM     17  C   UNL d   1      29.470 -13.127  10.856  0.00  0.00     0.225 C 
ATOM     18  N   UNL d   1      28.363 -12.367  10.940  0.00  0.00    -0.081 NA
ATOM     19  O   UNL d   1      27.294 -13.256  10.799  0.00  0.00    -0.103 OA
ATOM     20  N   UNL d   1      27.717 -14.497  10.347  0.00  0.00    -0.083 NA
ATOM     21  C   UNL d   1      29.054 -14.446  10.335  0.00  0.00     0.201 C 
BRANCH  21  22
ATOM     22  N   UNL d   1      29.738 -15.371   9.605  0.00  0.00    -0.379 N 
ATOM     23  H   UNL d   1      29.453 -16.359   9.626  0.00  0.00     0.158 HD
ATOM     24  H   UNL d   1      30.433 -15.194   8.889  0.00  0.00     0.158 HD
ENDBRANCH  21  22
ENDBRANCH   9  17
ENDBRANCH   1   5
BRANCH   3  25
ATOM     25  N   UNL d   1      27.836 -12.557   6.794  0.00  0.00    -0.183 NA
ATOM     26  C   UNL d   1      28.475 -13.071   5.790  0.00  0.00     0.150 C 
BRANCH  26  27
ATOM     27  C   UNL d   1      27.882 -13.310   4.409  0.00  0.00    -0.017 A 
ATOM     28  C   UNL d   1      28.019 -14.588   3.867  0.00  0.00     0.015 A 
ATOM     29  C   UNL d   1      27.817 -14.812   2.492  0.00  0.00     0.037 A 
ATOM     30  C   UNL d   1      27.340 -13.795   1.657  0.00  0.00     0.069 A 
ATOM     31  C   UNL d   1      27.146 -12.529   2.199  0.00  0.00     0.037 A 
ATOM     32  C   UNL d   1      27.407 -12.287   3.567  0.00  0.00     0.015 A 
BRANCH  30  33
ATOM     33  O   UNL d   1      27.076 -14.144   0.361  0.00  0.00    -0.347 OA
BRANCH  33  34
ATOM     34  C   UNL d   1      27.534 -15.432  -0.092  0.00  0.00     0.214 C 
BRANCH  34  35
ATOM     35  C   UNL d   1      26.317 -16.276  -0.384  0.00  0.00    -0.034 C 
ATOM     36  C   UNL d   1      25.276 -15.810  -1.200  0.00  0.00     0.012 C 
ATOM     37  C   UNL d   1      24.048 -16.474  -1.201  0.00  0.00     0.043 C 
ATOM     38  C   UNL d   1      23.916 -17.680  -0.523  0.00  0.00     0.116 C 
ATOM     39  F   UNL d   1      22.763 -18.355  -0.598  0.00  0.00    -0.206 F 
ATOM     40  C   UNL d   1      24.971 -18.205   0.211  0.00  0.00     0.043 C 
ATOM     41  C   UNL d   1      26.174 -17.506   0.272  0.00  0.00     0.012 C 
ENDBRANCH  34  35
ENDBRANCH  33  34
ENDBRANCH  30  33
ENDBRANCH  26  27
ENDBRANCH   3  25
TORSDOF 10
ENDMDL
MODEL 9
REMARK VINA RESULT:    -8.661      6.143     10.037
REMARK INTER + INTRA:         -15.366
REMARK INTER:                 -11.644
REMARK INTRA:                  -3.722
REMARK CONF_INDEPENDENT:        2.983
REMARK UNBOUND:                -3.722
REMARK  10 active torsions:
REMARK  status: ('A' for Active; 'I' for Inactive)
REMARK    1  A    between atoms: N_1  and  C_2 
REMARK    2  A    between atoms: C_6  and  N_7 
REMARK    3  A    between atoms: C_10  and  C_11 
REMARK    4  A    between atoms: C_11  and  N_12 
REMARK    5  A    between atoms: C_17  and  C_18 
REMARK       I    between atoms: C_18  and  N_20 
REMARK    6  A    between atoms: N_20  and  N_21 
REMARK    7  A    between atoms: C_22  and  C_23 
REMARK    8  A    between atoms: C_26  and  O_27 
REMARK    9  A    between atoms: O_27  and  C_28 
REMARK   10  A    between atoms: C_28  and  C_29 
ROOT
ATOM      1  C   UNL d   1      27.642 -15.138  -2.783  0.00  0.00     0.292 C 
ATOM      2  O   UNL d   1      28.795 -15.070  -2.411  0.00  0.00    -0.264 OA
ATOM      3  N   UNL d   1      26.418 -15.163  -1.899  0.00  0.00    -0.242 N 
ATOM      4  H   UNL d   1      25.490 -15.059  -2.256  0.00  0.00     0.192 HD
ENDROOT
BRANCH   1   5
ATOM      5  C   UNL d   1      28.175 -15.199  -4.046  0.00  0.00     0.153 C 
ATOM      6  C   UNL d   1      29.414 -15.849  -4.418  0.00  0.00     0.112 C 
ATOM      7  N   UNL d   1      29.275 -15.985  -5.764  0.00  0.00    -0.160 NA
ATOM      8  N   UNL d   1      28.050 -15.472  -6.124  0.00  0.00     0.012 NA
ATOM      9  N   UNL d   1      27.446 -14.849  -5.069  0.00  0.00    -0.207 N 
BRANCH   6  10
ATOM     10  C   UNL d   1      30.637 -16.496  -3.426  0.00  0.00     0.297 C 
BRANCH  10  11
ATOM     11  N   UNL d   1      30.264 -17.057  -1.793  0.00  0.00    -0.066 N 
ATOM     12  C   UNL d   1      30.974 -15.992  -0.589  0.00  0.00     0.235 C 
ATOM     13  C   UNL d   1      32.269 -16.598  -0.084  0.00  0.00     0.029 C 
ATOM     14  C   UNL d   1      32.025 -18.465  -0.502  0.00  0.00     0.029 C 
ATOM     15  C   UNL d   1      30.887 -18.622  -1.599  0.00  0.00     0.235 C 
ATOM     16  H   UNL d   1      29.244 -17.052  -1.676  0.00  0.00     0.280 HD
ENDBRANCH  10  11
ENDBRANCH   6  10
BRANCH   9  17
ATOM     17  C   UNL d   1      26.200 -14.172  -4.751  0.00  0.00     0.225 C 
ATOM     18  N   UNL d   1      25.155 -14.944  -4.403  0.00  0.00    -0.081 NA
ATOM     19  O   UNL d   1      24.238 -14.075  -3.803  0.00  0.00    -0.103 OA
ATOM     20  N   UNL d   1      24.811 -12.845  -3.518  0.00  0.00    -0.083 NA
ATOM     21  C   UNL d   1      26.035 -12.877  -4.056  0.00  0.00     0.201 C 
BRANCH  21  22
ATOM     22  N   UNL d   1      26.960 -11.968  -3.636  0.00  0.00    -0.379 N 
ATOM     23  H   UNL d   1      26.731 -10.966  -3.630  0.00  0.00     0.158 HD
ATOM     24  H   UNL d   1      27.834 -12.159  -3.163  0.00  0.00     0.158 HD
ENDBRANCH  21  22
ENDBRANCH   9  17
ENDBRANCH   1   5
BRANCH   3  25
ATOM     25  N   UNL d   1      26.387 -14.878  -0.396  0.00  0.00    -0.183 NA
ATOM     26  C   UNL d   1      27.180 -14.046   0.205  0.00  0.00     0.150 C 
BRANCH  26  27
ATOM     27  C   UNL d   1      27.268 -13.860   1.712  0.00  0.00    -0.017 A 
ATOM     28  C   UNL d   1      27.030 -12.579   2.213  0.00  0.00     0.015 A 
ATOM     29  C   UNL d   1      27.416 -12.235   3.522  0.00  0.00     0.037 A 
ATOM     30  C   UNL d   1      27.921 -13.198   4.404  0.00  0.00     0.069 A 
ATOM     31  C   UNL d   1      28.111 -14.493   3.931  0.00  0.00     0.037 A 
ATOM     32  C   UNL d   1      27.780 -14.826   2.598  0.00  0.00     0.015 A 
BRANCH  30  33
ATOM     33  O   UNL d   1      28.165 -12.785   5.683  0.00  0.00    -0.347 OA
BRANCH  33  34
ATOM     34  C   UNL d   1      29.359 -13.270   6.327  0.00  0.00     0.214 C 
BRANCH  34  35
ATOM     35  C   UNL d   1      29.104 -13.288   7.815  0.00  0.00    -0.034 C 
ATOM     36  C   UNL d   1      29.290 -14.450   8.581  0.00  0.00     0.012 C 
ATOM     37  C   UNL d   1      28.760 -14.520   9.870  0.00  0.00     0.043 C 
ATOM     38  C   UNL d   1      28.197 -13.387  10.446  0.00  0.00     0.116 C 
ATOM     39  F   UNL d   1      27.768 -13.436  11.713  0.00  0.00    -0.206 F 
ATOM     40  C   UNL d   1      28.095 -12.200   9.733  0.00  0.00     0.043 C 
ATOM     41  C   UNL d   1      28.556 -12.150   8.421  0.00  0.00     0.012 C 
ENDBRANCH  34  35
ENDBRANCH  33  34
ENDBRANCH  30  33
ENDBRANCH  26  27
ENDBRANCH   3  25
TORSDOF 10
ENDMDL
