MODEL 1
REMARK VINA RESULT:    -8.649      0.000      0.000
REMARK INTER + INTRA:         -11.763
REMARK INTER:                 -10.737
REMARK INTRA:                  -1.026
REMARK CONF_INDEPENDENT:        2.088
REMARK UNBOUND:                -1.026
REMARK  7 active torsions:
REMARK  status: ('A' for Active; 'I' for Inactive)
REMARK    1  A    between atoms: N_1  and  S_2 
REMARK    2  A    between atoms: S_2  and  C_5 
REMARK    3  A    between atoms: C_7  and  C_8 
REMARK       I    between atoms: C_8  and  N_10 
REMARK    4  A    between atoms: N_10  and  N_11 
REMARK    5  A    between atoms: N_11  and  C_12 
REMARK    6  A    between atoms: C_12  and  N_14 
REMARK    7  A    between atoms: N_14  and  C_15 
ROOT
ATOM      1  C   UNL d   1      25.180 -13.867  -3.383  0.00  0.00     0.270 C 
ATOM      2  O   UNL d   1      24.438 -14.077  -4.340  0.00  0.00    -0.266 OA
ATOM      3  N   UNL d   1      25.744 -12.613  -3.148  0.00  0.00    -0.264 N 
ATOM      4  H   UNL d   1      26.357 -12.404  -2.364  0.00  0.00     0.190 HD
ENDROOT
BRANCH   3   5
ATOM      5  N   UNL d   1      25.517 -11.472  -4.014  0.00  0.00    -0.273 N 
ATOM      6  H   UNL d   1      25.154 -11.688  -4.941  0.00  0.00     0.189 HD
BRANCH   5   7
ATOM      7  C   UNL d   1      25.744 -10.179  -3.504  0.00  0.00     0.191 C 
ATOM      8  S   UNL d   1      26.988  -9.939  -2.377  0.00  0.00    -0.039 SA
BRANCH   7   9
ATOM      9  N   UNL d   1      24.858  -9.188  -3.982  0.00  0.00    -0.331 N 
ATOM     10  H   UNL d   1      24.304  -8.685  -3.301  0.00  0.00     0.168 HD
BRANCH   9  11
ATOM     11  C   UNL d   1      24.931  -8.578  -5.296  0.00  0.00     0.045 A 
ATOM     12  C   UNL d   1      26.035  -8.869  -6.110  0.00  0.00     0.030 A 
ATOM     13  C   UNL d   1      26.249  -8.219  -7.324  0.00  0.00     0.003 A 
ATOM     14  C   UNL d   1      25.323  -7.296  -7.786  0.00  0.00     0.012 A 
ATOM     15  C   UNL d   1      24.150  -7.049  -7.065  0.00  0.00    -0.024 A 
ATOM     16  C   UNL d   1      23.211  -6.145  -7.595  0.00  0.00     0.012 A 
ATOM     17  C   UNL d   1      23.925  -7.695  -5.807  0.00  0.00     0.001 A 
ATOM     18  C   UNL d   1      22.037  -5.858  -6.911  0.00  0.00     0.001 A 
ATOM     19  C   UNL d   1      21.795  -6.463  -5.684  0.00  0.00     0.001 A 
ATOM     20  C   UNL d   1      22.727  -7.359  -5.136  0.00  0.00     0.014 A 
ENDBRANCH   9  11
ENDBRANCH   7   9
ENDBRANCH   5   7
ENDBRANCH   3   5
BRANCH   1  21
ATOM     21  C   UNL d   1      25.517 -15.005  -2.418  0.00  0.00     0.035 A 
ATOM     22  C   UNL d   1      24.505 -15.897  -1.969  0.00  0.00     0.043 A 
ATOM     23  C   UNL d   1      24.794 -16.985  -1.092  0.00  0.00     0.097 A 
ATOM     24  C   UNL d   1      26.105 -17.175  -0.652  0.00  0.00     0.057 A 
ATOM     25  C   UNL d   1      27.100 -16.284  -1.076  0.00  0.00     0.026 A 
ATOM     26 CL   UNL d   1      26.656 -18.464   0.354  0.00  0.00    -0.083 Cl
ATOM     27  C   UNL d   1      26.817 -15.218  -1.944  0.00  0.00     0.019 A 
BRANCH  23  28
ATOM     28  S   UNL d   1      23.455 -18.002  -0.488  0.00  0.00     0.241 S 
ATOM     29  O   UNL d   1      23.858 -18.577   0.780  0.00  0.00    -0.206 OA
ATOM     30  O   UNL d   1      22.918 -18.842  -1.526  0.00  0.00    -0.206 OA
BRANCH  28  31
ATOM     31  N   UNL d   1      22.230 -16.893  -0.145  0.00  0.00    -0.225 NA
ATOM     32  H   UNL d   1      22.566 -15.962  -0.419  0.00  0.00     0.136 HD
ATOM     33  H   UNL d   1      21.993 -16.884   0.848  0.00  0.00     0.136 HD
ENDBRANCH  28  31
ENDBRANCH  23  28
ENDBRANCH   1  21
TORSDOF 7
ENDMDL
MODEL 2
REMARK VINA RESULT:    -8.352      7.462     10.415
REMARK INTER + INTRA:         -11.527
REMARK INTER:                 -10.440
REMARK INTRA:                  -1.087
REMARK CONF_INDEPENDENT:        2.088
REMARK UNBOUND:                -1.087
REMARK  7 active torsions:
REMARK  status: ('A' for Active; 'I' for Inactive)
REMARK    1  A    between atoms: N_1  and  S_2 
REMARK    2  A    between atoms: S_2  and  C_5 
REMARK    3  A    between atoms: C_7  and  C_8 
REMARK       I    between atoms: C_8  and  N_10 
REMARK    4  A    between atoms: N_10  and  N_11 
REMARK    5  A    between atoms: N_11  and  C_12 
REMARK    6  A    between atoms: C_12  and  N_14 
REMARK    7  A    between atoms: N_14  and  C_15 
ROOT
ATOM      1  C   UNL d   1      28.641 -14.397   4.867  0.00  0.00     0.270 C 
ATOM      2  O   UNL d   1      28.184 -15.526   5.032  0.00  0.00    -0.266 OA
ATOM      3  N   UNL d   1      28.904 -13.886   3.597  0.00  0.00    -0.264 N 
ATOM      4  H   UNL d   1      29.277 -12.955   3.425  0.00  0.00     0.190 HD
ENDROOT
BRANCH   3   5
ATOM      5  N   UNL d   1      28.679 -14.642   2.380  0.00  0.00    -0.273 N 
ATOM      6  H   UNL d   1      29.089 -15.575   2.360  0.00  0.00     0.189 HD
BRANCH   5   7
ATOM      7  C   UNL d   1      27.875 -14.079   1.370  0.00  0.00     0.191 C 
ATOM      8  S   UNL d   1      26.847 -12.787   1.755  0.00  0.00    -0.039 SA
BRANCH   7   9
ATOM      9  N   UNL d   1      27.995 -14.693   0.104  0.00  0.00    -0.331 N 
ATOM     10  H   UNL d   1      28.835 -15.226  -0.082  0.00  0.00     0.168 HD
BRANCH   9  11
ATOM     11  C   UNL d   1      26.891 -14.934  -0.805  0.00  0.00     0.045 A 
ATOM     12  C   UNL d   1      26.656 -14.011  -1.834  0.00  0.00     0.030 A 
ATOM     13  C   UNL d   1      25.537 -14.096  -2.660  0.00  0.00     0.003 A 
ATOM     14  C   UNL d   1      24.649 -15.151  -2.515  0.00  0.00     0.012 A 
ATOM     15  C   UNL d   1      24.895 -16.158  -1.576  0.00  0.00    -0.024 A 
ATOM     16  C   UNL d   1      23.999 -17.240  -1.498  0.00  0.00     0.012 A 
ATOM     17  C   UNL d   1      26.031 -16.075  -0.707  0.00  0.00     0.001 A 
ATOM     18  C   UNL d   1      24.194 -18.259  -0.574  0.00  0.00     0.001 A 
ATOM     19  C   UNL d   1      25.282 -18.201   0.288  0.00  0.00     0.001 A 
ATOM     20  C   UNL d   1      26.180 -17.123   0.230  0.00  0.00     0.014 A 
ENDBRANCH   9  11
ENDBRANCH   7   9
ENDBRANCH   5   7
ENDBRANCH   3   5
BRANCH   1  21
ATOM     21  C   UNL d   1      28.950 -13.517   6.080  0.00  0.00     0.035 A 
ATOM     22  C   UNL d   1      28.928 -14.061   7.394  0.00  0.00     0.043 A 
ATOM     23  C   UNL d   1      29.240 -13.273   8.542  0.00  0.00     0.097 A 
ATOM     24  C   UNL d   1      29.566 -11.926   8.374  0.00  0.00     0.057 A 
ATOM     25  C   UNL d   1      29.567 -11.382   7.083  0.00  0.00     0.026 A 
ATOM     26 CL   UNL d   1      30.030 -10.836   9.629  0.00  0.00    -0.083 Cl
ATOM     27  C   UNL d   1      29.267 -12.159   5.953  0.00  0.00     0.019 A 
BRANCH  23  28
ATOM     28  S   UNL d   1      29.091 -13.998  10.167  0.00  0.00     0.241 S 
ATOM     29  O   UNL d   1      27.779 -13.671  10.691  0.00  0.00    -0.206 OA
ATOM     30  O   UNL d   1      30.267 -13.762  10.963  0.00  0.00    -0.206 OA
BRANCH  28  31
ATOM     31  N   UNL d   1      29.089 -15.659   9.870  0.00  0.00    -0.225 NA
ATOM     32  H   UNL d   1      30.043 -15.929   9.605  0.00  0.00     0.136 HD
ATOM     33  H   UNL d   1      28.448 -15.909   9.117  0.00  0.00     0.136 HD
ENDBRANCH  28  31
ENDBRANCH  23  28
ENDBRANCH   1  21
TORSDOF 7
ENDMDL
MODEL 3
REMARK VINA RESULT:    -8.074      3.456      5.885
REMARK INTER + INTRA:         -12.065
REMARK INTER:                 -10.162
REMARK INTRA:                  -1.903
REMARK CONF_INDEPENDENT:        2.088
REMARK UNBOUND:                -1.903
REMARK  7 active torsions:
REMARK  status: ('A' for Active; 'I' for Inactive)
REMARK    1  A    between atoms: N_1  and  S_2 
REMARK    2  A    between atoms: S_2  and  C_5 
REMARK    3  A    between atoms: C_7  and  C_8 
REMARK       I    between atoms: C_8  and  N_10 
REMARK    4  A    between atoms: N_10  and  N_11 
REMARK    5  A    between atoms: N_11  and  C_12 
REMARK    6  A    between atoms: C_12  and  N_14 
REMARK    7  A    between atoms: N_14  and  C_15 
ROOT
ATOM      1  C   UNL d   1      25.357 -14.286  -3.551  0.00  0.00     0.270 C 
ATOM      2  O   UNL d   1      24.833 -14.617  -4.612  0.00  0.00    -0.266 OA
ATOM      3  N   UNL d   1      25.709 -12.964  -3.283  0.00  0.00    -0.264 N 
ATOM      4  H   UNL d   1      26.139 -12.655  -2.414  0.00  0.00     0.190 HD
ENDROOT
BRANCH   3   5
ATOM      5  N   UNL d   1      25.505 -11.886  -4.232  0.00  0.00    -0.273 N 
ATOM      6  H   UNL d   1      24.782 -11.212  -3.984  0.00  0.00     0.189 HD
BRANCH   5   7
ATOM      7  C   UNL d   1      26.343 -11.809  -5.361  0.00  0.00     0.191 C 
ATOM      8  S   UNL d   1      26.667 -10.294  -6.050  0.00  0.00    -0.039 SA
BRANCH   7   9
ATOM      9  N   UNL d   1      26.817 -13.052  -5.835  0.00  0.00    -0.331 N 
ATOM     10  H   UNL d   1      26.131 -13.757  -6.072  0.00  0.00     0.168 HD
BRANCH   9  11
ATOM     11  C   UNL d   1      28.152 -13.285  -6.353  0.00  0.00     0.045 A 
ATOM     12  C   UNL d   1      28.683 -12.370  -7.274  0.00  0.00     0.030 A 
ATOM     13  C   UNL d   1      29.896 -12.595  -7.922  0.00  0.00     0.003 A 
ATOM     14  C   UNL d   1      30.644 -13.722  -7.617  0.00  0.00     0.012 A 
ATOM     15  C   UNL d   1      30.212 -14.611  -6.627  0.00  0.00    -0.024 A 
ATOM     16  C   UNL d   1      31.026 -15.713  -6.310  0.00  0.00     0.012 A 
ATOM     17  C   UNL d   1      28.959 -14.404  -5.966  0.00  0.00     0.001 A 
ATOM     18  C   UNL d   1      30.636 -16.630  -5.342  0.00  0.00     0.001 A 
ATOM     19  C   UNL d   1      29.421 -16.459  -4.690  0.00  0.00     0.001 A 
ATOM     20  C   UNL d   1      28.591 -15.371  -5.002  0.00  0.00     0.014 A 
ENDBRANCH   9  11
ENDBRANCH   7   9
ENDBRANCH   5   7
ENDBRANCH   3   5
BRANCH   1  21
ATOM     21  C   UNL d   1      25.650 -15.343  -2.485  0.00  0.00     0.035 A 
ATOM     22  C   UNL d   1      24.611 -16.172  -1.981  0.00  0.00     0.043 A 
ATOM     23  C   UNL d   1      24.860 -17.187  -1.009  0.00  0.00     0.097 A 
ATOM     24  C   UNL d   1      26.157 -17.366  -0.529  0.00  0.00     0.057 A 
ATOM     25  C   UNL d   1      27.180 -16.536  -1.007  0.00  0.00     0.026 A 
ATOM     26 CL   UNL d   1      26.661 -18.575   0.595  0.00  0.00    -0.083 Cl
ATOM     27  C   UNL d   1      26.937 -15.543  -1.969  0.00  0.00     0.019 A 
BRANCH  23  28
ATOM     28  S   UNL d   1      23.487 -18.120  -0.348  0.00  0.00     0.241 S 
ATOM     29  O   UNL d   1      23.846 -18.575   0.981  0.00  0.00    -0.206 OA
ATOM     30  O   UNL d   1      22.962 -19.049  -1.313  0.00  0.00    -0.206 OA
BRANCH  28  31
ATOM     31  N   UNL d   1      22.273 -16.964  -0.147  0.00  0.00    -0.225 NA
ATOM     32  H   UNL d   1      22.644 -16.063  -0.469  0.00  0.00     0.136 HD
ATOM     33  H   UNL d   1      21.987 -16.880   0.828  0.00  0.00     0.136 HD
ENDBRANCH  28  31
ENDBRANCH  23  28
ENDBRANCH   1  21
TORSDOF 7
ENDMDL
MODEL 4
REMARK VINA RESULT:    -7.862      5.973      8.921
REMARK INTER + INTRA:         -11.700
REMARK INTER:                  -9.950
REMARK INTRA:                  -1.751
REMARK CONF_INDEPENDENT:        2.088
REMARK UNBOUND:                -1.751
REMARK  7 active torsions:
REMARK  status: ('A' for Active; 'I' for Inactive)
REMARK    1  A    between atoms: N_1  and  S_2 
REMARK    2  A    between atoms: S_2  and  C_5 
REMARK    3  A    between atoms: C_7  and  C_8 
REMARK       I    between atoms: C_8  and  N_10 
REMARK    4  A    between atoms: N_10  and  N_11 
REMARK    5  A    between atoms: N_11  and  C_12 
REMARK    6  A    between atoms: C_12  and  N_14 
REMARK    7  A    between atoms: N_14  and  C_15 
ROOT
ATOM      1  C   UNL d   1      27.238 -12.441   0.119  0.00  0.00     0.270 C 
ATOM      2  O   UNL d   1      27.462 -11.278  -0.207  0.00  0.00    -0.266 OA
ATOM      3  N   UNL d   1      26.661 -13.356  -0.761  0.00  0.00    -0.264 N 
ATOM      4  H   UNL d   1      26.468 -14.327  -0.525  0.00  0.00     0.190 HD
ENDROOT
BRANCH   3   5
ATOM      5  N   UNL d   1      26.266 -13.009  -2.112  0.00  0.00    -0.273 N 
ATOM      6  H   UNL d   1      26.429 -12.041  -2.384  0.00  0.00     0.189 HD
BRANCH   5   7
ATOM      7  C   UNL d   1      25.764 -14.022  -2.953  0.00  0.00     0.191 C 
ATOM      8  S   UNL d   1      24.403 -13.701  -3.912  0.00  0.00    -0.039 SA
BRANCH   7   9
ATOM      9  N   UNL d   1      26.455 -15.251  -2.882  0.00  0.00    -0.331 N 
ATOM     10  H   UNL d   1      27.167 -15.430  -3.579  0.00  0.00     0.168 HD
BRANCH   9  11
ATOM     11  C   UNL d   1      26.500 -16.108  -1.713  0.00  0.00     0.045 A 
ATOM     12  C   UNL d   1      27.748 -16.404  -1.146  0.00  0.00     0.030 A 
ATOM     13  C   UNL d   1      27.888 -17.327  -0.111  0.00  0.00     0.003 A 
ATOM     14  C   UNL d   1      26.766 -17.938   0.427  0.00  0.00     0.012 A 
ATOM     15  C   UNL d   1      25.488 -17.597  -0.029  0.00  0.00    -0.024 A 
ATOM     16  C   UNL d   1      24.373 -18.200   0.580  0.00  0.00     0.012 A 
ATOM     17  C   UNL d   1      25.328 -16.665  -1.104  0.00  0.00     0.001 A 
ATOM     18  C   UNL d   1      23.084 -17.903   0.155  0.00  0.00     0.001 A 
ATOM     19  C   UNL d   1      22.899 -17.009  -0.892  0.00  0.00     0.001 A 
ATOM     20  C   UNL d   1      24.001 -16.406  -1.518  0.00  0.00     0.014 A 
ENDBRANCH   9  11
ENDBRANCH   7   9
ENDBRANCH   5   7
ENDBRANCH   3   5
BRANCH   1  21
ATOM     21  C   UNL d   1      27.583 -12.914   1.532  0.00  0.00     0.035 A 
ATOM     22  C   UNL d   1      27.629 -11.992   2.614  0.00  0.00     0.043 A 
ATOM     23  C   UNL d   1      27.919 -12.408   3.948  0.00  0.00     0.097 A 
ATOM     24  C   UNL d   1      28.176 -13.756   4.199  0.00  0.00     0.057 A 
ATOM     25  C   UNL d   1      28.152 -14.664   3.132  0.00  0.00     0.026 A 
ATOM     26 CL   UNL d   1      28.482 -14.454   5.748  0.00  0.00    -0.083 Cl
ATOM     27  C   UNL d   1      27.860 -14.256   1.821  0.00  0.00     0.019 A 
BRANCH  23  28
ATOM     28  S   UNL d   1      28.062 -11.179   5.236  0.00  0.00     0.241 S 
ATOM     29  O   UNL d   1      29.404 -10.634   5.196  0.00  0.00    -0.206 OA
ATOM     30  O   UNL d   1      27.506 -11.645   6.478  0.00  0.00    -0.206 OA
BRANCH  28  31
ATOM     31  N   UNL d   1      27.028  -9.943   4.731  0.00  0.00    -0.225 NA
ATOM     32  H   UNL d   1      27.374  -9.064   5.133  0.00  0.00     0.136 HD
ATOM     33  H   UNL d   1      26.069 -10.100   5.042  0.00  0.00     0.136 HD
ENDBRANCH  28  31
ENDBRANCH  23  28
ENDBRANCH   1  21
TORSDOF 7
ENDMDL
MODEL 5
REMARK VINA RESULT:    -7.540      6.496      8.866
REMARK INTER + INTRA:         -11.552
REMARK INTER:                  -9.628
REMARK INTRA:                  -1.924
REMARK CONF_INDEPENDENT:        2.088
REMARK UNBOUND:                -1.924
REMARK  7 active torsions:
REMARK  status: ('A' for Active; 'I' for Inactive)
REMARK    1  A    between atoms: N_1  and  S_2 
REMARK    2  A    between atoms: S_2  and  C_5 
REMARK    3  A    between atoms: C_7  and  C_8 
REMARK       I    between atoms: C_8  and  N_10 
REMARK    4  A    between atoms: N_10  and  N_11 
REMARK    5  A    between atoms: N_11  and  C_12 
REMARK    6  A    between atoms: C_12  and  N_14 
REMARK    7  A    between atoms: N_14  and  C_15 
ROOT
ATOM      1  C   UNL d   1      30.940 -17.683  -1.463  0.00  0.00     0.270 C 
ATOM      2  O   UNL d   1      31.119 -16.984  -2.458  0.00  0.00    -0.266 OA
ATOM      3  N   UNL d   1      30.607 -17.133  -0.226  0.00  0.00    -0.264 N 
ATOM      4  H   UNL d   1      30.446 -17.681   0.615  0.00  0.00     0.190 HD
ENDROOT
BRANCH   3   5
ATOM      5  N   UNL d   1      30.464 -15.705  -0.010  0.00  0.00    -0.273 N 
ATOM      6  H   UNL d   1      31.309 -15.218   0.285  0.00  0.00     0.189 HD
BRANCH   5   7
ATOM      7  C   UNL d   1      29.222 -15.099  -0.282  0.00  0.00     0.191 C 
ATOM      8  S   UNL d   1      28.487 -14.147   0.913  0.00  0.00    -0.039 SA
BRANCH   7   9
ATOM      9  N   UNL d   1      28.688 -15.385  -1.558  0.00  0.00    -0.331 N 
ATOM     10  H   UNL d   1      29.302 -15.811  -2.239  0.00  0.00     0.168 HD
BRANCH   9  11
ATOM     11  C   UNL d   1      27.272 -15.463  -1.863  0.00  0.00     0.045 A 
ATOM     12  C   UNL d   1      26.738 -14.566  -2.799  0.00  0.00     0.030 A 
ATOM     13  C   UNL d   1      25.368 -14.483  -3.043  0.00  0.00     0.003 A 
ATOM     14  C   UNL d   1      24.497 -15.346  -2.395  0.00  0.00     0.012 A 
ATOM     15  C   UNL d   1      24.989 -16.331  -1.533  0.00  0.00    -0.024 A 
ATOM     16  C   UNL d   1      24.077 -17.221  -0.937  0.00  0.00     0.012 A 
ATOM     17  C   UNL d   1      26.391 -16.417  -1.257  0.00  0.00     0.001 A 
ATOM     18  C   UNL d   1      24.515 -18.210  -0.065  0.00  0.00     0.001 A 
ATOM     19  C   UNL d   1      25.869 -18.311   0.228  0.00  0.00     0.001 A 
ATOM     20  C   UNL d   1      26.791 -17.425  -0.349  0.00  0.00     0.014 A 
ENDBRANCH   9  11
ENDBRANCH   7   9
ENDBRANCH   5   7
ENDBRANCH   3   5
BRANCH   1  21
ATOM     21  C   UNL d   1      31.094 -19.201  -1.562  0.00  0.00     0.035 A 
ATOM     22  C   UNL d   1      30.701 -20.041  -0.484  0.00  0.00     0.043 A 
ATOM     23  C   UNL d   1      30.806 -21.462  -0.558  0.00  0.00     0.097 A 
ATOM     24  C   UNL d   1      31.319 -22.047  -1.716  0.00  0.00     0.057 A 
ATOM     25  C   UNL d   1      31.727 -21.221  -2.771  0.00  0.00     0.026 A 
ATOM     26 CL   UNL d   1      31.463 -23.741  -2.013  0.00  0.00    -0.083 Cl
ATOM     27  C   UNL d   1      31.618 -19.824  -2.701  0.00  0.00     0.019 A 
BRANCH  23  28
ATOM     28  S   UNL d   1      30.389 -22.446   0.874  0.00  0.00     0.241 S 
ATOM     29  O   UNL d   1      31.514 -22.415   1.788  0.00  0.00    -0.206 OA
ATOM     30  O   UNL d   1      29.795 -23.702   0.500  0.00  0.00    -0.206 OA
BRANCH  28  31
ATOM     31  N   UNL d   1      29.147 -21.576   1.614  0.00  0.00    -0.225 NA
ATOM     32  H   UNL d   1      28.857 -20.833   0.967  0.00  0.00     0.136 HD
ATOM     33  H   UNL d   1      29.449 -21.155   2.493  0.00  0.00     0.136 HD
ENDBRANCH  28  31
ENDBRANCH  23  28
ENDBRANCH   1  21
TORSDOF 7
ENDMDL
MODEL 6
REMARK VINA RESULT:    -7.395      3.217      5.534
REMARK INTER + INTRA:         -11.612
REMARK INTER:                  -9.483
REMARK INTRA:                  -2.129
REMARK CONF_INDEPENDENT:        2.088
REMARK UNBOUND:                -2.129
REMARK  7 active torsions:
REMARK  status: ('A' for Active; 'I' for Inactive)
REMARK    1  A    between atoms: N_1  and  S_2 
REMARK    2  A    between atoms: S_2  and  C_5 
REMARK    3  A    between atoms: C_7  and  C_8 
REMARK       I    between atoms: C_8  and  N_10 
REMARK    4  A    between atoms: N_10  and  N_11 
REMARK    5  A    between atoms: N_11  and  C_12 
REMARK    6  A    between atoms: C_12  and  N_14 
REMARK    7  A    between atoms: N_14  and  C_15 
ROOT
ATOM      1  C   UNL d   1      25.268 -14.146  -3.515  0.00  0.00     0.270 C 
ATOM      2  O   UNL d   1      24.823 -14.438  -4.623  0.00  0.00    -0.266 OA
ATOM      3  N   UNL d   1      25.618 -12.838  -3.183  0.00  0.00    -0.264 N 
ATOM      4  H   UNL d   1      25.984 -12.561  -2.275  0.00  0.00     0.190 HD
ENDROOT
BRANCH   3   5
ATOM      5  N   UNL d   1      25.503 -11.730  -4.113  0.00  0.00    -0.273 N 
ATOM      6  H   UNL d   1      24.782 -11.827  -4.826  0.00  0.00     0.189 HD
BRANCH   5   7
ATOM      7  C   UNL d   1      26.326 -10.602  -3.928  0.00  0.00     0.191 C 
ATOM      8  S   UNL d   1      25.608  -9.087  -3.673  0.00  0.00    -0.039 SA
BRANCH   7   9
ATOM      9  N   UNL d   1      27.712 -10.858  -4.008  0.00  0.00    -0.331 N 
ATOM     10  H   UNL d   1      28.328 -10.068  -4.150  0.00  0.00     0.168 HD
BRANCH   9  11
ATOM     11  C   UNL d   1      28.356 -12.073  -3.549  0.00  0.00     0.045 A 
ATOM     12  C   UNL d   1      28.834 -12.122  -2.231  0.00  0.00     0.030 A 
ATOM     13  C   UNL d   1      29.586 -13.196  -1.758  0.00  0.00     0.003 A 
ATOM     14  C   UNL d   1      29.829 -14.285  -2.580  0.00  0.00     0.012 A 
ATOM     15  C   UNL d   1      29.283 -14.335  -3.867  0.00  0.00    -0.024 A 
ATOM     16  C   UNL d   1      29.508 -15.482  -4.650  0.00  0.00     0.012 A 
ATOM     17  C   UNL d   1      28.525 -13.232  -4.375  0.00  0.00     0.001 A 
ATOM     18  C   UNL d   1      28.996 -15.575  -5.939  0.00  0.00     0.001 A 
ATOM     19  C   UNL d   1      28.264 -14.516  -6.461  0.00  0.00     0.001 A 
ATOM     20  C   UNL d   1      28.040 -13.360  -5.697  0.00  0.00     0.014 A 
ENDBRANCH   9  11
ENDBRANCH   7   9
ENDBRANCH   5   7
ENDBRANCH   3   5
BRANCH   1  21
ATOM     21  C   UNL d   1      25.463 -15.237  -2.462  0.00  0.00     0.035 A 
ATOM     22  C   UNL d   1      24.364 -16.023  -2.020  0.00  0.00     0.043 A 
ATOM     23  C   UNL d   1      24.520 -17.068  -1.061  0.00  0.00     0.097 A 
ATOM     24  C   UNL d   1      25.786 -17.321  -0.530  0.00  0.00     0.057 A 
ATOM     25  C   UNL d   1      26.867 -16.534  -0.947  0.00  0.00     0.026 A 
ATOM     26 CL   UNL d   1      26.181 -18.575   0.587  0.00  0.00    -0.083 Cl
ATOM     27  C   UNL d   1      26.715 -15.511  -1.896  0.00  0.00     0.019 A 
BRANCH  23  28
ATOM     28  S   UNL d   1      23.077 -17.943  -0.478  0.00  0.00     0.241 S 
ATOM     29  O   UNL d   1      21.922 -17.086  -0.659  0.00  0.00    -0.206 OA
ATOM     30  O   UNL d   1      23.317 -18.575   0.793  0.00  0.00    -0.206 OA
BRANCH  28  31
ATOM     31  N   UNL d   1      22.905 -19.216  -1.574  0.00  0.00    -0.225 NA
ATOM     32  H   UNL d   1      23.677 -19.873  -1.411  0.00  0.00     0.136 HD
ATOM     33  H   UNL d   1      22.940 -18.891  -2.540  0.00  0.00     0.136 HD
ENDBRANCH  28  31
ENDBRANCH  23  28
ENDBRANCH   1  21
TORSDOF 7
ENDMDL
MODEL 7
REMARK VINA RESULT:    -7.391      3.196      5.604
REMARK INTER + INTRA:         -11.710
REMARK INTER:                  -9.479
REMARK INTRA:                  -2.231
REMARK CONF_INDEPENDENT:        2.088
REMARK UNBOUND:                -2.231
REMARK  7 active torsions:
REMARK  status: ('A' for Active; 'I' for Inactive)
REMARK    1  A    between atoms: N_1  and  S_2 
REMARK    2  A    between atoms: S_2  and  C_5 
REMARK    3  A    between atoms: C_7  and  C_8 
REMARK       I    between atoms: C_8  and  N_10 
REMARK    4  A    between atoms: N_10  and  N_11 
REMARK    5  A    between atoms: N_11  and  C_12 
REMARK    6  A    between atoms: C_12  and  N_14 
REMARK    7  A    between atoms: N_14  and  C_15 
ROOT
ATOM      1  C   UNL d   1      25.155 -14.167  -3.415  0.00  0.00     0.270 C 
ATOM      2  O   UNL d   1      24.483 -14.424  -4.411  0.00  0.00    -0.266 OA
ATOM      3  N   UNL d   1      25.699 -12.901  -3.199  0.00  0.00    -0.264 N 
ATOM      4  H   UNL d   1      26.255 -12.653  -2.385  0.00  0.00     0.190 HD
ENDROOT
BRANCH   3   5
ATOM      5  N   UNL d   1      25.531 -11.801  -4.130  0.00  0.00    -0.273 N 
ATOM      6  H   UNL d   1      24.685 -11.830  -4.697  0.00  0.00     0.189 HD
BRANCH   5   7
ATOM      7  C   UNL d   1      26.487 -10.767  -4.137  0.00  0.00     0.191 C 
ATOM      8  S   UNL d   1      25.996  -9.185  -3.773  0.00  0.00    -0.039 SA
BRANCH   7   9
ATOM      9  N   UNL d   1      27.795 -11.168  -4.488  0.00  0.00    -0.331 N 
ATOM     10  H   UNL d   1      28.557 -10.551  -4.239  0.00  0.00     0.168 HD
BRANCH   9  11
ATOM     11  C   UNL d   1      28.178 -12.522  -4.837  0.00  0.00     0.045 A 
ATOM     12  C   UNL d   1      27.944 -12.969  -6.145  0.00  0.00     0.030 A 
ATOM     13  C   UNL d   1      28.155 -14.295  -6.520  0.00  0.00     0.003 A 
ATOM     14  C   UNL d   1      28.667 -15.200  -5.603  0.00  0.00     0.012 A 
ATOM     15  C   UNL d   1      29.020 -14.780  -4.316  0.00  0.00    -0.024 A 
ATOM     16  C   UNL d   1      29.586 -15.717  -3.433  0.00  0.00     0.012 A 
ATOM     17  C   UNL d   1      28.792 -13.426  -3.909  0.00  0.00     0.001 A 
ATOM     18  C   UNL d   1      29.942 -15.351  -2.141  0.00  0.00     0.001 A 
ATOM     19  C   UNL d   1      29.725 -14.047  -1.716  0.00  0.00     0.001 A 
ATOM     20  C   UNL d   1      29.151 -13.102  -2.581  0.00  0.00     0.014 A 
ENDBRANCH   9  11
ENDBRANCH   7   9
ENDBRANCH   5   7
ENDBRANCH   3   5
BRANCH   1  21
ATOM     21  C   UNL d   1      25.427 -15.257  -2.378  0.00  0.00     0.035 A 
ATOM     22  C   UNL d   1      24.405 -16.174  -2.006  0.00  0.00     0.043 A 
ATOM     23  C   UNL d   1      24.637 -17.220  -1.064  0.00  0.00     0.097 A 
ATOM     24  C   UNL d   1      25.898 -17.343  -0.480  0.00  0.00     0.057 A 
ATOM     25  C   UNL d   1      26.900 -16.428  -0.828  0.00  0.00     0.026 A 
ATOM     26 CL   UNL d   1      26.382 -18.575   0.627  0.00  0.00    -0.083 Cl
ATOM     27  C   UNL d   1      26.675 -15.404  -1.760  0.00  0.00     0.019 A 
BRANCH  23  28
ATOM     28  S   UNL d   1      23.277 -18.268  -0.569  0.00  0.00     0.241 S 
ATOM     29  O   UNL d   1      23.430 -18.575   0.839  0.00  0.00    -0.206 OA
ATOM     30  O   UNL d   1      23.049 -19.325  -1.519  0.00  0.00    -0.206 OA
BRANCH  28  31
ATOM     31  N   UNL d   1      21.926 -17.265  -0.697  0.00  0.00    -0.225 NA
ATOM     32  H   UNL d   1      21.546 -17.374  -1.645  0.00  0.00     0.136 HD
ATOM     33  H   UNL d   1      22.165 -16.285  -0.543  0.00  0.00     0.136 HD
ENDBRANCH  28  31
ENDBRANCH  23  28
ENDBRANCH   1  21
TORSDOF 7
ENDMDL
MODEL 8
REMARK VINA RESULT:    -7.386      6.307      8.982
REMARK INTER + INTRA:         -11.574
REMARK INTER:                  -9.474
REMARK INTRA:                  -2.100
REMARK CONF_INDEPENDENT:        2.088
REMARK UNBOUND:                -2.100
REMARK  7 active torsions:
REMARK  status: ('A' for Active; 'I' for Inactive)
REMARK    1  A    between atoms: N_1  and  S_2 
REMARK    2  A    between atoms: S_2  and  C_5 
REMARK    3  A    between atoms: C_7  and  C_8 
REMARK       I    between atoms: C_8  and  N_10 
REMARK    4  A    between atoms: N_10  and  N_11 
REMARK    5  A    between atoms: N_11  and  C_12 
REMARK    6  A    between atoms: C_12  and  N_14 
REMARK    7  A    between atoms: N_14  and  C_15 
ROOT
ATOM      1  C   UNL d   1      29.408 -14.772  -0.271  0.00  0.00     0.270 C 
ATOM      2  O   UNL d   1      29.900 -13.936  -1.024  0.00  0.00    -0.266 OA
ATOM      3  N   UNL d   1      30.097 -15.261   0.839  0.00  0.00    -0.264 N 
ATOM      4  H   UNL d   1      29.717 -15.948   1.486  0.00  0.00     0.190 HD
ENDROOT
BRANCH   3   5
ATOM      5  N   UNL d   1      31.442 -14.840   1.180  0.00  0.00    -0.273 N 
ATOM      6  H   UNL d   1      31.899 -14.232   0.502  0.00  0.00     0.189 HD
BRANCH   5   7
ATOM      7  C   UNL d   1      31.981 -15.232   2.421  0.00  0.00     0.191 C 
ATOM      8  S   UNL d   1      33.055 -16.543   2.479  0.00  0.00    -0.039 SA
BRANCH   7   9
ATOM      9  N   UNL d   1      31.529 -14.483   3.529  0.00  0.00    -0.331 N 
ATOM     10  H   UNL d   1      32.189 -13.857   3.973  0.00  0.00     0.168 HD
BRANCH   9  11
ATOM     11  C   UNL d   1      30.136 -14.253   3.859  0.00  0.00     0.045 A 
ATOM     12  C   UNL d   1      29.578 -14.952   4.940  0.00  0.00     0.030 A 
ATOM     13  C   UNL d   1      28.217 -14.893   5.234  0.00  0.00     0.003 A 
ATOM     14  C   UNL d   1      27.383 -14.079   4.483  0.00  0.00     0.012 A 
ATOM     15  C   UNL d   1      27.906 -13.278   3.463  0.00  0.00    -0.024 A 
ATOM     16  C   UNL d   1      27.035 -12.426   2.762  0.00  0.00     0.012 A 
ATOM     17  C   UNL d   1      29.299 -13.341   3.137  0.00  0.00     0.001 A 
ATOM     18  C   UNL d   1      27.505 -11.619   1.732  0.00  0.00     0.001 A 
ATOM     19  C   UNL d   1      28.850 -11.665   1.388  0.00  0.00     0.001 A 
ATOM     20  C   UNL d   1      29.731 -12.518   2.071  0.00  0.00     0.014 A 
ENDBRANCH   9  11
ENDBRANCH   7   9
ENDBRANCH   5   7
ENDBRANCH   3   5
BRANCH   1  21
ATOM     21  C   UNL d   1      28.006 -15.315  -0.549  0.00  0.00     0.035 A 
ATOM     22  C   UNL d   1      27.226 -14.794  -1.618  0.00  0.00     0.043 A 
ATOM     23  C   UNL d   1      25.927 -15.300  -1.921  0.00  0.00     0.097 A 
ATOM     24  C   UNL d   1      25.398 -16.328  -1.139  0.00  0.00     0.057 A 
ATOM     25  C   UNL d   1      26.155 -16.828  -0.071  0.00  0.00     0.026 A 
ATOM     26 CL   UNL d   1      23.879 -17.107  -1.389  0.00  0.00    -0.083 Cl
ATOM     27  C   UNL d   1      27.436 -16.336   0.222  0.00  0.00     0.019 A 
BRANCH  23  28
ATOM     28  S   UNL d   1      24.966 -14.527  -3.212  0.00  0.00     0.241 S 
ATOM     29  O   UNL d   1      23.588 -14.450  -2.769  0.00  0.00    -0.206 OA
ATOM     30  O   UNL d   1      25.280 -15.073  -4.506  0.00  0.00    -0.206 OA
BRANCH  28  31
ATOM     31  N   UNL d   1      25.545 -12.942  -3.254  0.00  0.00    -0.225 NA
ATOM     32  H   UNL d   1      24.775 -12.336  -3.559  0.00  0.00     0.136 HD
ATOM     33  H   UNL d   1      26.328 -12.841  -3.900  0.00  0.00     0.136 HD
ENDBRANCH  28  31
ENDBRANCH  23  28
ENDBRANCH   1  21
TORSDOF 7
ENDMDL
MODEL 9
REMARK VINA RESULT:    -7.302      3.945      6.279
REMARK INTER + INTRA:         -11.556
REMARK INTER:                  -9.390
REMARK INTRA:                  -2.166
REMARK CONF_INDEPENDENT:        2.088
REMARK UNBOUND:                -2.166
REMARK  7 active torsions:
REMARK  status: ('A' for Active; 'I' for Inactive)
REMARK    1  A    between atoms: N_1  and  S_2 
REMARK    2  A    between atoms: S_2  and  C_5 
REMARK    3  A    between atoms: C_7  and  C_8 
REMARK       I    between atoms: C_8  and  N_10 
REMARK    4  A    between atoms: N_10  and  N_11 
REMARK    5  A    between atoms: N_11  and  C_12 
REMARK    6  A    between atoms: C_12  and  N_14 
REMARK    7  A    between atoms: N_14  and  C_15 
ROOT
ATOM      1  C   UNL d   1      25.295 -13.997  -3.557  0.00  0.00     0.270 C 
ATOM      2  O   UNL d   1      24.776 -14.294  -4.630  0.00  0.00    -0.266 OA
ATOM      3  N   UNL d   1      25.660 -12.686  -3.252  0.00  0.00    -0.264 N 
ATOM      4  H   UNL d   1      26.086 -12.405  -2.372  0.00  0.00     0.190 HD
ENDROOT
BRANCH   3   5
ATOM      5  N   UNL d   1      25.477 -11.581  -4.174  0.00  0.00    -0.273 N 
ATOM      6  H   UNL d   1      24.782 -10.889  -3.898  0.00  0.00     0.189 HD
BRANCH   5   7
ATOM      7  C   UNL d   1      26.295 -11.509  -5.318  0.00  0.00     0.191 C 
ATOM      8  S   UNL d   1      26.618  -9.996  -6.011  0.00  0.00    -0.039 SA
BRANCH   7   9
ATOM      9  N   UNL d   1      26.752 -12.755  -5.801  0.00  0.00    -0.331 N 
ATOM     10  H   UNL d   1      26.059 -13.467  -5.994  0.00  0.00     0.168 HD
BRANCH   9  11
ATOM     11  C   UNL d   1      28.060 -12.987  -6.384  0.00  0.00     0.045 A 
ATOM     12  C   UNL d   1      28.588 -12.019  -7.250  0.00  0.00     0.030 A 
ATOM     13  C   UNL d   1      29.771 -12.228  -7.958  0.00  0.00     0.003 A 
ATOM     14  C   UNL d   1      30.491 -13.398  -7.769  0.00  0.00     0.012 A 
ATOM     15  C   UNL d   1      30.064 -14.348  -6.836  0.00  0.00    -0.024 A 
ATOM     16  C   UNL d   1      30.852 -15.496  -6.636  0.00  0.00     0.012 A 
ATOM     17  C   UNL d   1      28.842 -14.156  -6.115  0.00  0.00     0.001 A 
ATOM     18  C   UNL d   1      30.465 -16.475  -5.728  0.00  0.00     0.001 A 
ATOM     19  C   UNL d   1      29.280 -16.319  -5.020  0.00  0.00     0.001 A 
ATOM     20  C   UNL d   1      28.476 -15.185  -5.217  0.00  0.00     0.014 A 
ENDBRANCH   9  11
ENDBRANCH   7   9
ENDBRANCH   5   7
ENDBRANCH   3   5
BRANCH   1  21
ATOM     21  C   UNL d   1      25.568 -15.085  -2.517  0.00  0.00     0.035 A 
ATOM     22  C   UNL d   1      26.900 -15.416  -2.148  0.00  0.00     0.043 A 
ATOM     23  C   UNL d   1      27.186 -16.405  -1.160  0.00  0.00     0.097 A 
ATOM     24  C   UNL d   1      26.129 -17.076  -0.544  0.00  0.00     0.057 A 
ATOM     25  C   UNL d   1      24.815 -16.768  -0.922  0.00  0.00     0.026 A 
ATOM     26 CL   UNL d   1      26.274 -18.253   0.710  0.00  0.00    -0.083 Cl
ATOM     27  C   UNL d   1      24.534 -15.790  -1.888  0.00  0.00     0.019 A 
BRANCH  23  28
ATOM     28  S   UNL d   1      28.885 -16.840  -0.824  0.00  0.00     0.241 S 
ATOM     29  O   UNL d   1      29.719 -16.237  -1.845  0.00  0.00    -0.206 OA
ATOM     30  O   UNL d   1      29.023 -18.238  -0.511  0.00  0.00    -0.206 OA
BRANCH  28  31
ATOM     31  N   UNL d   1      29.232 -16.033   0.617  0.00  0.00    -0.225 NA
ATOM     32  H   UNL d   1      30.111 -16.415   0.985  0.00  0.00     0.136 HD
ATOM     33  H   UNL d   1      28.495 -16.161   1.311  0.00  0.00     0.136 HD
ENDBRANCH  28  31
ENDBRANCH  23  28
ENDBRANCH   1  21
TORSDOF 7
ENDMDL
