MODEL 1
REMARK VINA RESULT:    -8.482      0.000      0.000
REMARK INTER + INTRA:         -10.139
REMARK INTER:                  -9.377
REMARK INTRA:                  -0.762
REMARK CONF_INDEPENDENT:        0.895
REMARK UNBOUND:                -0.762
REMARK  3 active torsions:
REMARK  status: ('A' for Active; 'I' for Inactive)
REMARK    1  A    between atoms: C_5  and  C_6 
REMARK       I    between atoms: C_6  and  N_7 
REMARK    2  A    between atoms: C_10  and  N_11 
REMARK       I    between atoms: N_11  and  C_12 
REMARK    3  A    between atoms: C_12  and  C_14 
ROOT
ATOM      1  C   UNL d   1      27.558 -16.986  -0.712  0.00  0.00     0.050 C 
ATOM      2  C   UNL d   1      26.092 -17.277  -0.802  0.00  0.00    -0.035 C 
ATOM      3  C   UNL d   1      25.617 -18.164   0.167  0.00  0.00     0.010 C 
ATOM      4  C   UNL d   1      24.269 -18.471   0.275  0.00  0.00     0.017 C 
ATOM      5  C   UNL d   1      23.345 -17.904  -0.600  0.00  0.00     0.034 C 
ATOM      6  C   UNL d   1      23.814 -17.071  -1.642  0.00  0.00     0.047 C 
ATOM      7  C   UNL d   1      25.200 -16.797  -1.786  0.00  0.00     0.042 C 
ENDROOT
BRANCH   7   8
ATOM      8  N   UNL d   1      25.619 -16.121  -2.970  0.00  0.00    -0.322 N 
ATOM      9  C   UNL d   1      25.509 -14.776  -3.292  0.00  0.00     0.258 C 
ATOM     10  O   UNL d   1      25.022 -14.458  -4.378  0.00  0.00    -0.267 OA
ATOM     11  H   UNL d   1      25.943 -16.698  -3.741  0.00  0.00     0.169 HD
BRANCH   9  12
ATOM     12  C   UNL d   1      25.956 -13.685  -2.337  0.00  0.00     0.055 C 
ATOM     13  C   UNL d   1      26.279 -14.108  -1.017  0.00  0.00     0.042 C 
ATOM     14  C   UNL d   1      27.005 -13.273  -0.158  0.00  0.00     0.035 C 
ATOM     15 CL   UNL d   1      27.370 -13.766   1.450  0.00  0.00    -0.084 Cl
ATOM     16  C   UNL d   1      27.502 -12.057  -0.612  0.00  0.00     0.025 C 
ATOM     17  C   UNL d   1      27.185 -11.626  -1.896  0.00  0.00     0.026 C 
ATOM     18  C   UNL d   1      26.325 -12.373  -2.721  0.00  0.00     0.049 C 
ATOM     19 CL   UNL d   1      25.936 -11.593  -4.213  0.00  0.00    -0.083 Cl
ENDBRANCH   9  12
ENDBRANCH   7   8
BRANCH   5  20
ATOM     20  C   UNL d   1      21.881 -18.205  -0.462  0.00  0.00     0.249 C 
ATOM     21  N   UNL d   1      21.520 -19.362   0.195  0.00  0.00    -0.366 N 
ATOM     22  H   UNL d   1      22.150 -20.036   0.599  0.00  0.00     0.159 HD
ATOM     23  H   UNL d   1      20.531 -19.542   0.312  0.00  0.00     0.159 HD
ATOM     24  O   UNL d   1      21.029 -17.458  -0.896  0.00  0.00    -0.268 OA
ENDBRANCH   5  20
TORSDOF 3
ENDMDL
MODEL 2
REMARK VINA RESULT:    -7.644      4.210      5.978
REMARK INTER + INTRA:          -9.611
REMARK INTER:                  -8.539
REMARK INTRA:                  -1.072
REMARK CONF_INDEPENDENT:        0.895
REMARK UNBOUND:                -1.072
REMARK  3 active torsions:
REMARK  status: ('A' for Active; 'I' for Inactive)
REMARK    1  A    between atoms: C_5  and  C_6 
REMARK       I    between atoms: C_6  and  N_7 
REMARK    2  A    between atoms: C_10  and  N_11 
REMARK       I    between atoms: N_11  and  C_12 
REMARK    3  A    between atoms: C_12  and  C_14 
ROOT
ATOM      1  C   UNL d   1      26.696 -13.032  -0.610  0.00  0.00     0.050 C 
ATOM      2  C   UNL d   1      27.142 -13.420   0.766  0.00  0.00    -0.035 C 
ATOM      3  C   UNL d   1      26.768 -12.524   1.771  0.00  0.00     0.010 C 
ATOM      4  C   UNL d   1      27.029 -12.781   3.108  0.00  0.00     0.017 C 
ATOM      5  C   UNL d   1      27.692 -13.946   3.486  0.00  0.00     0.034 C 
ATOM      6  C   UNL d   1      28.154 -14.825   2.480  0.00  0.00     0.047 C 
ATOM      7  C   UNL d   1      27.934 -14.539   1.106  0.00  0.00     0.042 C 
ENDROOT
BRANCH   7   8
ATOM      8  N   UNL d   1      28.601 -15.356   0.147  0.00  0.00    -0.322 N 
ATOM      9  C   UNL d   1      28.170 -16.535  -0.445  0.00  0.00     0.258 C 
ATOM     10  O   UNL d   1      28.918 -17.514  -0.443  0.00  0.00    -0.267 OA
ATOM     11  H   UNL d   1      29.568 -15.126  -0.064  0.00  0.00     0.169 HD
BRANCH   9  12
ATOM     12  C   UNL d   1      26.798 -16.657  -1.081  0.00  0.00     0.055 C 
ATOM     13  C   UNL d   1      25.831 -17.389  -0.335  0.00  0.00     0.042 C 
ATOM     14  C   UNL d   1      24.468 -17.293  -0.646  0.00  0.00     0.035 C 
ATOM     15 CL   UNL d   1      23.298 -18.200   0.230  0.00  0.00    -0.084 Cl
ATOM     16  C   UNL d   1      24.031 -16.410  -1.627  0.00  0.00     0.025 C 
ATOM     17  C   UNL d   1      24.966 -15.698  -2.371  0.00  0.00     0.026 C 
ATOM     18  C   UNL d   1      26.345 -15.897  -2.185  0.00  0.00     0.049 C 
ATOM     19 CL   UNL d   1      27.333 -15.032  -3.310  0.00  0.00    -0.083 Cl
ENDBRANCH   9  12
ENDBRANCH   7   8
BRANCH   5  20
ATOM     20  C   UNL d   1      27.942 -14.244   4.936  0.00  0.00     0.249 C 
ATOM     21  N   UNL d   1      28.716 -15.342   5.244  0.00  0.00    -0.366 N 
ATOM     22  H   UNL d   1      29.139 -15.974   4.584  0.00  0.00     0.159 HD
ATOM     23  H   UNL d   1      28.906 -15.518   6.223  0.00  0.00     0.159 HD
ATOM     24  O   UNL d   1      27.495 -13.544   5.821  0.00  0.00    -0.268 OA
ENDBRANCH   5  20
TORSDOF 3
ENDMDL
MODEL 3
REMARK VINA RESULT:    -7.485      3.060      5.850
REMARK INTER + INTRA:          -9.438
REMARK INTER:                  -8.380
REMARK INTRA:                  -1.058
REMARK CONF_INDEPENDENT:        0.895
REMARK UNBOUND:                -1.058
REMARK  3 active torsions:
REMARK  status: ('A' for Active; 'I' for Inactive)
REMARK    1  A    between atoms: C_5  and  C_6 
REMARK       I    between atoms: C_6  and  N_7 
REMARK    2  A    between atoms: C_10  and  N_11 
REMARK       I    between atoms: N_11  and  C_12 
REMARK    3  A    between atoms: C_12  and  C_14 
ROOT
ATOM      1  C   UNL d   1      27.827 -11.623  -3.009  0.00  0.00     0.050 C 
ATOM      2  C   UNL d   1      27.704 -12.321  -1.690  0.00  0.00    -0.035 C 
ATOM      3  C   UNL d   1      28.756 -12.077  -0.805  0.00  0.00     0.010 C 
ATOM      4  C   UNL d   1      28.751 -12.579   0.488  0.00  0.00     0.017 C 
ATOM      5  C   UNL d   1      27.689 -13.361   0.936  0.00  0.00     0.034 C 
ATOM      6  C   UNL d   1      26.655 -13.691   0.030  0.00  0.00     0.047 C 
ATOM      7  C   UNL d   1      26.684 -13.221  -1.309  0.00  0.00     0.042 C 
ENDROOT
BRANCH   7   8
ATOM      8  N   UNL d   1      25.724 -13.757  -2.218  0.00  0.00    -0.322 N 
ATOM      9  C   UNL d   1      25.475 -15.083  -2.542  0.00  0.00     0.258 C 
ATOM     10  O   UNL d   1      25.430 -15.412  -3.728  0.00  0.00    -0.267 OA
ATOM     11  H   UNL d   1      25.220 -13.095  -2.801  0.00  0.00     0.169 HD
BRANCH   9  12
ATOM     12  C   UNL d   1      25.272 -16.143  -1.476  0.00  0.00     0.055 C 
ATOM     13  C   UNL d   1      23.929 -16.571  -1.273  0.00  0.00     0.042 C 
ATOM     14  C   UNL d   1      23.655 -17.753  -0.572  0.00  0.00     0.035 C 
ATOM     15 CL   UNL d   1      22.033 -18.258  -0.296  0.00  0.00    -0.084 Cl
ATOM     16  C   UNL d   1      24.691 -18.575  -0.145  0.00  0.00     0.025 C 
ATOM     17  C   UNL d   1      26.008 -18.163  -0.326  0.00  0.00     0.026 C 
ATOM     18  C   UNL d   1      26.306 -16.907  -0.884  0.00  0.00     0.049 C 
ATOM     19 CL   UNL d   1      27.991 -16.524  -0.882  0.00  0.00    -0.083 Cl
ENDBRANCH   9  12
ENDBRANCH   7   8
BRANCH   5  20
ATOM     20  C   UNL d   1      27.663 -13.874   2.347  0.00  0.00     0.249 C 
ATOM     21  N   UNL d   1      28.595 -14.825   2.704  0.00  0.00    -0.366 N 
ATOM     22  H   UNL d   1      29.303 -15.215   2.105  0.00  0.00     0.159 HD
ATOM     23  H   UNL d   1      28.591 -15.142   3.665  0.00  0.00     0.159 HD
ATOM     24  O   UNL d   1      26.863 -13.466   3.163  0.00  0.00    -0.268 OA
ENDBRANCH   5  20
TORSDOF 3
ENDMDL
MODEL 4
REMARK VINA RESULT:    -7.404      3.448      5.662
REMARK INTER + INTRA:          -9.362
REMARK INTER:                  -8.298
REMARK INTRA:                  -1.063
REMARK CONF_INDEPENDENT:        0.895
REMARK UNBOUND:                -1.063
REMARK  3 active torsions:
REMARK  status: ('A' for Active; 'I' for Inactive)
REMARK    1  A    between atoms: C_5  and  C_6 
REMARK       I    between atoms: C_6  and  N_7 
REMARK    2  A    between atoms: C_10  and  N_11 
REMARK       I    between atoms: N_11  and  C_12 
REMARK    3  A    between atoms: C_12  and  C_14 
ROOT
ATOM      1  C   UNL d   1      28.521 -14.884  -6.324  0.00  0.00     0.050 C 
ATOM      2  C   UNL d   1      28.781 -15.570  -5.019  0.00  0.00    -0.035 C 
ATOM      3  C   UNL d   1      29.701 -16.619  -5.089  0.00  0.00     0.010 C 
ATOM      4  C   UNL d   1      30.115 -17.300  -3.954  0.00  0.00     0.017 C 
ATOM      5  C   UNL d   1      29.607 -16.960  -2.703  0.00  0.00     0.034 C 
ATOM      6  C   UNL d   1      28.612 -15.959  -2.620  0.00  0.00     0.047 C 
ATOM      7  C   UNL d   1      28.148 -15.296  -3.787  0.00  0.00     0.042 C 
ENDROOT
BRANCH   7   8
ATOM      8  N   UNL d   1      27.008 -14.450  -3.656  0.00  0.00    -0.322 N 
ATOM      9  C   UNL d   1      25.740 -14.762  -3.185  0.00  0.00     0.258 C 
ATOM     10  O   UNL d   1      24.757 -14.450  -3.860  0.00  0.00    -0.267 OA
ATOM     11  H   UNL d   1      27.073 -13.520  -4.059  0.00  0.00     0.169 HD
BRANCH   9  12
ATOM     12  C   UNL d   1      25.530 -15.490  -1.871  0.00  0.00     0.055 C 
ATOM     13  C   UNL d   1      24.635 -16.597  -1.911  0.00  0.00     0.042 C 
ATOM     14  C   UNL d   1      24.614 -17.534  -0.869  0.00  0.00     0.035 C 
ATOM     15 CL   UNL d   1      23.511 -18.856  -0.896  0.00  0.00    -0.084 Cl
ATOM     16  C   UNL d   1      25.529 -17.450   0.173  0.00  0.00     0.025 C 
ATOM     17  C   UNL d   1      26.402 -16.368   0.230  0.00  0.00     0.026 C 
ATOM     18  C   UNL d   1      26.335 -15.331  -0.718  0.00  0.00     0.049 C 
ATOM     19 CL   UNL d   1      27.398 -14.009  -0.383  0.00  0.00    -0.083 Cl
ENDBRANCH   9  12
ENDBRANCH   7   8
BRANCH   5  20
ATOM     20  C   UNL d   1      30.082 -17.670  -1.469  0.00  0.00     0.249 C 
ATOM     21  N   UNL d   1      29.707 -17.158  -0.245  0.00  0.00    -0.366 N 
ATOM     22  H   UNL d   1      29.136 -16.344  -0.094  0.00  0.00     0.159 HD
ATOM     23  H   UNL d   1      30.005 -17.661   0.581  0.00  0.00     0.159 HD
ATOM     24  O   UNL d   1      30.765 -18.672  -1.528  0.00  0.00    -0.268 OA
ENDBRANCH   5  20
TORSDOF 3
ENDMDL
MODEL 5
REMARK VINA RESULT:    -7.074      2.772      3.593
REMARK INTER + INTRA:          -8.996
REMARK INTER:                  -7.969
REMARK INTRA:                  -1.027
REMARK CONF_INDEPENDENT:        0.895
REMARK UNBOUND:                -1.027
REMARK  3 active torsions:
REMARK  status: ('A' for Active; 'I' for Inactive)
REMARK    1  A    between atoms: C_5  and  C_6 
REMARK       I    between atoms: C_6  and  N_7 
REMARK    2  A    between atoms: C_10  and  N_11 
REMARK       I    between atoms: N_11  and  C_12 
REMARK    3  A    between atoms: C_12  and  C_14 
ROOT
ATOM      1  C   UNL d   1      27.989 -15.744  -2.801  0.00  0.00     0.050 C 
ATOM      2  C   UNL d   1      26.867 -16.325  -1.997  0.00  0.00    -0.035 C 
ATOM      3  C   UNL d   1      25.607 -16.205  -2.590  0.00  0.00     0.010 C 
ATOM      4  C   UNL d   1      24.477 -16.766  -2.015  0.00  0.00     0.017 C 
ATOM      5  C   UNL d   1      24.569 -17.461  -0.811  0.00  0.00     0.034 C 
ATOM      6  C   UNL d   1      25.818 -17.521  -0.152  0.00  0.00     0.047 C 
ATOM      7  C   UNL d   1      26.967 -16.902  -0.712  0.00  0.00     0.042 C 
ENDROOT
BRANCH   7   8
ATOM      8  N   UNL d   1      28.138 -16.826   0.099  0.00  0.00    -0.322 N 
ATOM      9  C   UNL d   1      28.739 -15.709   0.660  0.00  0.00     0.258 C 
ATOM     10  O   UNL d   1      29.948 -15.534   0.498  0.00  0.00    -0.267 OA
ATOM     11  H   UNL d   1      28.686 -17.676   0.199  0.00  0.00     0.169 HD
BRANCH   9  12
ATOM     12  C   UNL d   1      27.948 -14.688   1.455  0.00  0.00     0.055 C 
ATOM     13  C   UNL d   1      28.069 -14.773   2.871  0.00  0.00     0.042 C 
ATOM     14  C   UNL d   1      27.666 -13.707   3.687  0.00  0.00     0.035 C 
ATOM     15 CL   UNL d   1      27.780 -13.817   5.401  0.00  0.00    -0.084 Cl
ATOM     16  C   UNL d   1      27.228 -12.515   3.122  0.00  0.00     0.025 C 
ATOM     17  C   UNL d   1      27.094 -12.422   1.741  0.00  0.00     0.026 C 
ATOM     18  C   UNL d   1      27.341 -13.531   0.911  0.00  0.00     0.049 C 
ATOM     19 CL   UNL d   1      26.970 -13.253  -0.754  0.00  0.00    -0.083 Cl
ENDBRANCH   9  12
ENDBRANCH   7   8
BRANCH   5  20
ATOM     20  C   UNL d   1      23.354 -18.101  -0.207  0.00  0.00     0.249 C 
ATOM     21  N   UNL d   1      23.314 -19.478  -0.145  0.00  0.00    -0.366 N 
ATOM     22  H   UNL d   1      24.030 -20.107  -0.468  0.00  0.00     0.159 HD
ATOM     23  H   UNL d   1      22.505 -19.901   0.292  0.00  0.00     0.159 HD
ATOM     24  O   UNL d   1      22.432 -17.443   0.230  0.00  0.00    -0.268 OA
ENDBRANCH   5  20
TORSDOF 3
ENDMDL
MODEL 6
REMARK VINA RESULT:    -6.992      3.939      6.208
REMARK INTER + INTRA:          -9.000
REMARK INTER:                  -7.887
REMARK INTRA:                  -1.113
REMARK CONF_INDEPENDENT:        0.895
REMARK UNBOUND:                -1.113
REMARK  3 active torsions:
REMARK  status: ('A' for Active; 'I' for Inactive)
REMARK    1  A    between atoms: C_5  and  C_6 
REMARK       I    between atoms: C_6  and  N_7 
REMARK    2  A    between atoms: C_10  and  N_11 
REMARK       I    between atoms: N_11  and  C_12 
REMARK    3  A    between atoms: C_12  and  C_14 
ROOT
ATOM      1  C   UNL d   1      29.527 -12.362  -0.604  0.00  0.00     0.050 C 
ATOM      2  C   UNL d   1      28.989 -12.989   0.645  0.00  0.00    -0.035 C 
ATOM      3  C   UNL d   1      29.952 -13.253   1.622  0.00  0.00     0.010 C 
ATOM      4  C   UNL d   1      29.606 -13.753   2.868  0.00  0.00     0.017 C 
ATOM      5  C   UNL d   1      28.274 -14.020   3.176  0.00  0.00     0.034 C 
ATOM      6  C   UNL d   1      27.293 -13.840   2.173  0.00  0.00     0.047 C 
ATOM      7  C   UNL d   1      27.652 -13.378   0.879  0.00  0.00     0.042 C 
ENDROOT
BRANCH   7   8
ATOM      8  N   UNL d   1      26.651 -13.416  -0.136  0.00  0.00    -0.322 N 
ATOM      9  C   UNL d   1      26.278 -14.473  -0.954  0.00  0.00     0.258 C 
ATOM     10  O   UNL d   1      26.210 -14.294  -2.172  0.00  0.00    -0.267 OA
ATOM     11  H   UNL d   1      26.217 -12.533  -0.390  0.00  0.00     0.169 HD
BRANCH   9  12
ATOM     12  C   UNL d   1      25.967 -15.848  -0.395  0.00  0.00     0.055 C 
ATOM     13  C   UNL d   1      24.607 -16.261  -0.481  0.00  0.00     0.042 C 
ATOM     14  C   UNL d   1      24.258 -17.608  -0.310  0.00  0.00     0.035 C 
ATOM     15 CL   UNL d   1      22.612 -18.107  -0.381  0.00  0.00    -0.084 Cl
ATOM     16  C   UNL d   1      25.243 -18.575  -0.145  0.00  0.00     0.025 C 
ATOM     17  C   UNL d   1      26.574 -18.184  -0.047  0.00  0.00     0.026 C 
ATOM     18  C   UNL d   1      26.934 -16.824  -0.057  0.00  0.00     0.049 C 
ATOM     19 CL   UNL d   1      28.616 -16.546   0.229  0.00  0.00    -0.083 Cl
ENDBRANCH   9  12
ENDBRANCH   7   8
BRANCH   5  20
ATOM     20  C   UNL d   1      27.893 -14.525   4.537  0.00  0.00     0.249 C 
ATOM     21  N   UNL d   1      28.665 -15.522   5.094  0.00  0.00    -0.366 N 
ATOM     22  H   UNL d   1      29.472 -15.950   4.674  0.00  0.00     0.159 HD
ATOM     23  H   UNL d   1      28.420 -15.834   6.025  0.00  0.00     0.159 HD
ATOM     24  O   UNL d   1      26.946 -14.072   5.147  0.00  0.00    -0.268 OA
ENDBRANCH   5  20
TORSDOF 3
ENDMDL
MODEL 7
REMARK VINA RESULT:    -6.950      4.353      6.605
REMARK INTER + INTRA:          -8.756
REMARK INTER:                  -7.844
REMARK INTRA:                  -0.912
REMARK CONF_INDEPENDENT:        0.895
REMARK UNBOUND:                -0.912
REMARK  3 active torsions:
REMARK  status: ('A' for Active; 'I' for Inactive)
REMARK    1  A    between atoms: C_5  and  C_6 
REMARK       I    between atoms: C_6  and  N_7 
REMARK    2  A    between atoms: C_10  and  N_11 
REMARK       I    between atoms: N_11  and  C_12 
REMARK    3  A    between atoms: C_12  and  C_14 
ROOT
ATOM      1  C   UNL d   1      27.487 -11.787   0.047  0.00  0.00     0.050 C 
ATOM      2  C   UNL d   1      27.779 -12.463   1.351  0.00  0.00    -0.035 C 
ATOM      3  C   UNL d   1      27.499 -11.690   2.480  0.00  0.00     0.010 C 
ATOM      4  C   UNL d   1      27.633 -12.200   3.762  0.00  0.00     0.017 C 
ATOM      5  C   UNL d   1      28.069 -13.508   3.959  0.00  0.00     0.034 C 
ATOM      6  C   UNL d   1      28.440 -14.280   2.833  0.00  0.00     0.047 C 
ATOM      7  C   UNL d   1      28.353 -13.742   1.522  0.00  0.00     0.042 C 
ENDROOT
BRANCH   7   8
ATOM      8  N   UNL d   1      28.932 -14.497   0.460  0.00  0.00    -0.322 N 
ATOM      9  C   UNL d   1      28.501 -15.693  -0.097  0.00  0.00     0.258 C 
ATOM     10  O   UNL d   1      29.303 -16.619  -0.222  0.00  0.00    -0.267 OA
ATOM     11  H   UNL d   1      29.843 -14.199   0.124  0.00  0.00     0.169 HD
BRANCH   9  12
ATOM     12  C   UNL d   1      27.065 -15.898  -0.541  0.00  0.00     0.055 C 
ATOM     13  C   UNL d   1      26.568 -14.959  -1.489  0.00  0.00     0.042 C 
ATOM     14  C   UNL d   1      25.398 -15.227  -2.212  0.00  0.00     0.035 C 
ATOM     15 CL   UNL d   1      24.774 -14.081  -3.335  0.00  0.00    -0.084 Cl
ATOM     16  C   UNL d   1      24.756 -16.453  -2.084  0.00  0.00     0.025 C 
ATOM     17  C   UNL d   1      25.224 -17.375  -1.153  0.00  0.00     0.026 C 
ATOM     18  C   UNL d   1      26.301 -17.065  -0.303  0.00  0.00     0.049 C 
ATOM     19 CL   UNL d   1      26.628 -18.282   0.881  0.00  0.00    -0.083 Cl
ENDBRANCH   9  12
ENDBRANCH   7   8
BRANCH   5  20
ATOM     20  C   UNL d   1      28.179 -14.075   5.344  0.00  0.00     0.249 C 
ATOM     21  N   UNL d   1      28.656 -15.361   5.479  0.00  0.00    -0.366 N 
ATOM     22  H   UNL d   1      28.945 -15.967   4.730  0.00  0.00     0.159 HD
ATOM     23  H   UNL d   1      28.756 -15.724   6.419  0.00  0.00     0.159 HD
ATOM     24  O   UNL d   1      27.874 -13.430   6.327  0.00  0.00    -0.268 OA
ENDBRANCH   5  20
TORSDOF 3
ENDMDL
MODEL 8
REMARK VINA RESULT:    -6.902      3.034      4.963
REMARK INTER + INTRA:          -8.734
REMARK INTER:                  -7.797
REMARK INTRA:                  -0.938
REMARK CONF_INDEPENDENT:        0.895
REMARK UNBOUND:                -0.938
REMARK  3 active torsions:
REMARK  status: ('A' for Active; 'I' for Inactive)
REMARK    1  A    between atoms: C_5  and  C_6 
REMARK       I    between atoms: C_6  and  N_7 
REMARK    2  A    between atoms: C_10  and  N_11 
REMARK       I    between atoms: N_11  and  C_12 
REMARK    3  A    between atoms: C_12  and  C_14 
ROOT
ATOM      1  C   UNL d   1      24.146 -16.844  -0.573  0.00  0.00     0.050 C 
ATOM      2  C   UNL d   1      25.608 -16.644  -0.830  0.00  0.00    -0.035 C 
ATOM      3  C   UNL d   1      26.410 -16.695   0.312  0.00  0.00     0.010 C 
ATOM      4  C   UNL d   1      27.791 -16.615   0.235  0.00  0.00     0.017 C 
ATOM      5  C   UNL d   1      28.421 -16.466  -0.999  0.00  0.00     0.034 C 
ATOM      6  C   UNL d   1      27.625 -16.327  -2.159  0.00  0.00     0.047 C 
ATOM      7  C   UNL d   1      26.208 -16.357  -2.076  0.00  0.00     0.042 C 
ENDROOT
BRANCH   7   8
ATOM      8  N   UNL d   1      25.471 -16.008  -3.246  0.00  0.00    -0.322 N 
ATOM      9  C   UNL d   1      25.530 -14.843  -3.999  0.00  0.00     0.258 C 
ATOM     10  O   UNL d   1      24.483 -14.253  -4.272  0.00  0.00    -0.267 OA
ATOM     11  H   UNL d   1      24.717 -16.631  -3.520  0.00  0.00     0.169 HD
BRANCH   9  12
ATOM     12  C   UNL d   1      26.847 -14.267  -4.481  0.00  0.00     0.055 C 
ATOM     13  C   UNL d   1      27.768 -15.200  -5.034  0.00  0.00     0.042 C 
ATOM     14  C   UNL d   1      28.856 -14.761  -5.801  0.00  0.00     0.035 C 
ATOM     15 CL   UNL d   1      29.991 -15.883  -6.445  0.00  0.00    -0.084 Cl
ATOM     16  C   UNL d   1      28.999 -13.414  -6.113  0.00  0.00     0.025 C 
ATOM     17  C   UNL d   1      28.112 -12.489  -5.570  0.00  0.00     0.026 C 
ATOM     18  C   UNL d   1      27.109 -12.888  -4.669  0.00  0.00     0.049 C 
ATOM     19 CL   UNL d   1      26.214 -11.573  -3.993  0.00  0.00    -0.083 Cl
ENDBRANCH   9  12
ENDBRANCH   7   8
BRANCH   5  20
ATOM     20  C   UNL d   1      29.919 -16.417  -1.088  0.00  0.00     0.249 C 
ATOM     21  N   UNL d   1      30.644 -17.116  -0.146  0.00  0.00    -0.366 N 
ATOM     22  H   UNL d   1      30.264 -17.666   0.606  0.00  0.00     0.159 HD
ATOM     23  H   UNL d   1      31.652 -17.103  -0.232  0.00  0.00     0.159 HD
ATOM     24  O   UNL d   1      30.490 -15.797  -1.962  0.00  0.00    -0.268 OA
ENDBRANCH   5  20
TORSDOF 3
ENDMDL
MODEL 9
REMARK VINA RESULT:    -6.838      3.420      6.490
REMARK INTER + INTRA:          -8.784
REMARK INTER:                  -7.733
REMARK INTRA:                  -1.051
REMARK CONF_INDEPENDENT:        0.895
REMARK UNBOUND:                -1.051
REMARK  3 active torsions:
REMARK  status: ('A' for Active; 'I' for Inactive)
REMARK    1  A    between atoms: C_5  and  C_6 
REMARK       I    between atoms: C_6  and  N_7 
REMARK    2  A    between atoms: C_10  and  N_11 
REMARK       I    between atoms: N_11  and  C_12 
REMARK    3  A    between atoms: C_12  and  C_14 
ROOT
ATOM      1  C   UNL d   1      28.084 -12.959  -6.361  0.00  0.00     0.050 C 
ATOM      2  C   UNL d   1      27.529 -12.170  -5.216  0.00  0.00    -0.035 C 
ATOM      3  C   UNL d   1      28.398 -11.206  -4.700  0.00  0.00     0.010 C 
ATOM      4  C   UNL d   1      28.005 -10.334  -3.696  0.00  0.00     0.017 C 
ATOM      5  C   UNL d   1      26.721 -10.408  -3.161  0.00  0.00     0.034 C 
ATOM      6  C   UNL d   1      25.853 -11.431  -3.609  0.00  0.00     0.047 C 
ATOM      7  C   UNL d   1      26.272 -12.358  -4.600  0.00  0.00     0.042 C 
ENDROOT
BRANCH   7   8
ATOM      8  N   UNL d   1      25.428 -13.479  -4.853  0.00  0.00    -0.322 N 
ATOM      9  C   UNL d   1      25.624 -14.812  -4.521  0.00  0.00     0.258 C 
ATOM     10  O   UNL d   1      25.493 -15.672  -5.394  0.00  0.00    -0.267 OA
ATOM     11  H   UNL d   1      24.623 -13.325  -5.454  0.00  0.00     0.169 HD
BRANCH   9  12
ATOM     12  C   UNL d   1      26.012 -15.239  -3.119  0.00  0.00     0.055 C 
ATOM     13  C   UNL d   1      24.976 -15.826  -2.339  0.00  0.00     0.042 C 
ATOM     14  C   UNL d   1      25.279 -16.550  -1.178  0.00  0.00     0.035 C 
ATOM     15 CL   UNL d   1      24.028 -17.234  -0.214  0.00  0.00    -0.084 Cl
ATOM     16  C   UNL d   1      26.602 -16.784  -0.819  0.00  0.00     0.025 C 
ATOM     17  C   UNL d   1      27.624 -16.206  -1.565  0.00  0.00     0.026 C 
ATOM     18  C   UNL d   1      27.340 -15.346  -2.642  0.00  0.00     0.049 C 
ATOM     19 CL   UNL d   1      28.743 -14.614  -3.339  0.00  0.00    -0.083 Cl
ENDBRANCH   9  12
ENDBRANCH   7   8
BRANCH   5  20
ATOM     20  C   UNL d   1      26.281  -9.441  -2.101  0.00  0.00     0.249 C 
ATOM     21  N   UNL d   1      25.155  -8.684  -2.346  0.00  0.00    -0.366 N 
ATOM     22  H   UNL d   1      24.589  -8.716  -3.178  0.00  0.00     0.159 HD
ATOM     23  H   UNL d   1      24.848  -8.057  -1.614  0.00  0.00     0.159 HD
ATOM     24  O   UNL d   1      26.877  -9.327  -1.050  0.00  0.00    -0.268 OA
ENDBRANCH   5  20
TORSDOF 3
ENDMDL
