MODEL 1
REMARK VINA RESULT:    -8.195      0.000      0.000
REMARK INTER + INTRA:         -11.875
REMARK INTER:                 -10.283
REMARK INTRA:                  -1.592
REMARK CONF_INDEPENDENT:        2.088
REMARK UNBOUND:                -1.592
REMARK  7 active torsions:
REMARK  status: ('A' for Active; 'I' for Inactive)
REMARK    1  A    between atoms: O_2  and  C_3 
REMARK       I    between atoms: C_3  and  N_5 
REMARK    2  A    between atoms: N_5  and  C_6 
REMARK    3  A    between atoms: C_6  and  C_7 
REMARK    4  A    between atoms: C_6  and  C_14 
REMARK    5  A    between atoms: C_7  and  C_8 
REMARK       I    between atoms: C_14  and  N_16 
REMARK    6  A    between atoms: N_16  and  C_17 
REMARK    7  A    between atoms: C_21  and  N_22 
ROOT
ATOM      1  C   UNL d   1      27.614 -15.013  -0.884  0.00  0.00     0.245 C 
ATOM      2  O   UNL d   1      28.659 -14.491  -1.287  0.00  0.00    -0.271 OA
ATOM      3  N   UNL d   1      27.334 -15.177   0.482  0.00  0.00    -0.325 N 
ATOM      4  H   UNL d   1      26.543 -15.735   0.786  0.00  0.00     0.169 HD
ENDROOT
BRANCH   1   5
ATOM      5  C   UNL d   1      26.561 -15.511  -1.936  0.00  0.00     0.183 C 
BRANCH   5   6
ATOM      6  N   UNL d   1      27.114 -15.297  -3.341  0.00  0.00    -0.323 N 
ATOM      7  C   UNL d   1      26.371 -15.194  -4.497  0.00  0.00     0.360 C 
ATOM      8  O   UNL d   1      25.155 -15.072  -4.514  0.00  0.00    -0.239 OA
ATOM      9  H   UNL d   1      28.095 -15.042  -3.404  0.00  0.00     0.165 HD
BRANCH   7  10
ATOM     10  O   UNL d   1      27.042 -15.200  -5.688  0.00  0.00    -0.309 OA
ATOM     11  C   UNL d   1      27.787 -13.956  -5.838  0.00  0.00     0.215 C 
ENDBRANCH   7  10
ENDBRANCH   5   6
BRANCH   5  12
ATOM     12  C   UNL d   1      26.193 -17.003  -1.655  0.00  0.00     0.073 C 
BRANCH  12  13
ATOM     13  C   UNL d   1      24.859 -17.239  -0.970  0.00  0.00    -0.056 C 
ATOM     14  C   UNL d   1      24.591 -18.467  -0.355  0.00  0.00     0.007 C 
ATOM     15  C   UNL d   1      23.268 -18.855  -0.111  0.00  0.00     0.001 C 
ATOM     16  C   UNL d   1      22.210 -18.001  -0.412  0.00  0.00     0.000 C 
ATOM     17  C   UNL d   1      22.483 -16.728  -0.890  0.00  0.00     0.001 C 
ATOM     18  C   UNL d   1      23.808 -16.319  -1.095  0.00  0.00     0.007 C 
ENDBRANCH  12  13
ENDBRANCH   5  12
ENDBRANCH   1   5
BRANCH   3  19
ATOM     19  C   UNL d   1      28.206 -14.708   1.511  0.00  0.00     0.038 A 
ATOM     20  C   UNL d   1      29.583 -14.574   1.297  0.00  0.00     0.056 A 
ATOM     21  C   UNL d   1      30.432 -14.173   2.355  0.00  0.00     0.064 A 
ATOM     22 CL   UNL d   1      32.145 -14.173   2.078  0.00  0.00    -0.082 Cl
ATOM     23  C   UNL d   1      29.927 -13.814   3.619  0.00  0.00     0.070 A 
ATOM     24  C   UNL d   1      28.554 -14.022   3.825  0.00  0.00     0.064 A 
ATOM     25 CL   UNL d   1      27.852 -13.795   5.391  0.00  0.00    -0.082 Cl
ATOM     26  C   UNL d   1      27.709 -14.442   2.788  0.00  0.00     0.056 A 
BRANCH  23  27
ATOM     27  N   UNL d   1      30.782 -13.484   4.693  0.00  0.00    -0.396 N 
ATOM     28  H   UNL d   1      30.755 -14.122   5.485  0.00  0.00     0.156 HD
ATOM     29  H   UNL d   1      31.718 -13.188   4.422  0.00  0.00     0.156 HD
ENDBRANCH  23  27
ENDBRANCH   3  19
TORSDOF 7
ENDMDL
MODEL 2
REMARK VINA RESULT:    -8.115      1.886      2.305
REMARK INTER + INTRA:         -11.778
REMARK INTER:                 -10.203
REMARK INTRA:                  -1.575
REMARK CONF_INDEPENDENT:        2.088
REMARK UNBOUND:                -1.575
REMARK  7 active torsions:
REMARK  status: ('A' for Active; 'I' for Inactive)
REMARK    1  A    between atoms: O_2  and  C_3 
REMARK       I    between atoms: C_3  and  N_5 
REMARK    2  A    between atoms: N_5  and  C_6 
REMARK    3  A    between atoms: C_6  and  C_7 
REMARK    4  A    between atoms: C_6  and  C_14 
REMARK    5  A    between atoms: C_7  and  C_8 
REMARK       I    between atoms: C_14  and  N_16 
REMARK    6  A    between atoms: N_16  and  C_17 
REMARK    7  A    between atoms: C_21  and  N_22 
ROOT
ATOM      1  C   UNL d   1      26.672 -14.123  -0.759  0.00  0.00     0.245 C 
ATOM      2  O   UNL d   1      27.480 -13.266  -1.133  0.00  0.00    -0.271 OA
ATOM      3  N   UNL d   1      26.272 -14.246   0.580  0.00  0.00    -0.325 N 
ATOM      4  H   UNL d   1      25.723 -15.043   0.887  0.00  0.00     0.169 HD
ENDROOT
BRANCH   1   5
ATOM      5  C   UNL d   1      26.070 -15.110  -1.821  0.00  0.00     0.183 C 
BRANCH   5   6
ATOM      6  N   UNL d   1      26.859 -14.993  -3.121  0.00  0.00    -0.323 N 
ATOM      7  C   UNL d   1      26.350 -15.141  -4.393  0.00  0.00     0.360 C 
ATOM      8  O   UNL d   1      25.155 -15.199  -4.644  0.00  0.00    -0.239 OA
ATOM      9  H   UNL d   1      27.796 -14.609  -3.045  0.00  0.00     0.165 HD
BRANCH   7  10
ATOM     10  O   UNL d   1      27.237 -15.197  -5.431  0.00  0.00    -0.309 OA
ATOM     11  C   UNL d   1      27.815 -13.877  -5.654  0.00  0.00     0.215 C 
ENDBRANCH   7  10
ENDBRANCH   5   6
BRANCH   5  12
ATOM     12  C   UNL d   1      26.063 -16.564  -1.251  0.00  0.00     0.073 C 
BRANCH  12  13
ATOM     13  C   UNL d   1      24.726 -17.068  -0.736  0.00  0.00    -0.056 C 
ATOM     14  C   UNL d   1      24.610 -18.368  -0.233  0.00  0.00     0.007 C 
ATOM     15  C   UNL d   1      23.354 -18.984  -0.164  0.00  0.00     0.001 C 
ATOM     16  C   UNL d   1      22.203 -18.292  -0.528  0.00  0.00     0.000 C 
ATOM     17  C   UNL d   1      22.302 -16.958  -0.894  0.00  0.00     0.001 C 
ATOM     18  C   UNL d   1      23.552 -16.324  -0.921  0.00  0.00     0.007 C 
ENDBRANCH  12  13
ENDBRANCH   5  12
ENDBRANCH   1   5
BRANCH   3  19
ATOM     19  C   UNL d   1      26.724 -13.360   1.606  0.00  0.00     0.038 A 
ATOM     20  C   UNL d   1      27.404 -13.834   2.734  0.00  0.00     0.056 A 
ATOM     21  C   UNL d   1      27.778 -12.943   3.766  0.00  0.00     0.064 A 
ATOM     22 CL   UNL d   1      28.479 -13.605   5.209  0.00  0.00    -0.082 Cl
ATOM     23  C   UNL d   1      27.566 -11.555   3.664  0.00  0.00     0.070 A 
ATOM     24  C   UNL d   1      26.824 -11.117   2.556  0.00  0.00     0.064 A 
ATOM     25 CL   UNL d   1      26.338  -9.460   2.417  0.00  0.00    -0.082 Cl
ATOM     26  C   UNL d   1      26.427 -11.998   1.540  0.00  0.00     0.056 A 
BRANCH  23  27
ATOM     27  N   UNL d   1      27.875 -10.677   4.725  0.00  0.00    -0.396 N 
ATOM     28  H   UNL d   1      27.075 -10.308   5.235  0.00  0.00     0.156 HD
ATOM     29  H   UNL d   1      28.651 -10.972   5.316  0.00  0.00     0.156 HD
ENDBRANCH  23  27
ENDBRANCH   3  19
TORSDOF 7
ENDMDL
MODEL 3
REMARK VINA RESULT:    -8.062      0.181      1.819
REMARK INTER + INTRA:         -11.713
REMARK INTER:                 -10.150
REMARK INTRA:                  -1.563
REMARK CONF_INDEPENDENT:        2.088
REMARK UNBOUND:                -1.563
REMARK  7 active torsions:
REMARK  status: ('A' for Active; 'I' for Inactive)
REMARK    1  A    between atoms: O_2  and  C_3 
REMARK       I    between atoms: C_3  and  N_5 
REMARK    2  A    between atoms: N_5  and  C_6 
REMARK    3  A    between atoms: C_6  and  C_7 
REMARK    4  A    between atoms: C_6  and  C_14 
REMARK    5  A    between atoms: C_7  and  C_8 
REMARK       I    between atoms: C_14  and  N_16 
REMARK    6  A    between atoms: N_16  and  C_17 
REMARK    7  A    between atoms: C_21  and  N_22 
ROOT
ATOM      1  C   UNL d   1      27.575 -15.033  -0.744  0.00  0.00     0.245 C 
ATOM      2  O   UNL d   1      28.537 -14.359  -1.129  0.00  0.00    -0.271 OA
ATOM      3  N   UNL d   1      27.374 -15.352   0.608  0.00  0.00    -0.325 N 
ATOM      4  H   UNL d   1      26.664 -16.023   0.883  0.00  0.00     0.169 HD
ENDROOT
BRANCH   1   5
ATOM      5  C   UNL d   1      26.539 -15.550  -1.804  0.00  0.00     0.183 C 
BRANCH   5   6
ATOM      6  N   UNL d   1      27.103 -15.334  -3.205  0.00  0.00    -0.323 N 
ATOM      7  C   UNL d   1      26.367 -15.189  -4.360  0.00  0.00     0.360 C 
ATOM      8  O   UNL d   1      25.156 -15.026  -4.377  0.00  0.00    -0.239 OA
ATOM      9  H   UNL d   1      28.092 -15.113  -3.262  0.00  0.00     0.165 HD
BRANCH   7  10
ATOM     10  O   UNL d   1      27.040 -15.201  -5.550  0.00  0.00    -0.309 OA
ATOM     11  C   UNL d   1      27.799 -13.965  -5.696  0.00  0.00     0.215 C 
ENDBRANCH   7  10
ENDBRANCH   5   6
BRANCH   5  12
ATOM     12  C   UNL d   1      26.191 -17.046  -1.520  0.00  0.00     0.073 C 
BRANCH  12  13
ATOM     13  C   UNL d   1      24.833 -17.301  -0.890  0.00  0.00    -0.056 C 
ATOM     14  C   UNL d   1      24.501 -18.579  -0.427  0.00  0.00     0.007 C 
ATOM     15  C   UNL d   1      23.157 -18.935  -0.254  0.00  0.00     0.001 C 
ATOM     16  C   UNL d   1      22.143 -18.008  -0.472  0.00  0.00     0.000 C 
ATOM     17  C   UNL d   1      22.478 -16.701  -0.795  0.00  0.00     0.001 C 
ATOM     18  C   UNL d   1      23.823 -16.329  -0.927  0.00  0.00     0.007 C 
ENDBRANCH  12  13
ENDBRANCH   5  12
ENDBRANCH   1   5
BRANCH   3  19
ATOM     19  C   UNL d   1      28.233 -14.881   1.648  0.00  0.00     0.038 A 
ATOM     20  C   UNL d   1      27.725 -14.476   2.889  0.00  0.00     0.056 A 
ATOM     21  C   UNL d   1      28.591 -13.949   3.874  0.00  0.00     0.064 A 
ATOM     22 CL   UNL d   1      27.890 -13.321   5.333  0.00  0.00    -0.082 Cl
ATOM     23  C   UNL d   1      29.985 -13.891   3.687  0.00  0.00     0.070 A 
ATOM     24  C   UNL d   1      30.458 -14.239   2.412  0.00  0.00     0.064 A 
ATOM     25 CL   UNL d   1      32.128 -14.030   2.002  0.00  0.00    -0.082 Cl
ATOM     26  C   UNL d   1      29.603 -14.740   1.420  0.00  0.00     0.056 A 
BRANCH  23  27
ATOM     27  N   UNL d   1      30.838 -13.298   4.642  0.00  0.00    -0.396 N 
ATOM     28  H   UNL d   1      30.740 -13.647   5.593  0.00  0.00     0.156 HD
ATOM     29  H   UNL d   1      31.802 -13.170   4.338  0.00  0.00     0.156 HD
ENDBRANCH  23  27
ENDBRANCH   3  19
TORSDOF 7
ENDMDL
MODEL 4
REMARK VINA RESULT:    -7.941      2.988      3.924
REMARK INTER + INTRA:         -11.663
REMARK INTER:                 -10.029
REMARK INTRA:                  -1.634
REMARK CONF_INDEPENDENT:        2.088
REMARK UNBOUND:                -1.634
REMARK  7 active torsions:
REMARK  status: ('A' for Active; 'I' for Inactive)
REMARK    1  A    between atoms: O_2  and  C_3 
REMARK       I    between atoms: C_3  and  N_5 
REMARK    2  A    between atoms: N_5  and  C_6 
REMARK    3  A    between atoms: C_6  and  C_7 
REMARK    4  A    between atoms: C_6  and  C_14 
REMARK    5  A    between atoms: C_7  and  C_8 
REMARK       I    between atoms: C_14  and  N_16 
REMARK    6  A    between atoms: N_16  and  C_17 
REMARK    7  A    between atoms: C_21  and  N_22 
ROOT
ATOM      1  C   UNL d   1      27.393 -15.418   0.749  0.00  0.00     0.245 C 
ATOM      2  O   UNL d   1      26.355 -14.765   0.594  0.00  0.00    -0.271 OA
ATOM      3  N   UNL d   1      28.354 -15.083   1.716  0.00  0.00    -0.325 N 
ATOM      4  H   UNL d   1      29.259 -15.543   1.729  0.00  0.00     0.169 HD
ENDROOT
BRANCH   1   5
ATOM      5  C   UNL d   1      27.646 -16.668  -0.166  0.00  0.00     0.183 C 
BRANCH   5   6
ATOM      6  N   UNL d   1      29.116 -17.066  -0.079  0.00  0.00    -0.323 N 
ATOM      7  C   UNL d   1      30.194 -16.220  -0.222  0.00  0.00     0.360 C 
ATOM      8  O   UNL d   1      30.101 -15.002  -0.250  0.00  0.00    -0.239 OA
ATOM      9  H   UNL d   1      29.309 -17.996   0.281  0.00  0.00     0.165 HD
BRANCH   7  10
ATOM     10  O   UNL d   1      31.437 -16.782  -0.308  0.00  0.00    -0.309 OA
ATOM     11  C   UNL d   1      31.908 -17.138   1.025  0.00  0.00     0.215 C 
ENDBRANCH   7  10
ENDBRANCH   5   6
BRANCH   5  12
ATOM     12  C   UNL d   1      26.683 -17.828   0.241  0.00  0.00     0.073 C 
BRANCH  12  13
ATOM     13  C   UNL d   1      25.263 -17.727  -0.289  0.00  0.00    -0.056 C 
ATOM     14  C   UNL d   1      24.898 -16.668  -1.127  0.00  0.00     0.007 C 
ATOM     15  C   UNL d   1      23.549 -16.317  -1.268  0.00  0.00     0.001 C 
ATOM     16  C   UNL d   1      22.554 -17.056  -0.634  0.00  0.00     0.000 C 
ATOM     17  C   UNL d   1      22.905 -18.190   0.083  0.00  0.00     0.001 C 
ATOM     18  C   UNL d   1      24.250 -18.570   0.190  0.00  0.00     0.007 C 
ENDBRANCH  12  13
ENDBRANCH   5  12
ENDBRANCH   1   5
BRANCH   3  19
ATOM     19  C   UNL d   1      28.185 -13.997   2.629  0.00  0.00     0.038 A 
ATOM     20  C   UNL d   1      28.502 -14.127   3.986  0.00  0.00     0.056 A 
ATOM     21  C   UNL d   1      28.259 -13.058   4.879  0.00  0.00     0.064 A 
ATOM     22 CL   UNL d   1      28.524 -13.326   6.573  0.00  0.00    -0.082 Cl
ATOM     23  C   UNL d   1      27.780 -11.811   4.434  0.00  0.00     0.070 A 
ATOM     24  C   UNL d   1      27.408 -11.731   3.083  0.00  0.00     0.064 A 
ATOM     25 CL   UNL d   1      26.634 -10.312   2.463  0.00  0.00    -0.082 Cl
ATOM     26  C   UNL d   1      27.623 -12.795   2.196  0.00  0.00     0.056 A 
BRANCH  23  27
ATOM     27  N   UNL d   1      27.470 -10.771   5.336  0.00  0.00    -0.396 N 
ATOM     28  H   UNL d   1      26.646 -10.221   5.104  0.00  0.00     0.156 HD
ATOM     29  H   UNL d   1      27.548 -11.018   6.322  0.00  0.00     0.156 HD
ENDBRANCH  23  27
ENDBRANCH   3  19
TORSDOF 7
ENDMDL
MODEL 5
REMARK VINA RESULT:    -7.870      2.962      3.819
REMARK INTER + INTRA:         -11.623
REMARK INTER:                  -9.958
REMARK INTRA:                  -1.665
REMARK CONF_INDEPENDENT:        2.088
REMARK UNBOUND:                -1.665
REMARK  7 active torsions:
REMARK  status: ('A' for Active; 'I' for Inactive)
REMARK    1  A    between atoms: O_2  and  C_3 
REMARK       I    between atoms: C_3  and  N_5 
REMARK    2  A    between atoms: N_5  and  C_6 
REMARK    3  A    between atoms: C_6  and  C_7 
REMARK    4  A    between atoms: C_6  and  C_14 
REMARK    5  A    between atoms: C_7  and  C_8 
REMARK       I    between atoms: C_14  and  N_16 
REMARK    6  A    between atoms: N_16  and  C_17 
REMARK    7  A    between atoms: C_21  and  N_22 
ROOT
ATOM      1  C   UNL d   1      27.380 -15.512   0.744  0.00  0.00     0.245 C 
ATOM      2  O   UNL d   1      26.325 -14.881   0.613  0.00  0.00    -0.271 OA
ATOM      3  N   UNL d   1      28.326 -15.200   1.732  0.00  0.00    -0.325 N 
ATOM      4  H   UNL d   1      29.243 -15.635   1.729  0.00  0.00     0.169 HD
ENDROOT
BRANCH   1   5
ATOM      5  C   UNL d   1      27.672 -16.708  -0.231  0.00  0.00     0.183 C 
BRANCH   5   6
ATOM      6  N   UNL d   1      29.147 -17.086  -0.134  0.00  0.00    -0.323 N 
ATOM      7  C   UNL d   1      30.213 -16.219  -0.231  0.00  0.00     0.360 C 
ATOM      8  O   UNL d   1      30.101 -15.002  -0.218  0.00  0.00    -0.239 OA
ATOM      9  H   UNL d   1      29.349 -18.025   0.195  0.00  0.00     0.165 HD
BRANCH   7  10
ATOM     10  O   UNL d   1      31.466 -16.758  -0.318  0.00  0.00    -0.309 OA
ATOM     11  C   UNL d   1      32.009 -16.955   1.021  0.00  0.00     0.215 C 
ENDBRANCH   7  10
ENDBRANCH   5   6
BRANCH   5  12
ATOM     12  C   UNL d   1      26.722 -17.904   0.096  0.00  0.00     0.073 C 
BRANCH  12  13
ATOM     13  C   UNL d   1      25.286 -17.756  -0.375  0.00  0.00    -0.056 C 
ATOM     14  C   UNL d   1      24.918 -16.678  -1.187  0.00  0.00     0.007 C 
ATOM     15  C   UNL d   1      23.576 -16.287  -1.270  0.00  0.00     0.001 C 
ATOM     16  C   UNL d   1      22.586 -17.004  -0.604  0.00  0.00     0.000 C 
ATOM     17  C   UNL d   1      22.932 -18.155   0.087  0.00  0.00     0.001 C 
ATOM     18  C   UNL d   1      24.268 -18.575   0.136  0.00  0.00     0.007 C 
ENDBRANCH  12  13
ENDBRANCH   5  12
ENDBRANCH   1   5
BRANCH   3  19
ATOM     19  C   UNL d   1      28.122 -14.165   2.696  0.00  0.00     0.038 A 
ATOM     20  C   UNL d   1      27.627 -12.909   2.327  0.00  0.00     0.056 A 
ATOM     21  C   UNL d   1      27.501 -11.882   3.291  0.00  0.00     0.064 A 
ATOM     22 CL   UNL d   1      27.030 -10.302   2.751  0.00  0.00    -0.082 Cl
ATOM     23  C   UNL d   1      27.780 -12.102   4.653  0.00  0.00     0.070 A 
ATOM     24  C   UNL d   1      28.338 -13.347   4.983  0.00  0.00     0.064 A 
ATOM     25 CL   UNL d   1      28.896 -13.667   6.591  0.00  0.00    -0.082 Cl
ATOM     26  C   UNL d   1      28.489 -14.363   4.029  0.00  0.00     0.056 A 
BRANCH  23  27
ATOM     27  N   UNL d   1      27.723 -11.057   5.600  0.00  0.00    -0.396 N 
ATOM     28  H   UNL d   1      26.957 -10.399   5.480  0.00  0.00     0.156 HD
ATOM     29  H   UNL d   1      27.888 -11.341   6.565  0.00  0.00     0.156 HD
ENDBRANCH  23  27
ENDBRANCH   3  19
TORSDOF 7
ENDMDL
MODEL 6
REMARK VINA RESULT:    -7.620      1.884      2.283
REMARK INTER + INTRA:         -11.370
REMARK INTER:                  -9.708
REMARK INTRA:                  -1.662
REMARK CONF_INDEPENDENT:        2.088
REMARK UNBOUND:                -1.662
REMARK  7 active torsions:
REMARK  status: ('A' for Active; 'I' for Inactive)
REMARK    1  A    between atoms: O_2  and  C_3 
REMARK       I    between atoms: C_3  and  N_5 
REMARK    2  A    between atoms: N_5  and  C_6 
REMARK    3  A    between atoms: C_6  and  C_7 
REMARK    4  A    between atoms: C_6  and  C_14 
REMARK    5  A    between atoms: C_7  and  C_8 
REMARK       I    between atoms: C_14  and  N_16 
REMARK    6  A    between atoms: N_16  and  C_17 
REMARK    7  A    between atoms: C_21  and  N_22 
ROOT
ATOM      1  C   UNL d   1      26.796 -14.161  -0.701  0.00  0.00     0.245 C 
ATOM      2  O   UNL d   1      27.729 -13.411  -1.009  0.00  0.00    -0.271 OA
ATOM      3  N   UNL d   1      26.253 -14.194   0.592  0.00  0.00    -0.325 N 
ATOM      4  H   UNL d   1      25.590 -14.915   0.859  0.00  0.00     0.169 HD
ENDROOT
BRANCH   1   5
ATOM      5  C   UNL d   1      26.195 -15.110  -1.798  0.00  0.00     0.183 C 
BRANCH   5   6
ATOM      6  N   UNL d   1      26.992 -14.957  -3.089  0.00  0.00    -0.323 N 
ATOM      7  C   UNL d   1      26.525 -15.197  -4.363  0.00  0.00     0.360 C 
ATOM      8  O   UNL d   1      25.347 -15.382  -4.630  0.00  0.00    -0.239 OA
ATOM      9  H   UNL d   1      27.885 -14.478  -3.011  0.00  0.00     0.165 HD
BRANCH   7  10
ATOM     10  O   UNL d   1      27.433 -15.197  -5.384  0.00  0.00    -0.309 OA
ATOM     11  C   UNL d   1      28.754 -15.531  -4.867  0.00  0.00     0.215 C 
ENDBRANCH   7  10
ENDBRANCH   5   6
BRANCH   5  12
ATOM     12  C   UNL d   1      26.176 -16.582  -1.274  0.00  0.00     0.073 C 
BRANCH  12  13
ATOM     13  C   UNL d   1      24.845 -17.075  -0.733  0.00  0.00    -0.056 C 
ATOM     14  C   UNL d   1      24.727 -18.378  -0.237  0.00  0.00     0.007 C 
ATOM     15  C   UNL d   1      23.467 -18.982  -0.145  0.00  0.00     0.001 C 
ATOM     16  C   UNL d   1      22.315 -18.275  -0.479  0.00  0.00     0.000 C 
ATOM     17  C   UNL d   1      22.420 -16.940  -0.837  0.00  0.00     0.001 C 
ATOM     18  C   UNL d   1      23.675 -16.318  -0.888  0.00  0.00     0.007 C 
ENDBRANCH  12  13
ENDBRANCH   5  12
ENDBRANCH   1   5
BRANCH   3  19
ATOM     19  C   UNL d   1      26.699 -13.330   1.639  0.00  0.00     0.038 A 
ATOM     20  C   UNL d   1      26.517 -11.944   1.570  0.00  0.00     0.056 A 
ATOM     21  C   UNL d   1      27.031 -11.107   2.587  0.00  0.00     0.064 A 
ATOM     22 CL   UNL d   1      26.914  -9.388   2.375  0.00  0.00    -0.082 Cl
ATOM     23  C   UNL d   1      27.656 -11.629   3.735  0.00  0.00     0.070 A 
ATOM     24  C   UNL d   1      27.884 -13.014   3.746  0.00  0.00     0.064 A 
ATOM     25 CL   UNL d   1      28.809 -13.747   5.014  0.00  0.00    -0.082 Cl
ATOM     26  C   UNL d   1      27.400 -13.848   2.729  0.00  0.00     0.056 A 
BRANCH  23  27
ATOM     27  N   UNL d   1      28.231 -10.790   4.713  0.00  0.00    -0.396 N 
ATOM     28  H   UNL d   1      27.599 -10.473   5.445  0.00  0.00     0.156 HD
ATOM     29  H   UNL d   1      29.148 -11.083   5.047  0.00  0.00     0.156 HD
ENDBRANCH  23  27
ENDBRANCH   3  19
TORSDOF 7
ENDMDL
MODEL 7
REMARK VINA RESULT:    -7.165      4.398      5.951
REMARK INTER + INTRA:         -11.123
REMARK INTER:                  -9.253
REMARK INTRA:                  -1.870
REMARK CONF_INDEPENDENT:        2.088
REMARK UNBOUND:                -1.870
REMARK  7 active torsions:
REMARK  status: ('A' for Active; 'I' for Inactive)
REMARK    1  A    between atoms: O_2  and  C_3 
REMARK       I    between atoms: C_3  and  N_5 
REMARK    2  A    between atoms: N_5  and  C_6 
REMARK    3  A    between atoms: C_6  and  C_7 
REMARK    4  A    between atoms: C_6  and  C_14 
REMARK    5  A    between atoms: C_7  and  C_8 
REMARK       I    between atoms: C_14  and  N_16 
REMARK    6  A    between atoms: N_16  and  C_17 
REMARK    7  A    between atoms: C_21  and  N_22 
ROOT
ATOM      1  C   UNL d   1      25.353 -13.719  -3.765  0.00  0.00     0.245 C 
ATOM      2  O   UNL d   1      24.177 -13.356  -3.879  0.00  0.00    -0.271 OA
ATOM      3  N   UNL d   1      26.410 -12.807  -3.617  0.00  0.00    -0.325 N 
ATOM      4  H   UNL d   1      27.374 -13.118  -3.670  0.00  0.00     0.169 HD
ENDROOT
BRANCH   1   5
ATOM      5  C   UNL d   1      25.678 -15.255  -3.786  0.00  0.00     0.183 C 
BRANCH   5   6
ATOM      6  N   UNL d   1      26.516 -15.575  -5.019  0.00  0.00    -0.323 N 
ATOM      7  C   UNL d   1      27.787 -15.108  -5.277  0.00  0.00     0.360 C 
ATOM      8  O   UNL d   1      28.477 -14.526  -4.453  0.00  0.00    -0.239 OA
ATOM      9  H   UNL d   1      26.175 -16.325  -5.612  0.00  0.00     0.165 HD
BRANCH   7  10
ATOM     10  O   UNL d   1      28.309 -15.338  -6.519  0.00  0.00    -0.309 OA
ATOM     11  C   UNL d   1      29.124 -14.200  -6.928  0.00  0.00     0.215 C 
ENDBRANCH   7  10
ENDBRANCH   5   6
BRANCH   5  12
ATOM     12  C   UNL d   1      26.383 -15.666  -2.455  0.00  0.00     0.073 C 
BRANCH  12  13
ATOM     13  C   UNL d   1      25.509 -16.371  -1.432  0.00  0.00    -0.056 C 
ATOM     14  C   UNL d   1      26.081 -17.240  -0.497  0.00  0.00     0.007 C 
ATOM     15  C   UNL d   1      25.289 -18.201   0.144  0.00  0.00     0.001 C 
ATOM     16  C   UNL d   1      23.918 -18.260  -0.088  0.00  0.00     0.000 C 
ATOM     17  C   UNL d   1      23.328 -17.310  -0.907  0.00  0.00     0.001 C 
ATOM     18  C   UNL d   1      24.111 -16.318  -1.516  0.00  0.00     0.007 C 
ENDBRANCH  12  13
ENDBRANCH   5  12
ENDBRANCH   1   5
BRANCH   3  19
ATOM     19  C   UNL d   1      26.206 -11.396  -3.533  0.00  0.00     0.038 A 
ATOM     20  C   UNL d   1      26.587 -10.668  -2.399  0.00  0.00     0.056 A 
ATOM     21  C   UNL d   1      26.309  -9.284  -2.315  0.00  0.00     0.064 A 
ATOM     22 CL   UNL d   1      26.662  -8.463  -0.828  0.00  0.00    -0.082 Cl
ATOM     23  C   UNL d   1      25.728  -8.575  -3.385  0.00  0.00     0.070 A 
ATOM     24  C   UNL d   1      25.296  -9.341  -4.479  0.00  0.00     0.064 A 
ATOM     25 CL   UNL d   1      24.401  -8.610  -5.769  0.00  0.00    -0.082 Cl
ATOM     26  C   UNL d   1      25.546 -10.718  -4.559  0.00  0.00     0.056 A 
BRANCH  23  27
ATOM     27  N   UNL d   1      25.387  -7.211  -3.271  0.00  0.00    -0.396 N 
ATOM     28  H   UNL d   1      24.402  -7.019  -3.103  0.00  0.00     0.156 HD
ATOM     29  H   UNL d   1      26.027  -6.652  -2.709  0.00  0.00     0.156 HD
ENDBRANCH  23  27
ENDBRANCH   3  19
TORSDOF 7
ENDMDL
MODEL 8
REMARK VINA RESULT:    -6.960      4.326      5.738
REMARK INTER + INTRA:         -10.920
REMARK INTER:                  -9.048
REMARK INTRA:                  -1.872
REMARK CONF_INDEPENDENT:        2.088
REMARK UNBOUND:                -1.872
REMARK  7 active torsions:
REMARK  status: ('A' for Active; 'I' for Inactive)
REMARK    1  A    between atoms: O_2  and  C_3 
REMARK       I    between atoms: C_3  and  N_5 
REMARK    2  A    between atoms: N_5  and  C_6 
REMARK    3  A    between atoms: C_6  and  C_7 
REMARK    4  A    between atoms: C_6  and  C_14 
REMARK    5  A    between atoms: C_7  and  C_8 
REMARK       I    between atoms: C_14  and  N_16 
REMARK    6  A    between atoms: N_16  and  C_17 
REMARK    7  A    between atoms: C_21  and  N_22 
ROOT
ATOM      1  C   UNL d   1      25.397 -13.805  -3.744  0.00  0.00     0.245 C 
ATOM      2  O   UNL d   1      24.219 -13.464  -3.894  0.00  0.00    -0.271 OA
ATOM      3  N   UNL d   1      26.423 -12.879  -3.496  0.00  0.00    -0.325 N 
ATOM      4  H   UNL d   1      27.396 -13.164  -3.520  0.00  0.00     0.169 HD
ENDROOT
BRANCH   1   5
ATOM      5  C   UNL d   1      25.761 -15.330  -3.831  0.00  0.00     0.183 C 
BRANCH   5   6
ATOM      6  N   UNL d   1      26.603 -15.575  -5.079  0.00  0.00    -0.323 N 
ATOM      7  C   UNL d   1      27.852 -15.047  -5.330  0.00  0.00     0.360 C 
ATOM      8  O   UNL d   1      28.523 -14.464  -4.491  0.00  0.00    -0.239 OA
ATOM      9  H   UNL d   1      26.289 -16.319  -5.694  0.00  0.00     0.165 HD
BRANCH   7  10
ATOM     10  O   UNL d   1      28.374 -15.215  -6.581  0.00  0.00    -0.309 OA
ATOM     11  C   UNL d   1      29.372 -14.185  -6.840  0.00  0.00     0.215 C 
ENDBRANCH   7  10
ENDBRANCH   5   6
BRANCH   5  12
ATOM     12  C   UNL d   1      26.482 -15.780  -2.521  0.00  0.00     0.073 C 
BRANCH  12  13
ATOM     13  C   UNL d   1      25.598 -16.419  -1.464  0.00  0.00    -0.056 C 
ATOM     14  C   UNL d   1      26.145 -17.307  -0.532  0.00  0.00     0.007 C 
ATOM     15  C   UNL d   1      25.317 -18.212   0.144  0.00  0.00     0.001 C 
ATOM     16  C   UNL d   1      23.939 -18.194  -0.049  0.00  0.00     0.000 C 
ATOM     17  C   UNL d   1      23.382 -17.222  -0.866  0.00  0.00     0.001 C 
ATOM     18  C   UNL d   1      24.203 -16.286  -1.511  0.00  0.00     0.007 C 
ENDBRANCH  12  13
ENDBRANCH   5  12
ENDBRANCH   1   5
BRANCH   3  19
ATOM     19  C   UNL d   1      26.179 -11.479  -3.347  0.00  0.00     0.038 A 
ATOM     20  C   UNL d   1      25.530 -10.740  -4.342  0.00  0.00     0.056 A 
ATOM     21  C   UNL d   1      25.365  -9.343  -4.198  0.00  0.00     0.064 A 
ATOM     22 CL   UNL d   1      24.694  -8.453  -5.527  0.00  0.00    -0.082 Cl
ATOM     23  C   UNL d   1      25.760  -8.664  -3.029  0.00  0.00     0.070 A 
ATOM     24  C   UNL d   1      26.467  -9.417  -2.079  0.00  0.00     0.064 A 
ATOM     25 CL   UNL d   1      27.166  -8.654  -0.690  0.00  0.00    -0.082 Cl
ATOM     26  C   UNL d   1      26.657 -10.798  -2.226  0.00  0.00     0.056 A 
BRANCH  23  27
ATOM     27  N   UNL d   1      25.660  -7.260  -2.917  0.00  0.00    -0.396 N 
ATOM     28  H   UNL d   1      24.726  -6.901  -2.735  0.00  0.00     0.156 HD
ATOM     29  H   UNL d   1      26.396  -6.819  -2.368  0.00  0.00     0.156 HD
ENDBRANCH  23  27
ENDBRANCH   3  19
TORSDOF 7
ENDMDL
MODEL 9
REMARK VINA RESULT:    -6.654      3.929      6.395
REMARK INTER + INTRA:         -10.811
REMARK INTER:                  -8.742
REMARK INTRA:                  -2.070
REMARK CONF_INDEPENDENT:        2.088
REMARK UNBOUND:                -2.070
REMARK  7 active torsions:
REMARK  status: ('A' for Active; 'I' for Inactive)
REMARK    1  A    between atoms: O_2  and  C_3 
REMARK       I    between atoms: C_3  and  N_5 
REMARK    2  A    between atoms: N_5  and  C_6 
REMARK    3  A    between atoms: C_6  and  C_7 
REMARK    4  A    between atoms: C_6  and  C_14 
REMARK    5  A    between atoms: C_7  and  C_8 
REMARK       I    between atoms: C_14  and  N_16 
REMARK    6  A    between atoms: N_16  and  C_17 
REMARK    7  A    between atoms: C_21  and  N_22 
ROOT
ATOM      1  C   UNL d   1      25.784 -14.461  -4.286  0.00  0.00     0.245 C 
ATOM      2  O   UNL d   1      25.270 -15.451  -4.817  0.00  0.00    -0.271 OA
ATOM      3  N   UNL d   1      25.924 -14.342  -2.895  0.00  0.00    -0.325 N 
ATOM      4  H   UNL d   1      26.215 -13.465  -2.475  0.00  0.00     0.169 HD
ENDROOT
BRANCH   1   5
ATOM      5  C   UNL d   1      26.302 -13.294  -5.200  0.00  0.00     0.183 C 
BRANCH   5   6
ATOM      6  N   UNL d   1      25.766 -11.967  -4.672  0.00  0.00    -0.323 N 
ATOM      7  C   UNL d   1      26.203 -11.308  -3.543  0.00  0.00     0.360 C 
ATOM      8  O   UNL d   1      27.211 -11.616  -2.925  0.00  0.00    -0.239 OA
ATOM      9  H   UNL d   1      25.155 -11.448  -5.297  0.00  0.00     0.165 HD
BRANCH   7  10
ATOM     10  O   UNL d   1      25.477 -10.233  -3.113  0.00  0.00    -0.309 OA
ATOM     11  C   UNL d   1      25.148  -9.377  -4.246  0.00  0.00     0.215 C 
ENDBRANCH   7  10
ENDBRANCH   5   6
BRANCH   5  12
ATOM     12  C   UNL d   1      27.862 -13.327  -5.271  0.00  0.00     0.073 C 
BRANCH  12  13
ATOM     13  C   UNL d   1      28.493 -14.706  -5.331  0.00  0.00    -0.056 C 
ATOM     14  C   UNL d   1      28.683 -15.445  -4.158  0.00  0.00     0.007 C 
ATOM     15  C   UNL d   1      29.622 -16.484  -4.128  0.00  0.00     0.001 C 
ATOM     16  C   UNL d   1      30.325 -16.839  -5.276  0.00  0.00     0.000 C 
ATOM     17  C   UNL d   1      30.035 -16.201  -6.472  0.00  0.00     0.001 C 
ATOM     18  C   UNL d   1      29.065 -15.190  -6.517  0.00  0.00     0.007 C 
ENDBRANCH  12  13
ENDBRANCH   5  12
ENDBRANCH   1   5
BRANCH   3  19
ATOM     19  C   UNL d   1      25.533 -15.375  -1.988  0.00  0.00     0.038 A 
ATOM     20  C   UNL d   1      26.480 -16.146  -1.305  0.00  0.00     0.056 A 
ATOM     21  C   UNL d   1      26.065 -17.207  -0.468  0.00  0.00     0.064 A 
ATOM     22 CL   UNL d   1      27.282 -18.227   0.232  0.00  0.00    -0.082 Cl
ATOM     23  C   UNL d   1      24.704 -17.472  -0.222  0.00  0.00     0.070 A 
ATOM     24  C   UNL d   1      23.778 -16.728  -0.971  0.00  0.00     0.064 A 
ATOM     25 CL   UNL d   1      22.086 -17.091  -0.895  0.00  0.00    -0.082 Cl
ATOM     26  C   UNL d   1      24.183 -15.691  -1.822  0.00  0.00     0.056 A 
BRANCH  23  27
ATOM     27  N   UNL d   1      24.291 -18.575   0.555  0.00  0.00    -0.396 N 
ATOM     28  H   UNL d   1      23.579 -18.377   1.254  0.00  0.00     0.156 HD
ATOM     29  H   UNL d   1      24.141 -19.437   0.033  0.00  0.00     0.156 HD
ENDBRANCH  23  27
ENDBRANCH   3  19
TORSDOF 7
ENDMDL
