MODEL 1
REMARK VINA RESULT:    -9.099      0.000      0.000
REMARK INTER + INTRA:         -15.743
REMARK INTER:                 -12.082
REMARK INTRA:                  -3.661
REMARK CONF_INDEPENDENT:        2.983
REMARK UNBOUND:                -3.661
REMARK  10 active torsions:
REMARK  status: ('A' for Active; 'I' for Inactive)
REMARK    1  A    between atoms: C_2  and  O_3 
REMARK    2  A    between atoms: O_3  and  C_4 
REMARK    3  A    between atoms: C_4  and  C_6 
REMARK    4  A    between atoms: C_6  and  N_7 
REMARK    5  A    between atoms: C_12  and  C_11 
REMARK    6  A    between atoms: N_15  and  C_12 
REMARK    7  A    between atoms: C_12  and  C_13 
REMARK    8  A    between atoms: N_15  and  C_30 
REMARK    9  A    between atoms: N_15  and  C_16 
REMARK   10  A    between atoms: C_16  and  C_17 
ROOT
ATOM      1  N   UNL d   1      29.579 -15.130  -4.479  0.00  0.00    -0.052 N 
ATOM      2  H   UNL d   1      28.823 -15.761  -4.353  0.00  0.00     0.281 HD
ENDROOT
BRANCH   1   3
ATOM      3  C   UNL d   1      30.609 -15.715  -5.454  0.00  0.00     0.189 C 
ATOM      4  C   UNL d   1      30.243 -17.170  -5.646  0.00  0.00     0.033 C 
ATOM      5  C   UNL d   1      31.463 -17.835  -6.226  0.00  0.00     0.002 C 
ATOM      6  C   UNL d   1      31.551 -17.290  -7.639  0.00  0.00     0.000 C 
ATOM      7  C   UNL d   1      31.816 -15.783  -7.652  0.00  0.00     0.002 C 
ATOM      8  C   UNL d   1      30.760 -15.019  -6.836  0.00  0.00     0.033 C 
ENDBRANCH   1   3
BRANCH   1   9
ATOM      9  C   UNL d   1      29.930 -15.328  -3.059  0.00  0.00     0.280 C 
BRANCH   9  10
ATOM     10  C   UNL d   1      28.834 -15.925  -2.278  0.00  0.00     0.036 A 
ATOM     11  C   UNL d   1      27.517 -15.720  -2.439  0.00  0.00     0.028 A 
ATOM     12  C   UNL d   1      26.526 -16.381  -1.665  0.00  0.00    -0.008 A 
ATOM     13  C   UNL d   1      25.176 -16.172  -1.953  0.00  0.00     0.014 C 
ATOM     14  C   UNL d   1      26.979 -17.254  -0.695  0.00  0.00     0.051 A 
ATOM     15  C   UNL d   1      24.267 -17.005  -1.353  0.00  0.00     0.008 C 
ATOM     16  C   UNL d   1      24.684 -17.768  -0.255  0.00  0.00    -0.054 C 
ATOM     17  C   UNL d   1      23.647 -18.405   0.605  0.00  0.00     0.049 C 
ATOM     18  C   UNL d   1      26.046 -17.870   0.102  0.00  0.00    -0.028 C 
ATOM     19  C   UNL d   1      26.526 -18.575   1.327  0.00  0.00     0.051 C 
ATOM     20  N   UNL d   1      28.362 -17.483  -0.538  0.00  0.00    -0.322 N 
ATOM     21  C   UNL d   1      29.299 -16.907  -1.307  0.00  0.00     0.253 A 
ATOM     22  H   UNL d   1      28.702 -18.157   0.134  0.00  0.00     0.169 HD
ATOM     23  O   UNL d   1      30.523 -17.174  -1.240  0.00  0.00    -0.268 OA
ENDBRANCH   9  10
ENDBRANCH   1   9
BRANCH   1  24
ATOM     24  C   UNL d   1      28.731 -13.943  -5.049  0.00  0.00     0.261 C 
BRANCH  24  25
ATOM     25  C   UNL d   1      29.122 -12.713  -4.024  0.00  0.00     0.037 C 
ATOM     26  C   UNL d   1      29.718 -11.531  -4.797  0.00  0.00     0.007 C 
ENDBRANCH  24  25
BRANCH  24  27
ATOM     27  C   UNL d   1      27.283 -14.349  -5.076  0.00  0.00     0.179 C 
ATOM     28  N   UNL d   1      26.833 -15.548  -5.366  0.00  0.00    -0.112 NA
ATOM     29  N   UNL d   1      25.530 -15.631  -5.031  0.00  0.00    -0.023 NA
ATOM     30  N   UNL d   1      25.095 -14.440  -4.686  0.00  0.00    -0.044 NA
ATOM     31  N   UNL d   1      26.171 -13.642  -4.766  0.00  0.00    -0.223 N 
BRANCH  31  32
ATOM     32  C   UNL d   1      26.033 -12.233  -4.626  0.00  0.00     0.265 C 
BRANCH  32  33
ATOM     33  C   UNL d   1      26.080 -11.622  -5.986  0.00  0.00     0.278 C 
ATOM     34  O   UNL d   1      25.155 -11.021  -6.520  0.00  0.00    -0.263 OA
BRANCH  33  35
ATOM     35  O   UNL d   1      27.239 -11.967  -6.597  0.00  0.00    -0.321 OA
BRANCH  35  36
ATOM     36  C   UNL d   1      27.351 -11.417  -7.911  0.00  0.00     0.174 C 
ATOM     37  C   UNL d   1      28.493 -12.109  -8.618  0.00  0.00     0.034 C 
ENDBRANCH  35  36
ENDBRANCH  33  35
ENDBRANCH  32  33
ENDBRANCH  31  32
ENDBRANCH  24  27
ENDBRANCH   1  24
TORSDOF 10
ENDMDL
MODEL 2
REMARK VINA RESULT:    -9.046      2.064      7.292
REMARK INTER + INTRA:         -16.471
REMARK INTER:                 -12.029
REMARK INTRA:                  -4.441
REMARK CONF_INDEPENDENT:        2.983
REMARK UNBOUND:                -4.441
REMARK  10 active torsions:
REMARK  status: ('A' for Active; 'I' for Inactive)
REMARK    1  A    between atoms: C_2  and  O_3 
REMARK    2  A    between atoms: O_3  and  C_4 
REMARK    3  A    between atoms: C_4  and  C_6 
REMARK    4  A    between atoms: C_6  and  N_7 
REMARK    5  A    between atoms: C_12  and  C_11 
REMARK    6  A    between atoms: N_15  and  C_12 
REMARK    7  A    between atoms: C_12  and  C_13 
REMARK    8  A    between atoms: N_15  and  C_30 
REMARK    9  A    between atoms: N_15  and  C_16 
REMARK   10  A    between atoms: C_16  and  C_17 
ROOT
ATOM      1  N   UNL d   1      26.358 -15.599  -2.153  0.00  0.00    -0.052 N 
ATOM      2  H   UNL d   1      25.975 -15.350  -3.033  0.00  0.00     0.281 HD
ENDROOT
BRANCH   1   3
ATOM      3  C   UNL d   1      25.561 -16.750  -1.526  0.00  0.00     0.189 C 
ATOM      4  C   UNL d   1      26.186 -17.022  -0.176  0.00  0.00     0.033 C 
ATOM      5  C   UNL d   1      25.711 -18.390   0.236  0.00  0.00     0.002 C 
ATOM      6  C   UNL d   1      24.239 -18.200   0.545  0.00  0.00     0.000 C 
ATOM      7  C   UNL d   1      23.441 -17.808  -0.701  0.00  0.00     0.002 C 
ATOM      8  C   UNL d   1      24.026 -16.554  -1.371  0.00  0.00     0.033 C 
ENDBRANCH   1   3
BRANCH   1   9
ATOM      9  C   UNL d   1      25.968 -14.267  -1.650  0.00  0.00     0.280 C 
BRANCH   9  10
ATOM     10  C   UNL d   1      26.230 -13.191  -2.622  0.00  0.00     0.036 A 
ATOM     11  C   UNL d   1      27.255 -12.323  -2.615  0.00  0.00     0.028 A 
ATOM     12  C   UNL d   1      27.452 -11.345  -3.626  0.00  0.00    -0.008 A 
ATOM     13  C   UNL d   1      28.589 -10.536  -3.588  0.00  0.00     0.014 C 
ATOM     14  C   UNL d   1      26.512 -11.302  -4.638  0.00  0.00     0.051 A 
ATOM     15  C   UNL d   1      28.865  -9.783  -4.699  0.00  0.00     0.008 C 
ATOM     16  C   UNL d   1      27.851  -9.597  -5.648  0.00  0.00    -0.054 C 
ATOM     17  C   UNL d   1      28.019  -8.524  -6.668  0.00  0.00     0.049 C 
ATOM     18  C   UNL d   1      26.649 -10.335  -5.603  0.00  0.00    -0.028 C 
ATOM     19  C   UNL d   1      25.498 -10.091  -6.520  0.00  0.00     0.051 C 
ATOM     20  N   UNL d   1      25.446 -12.226  -4.654  0.00  0.00    -0.322 N 
ATOM     21  C   UNL d   1      25.289 -13.191  -3.734  0.00  0.00     0.253 A 
ATOM     22  H   UNL d   1      24.782 -12.236  -5.415  0.00  0.00     0.169 HD
ATOM     23  O   UNL d   1      24.401 -14.075  -3.789  0.00  0.00    -0.268 OA
ENDBRANCH   9  10
ENDBRANCH   1   9
BRANCH   1  24
ATOM     24  C   UNL d   1      27.781 -15.991  -2.677  0.00  0.00     0.261 C 
BRANCH  24  25
ATOM     25  C   UNL d   1      28.765 -15.037  -1.762  0.00  0.00     0.037 C 
ATOM     26  C   UNL d   1      29.445 -15.858  -0.660  0.00  0.00     0.007 C 
ENDBRANCH  24  25
BRANCH  24  27
ATOM     27  C   UNL d   1      27.831 -15.762  -4.163  0.00  0.00     0.179 C 
ATOM     28  N   UNL d   1      26.789 -15.575  -4.941  0.00  0.00    -0.112 NA
ATOM     29  N   UNL d   1      27.204 -15.133  -6.145  0.00  0.00    -0.023 NA
ATOM     30  N   UNL d   1      28.514 -15.200  -6.204  0.00  0.00    -0.044 NA
ATOM     31  N   UNL d   1      28.893 -15.638  -4.993  0.00  0.00    -0.223 N 
BRANCH  31  32
ATOM     32  C   UNL d   1      30.249 -15.995  -4.749  0.00  0.00     0.265 C 
BRANCH  32  33
ATOM     33  C   UNL d   1      30.307 -17.466  -4.509  0.00  0.00     0.278 C 
ATOM     34  O   UNL d   1      30.684 -17.995  -3.469  0.00  0.00    -0.263 OA
BRANCH  33  35
ATOM     35  O   UNL d   1      30.032 -18.124  -5.660  0.00  0.00    -0.321 OA
BRANCH  35  36
ATOM     36  C   UNL d   1      30.436 -19.495  -5.619  0.00  0.00     0.174 C 
ATOM     37  C   UNL d   1      30.680 -19.958  -7.037  0.00  0.00     0.034 C 
ENDBRANCH  35  36
ENDBRANCH  33  35
ENDBRANCH  32  33
ENDBRANCH  31  32
ENDBRANCH  24  27
ENDBRANCH   1  24
TORSDOF 10
ENDMDL
MODEL 3
REMARK VINA RESULT:    -8.718      3.079      7.174
REMARK INTER + INTRA:         -15.246
REMARK INTER:                 -11.701
REMARK INTRA:                  -3.544
REMARK CONF_INDEPENDENT:        2.983
REMARK UNBOUND:                -3.544
REMARK  10 active torsions:
REMARK  status: ('A' for Active; 'I' for Inactive)
REMARK    1  A    between atoms: C_2  and  O_3 
REMARK    2  A    between atoms: O_3  and  C_4 
REMARK    3  A    between atoms: C_4  and  C_6 
REMARK    4  A    between atoms: C_6  and  N_7 
REMARK    5  A    between atoms: C_12  and  C_11 
REMARK    6  A    between atoms: N_15  and  C_12 
REMARK    7  A    between atoms: C_12  and  C_13 
REMARK    8  A    between atoms: N_15  and  C_30 
REMARK    9  A    between atoms: N_15  and  C_16 
REMARK   10  A    between atoms: C_16  and  C_17 
ROOT
ATOM      1  N   UNL d   1      27.834 -15.187  -1.704  0.00  0.00    -0.052 N 
ATOM      2  H   UNL d   1      27.883 -16.163  -1.878  0.00  0.00     0.281 HD
ENDROOT
BRANCH   1   3
ATOM      3  C   UNL d   1      26.957 -14.497  -2.758  0.00  0.00     0.189 C 
ATOM      4  C   UNL d   1      26.058 -15.566  -3.337  0.00  0.00     0.033 C 
ATOM      5  C   UNL d   1      25.529 -15.010  -4.633  0.00  0.00     0.002 C 
ATOM      6  C   UNL d   1      24.571 -13.915  -4.208  0.00  0.00     0.000 C 
ATOM      7  C   UNL d   1      25.294 -12.771  -3.494  0.00  0.00     0.002 C 
ATOM      8  C   UNL d   1      26.107 -13.281  -2.293  0.00  0.00     0.033 C 
ENDBRANCH   1   3
BRANCH   1   9
ATOM      9  C   UNL d   1      29.280 -15.104  -1.990  0.00  0.00     0.280 C 
BRANCH   9  10
ATOM     10  C   UNL d   1      29.673 -15.886  -3.174  0.00  0.00     0.036 A 
ATOM     11  C   UNL d   1      30.042 -15.412  -4.375  0.00  0.00     0.028 A 
ATOM     12  C   UNL d   1      30.454 -16.247  -5.448  0.00  0.00    -0.008 A 
ATOM     13  C   UNL d   1      30.900 -15.667  -6.637  0.00  0.00     0.014 C 
ATOM     14  C   UNL d   1      30.442 -17.608  -5.214  0.00  0.00     0.051 A 
ATOM     15  C   UNL d   1      31.512 -16.489  -7.548  0.00  0.00     0.008 C 
ATOM     16  C   UNL d   1      31.357 -17.873  -7.407  0.00  0.00    -0.054 C 
ATOM     17  C   UNL d   1      31.720 -18.751  -8.556  0.00  0.00     0.049 C 
ATOM     18  C   UNL d   1      30.788 -18.442  -6.248  0.00  0.00    -0.028 C 
ATOM     19  C   UNL d   1      30.498 -19.898  -6.101  0.00  0.00     0.051 C 
ATOM     20  N   UNL d   1      30.072 -18.105  -3.946  0.00  0.00    -0.322 N 
ATOM     21  C   UNL d   1      29.741 -17.318  -2.910  0.00  0.00     0.253 A 
ATOM     22  H   UNL d   1      30.108 -19.095  -3.748  0.00  0.00     0.169 HD
ATOM     23  O   UNL d   1      29.502 -17.742  -1.754  0.00  0.00    -0.268 OA
ENDBRANCH   9  10
ENDBRANCH   1   9
BRANCH   1  24
ATOM     24  C   UNL d   1      27.195 -15.288  -0.277  0.00  0.00     0.261 C 
BRANCH  24  25
ATOM     25  C   UNL d   1      28.431 -14.795   0.694  0.00  0.00     0.037 C 
ATOM     26  C   UNL d   1      28.047 -13.521   1.456  0.00  0.00     0.007 C 
ENDBRANCH  24  25
BRANCH  24  27
ATOM     27  C   UNL d   1      26.704 -16.694  -0.064  0.00  0.00     0.179 C 
ATOM     28  N   UNL d   1      27.460 -17.732   0.213  0.00  0.00    -0.112 NA
ATOM     29  N   UNL d   1      26.682 -18.760   0.607  0.00  0.00    -0.023 NA
ATOM     30  N   UNL d   1      25.420 -18.445   0.420  0.00  0.00    -0.044 NA
ATOM     31  N   UNL d   1      25.443 -17.185  -0.043  0.00  0.00    -0.223 N 
BRANCH  31  32
ATOM     32  C   UNL d   1      24.250 -16.573  -0.520  0.00  0.00     0.265 C 
BRANCH  32  33
ATOM     33  C   UNL d   1      23.374 -17.639  -1.087  0.00  0.00     0.278 C 
ATOM     34  O   UNL d   1      23.655 -18.342  -2.051  0.00  0.00    -0.263 OA
BRANCH  33  35
ATOM     35  O   UNL d   1      22.167 -17.606  -0.475  0.00  0.00    -0.321 OA
BRANCH  35  36
ATOM     36  C   UNL d   1      21.684 -18.909  -0.140  0.00  0.00     0.174 C 
ATOM     37  C   UNL d   1      20.355 -19.113  -0.829  0.00  0.00     0.034 C 
ENDBRANCH  35  36
ENDBRANCH  33  35
ENDBRANCH  32  33
ENDBRANCH  31  32
ENDBRANCH  24  27
ENDBRANCH   1  24
TORSDOF 10
ENDMDL
MODEL 4
REMARK VINA RESULT:    -8.591      1.309      2.034
REMARK INTER + INTRA:         -15.747
REMARK INTER:                 -11.574
REMARK INTRA:                  -4.173
REMARK CONF_INDEPENDENT:        2.983
REMARK UNBOUND:                -4.173
REMARK  10 active torsions:
REMARK  status: ('A' for Active; 'I' for Inactive)
REMARK    1  A    between atoms: C_2  and  O_3 
REMARK    2  A    between atoms: O_3  and  C_4 
REMARK    3  A    between atoms: C_4  and  C_6 
REMARK    4  A    between atoms: C_6  and  N_7 
REMARK    5  A    between atoms: C_12  and  C_11 
REMARK    6  A    between atoms: N_15  and  C_12 
REMARK    7  A    between atoms: C_12  and  C_13 
REMARK    8  A    between atoms: N_15  and  C_30 
REMARK    9  A    between atoms: N_15  and  C_16 
REMARK   10  A    between atoms: C_16  and  C_17 
ROOT
ATOM      1  N   UNL d   1      29.607 -15.122  -4.626  0.00  0.00    -0.052 N 
ATOM      2  H   UNL d   1      28.859 -15.754  -4.471  0.00  0.00     0.281 HD
ENDROOT
BRANCH   1   3
ATOM      3  C   UNL d   1      30.662 -15.753  -5.545  0.00  0.00     0.189 C 
ATOM      4  C   UNL d   1      30.047 -17.018  -6.101  0.00  0.00     0.033 C 
ATOM      5  C   UNL d   1      31.192 -17.842  -6.629  0.00  0.00     0.002 C 
ATOM      6  C   UNL d   1      31.659 -17.089  -7.860  0.00  0.00     0.000 C 
ATOM      7  C   UNL d   1      32.226 -15.713  -7.505  0.00  0.00     0.002 C 
ATOM      8  C   UNL d   1      31.214 -14.877  -6.705  0.00  0.00     0.033 C 
ENDBRANCH   1   3
BRANCH   1   9
ATOM      9  C   UNL d   1      29.938 -15.221  -3.191  0.00  0.00     0.280 C 
BRANCH   9  10
ATOM     10  C   UNL d   1      28.854 -15.822  -2.396  0.00  0.00     0.036 A 
ATOM     11  C   UNL d   1      27.538 -15.571  -2.496  0.00  0.00     0.028 A 
ATOM     12  C   UNL d   1      26.557 -16.239  -1.715  0.00  0.00    -0.008 A 
ATOM     13  C   UNL d   1      25.204 -15.978  -1.941  0.00  0.00     0.014 C 
ATOM     14  C   UNL d   1      27.019 -17.170  -0.805  0.00  0.00     0.051 A 
ATOM     15  C   UNL d   1      24.294 -16.811  -1.345  0.00  0.00     0.008 C 
ATOM     16  C   UNL d   1      24.728 -17.637  -0.301  0.00  0.00    -0.054 C 
ATOM     17  C   UNL d   1      23.704 -18.284   0.568  0.00  0.00     0.049 C 
ATOM     18  C   UNL d   1      26.098 -17.796  -0.002  0.00  0.00    -0.028 C 
ATOM     19  C   UNL d   1      26.601 -18.573   1.168  0.00  0.00     0.051 C 
ATOM     20  N   UNL d   1      28.400 -17.447  -0.714  0.00  0.00    -0.322 N 
ATOM     21  C   UNL d   1      29.324 -16.863  -1.491  0.00  0.00     0.253 A 
ATOM     22  H   UNL d   1      28.743 -18.162  -0.088  0.00  0.00     0.169 HD
ATOM     23  O   UNL d   1      30.541 -17.168  -1.485  0.00  0.00    -0.268 OA
ENDBRANCH   9  10
ENDBRANCH   1   9
BRANCH   1  24
ATOM     24  C   UNL d   1      28.752 -13.986  -5.285  0.00  0.00     0.261 C 
BRANCH  24  25
ATOM     25  C   UNL d   1      29.188 -12.665  -4.402  0.00  0.00     0.037 C 
ATOM     26  C   UNL d   1      30.590 -12.188  -4.796  0.00  0.00     0.007 C 
ENDBRANCH  24  25
BRANCH  24  27
ATOM     27  C   UNL d   1      27.301 -14.375  -5.225  0.00  0.00     0.179 C 
ATOM     28  N   UNL d   1      26.826 -15.584  -5.423  0.00  0.00    -0.112 NA
ATOM     29  N   UNL d   1      25.539 -15.630  -5.027  0.00  0.00    -0.023 NA
ATOM     30  N   UNL d   1      25.131 -14.415  -4.736  0.00  0.00    -0.044 NA
ATOM     31  N   UNL d   1      26.211 -13.637  -4.910  0.00  0.00    -0.223 N 
BRANCH  31  32
ATOM     32  C   UNL d   1      26.093 -12.220  -4.850  0.00  0.00     0.265 C 
BRANCH  32  33
ATOM     33  C   UNL d   1      26.207 -11.804  -3.422  0.00  0.00     0.278 C 
ATOM     34  O   UNL d   1      26.214 -10.644  -3.024  0.00  0.00    -0.263 OA
BRANCH  33  35
ATOM     35  O   UNL d   1      26.455 -12.890  -2.653  0.00  0.00    -0.321 OA
BRANCH  35  36
ATOM     36  C   UNL d   1      26.664 -12.555  -1.279  0.00  0.00     0.174 C 
ATOM     37  C   UNL d   1      28.136 -12.706  -0.973  0.00  0.00     0.034 C 
ENDBRANCH  35  36
ENDBRANCH  33  35
ENDBRANCH  32  33
ENDBRANCH  31  32
ENDBRANCH  24  27
ENDBRANCH   1  24
TORSDOF 10
ENDMDL
MODEL 5
REMARK VINA RESULT:    -8.565      4.354      6.435
REMARK INTER + INTRA:         -15.611
REMARK INTER:                 -11.548
REMARK INTRA:                  -4.063
REMARK CONF_INDEPENDENT:        2.983
REMARK UNBOUND:                -4.063
REMARK  10 active torsions:
REMARK  status: ('A' for Active; 'I' for Inactive)
REMARK    1  A    between atoms: C_2  and  O_3 
REMARK    2  A    between atoms: O_3  and  C_4 
REMARK    3  A    between atoms: C_4  and  C_6 
REMARK    4  A    between atoms: C_6  and  N_7 
REMARK    5  A    between atoms: C_12  and  C_11 
REMARK    6  A    between atoms: N_15  and  C_12 
REMARK    7  A    between atoms: C_12  and  C_13 
REMARK    8  A    between atoms: N_15  and  C_30 
REMARK    9  A    between atoms: N_15  and  C_16 
REMARK   10  A    between atoms: C_16  and  C_17 
ROOT
ATOM      1  N   UNL d   1      27.170 -15.383  -0.470  0.00  0.00    -0.052 N 
ATOM      2  H   UNL d   1      27.117 -14.456  -0.122  0.00  0.00     0.281 HD
ENDROOT
BRANCH   1   3
ATOM      3  C   UNL d   1      25.845 -16.122  -0.237  0.00  0.00     0.189 C 
ATOM      4  C   UNL d   1      25.053 -15.999  -1.519  0.00  0.00     0.033 C 
ATOM      5  C   UNL d   1      23.626 -16.323  -1.161  0.00  0.00     0.002 C 
ATOM      6  C   UNL d   1      23.639 -17.812  -0.878  0.00  0.00     0.000 C 
ATOM      7  C   UNL d   1      24.493 -18.153   0.344  0.00  0.00     0.002 C 
ATOM      8  C   UNL d   1      25.926 -17.612   0.198  0.00  0.00     0.033 C 
ENDBRANCH   1   3
BRANCH   1   9
ATOM      9  C   UNL d   1      28.194 -15.668   0.555  0.00  0.00     0.280 C 
BRANCH   9  10
ATOM     10  C   UNL d   1      28.236 -14.649   1.618  0.00  0.00     0.036 A 
ATOM     11  C   UNL d   1      28.024 -14.836   2.930  0.00  0.00     0.028 A 
ATOM     12  C   UNL d   1      28.134 -13.796   3.892  0.00  0.00    -0.008 A 
ATOM     13  C   UNL d   1      27.978 -14.093   5.247  0.00  0.00     0.014 C 
ATOM     14  C   UNL d   1      28.457 -12.541   3.413  0.00  0.00     0.051 A 
ATOM     15  C   UNL d   1      28.330 -13.124   6.150  0.00  0.00     0.008 C 
ATOM     16  C   UNL d   1      28.491 -11.811   5.690  0.00  0.00    -0.054 C 
ATOM     17  C   UNL d   1      28.536 -10.707   6.691  0.00  0.00     0.049 C 
ATOM     18  C   UNL d   1      28.523 -11.506   4.312  0.00  0.00    -0.028 C 
ATOM     19  C   UNL d   1      28.577 -10.114   3.777  0.00  0.00     0.051 C 
ATOM     20  N   UNL d   1      28.698 -12.349   2.036  0.00  0.00    -0.322 N 
ATOM     21  C   UNL d   1      28.655 -13.340   1.132  0.00  0.00     0.253 A 
ATOM     22  H   UNL d   1      28.984 -11.447   1.682  0.00  0.00     0.169 HD
ATOM     23  O   UNL d   1      28.958 -13.201  -0.077  0.00  0.00    -0.268 OA
ENDBRANCH   9  10
ENDBRANCH   1   9
BRANCH   1  24
ATOM     24  C   UNL d   1      27.459 -15.002  -1.961  0.00  0.00     0.261 C 
BRANCH  24  25
ATOM     25  C   UNL d   1      29.066 -15.340  -2.102  0.00  0.00     0.037 C 
ATOM     26  C   UNL d   1      29.277 -16.777  -2.594  0.00  0.00     0.007 C 
ENDBRANCH  24  25
BRANCH  24  27
ATOM     27  C   UNL d   1      27.062 -13.568  -2.181  0.00  0.00     0.179 C 
ATOM     28  N   UNL d   1      26.666 -12.735  -1.247  0.00  0.00    -0.112 NA
ATOM     29  N   UNL d   1      26.656 -11.480  -1.741  0.00  0.00    -0.023 NA
ATOM     30  N   UNL d   1      26.877 -11.523  -3.035  0.00  0.00    -0.044 NA
ATOM     31  N   UNL d   1      27.076 -12.821  -3.310  0.00  0.00    -0.223 N 
BRANCH  31  32
ATOM     32  C   UNL d   1      27.175 -13.264  -4.659  0.00  0.00     0.265 C 
BRANCH  32  33
ATOM     33  C   UNL d   1      26.291 -14.454  -4.825  0.00  0.00     0.278 C 
ATOM     34  O   UNL d   1      25.156 -14.556  -4.373  0.00  0.00    -0.263 OA
BRANCH  33  35
ATOM     35  O   UNL d   1      26.987 -15.455  -5.413  0.00  0.00    -0.321 OA
BRANCH  35  36
ATOM     36  C   UNL d   1      28.395 -15.208  -5.435  0.00  0.00     0.174 C 
ATOM     37  C   UNL d   1      28.784 -14.812  -6.840  0.00  0.00     0.034 C 
ENDBRANCH  35  36
ENDBRANCH  33  35
ENDBRANCH  32  33
ENDBRANCH  31  32
ENDBRANCH  24  27
ENDBRANCH   1  24
TORSDOF 10
ENDMDL
MODEL 6
REMARK VINA RESULT:    -8.425      3.830      6.056
REMARK INTER + INTRA:         -15.557
REMARK INTER:                 -11.408
REMARK INTRA:                  -4.149
REMARK CONF_INDEPENDENT:        2.983
REMARK UNBOUND:                -4.149
REMARK  10 active torsions:
REMARK  status: ('A' for Active; 'I' for Inactive)
REMARK    1  A    between atoms: C_2  and  O_3 
REMARK    2  A    between atoms: O_3  and  C_4 
REMARK    3  A    between atoms: C_4  and  C_6 
REMARK    4  A    between atoms: C_6  and  N_7 
REMARK    5  A    between atoms: C_12  and  C_11 
REMARK    6  A    between atoms: N_15  and  C_12 
REMARK    7  A    between atoms: C_12  and  C_13 
REMARK    8  A    between atoms: N_15  and  C_30 
REMARK    9  A    between atoms: N_15  and  C_16 
REMARK   10  A    between atoms: C_16  and  C_17 
ROOT
ATOM      1  N   UNL d   1      27.961 -15.556  -2.547  0.00  0.00    -0.052 N 
ATOM      2  H   UNL d   1      28.267 -15.979  -1.703  0.00  0.00     0.281 HD
ENDROOT
BRANCH   1   3
ATOM      3  C   UNL d   1      28.657 -16.200  -3.753  0.00  0.00     0.189 C 
ATOM      4  C   UNL d   1      29.062 -15.069  -4.672  0.00  0.00     0.033 C 
ATOM      5  C   UNL d   1      29.335 -15.696  -6.013  0.00  0.00     0.002 C 
ATOM      6  C   UNL d   1      30.617 -16.479  -5.807  0.00  0.00     0.000 C 
ATOM      7  C   UNL d   1      30.432 -17.624  -4.809  0.00  0.00     0.002 C 
ATOM      8  C   UNL d   1      29.881 -17.116  -3.467  0.00  0.00     0.033 C 
ENDBRANCH   1   3
BRANCH   1   9
ATOM      9  C   UNL d   1      28.594 -14.299  -2.101  0.00  0.00     0.280 C 
BRANCH   9  10
ATOM     10  C   UNL d   1      28.645 -14.175  -0.634  0.00  0.00     0.036 A 
ATOM     11  C   UNL d   1      27.876 -13.393   0.141  0.00  0.00     0.028 A 
ATOM     12  C   UNL d   1      27.966 -13.375   1.559  0.00  0.00    -0.008 A 
ATOM     13  C   UNL d   1      27.072 -12.594   2.294  0.00  0.00     0.014 C 
ATOM     14  C   UNL d   1      28.915 -14.200   2.130  0.00  0.00     0.051 A 
ATOM     15  C   UNL d   1      27.031 -12.790   3.650  0.00  0.00     0.008 C 
ATOM     16  C   UNL d   1      28.086 -13.484   4.256  0.00  0.00    -0.054 C 
ATOM     17  C   UNL d   1      28.229 -13.410   5.738  0.00  0.00     0.049 C 
ATOM     18  C   UNL d   1      29.058 -14.168   3.495  0.00  0.00    -0.028 C 
ATOM     19  C   UNL d   1      30.260 -14.823   4.089  0.00  0.00     0.051 C 
ATOM     20  N   UNL d   1      29.710 -15.035   1.316  0.00  0.00    -0.322 N 
ATOM     21  C   UNL d   1      29.587 -15.101  -0.019  0.00  0.00     0.253 A 
ATOM     22  H   UNL d   1      30.371 -15.679   1.726  0.00  0.00     0.169 HD
ATOM     23  O   UNL d   1      30.220 -15.905  -0.744  0.00  0.00    -0.268 OA
ENDBRANCH   9  10
ENDBRANCH   1   9
BRANCH   1  24
ATOM     24  C   UNL d   1      26.445 -15.915  -2.391  0.00  0.00     0.261 C 
BRANCH  24  25
ATOM     25  C   UNL d   1      25.752 -14.430  -2.214  0.00  0.00     0.037 C 
ATOM     26  C   UNL d   1      24.826 -14.119  -3.396  0.00  0.00     0.007 C 
ENDBRANCH  24  25
BRANCH  24  27
ATOM     27  C   UNL d   1      26.287 -16.863  -1.235  0.00  0.00     0.179 C 
ATOM     28  N   UNL d   1      27.195 -17.105  -0.318  0.00  0.00    -0.112 NA
ATOM     29  N   UNL d   1      26.631 -17.780   0.704  0.00  0.00    -0.023 NA
ATOM     30  N   UNL d   1      25.407 -18.124   0.373  0.00  0.00    -0.044 NA
ATOM     31  N   UNL d   1      25.218 -17.598  -0.847  0.00  0.00    -0.223 N 
BRANCH  31  32
ATOM     32  C   UNL d   1      24.050 -17.919  -1.595  0.00  0.00     0.265 C 
BRANCH  32  33
ATOM     33  C   UNL d   1      22.874 -17.319  -0.902  0.00  0.00     0.278 C 
ATOM     34  O   UNL d   1      22.919 -16.360  -0.139  0.00  0.00    -0.263 OA
BRANCH  33  35
ATOM     35  O   UNL d   1      21.780 -18.087  -1.119  0.00  0.00    -0.321 OA
BRANCH  35  36
ATOM     36  C   UNL d   1      21.405 -18.848   0.032  0.00  0.00     0.174 C 
ATOM     37  C   UNL d   1      20.348 -19.845  -0.384  0.00  0.00     0.034 C 
ENDBRANCH  35  36
ENDBRANCH  33  35
ENDBRANCH  32  33
ENDBRANCH  31  32
ENDBRANCH  24  27
ENDBRANCH   1  24
TORSDOF 10
ENDMDL
MODEL 7
REMARK VINA RESULT:    -8.257      3.211      7.582
REMARK INTER + INTRA:         -15.210
REMARK INTER:                 -11.240
REMARK INTRA:                  -3.970
REMARK CONF_INDEPENDENT:        2.983
REMARK UNBOUND:                -3.970
REMARK  10 active torsions:
REMARK  status: ('A' for Active; 'I' for Inactive)
REMARK    1  A    between atoms: C_2  and  O_3 
REMARK    2  A    between atoms: O_3  and  C_4 
REMARK    3  A    between atoms: C_4  and  C_6 
REMARK    4  A    between atoms: C_6  and  N_7 
REMARK    5  A    between atoms: C_12  and  C_11 
REMARK    6  A    between atoms: N_15  and  C_12 
REMARK    7  A    between atoms: C_12  and  C_13 
REMARK    8  A    between atoms: N_15  and  C_30 
REMARK    9  A    between atoms: N_15  and  C_16 
REMARK   10  A    between atoms: C_16  and  C_17 
ROOT
ATOM      1  N   UNL d   1      28.277 -15.401   0.039  0.00  0.00    -0.052 N 
ATOM      2  H   UNL d   1      28.236 -15.099  -0.905  0.00  0.00     0.281 HD
ENDROOT
BRANCH   1   3
ATOM      3  C   UNL d   1      28.208 -14.200   0.992  0.00  0.00     0.189 C 
ATOM      4  C   UNL d   1      27.284 -13.192   0.346  0.00  0.00     0.033 C 
ATOM      5  C   UNL d   1      27.553 -11.879   1.033  0.00  0.00     0.002 C 
ATOM      6  C   UNL d   1      26.983 -12.061   2.427  0.00  0.00     0.000 C 
ATOM      7  C   UNL d   1      27.733 -13.137   3.213  0.00  0.00     0.002 C 
ATOM      8  C   UNL d   1      27.757 -14.475   2.454  0.00  0.00     0.033 C 
ENDBRANCH   1   3
BRANCH   1   9
ATOM      9  C   UNL d   1      29.651 -15.878  -0.214  0.00  0.00     0.280 C 
BRANCH   9  10
ATOM     10  C   UNL d   1      29.890 -16.205  -1.630  0.00  0.00     0.036 A 
ATOM     11  C   UNL d   1      30.282 -17.386  -2.134  0.00  0.00     0.028 A 
ATOM     12  C   UNL d   1      30.441 -17.623  -3.526  0.00  0.00    -0.008 A 
ATOM     13  C   UNL d   1      30.773 -18.904  -3.972  0.00  0.00     0.014 C 
ATOM     14  C   UNL d   1      30.191 -16.557  -4.368  0.00  0.00     0.051 A 
ATOM     15  C   UNL d   1      30.678 -19.147  -5.317  0.00  0.00     0.008 C 
ATOM     16  C   UNL d   1      30.595 -18.054  -6.189  0.00  0.00    -0.054 C 
ATOM     17  C   UNL d   1      30.832 -18.283  -7.643  0.00  0.00     0.049 C 
ATOM     18  C   UNL d   1      30.384 -16.742  -5.715  0.00  0.00    -0.028 C 
ATOM     19  C   UNL d   1      30.403 -15.535  -6.593  0.00  0.00     0.051 C 
ATOM     20  N   UNL d   1      29.761 -15.322  -3.839  0.00  0.00    -0.322 N 
ATOM     21  C   UNL d   1      29.550 -15.111  -2.530  0.00  0.00     0.253 A 
ATOM     22  H   UNL d   1      29.527 -14.551  -4.449  0.00  0.00     0.169 HD
ATOM     23  O   UNL d   1      29.079 -14.049  -2.057  0.00  0.00    -0.268 OA
ENDBRANCH   9  10
ENDBRANCH   1   9
BRANCH   1  24
ATOM     24  C   UNL d   1      26.987 -16.289   0.002  0.00  0.00     0.261 C 
BRANCH  24  25
ATOM     25  C   UNL d   1      27.612 -17.807  -0.145  0.00  0.00     0.037 C 
ATOM     26  C   UNL d   1      26.754 -18.823   0.618  0.00  0.00     0.007 C 
ENDBRANCH  24  25
BRANCH  24  27
ATOM     27  C   UNL d   1      26.109 -15.822  -1.126  0.00  0.00     0.179 C 
ATOM     28  N   UNL d   1      26.518 -15.174  -2.193  0.00  0.00    -0.112 NA
ATOM     29  N   UNL d   1      25.531 -15.156  -3.112  0.00  0.00    -0.023 NA
ATOM     30  N   UNL d   1      24.432 -15.638  -2.577  0.00  0.00    -0.044 NA
ATOM     31  N   UNL d   1      24.782 -16.001  -1.333  0.00  0.00    -0.223 N 
BRANCH  31  32
ATOM     32  C   UNL d   1      23.792 -16.410  -0.398  0.00  0.00     0.265 C 
BRANCH  32  33
ATOM     33  C   UNL d   1      23.234 -17.717  -0.852  0.00  0.00     0.278 C 
ATOM     34  O   UNL d   1      23.900 -18.668  -1.245  0.00  0.00    -0.263 OA
BRANCH  33  35
ATOM     35  O   UNL d   1      21.884 -17.636  -0.912  0.00  0.00    -0.321 OA
BRANCH  35  36
ATOM     36  C   UNL d   1      21.259 -18.920  -0.971  0.00  0.00     0.174 C 
ATOM     37  C   UNL d   1      20.889 -19.333   0.435  0.00  0.00     0.034 C 
ENDBRANCH  35  36
ENDBRANCH  33  35
ENDBRANCH  32  33
ENDBRANCH  31  32
ENDBRANCH  24  27
ENDBRANCH   1  24
TORSDOF 10
ENDMDL
MODEL 8
REMARK VINA RESULT:    -7.738      2.098      6.832
REMARK INTER + INTRA:         -16.090
REMARK INTER:                 -10.721
REMARK INTRA:                  -5.369
REMARK CONF_INDEPENDENT:        2.983
REMARK UNBOUND:                -5.369
REMARK  10 active torsions:
REMARK  status: ('A' for Active; 'I' for Inactive)
REMARK    1  A    between atoms: C_2  and  O_3 
REMARK    2  A    between atoms: O_3  and  C_4 
REMARK    3  A    between atoms: C_4  and  C_6 
REMARK    4  A    between atoms: C_6  and  N_7 
REMARK    5  A    between atoms: C_12  and  C_11 
REMARK    6  A    between atoms: N_15  and  C_12 
REMARK    7  A    between atoms: C_12  and  C_13 
REMARK    8  A    between atoms: N_15  and  C_30 
REMARK    9  A    between atoms: N_15  and  C_16 
REMARK   10  A    between atoms: C_16  and  C_17 
ROOT
ATOM      1  N   UNL d   1      26.302 -15.606  -2.177  0.00  0.00    -0.052 N 
ATOM      2  H   UNL d   1      25.886 -15.364  -3.045  0.00  0.00     0.281 HD
ENDROOT
BRANCH   1   3
ATOM      3  C   UNL d   1      25.536 -16.760  -1.517  0.00  0.00     0.189 C 
ATOM      4  C   UNL d   1      26.208 -17.017  -0.187  0.00  0.00     0.033 C 
ATOM      5  C   UNL d   1      25.760 -18.387   0.250  0.00  0.00     0.002 C 
ATOM      6  C   UNL d   1      24.297 -18.208   0.605  0.00  0.00     0.000 C 
ATOM      7  C   UNL d   1      23.456 -17.832  -0.616  0.00  0.00     0.002 C 
ATOM      8  C   UNL d   1      24.006 -16.577  -1.313  0.00  0.00     0.033 C 
ENDBRANCH   1   3
BRANCH   1   9
ATOM      9  C   UNL d   1      25.920 -14.274  -1.667  0.00  0.00     0.280 C 
BRANCH   9  10
ATOM     10  C   UNL d   1      26.198 -13.194  -2.629  0.00  0.00     0.036 A 
ATOM     11  C   UNL d   1      27.221 -12.325  -2.599  0.00  0.00     0.028 A 
ATOM     12  C   UNL d   1      27.435 -11.341  -3.602  0.00  0.00    -0.008 A 
ATOM     13  C   UNL d   1      28.570 -10.531  -3.540  0.00  0.00     0.014 C 
ATOM     14  C   UNL d   1      26.513 -11.294  -4.630  0.00  0.00     0.051 A 
ATOM     15  C   UNL d   1      28.865  -9.772  -4.642  0.00  0.00     0.008 C 
ATOM     16  C   UNL d   1      27.868  -9.582  -5.607  0.00  0.00    -0.054 C 
ATOM     17  C   UNL d   1      28.053  -8.504  -6.620  0.00  0.00     0.049 C 
ATOM     18  C   UNL d   1      26.666 -10.323  -5.588  0.00  0.00    -0.028 C 
ATOM     19  C   UNL d   1      25.531 -10.076  -6.524  0.00  0.00     0.051 C 
ATOM     20  N   UNL d   1      25.448 -12.220  -4.670  0.00  0.00    -0.322 N 
ATOM     21  C   UNL d   1      25.277 -13.189  -3.758  0.00  0.00     0.253 A 
ATOM     22  H   UNL d   1      24.798 -12.226  -5.443  0.00  0.00     0.169 HD
ATOM     23  O   UNL d   1      24.391 -14.074  -3.833  0.00  0.00    -0.268 OA
ENDBRANCH   9  10
ENDBRANCH   1   9
BRANCH   1  24
ATOM     24  C   UNL d   1      27.709 -15.990  -2.751  0.00  0.00     0.261 C 
BRANCH  24  25
ATOM     25  C   UNL d   1      28.730 -15.212  -1.717  0.00  0.00     0.037 C 
ATOM     26  C   UNL d   1      29.520 -16.220  -0.875  0.00  0.00     0.007 C 
ENDBRANCH  24  25
BRANCH  24  27
ATOM     27  C   UNL d   1      27.776 -15.568  -4.193  0.00  0.00     0.179 C 
ATOM     28  N   UNL d   1      26.770 -15.576  -5.037  0.00  0.00    -0.112 NA
ATOM     29  N   UNL d   1      27.111 -14.887  -6.145  0.00  0.00    -0.023 NA
ATOM     30  N   UNL d   1      28.388 -14.583  -6.091  0.00  0.00    -0.044 NA
ATOM     31  N   UNL d   1      28.806 -15.052  -4.905  0.00  0.00    -0.223 N 
BRANCH  31  32
ATOM     32  C   UNL d   1      30.191 -15.051  -4.579  0.00  0.00     0.265 C 
BRANCH  32  33
ATOM     33  C   UNL d   1      30.554 -13.689  -4.092  0.00  0.00     0.278 C 
ATOM     34  O   UNL d   1      30.702 -13.377  -2.916  0.00  0.00    -0.263 OA
BRANCH  33  35
ATOM     35  O   UNL d   1      30.541 -12.820  -5.131  0.00  0.00    -0.321 OA
BRANCH  35  36
ATOM     36  C   UNL d   1      31.155 -13.357  -6.304  0.00  0.00     0.174 C 
ATOM     37  C   UNL d   1      30.435 -12.801  -7.512  0.00  0.00     0.034 C 
ENDBRANCH  35  36
ENDBRANCH  33  35
ENDBRANCH  32  33
ENDBRANCH  31  32
ENDBRANCH  24  27
ENDBRANCH   1  24
TORSDOF 10
ENDMDL
MODEL 9
REMARK VINA RESULT:    -7.631      2.148      6.826
REMARK INTER + INTRA:         -16.059
REMARK INTER:                 -10.614
REMARK INTRA:                  -5.445
REMARK CONF_INDEPENDENT:        2.983
REMARK UNBOUND:                -5.445
REMARK  10 active torsions:
REMARK  status: ('A' for Active; 'I' for Inactive)
REMARK    1  A    between atoms: C_2  and  O_3 
REMARK    2  A    between atoms: O_3  and  C_4 
REMARK    3  A    between atoms: C_4  and  C_6 
REMARK    4  A    between atoms: C_6  and  N_7 
REMARK    5  A    between atoms: C_12  and  C_11 
REMARK    6  A    between atoms: N_15  and  C_12 
REMARK    7  A    between atoms: C_12  and  C_13 
REMARK    8  A    between atoms: N_15  and  C_30 
REMARK    9  A    between atoms: N_15  and  C_16 
REMARK   10  A    between atoms: C_16  and  C_17 
ROOT
ATOM      1  N   UNL d   1      26.320 -15.211  -1.748  0.00  0.00    -0.052 N 
ATOM      2  H   UNL d   1      25.813 -15.094  -2.592  0.00  0.00     0.281 HD
ENDROOT
BRANCH   1   3
ATOM      3  C   UNL d   1      25.597 -16.196  -0.819  0.00  0.00     0.189 C 
ATOM      4  C   UNL d   1      24.350 -16.641  -1.551  0.00  0.00     0.033 C 
ATOM      5  C   UNL d   1      23.444 -17.237  -0.507  0.00  0.00     0.002 C 
ATOM      6  C   UNL d   1      24.124 -18.535  -0.116  0.00  0.00     0.000 C 
ATOM      7  C   UNL d   1      25.476 -18.291   0.555  0.00  0.00     0.002 C 
ATOM      8  C   UNL d   1      26.398 -17.436  -0.331  0.00  0.00     0.033 C 
ENDBRANCH   1   3
BRANCH   1   9
ATOM      9  C   UNL d   1      26.049 -13.795  -1.434  0.00  0.00     0.280 C 
BRANCH   9  10
ATOM     10  C   UNL d   1      26.309 -12.898  -2.573  0.00  0.00     0.036 A 
ATOM     11  C   UNL d   1      27.363 -12.083  -2.740  0.00  0.00     0.028 A 
ATOM     12  C   UNL d   1      27.553 -11.286  -3.901  0.00  0.00    -0.008 A 
ATOM     13  C   UNL d   1      28.719 -10.528  -4.031  0.00  0.00     0.014 C 
ATOM     14  C   UNL d   1      26.576 -11.365  -4.874  0.00  0.00     0.051 A 
ATOM     15  C   UNL d   1      28.976  -9.972  -5.257  0.00  0.00     0.008 C 
ATOM     16  C   UNL d   1      27.933  -9.897  -6.188  0.00  0.00    -0.054 C 
ATOM     17  C   UNL d   1      28.097  -9.006  -7.372  0.00  0.00     0.049 C 
ATOM     18  C   UNL d   1      26.708 -10.569  -5.985  0.00  0.00    -0.028 C 
ATOM     19  C   UNL d   1      25.530 -10.427  -6.890  0.00  0.00     0.051 C 
ATOM     20  N   UNL d   1      25.478 -12.235  -4.706  0.00  0.00    -0.322 N 
ATOM     21  C   UNL d   1      25.325 -13.035  -3.639  0.00  0.00     0.253 A 
ATOM     22  H   UNL d   1      24.784 -12.338  -5.433  0.00  0.00     0.169 HD
ATOM     23  O   UNL d   1      24.405 -13.880  -3.522  0.00  0.00    -0.268 OA
ENDBRANCH   9  10
ENDBRANCH   1   9
BRANCH   1  24
ATOM     24  C   UNL d   1      27.634 -15.762  -2.400  0.00  0.00     0.261 C 
BRANCH  24  25
ATOM     25  C   UNL d   1      28.797 -14.869  -1.647  0.00  0.00     0.037 C 
ATOM     26  C   UNL d   1      29.020 -15.367  -0.215  0.00  0.00     0.007 C 
ENDBRANCH  24  25
BRANCH  24  27
ATOM     27  C   UNL d   1      27.538 -15.604  -3.892  0.00  0.00     0.179 C 
ATOM     28  N   UNL d   1      26.429 -15.647  -4.594  0.00  0.00    -0.112 NA
ATOM     29  N   UNL d   1      26.672 -15.200  -5.843  0.00  0.00    -0.023 NA
ATOM     30  N   UNL d   1      27.965 -15.033  -5.999  0.00  0.00    -0.044 NA
ATOM     31  N   UNL d   1      28.500 -15.334  -4.806  0.00  0.00    -0.223 N 
BRANCH  31  32
ATOM     32  C   UNL d   1      29.912 -15.428  -4.654  0.00  0.00     0.265 C 
BRANCH  32  33
ATOM     33  C   UNL d   1      30.515 -14.138  -5.098  0.00  0.00     0.278 C 
ATOM     34  O   UNL d   1      30.786 -13.197  -4.360  0.00  0.00    -0.263 OA
BRANCH  33  35
ATOM     35  O   UNL d   1      30.572 -14.107  -6.450  0.00  0.00    -0.321 OA
BRANCH  35  36
ATOM     36  C   UNL d   1      30.427 -12.786  -6.976  0.00  0.00     0.174 C 
ATOM     37  C   UNL d   1      29.155 -12.737  -7.791  0.00  0.00     0.034 C 
ENDBRANCH  35  36
ENDBRANCH  33  35
ENDBRANCH  32  33
ENDBRANCH  31  32
ENDBRANCH  24  27
ENDBRANCH   1  24
TORSDOF 10
ENDMDL
