MODEL 1
REMARK VINA RESULT:   -29.814      0.000      0.000
REMARK INTER + INTRA:         -31.631
REMARK INTER:                 -31.007
REMARK INTRA:                  -0.624
REMARK CONF_INDEPENDENT:        1.193
REMARK UNBOUND:                -0.624
REMARK  4 active torsions:
REMARK  status: ('A' for Active; 'I' for Inactive)
REMARK    1  A    between atoms: C_2  and  C_3 
REMARK    2  A    between atoms: C_3  and  C_4 
REMARK    3  A    between atoms: C_6  and  C_7 
REMARK       I    between atoms: C_7  and  N_9 
REMARK    4  A    between atoms: N_9  and  C_10 
ROOT
ATOM      1  C   UNL d   1      20.590 -19.576  -0.149  0.00  0.00     0.057 A 
ATOM      2  C   UNL d   1      21.920 -19.116  -0.019  0.00  0.00     0.065 A 
ATOM      3  C   UNL d   1      21.991 -17.942  -0.726  0.00  0.00     0.119 A 
ATOM      4  N   UNL d   1      20.727 -17.766  -1.231  0.00  0.00    -0.273 N 
ATOM      5  N   UNL d   1      19.858 -18.743  -0.895  0.00  0.00    -0.179 NA
ATOM      6  H   UNL d   1      20.404 -16.996  -1.812  0.00  0.00     0.189 HD
ENDROOT
BRANCH   3   7
ATOM      7  C   UNL d   1      23.071 -17.028  -0.957  0.00  0.00     0.270 C 
ATOM      8  O   UNL d   1      22.845 -15.862  -1.270  0.00  0.00    -0.266 OA
ATOM      9  N   UNL d   1      24.353 -17.544  -0.806  0.00  0.00    -0.348 N 
ATOM     10  H   UNL d   1      24.463 -18.515  -0.546  0.00  0.00     0.163 HD
BRANCH   9  11
ATOM     11  C   UNL d   1      25.575 -16.744  -1.006  0.00  0.00     0.022 C 
ATOM     12  C   UNL d   1      26.809 -17.556  -0.589  0.00  0.00     0.037 C 
ATOM     13  C   UNL d   1      25.684 -16.312  -2.476  0.00  0.00     0.037 C 
ATOM     14  C   UNL d   1      25.547 -15.462  -0.144  0.00  0.00     0.037 C 
ENDBRANCH   9  11
ENDBRANCH   3   7
BRANCH   1  15
ATOM     15  C   UNL d   1      20.021 -20.825   0.448  0.00  0.00     0.061 C 
BRANCH  15  16
ATOM     16  C   UNL d   1      18.717 -20.523   1.197  0.00  0.00     0.002 C 
ATOM     17  C   UNL d   1      17.655 -21.574   0.989  0.00  0.00     0.005 C 
ENDBRANCH  15  16
ENDBRANCH   1  15
TORSDOF 4
ENDMDL
MODEL 2
REMARK VINA RESULT:   -29.778      0.130      1.154
REMARK INTER + INTRA:         -31.593
REMARK INTER:                 -30.971
REMARK INTRA:                  -0.621
REMARK CONF_INDEPENDENT:        1.193
REMARK UNBOUND:                -0.621
REMARK  4 active torsions:
REMARK  status: ('A' for Active; 'I' for Inactive)
REMARK    1  A    between atoms: C_2  and  C_3 
REMARK    2  A    between atoms: C_3  and  C_4 
REMARK    3  A    between atoms: C_6  and  C_7 
REMARK       I    between atoms: C_7  and  N_9 
REMARK    4  A    between atoms: N_9  and  C_10 
ROOT
ATOM      1  C   UNL d   1      20.570 -19.528  -0.112  0.00  0.00     0.057 A 
ATOM      2  C   UNL d   1      21.888 -19.035   0.014  0.00  0.00     0.065 A 
ATOM      3  C   UNL d   1      21.942 -17.887  -0.734  0.00  0.00     0.119 A 
ATOM      4  N   UNL d   1      20.681 -17.756  -1.259  0.00  0.00    -0.273 N 
ATOM      5  N   UNL d   1      19.829 -18.738  -0.896  0.00  0.00    -0.179 NA
ATOM      6  H   UNL d   1      20.348 -17.015  -1.870  0.00  0.00     0.189 HD
ENDROOT
BRANCH   3   7
ATOM      7  C   UNL d   1      23.006 -16.959  -0.987  0.00  0.00     0.270 C 
ATOM      8  O   UNL d   1      22.758 -15.789  -1.269  0.00  0.00    -0.266 OA
ATOM      9  N   UNL d   1      24.297 -17.466  -0.893  0.00  0.00    -0.348 N 
ATOM     10  H   UNL d   1      24.424 -18.441  -0.656  0.00  0.00     0.163 HD
BRANCH   9  11
ATOM     11  C   UNL d   1      25.503 -16.651  -1.122  0.00  0.00     0.022 C 
ATOM     12  C   UNL d   1      25.533 -16.155  -2.575  0.00  0.00     0.037 C 
ATOM     13  C   UNL d   1      25.531 -15.466  -0.145  0.00  0.00     0.037 C 
ATOM     14  C   UNL d   1      26.786 -17.479  -0.886  0.00  0.00     0.037 C 
ENDBRANCH   9  11
ENDBRANCH   3   7
BRANCH   1  15
ATOM     15  C   UNL d   1      20.021 -20.767   0.524  0.00  0.00     0.061 C 
BRANCH  15  16
ATOM     16  C   UNL d   1      18.671 -20.479   1.194  0.00  0.00     0.002 C 
ATOM     17  C   UNL d   1      17.656 -21.575   0.980  0.00  0.00     0.005 C 
ENDBRANCH  15  16
ENDBRANCH   1  15
TORSDOF 4
ENDMDL
MODEL 3
REMARK VINA RESULT:   -29.770      0.052      1.122
REMARK INTER + INTRA:         -31.578
REMARK INTER:                 -30.964
REMARK INTRA:                  -0.614
REMARK CONF_INDEPENDENT:        1.193
REMARK UNBOUND:                -0.614
REMARK  4 active torsions:
REMARK  status: ('A' for Active; 'I' for Inactive)
REMARK    1  A    between atoms: C_2  and  C_3 
REMARK    2  A    between atoms: C_3  and  C_4 
REMARK    3  A    between atoms: C_6  and  C_7 
REMARK       I    between atoms: C_7  and  N_9 
REMARK    4  A    between atoms: N_9  and  C_10 
ROOT
ATOM      1  C   UNL d   1      20.601 -19.552  -0.102  0.00  0.00     0.057 A 
ATOM      2  C   UNL d   1      21.926 -19.084   0.044  0.00  0.00     0.065 A 
ATOM      3  C   UNL d   1      22.014 -17.937  -0.703  0.00  0.00     0.119 A 
ATOM      4  N   UNL d   1      20.762 -17.782  -1.246  0.00  0.00    -0.273 N 
ATOM      5  N   UNL d   1      19.886 -18.748  -0.896  0.00  0.00    -0.179 NA
ATOM      6  H   UNL d   1      20.453 -17.034  -1.862  0.00  0.00     0.189 HD
ENDROOT
BRANCH   3   7
ATOM      7  C   UNL d   1      23.098 -17.029  -0.941  0.00  0.00     0.270 C 
ATOM      8  O   UNL d   1      22.877 -15.867  -1.272  0.00  0.00    -0.266 OA
ATOM      9  N   UNL d   1      24.378 -17.547  -0.774  0.00  0.00    -0.348 N 
ATOM     10  H   UNL d   1      24.483 -18.515  -0.500  0.00  0.00     0.163 HD
BRANCH   9  11
ATOM     11  C   UNL d   1      25.603 -16.754  -0.978  0.00  0.00     0.022 C 
ATOM     12  C   UNL d   1      25.539 -15.465  -0.146  0.00  0.00     0.037 C 
ATOM     13  C   UNL d   1      26.837 -17.584  -0.595  0.00  0.00     0.037 C 
ATOM     14  C   UNL d   1      25.759 -16.344  -2.460  0.00  0.00     0.037 C 
ENDBRANCH   9  11
ENDBRANCH   3   7
BRANCH   1  15
ATOM     15  C   UNL d   1      20.019 -20.779   0.526  0.00  0.00     0.061 C 
BRANCH  15  16
ATOM     16  C   UNL d   1      18.670 -20.464   1.186  0.00  0.00     0.002 C 
ATOM     17  C   UNL d   1      17.655 -21.567   1.019  0.00  0.00     0.005 C 
ENDBRANCH  15  16
ENDBRANCH   1  15
TORSDOF 4
ENDMDL
