MODEL 1
REMARK VINA RESULT:    -8.845      0.000      0.000
REMARK INTER + INTRA:         -10.924
REMARK INTER:                  -9.740
REMARK INTRA:                  -1.184
REMARK CONF_INDEPENDENT:        0.895
REMARK UNBOUND:                -1.184
REMARK  3 active torsions:
REMARK  status: ('A' for Active; 'I' for Inactive)
REMARK       I    between atoms: C_2  and  N_3 
REMARK    1  A    between atoms: C_2  and  C_14 
REMARK    2  A    between atoms: N_3  and  N_4 
REMARK       I    between atoms: N_4  and  C_5 
REMARK    3  A    between atoms: C_5  and  C_7 
ROOT
ATOM      1  O   UNL d   1      20.651 -17.783  -1.270  0.00  0.00    -0.266 OA
ATOM      2  C   UNL d   1      21.085 -18.575  -0.432  0.00  0.00     0.270 C 
ATOM      3  N   UNL d   1      22.439 -18.717  -0.154  0.00  0.00    -0.263 N 
ATOM      4  H   UNL d   1      22.819 -19.441   0.455  0.00  0.00     0.190 HD
ENDROOT
BRANCH   3   5
ATOM      5  N   UNL d   1      23.393 -17.924  -0.852  0.00  0.00    -0.263 N 
ATOM      6  C   UNL d   1      24.715 -17.910  -0.420  0.00  0.00     0.270 C 
ATOM      7  O   UNL d   1      25.109 -18.573   0.539  0.00  0.00    -0.266 OA
ATOM      8  H   UNL d   1      23.064 -17.469  -1.701  0.00  0.00     0.190 HD
BRANCH   6   9
ATOM      9  C   UNL d   1      25.680 -17.038  -1.166  0.00  0.00     0.035 A 
ATOM     10  C   UNL d   1      27.052 -17.074  -0.881  0.00  0.00     0.017 A 
ATOM     11  C   UNL d   1      27.957 -16.322  -1.644  0.00  0.00     0.003 A 
ATOM     12  C   UNL d   1      27.501 -15.516  -2.687  0.00  0.00     0.024 A 
ATOM     13  C   UNL d   1      26.138 -15.473  -2.972  0.00  0.00     0.035 A 
ATOM     14 CL   UNL d   1      25.583 -14.461  -4.252  0.00  0.00    -0.084 Cl
ATOM     15  C   UNL d   1      25.228 -16.240  -2.232  0.00  0.00     0.041 A 
ENDBRANCH   6   9
ENDBRANCH   3   5
BRANCH   2  16
ATOM     16  C   UNL d   1      20.138 -19.454   0.327  0.00  0.00     0.036 A 
ATOM     17  C   UNL d   1      19.065 -20.076  -0.337  0.00  0.00     0.017 A 
ATOM     18  C   UNL d   1      18.174 -20.909   0.361  0.00  0.00     0.004 A 
ATOM     19  C   UNL d   1      18.333 -21.100   1.732  0.00  0.00     0.042 A 
ATOM     20  C   UNL d   1      19.373 -20.453   2.390  0.00  0.00     0.117 A 
ATOM     21  F   UNL d   1      19.512 -20.620   3.712  0.00  0.00    -0.206 F 
ATOM     22  C   UNL d   1      20.275 -19.635   1.707  0.00  0.00     0.059 A 
ENDBRANCH   2  16
TORSDOF 3
ENDMDL
MODEL 2
REMARK VINA RESULT:    -8.386      1.225      1.632
REMARK INTER + INTRA:         -10.452
REMARK INTER:                  -9.281
REMARK INTRA:                  -1.170
REMARK CONF_INDEPENDENT:        0.895
REMARK UNBOUND:                -1.170
REMARK  3 active torsions:
REMARK  status: ('A' for Active; 'I' for Inactive)
REMARK       I    between atoms: C_2  and  N_3 
REMARK    1  A    between atoms: C_2  and  C_14 
REMARK    2  A    between atoms: N_3  and  N_4 
REMARK       I    between atoms: N_4  and  C_5 
REMARK    3  A    between atoms: C_5  and  C_7 
ROOT
ATOM      1  O   UNL d   1      20.639 -17.800  -1.269  0.00  0.00    -0.266 OA
ATOM      2  C   UNL d   1      21.065 -18.597  -0.432  0.00  0.00     0.270 C 
ATOM      3  N   UNL d   1      22.418 -18.753  -0.155  0.00  0.00    -0.263 N 
ATOM      4  H   UNL d   1      22.790 -19.482   0.453  0.00  0.00     0.190 HD
ENDROOT
BRANCH   3   5
ATOM      5  N   UNL d   1      23.380 -17.969  -0.852  0.00  0.00    -0.263 N 
ATOM      6  C   UNL d   1      24.692 -17.935  -0.395  0.00  0.00     0.270 C 
ATOM      7  O   UNL d   1      25.072 -18.573   0.587  0.00  0.00    -0.266 OA
ATOM      8  H   UNL d   1      23.064 -17.537  -1.718  0.00  0.00     0.190 HD
BRANCH   6   9
ATOM      9  C   UNL d   1      25.666 -17.074  -1.142  0.00  0.00     0.035 A 
ATOM     10  C   UNL d   1      25.229 -16.190  -2.138  0.00  0.00     0.017 A 
ATOM     11  C   UNL d   1      26.135 -15.324  -2.768  0.00  0.00     0.003 A 
ATOM     12  C   UNL d   1      27.486 -15.344  -2.421  0.00  0.00     0.024 A 
ATOM     13  C   UNL d   1      27.927 -16.224  -1.435  0.00  0.00     0.035 A 
ATOM     14 CL   UNL d   1      29.601 -16.251  -1.026  0.00  0.00    -0.084 Cl
ATOM     15  C   UNL d   1      27.025 -17.074  -0.782  0.00  0.00     0.041 A 
ENDBRANCH   6   9
ENDBRANCH   3   5
BRANCH   2  16
ATOM     16  C   UNL d   1      20.110 -19.467   0.326  0.00  0.00     0.036 A 
ATOM     17  C   UNL d   1      19.028 -20.075  -0.338  0.00  0.00     0.017 A 
ATOM     18  C   UNL d   1      18.129 -20.899   0.359  0.00  0.00     0.004 A 
ATOM     19  C   UNL d   1      18.288 -21.096   1.729  0.00  0.00     0.042 A 
ATOM     20  C   UNL d   1      19.336 -20.463   2.387  0.00  0.00     0.117 A 
ATOM     21  F   UNL d   1      19.476 -20.637   3.708  0.00  0.00    -0.206 F 
ATOM     22  C   UNL d   1      20.247 -19.654   1.705  0.00  0.00     0.059 A 
ENDBRANCH   2  16
TORSDOF 3
ENDMDL
MODEL 3
REMARK VINA RESULT:    -6.630      6.540      9.954
REMARK INTER + INTRA:          -8.751
REMARK INTER:                  -7.524
REMARK INTRA:                  -1.226
REMARK CONF_INDEPENDENT:        0.895
REMARK UNBOUND:                -1.226
REMARK  3 active torsions:
REMARK  status: ('A' for Active; 'I' for Inactive)
REMARK       I    between atoms: C_2  and  N_3 
REMARK    1  A    between atoms: C_2  and  C_14 
REMARK    2  A    between atoms: N_3  and  N_4 
REMARK       I    between atoms: N_4  and  C_5 
REMARK    3  A    between atoms: C_5  and  C_7 
ROOT
ATOM      1  O   UNL d   1      26.612 -10.659  -2.597  0.00  0.00    -0.266 OA
ATOM      2  C   UNL d   1      25.880 -10.912  -3.554  0.00  0.00     0.270 C 
ATOM      3  N   UNL d   1      25.295 -12.157  -3.752  0.00  0.00    -0.263 N 
ATOM      4  H   UNL d   1      24.779 -12.412  -4.593  0.00  0.00     0.190 HD
ENDROOT
BRANCH   3   5
ATOM      5  N   UNL d   1      25.533 -13.208  -2.822  0.00  0.00    -0.263 N 
ATOM      6  C   UNL d   1      25.232 -14.517  -3.180  0.00  0.00     0.270 C 
ATOM      7  O   UNL d   1      24.780 -14.818  -4.285  0.00  0.00    -0.266 OA
ATOM      8  H   UNL d   1      26.004 -12.945  -1.958  0.00  0.00     0.190 HD
BRANCH   6   9
ATOM      9  C   UNL d   1      25.471 -15.589  -2.160  0.00  0.00     0.035 A 
ATOM     10  C   UNL d   1      26.731 -15.753  -1.568  0.00  0.00     0.017 A 
ATOM     11  C   UNL d   1      26.921 -16.699  -0.551  0.00  0.00     0.003 A 
ATOM     12  C   UNL d   1      25.861 -17.501  -0.126  0.00  0.00     0.024 A 
ATOM     13  C   UNL d   1      24.608 -17.346  -0.714  0.00  0.00     0.035 A 
ATOM     14 CL   UNL d   1      23.310 -18.353  -0.193  0.00  0.00    -0.084 Cl
ATOM     15  C   UNL d   1      24.401 -16.386  -1.713  0.00  0.00     0.041 A 
ENDBRANCH   6   9
ENDBRANCH   3   5
BRANCH   2  16
ATOM     16  C   UNL d   1      25.601  -9.858  -4.582  0.00  0.00     0.036 A 
ATOM     17  C   UNL d   1      26.165  -9.957  -5.868  0.00  0.00     0.017 A 
ATOM     18  C   UNL d   1      25.906  -8.980  -6.843  0.00  0.00     0.004 A 
ATOM     19  C   UNL d   1      25.107  -7.883  -6.530  0.00  0.00     0.042 A 
ATOM     20  C   UNL d   1      24.583  -7.770  -5.247  0.00  0.00     0.117 A 
ATOM     21  F   UNL d   1      23.831  -6.704  -4.941  0.00  0.00    -0.206 F 
ATOM     22  C   UNL d   1      24.819  -8.741  -4.272  0.00  0.00     0.059 A 
ENDBRANCH   2  16
TORSDOF 3
ENDMDL
MODEL 4
REMARK VINA RESULT:    -6.618      6.660     10.054
REMARK INTER + INTRA:          -8.724
REMARK INTER:                  -7.513
REMARK INTRA:                  -1.211
REMARK CONF_INDEPENDENT:        0.895
REMARK UNBOUND:                -1.211
REMARK  3 active torsions:
REMARK  status: ('A' for Active; 'I' for Inactive)
REMARK       I    between atoms: C_2  and  N_3 
REMARK    1  A    between atoms: C_2  and  C_14 
REMARK    2  A    between atoms: N_3  and  N_4 
REMARK       I    between atoms: N_4  and  C_5 
REMARK    3  A    between atoms: C_5  and  C_7 
ROOT
ATOM      1  O   UNL d   1      26.661 -10.696  -2.632  0.00  0.00    -0.266 OA
ATOM      2  C   UNL d   1      25.908 -10.934  -3.577  0.00  0.00     0.270 C 
ATOM      3  N   UNL d   1      25.291 -12.165  -3.762  0.00  0.00    -0.263 N 
ATOM      4  H   UNL d   1      24.755 -12.409  -4.594  0.00  0.00     0.190 HD
ENDROOT
BRANCH   3   5
ATOM      5  N   UNL d   1      25.520 -13.220  -2.834  0.00  0.00    -0.263 N 
ATOM      6  C   UNL d   1      25.222 -14.527  -3.200  0.00  0.00     0.270 C 
ATOM      7  O   UNL d   1      24.780 -14.823  -4.310  0.00  0.00    -0.266 OA
ATOM      8  H   UNL d   1      25.984 -12.960  -1.965  0.00  0.00     0.190 HD
BRANCH   6   9
ATOM      9  C   UNL d   1      25.451 -15.604  -2.182  0.00  0.00     0.035 A 
ATOM     10  C   UNL d   1      26.718 -15.801  -1.616  0.00  0.00     0.017 A 
ATOM     11  C   UNL d   1      26.902 -16.750  -0.600  0.00  0.00     0.003 A 
ATOM     12  C   UNL d   1      25.829 -17.521  -0.151  0.00  0.00     0.024 A 
ATOM     13  C   UNL d   1      24.569 -17.332  -0.714  0.00  0.00     0.035 A 
ATOM     14 CL   UNL d   1      23.254 -18.301  -0.165  0.00  0.00    -0.084 Cl
ATOM     15  C   UNL d   1      24.369 -16.369  -1.712  0.00  0.00     0.041 A 
ENDBRANCH   6   9
ENDBRANCH   3   5
BRANCH   2  16
ATOM     16  C   UNL d   1      25.636  -9.875  -4.602  0.00  0.00     0.036 A 
ATOM     17  C   UNL d   1      24.780  -8.800  -4.297  0.00  0.00     0.017 A 
ATOM     18  C   UNL d   1      24.523  -7.796  -5.246  0.00  0.00     0.004 A 
ATOM     19  C   UNL d   1      25.094  -7.878  -6.514  0.00  0.00     0.042 A 
ATOM     20  C   UNL d   1      25.909  -8.962  -6.822  0.00  0.00     0.117 A 
ATOM     21  F   UNL d   1      26.441  -9.049  -8.048  0.00  0.00    -0.206 F 
ATOM     22  C   UNL d   1      26.186  -9.958  -5.884  0.00  0.00     0.059 A 
ENDBRANCH   2  16
TORSDOF 3
ENDMDL
MODEL 5
REMARK VINA RESULT:    -6.468      5.768      9.829
REMARK INTER + INTRA:          -8.614
REMARK INTER:                  -7.363
REMARK INTRA:                  -1.251
REMARK CONF_INDEPENDENT:        0.895
REMARK UNBOUND:                -1.251
REMARK  3 active torsions:
REMARK  status: ('A' for Active; 'I' for Inactive)
REMARK       I    between atoms: C_2  and  N_3 
REMARK    1  A    between atoms: C_2  and  C_14 
REMARK    2  A    between atoms: N_3  and  N_4 
REMARK       I    between atoms: N_4  and  C_5 
REMARK    3  A    between atoms: C_5  and  C_7 
ROOT
ATOM      1  O   UNL d   1      28.306 -15.576  -5.395  0.00  0.00    -0.266 OA
ATOM      2  C   UNL d   1      27.584 -14.580  -5.323  0.00  0.00     0.270 C 
ATOM      3  N   UNL d   1      26.559 -14.453  -4.393  0.00  0.00    -0.263 N 
ATOM      4  H   UNL d   1      25.888 -13.687  -4.392  0.00  0.00     0.190 HD
ENDROOT
BRANCH   3   5
ATOM      5  N   UNL d   1      26.308 -15.506  -3.467  0.00  0.00    -0.263 N 
ATOM      6  C   UNL d   1      25.145 -15.481  -2.706  0.00  0.00     0.270 C 
ATOM      7  O   UNL d   1      24.301 -14.590  -2.808  0.00  0.00    -0.266 OA
ATOM      8  H   UNL d   1      26.968 -16.281  -3.479  0.00  0.00     0.190 HD
BRANCH   6   9
ATOM      9  C   UNL d   1      24.934 -16.593  -1.723  0.00  0.00     0.035 A 
ATOM     10  C   UNL d   1      25.975 -17.025  -0.890  0.00  0.00     0.017 A 
ATOM     11  C   UNL d   1      25.744 -18.003   0.088  0.00  0.00     0.003 A 
ATOM     12  C   UNL d   1      24.478 -18.571   0.232  0.00  0.00     0.024 A 
ATOM     13  C   UNL d   1      23.441 -18.149  -0.597  0.00  0.00     0.035 A 
ATOM     14 CL   UNL d   1      21.885 -18.870  -0.422  0.00  0.00    -0.084 Cl
ATOM     15  C   UNL d   1      23.655 -17.154  -1.560  0.00  0.00     0.041 A 
ENDBRANCH   6   9
ENDBRANCH   3   5
BRANCH   2  16
ATOM     16  C   UNL d   1      27.781 -13.442  -6.278  0.00  0.00     0.036 A 
ATOM     17  C   UNL d   1      28.675 -13.572  -7.357  0.00  0.00     0.017 A 
ATOM     18  C   UNL d   1      28.863 -12.516  -8.265  0.00  0.00     0.004 A 
ATOM     19  C   UNL d   1      28.183 -11.314  -8.080  0.00  0.00     0.042 A 
ATOM     20  C   UNL d   1      27.330 -11.178  -6.990  0.00  0.00     0.117 A 
ATOM     21  F   UNL d   1      26.694 -10.014  -6.803  0.00  0.00    -0.206 F 
ATOM     22  C   UNL d   1      27.121 -12.223  -6.090  0.00  0.00     0.059 A 
ENDBRANCH   2  16
TORSDOF 3
ENDMDL
MODEL 6
REMARK VINA RESULT:    -6.115      5.682      7.839
REMARK INTER + INTRA:          -8.223
REMARK INTER:                  -7.010
REMARK INTRA:                  -1.213
REMARK CONF_INDEPENDENT:        0.895
REMARK UNBOUND:                -1.213
REMARK  3 active torsions:
REMARK  status: ('A' for Active; 'I' for Inactive)
REMARK       I    between atoms: C_2  and  N_3 
REMARK    1  A    between atoms: C_2  and  C_14 
REMARK    2  A    between atoms: N_3  and  N_4 
REMARK       I    between atoms: N_4  and  C_5 
REMARK    3  A    between atoms: C_5  and  C_7 
ROOT
ATOM      1  O   UNL d   1      24.780 -14.799  -4.382  0.00  0.00    -0.266 OA
ATOM      2  C   UNL d   1      25.164 -14.468  -3.259  0.00  0.00     0.270 C 
ATOM      3  N   UNL d   1      25.442 -13.151  -2.911  0.00  0.00    -0.263 N 
ATOM      4  H   UNL d   1      25.862 -12.877  -2.025  0.00  0.00     0.190 HD
ENDROOT
BRANCH   3   5
ATOM      5  N   UNL d   1      25.283 -12.115  -3.875  0.00  0.00    -0.263 N 
ATOM      6  C   UNL d   1      25.907 -10.890  -3.668  0.00  0.00     0.270 C 
ATOM      7  O   UNL d   1      26.615 -10.661  -2.688  0.00  0.00    -0.266 OA
ATOM      8  H   UNL d   1      24.780 -12.365  -4.724  0.00  0.00     0.190 HD
BRANCH   6   9
ATOM      9  C   UNL d   1      25.689  -9.818  -4.693  0.00  0.00     0.035 A 
ATOM     10  C   UNL d   1      26.370  -9.843  -5.918  0.00  0.00     0.017 A 
ATOM     11  C   UNL d   1      26.093  -8.886  -6.905  0.00  0.00     0.003 A 
ATOM     12  C   UNL d   1      25.147  -7.887  -6.673  0.00  0.00     0.024 A 
ATOM     13  C   UNL d   1      24.471  -7.854  -5.455  0.00  0.00     0.035 A 
ATOM     14 CL   UNL d   1      23.317  -6.605  -5.172  0.00  0.00    -0.084 Cl
ATOM     15  C   UNL d   1      24.722  -8.821  -4.472  0.00  0.00     0.041 A 
ENDBRANCH   6   9
ENDBRANCH   3   5
BRANCH   2  16
ATOM     16  C   UNL d   1      25.370 -15.509  -2.201  0.00  0.00     0.036 A 
ATOM     17  C   UNL d   1      26.672 -15.845  -1.785  0.00  0.00     0.017 A 
ATOM     18  C   UNL d   1      26.879 -16.814  -0.788  0.00  0.00     0.004 A 
ATOM     19  C   UNL d   1      25.789 -17.474  -0.226  0.00  0.00     0.042 A 
ATOM     20  C   UNL d   1      24.508 -17.165  -0.669  0.00  0.00     0.117 A 
ATOM     21  F   UNL d   1      23.462 -17.816  -0.142  0.00  0.00    -0.206 F 
ATOM     22  C   UNL d   1      24.285 -16.194  -1.646  0.00  0.00     0.059 A 
ENDBRANCH   2  16
TORSDOF 3
ENDMDL
MODEL 7
REMARK VINA RESULT:    -5.972      4.508      6.461
REMARK INTER + INTRA:          -8.070
REMARK INTER:                  -6.867
REMARK INTRA:                  -1.204
REMARK CONF_INDEPENDENT:        0.895
REMARK UNBOUND:                -1.204
REMARK  3 active torsions:
REMARK  status: ('A' for Active; 'I' for Inactive)
REMARK       I    between atoms: C_2  and  N_3 
REMARK    1  A    between atoms: C_2  and  C_14 
REMARK    2  A    between atoms: N_3  and  N_4 
REMARK       I    between atoms: N_4  and  C_5 
REMARK    3  A    between atoms: C_5  and  C_7 
ROOT
ATOM      1  O   UNL d   1      24.218 -14.435  -2.869  0.00  0.00    -0.266 OA
ATOM      2  C   UNL d   1      25.102 -15.269  -2.666  0.00  0.00     0.270 C 
ATOM      3  N   UNL d   1      26.313 -15.271  -3.348  0.00  0.00    -0.263 N 
ATOM      4  H   UNL d   1      27.005 -16.014  -3.268  0.00  0.00     0.190 HD
ENDROOT
BRANCH   3   5
ATOM      5  N   UNL d   1      26.574 -14.276  -4.331  0.00  0.00    -0.263 N 
ATOM      6  C   UNL d   1      27.530 -14.519  -5.311  0.00  0.00     0.270 C 
ATOM      7  O   UNL d   1      28.159 -15.575  -5.380  0.00  0.00    -0.266 OA
ATOM      8  H   UNL d   1      25.968 -13.457  -4.314  0.00  0.00     0.190 HD
BRANCH   6   9
ATOM      9  C   UNL d   1      27.794 -13.433  -6.309  0.00  0.00     0.035 A 
ATOM     10  C   UNL d   1      28.650 -13.648  -7.398  0.00  0.00     0.017 A 
ATOM     11  C   UNL d   1      28.821 -12.656  -8.376  0.00  0.00     0.003 A 
ATOM     12  C   UNL d   1      28.152 -11.437  -8.267  0.00  0.00     0.024 A 
ATOM     13  C   UNL d   1      27.304 -11.216  -7.184  0.00  0.00     0.035 A 
ATOM     14 CL   UNL d   1      26.496  -9.699  -7.051  0.00  0.00    -0.084 Cl
ATOM     15  C   UNL d   1      27.107 -12.209  -6.216  0.00  0.00     0.041 A 
ENDBRANCH   6   9
ENDBRANCH   3   5
BRANCH   2  16
ATOM     16  C   UNL d   1      24.887 -16.356  -1.657  0.00  0.00     0.036 A 
ATOM     17  C   UNL d   1      25.988 -17.043  -1.114  0.00  0.00     0.017 A 
ATOM     18  C   UNL d   1      25.802 -18.059  -0.161  0.00  0.00     0.004 A 
ATOM     19  C   UNL d   1      24.513 -18.414   0.231  0.00  0.00     0.042 A 
ATOM     20  C   UNL d   1      23.427 -17.757  -0.337  0.00  0.00     0.117 A 
ATOM     21  F   UNL d   1      22.187 -18.114   0.025  0.00  0.00    -0.206 F 
ATOM     22  C   UNL d   1      23.597 -16.735  -1.273  0.00  0.00     0.059 A 
ENDBRANCH   2  16
TORSDOF 3
ENDMDL
MODEL 8
REMARK VINA RESULT:    -5.955      6.654     10.135
REMARK INTER + INTRA:          -8.086
REMARK INTER:                  -6.850
REMARK INTRA:                  -1.236
REMARK CONF_INDEPENDENT:        0.895
REMARK UNBOUND:                -1.236
REMARK  3 active torsions:
REMARK  status: ('A' for Active; 'I' for Inactive)
REMARK       I    between atoms: C_2  and  N_3 
REMARK    1  A    between atoms: C_2  and  C_14 
REMARK    2  A    between atoms: N_3  and  N_4 
REMARK       I    between atoms: N_4  and  C_5 
REMARK    3  A    between atoms: C_5  and  C_7 
ROOT
ATOM      1  O   UNL d   1      26.305 -10.400  -2.600  0.00  0.00    -0.266 OA
ATOM      2  C   UNL d   1      25.713 -10.702  -3.638  0.00  0.00     0.270 C 
ATOM      3  N   UNL d   1      25.191 -11.969  -3.871  0.00  0.00    -0.263 N 
ATOM      4  H   UNL d   1      24.797 -12.262  -4.764  0.00  0.00     0.190 HD
ENDROOT
BRANCH   3   5
ATOM      5  N   UNL d   1      25.328 -12.985  -2.883  0.00  0.00    -0.263 N 
ATOM      6  C   UNL d   1      25.090 -14.310  -3.231  0.00  0.00     0.270 C 
ATOM      7  O   UNL d   1      24.780 -14.654  -4.371  0.00  0.00    -0.266 OA
ATOM      8  H   UNL d   1      25.686 -12.686  -1.978  0.00  0.00     0.190 HD
BRANCH   6   9
ATOM      9  C   UNL d   1      25.218 -15.344  -2.153  0.00  0.00     0.035 A 
ATOM     10  C   UNL d   1      24.088 -16.006  -1.653  0.00  0.00     0.017 A 
ATOM     11  C   UNL d   1      24.226 -17.035  -0.710  0.00  0.00     0.003 A 
ATOM     12  C   UNL d   1      25.489 -17.401  -0.246  0.00  0.00     0.024 A 
ATOM     13  C   UNL d   1      26.615 -16.744  -0.736  0.00  0.00     0.035 A 
ATOM     14 CL   UNL d   1      28.170 -17.193  -0.143  0.00  0.00    -0.084 Cl
ATOM     15  C   UNL d   1      26.490 -15.732  -1.697  0.00  0.00     0.041 A 
ENDBRANCH   6   9
ENDBRANCH   3   5
BRANCH   2  16
ATOM     16  C   UNL d   1      25.548  -9.687  -4.727  0.00  0.00     0.036 A 
ATOM     17  C   UNL d   1      26.415  -9.693  -5.836  0.00  0.00     0.017 A 
ATOM     18  C   UNL d   1      26.267  -8.752  -6.869  0.00  0.00     0.004 A 
ATOM     19  C   UNL d   1      25.272  -7.780  -6.783  0.00  0.00     0.042 A 
ATOM     20  C   UNL d   1      24.443  -7.755  -5.667  0.00  0.00     0.117 A 
ATOM     21  F   UNL d   1      23.501  -6.807  -5.577  0.00  0.00    -0.206 F 
ATOM     22  C   UNL d   1      24.568  -8.693  -4.642  0.00  0.00     0.059 A 
ENDBRANCH   2  16
TORSDOF 3
ENDMDL
MODEL 9
REMARK VINA RESULT:    -5.937      6.429     10.589
REMARK INTER + INTRA:          -8.094
REMARK INTER:                  -6.832
REMARK INTRA:                  -1.262
REMARK CONF_INDEPENDENT:        0.895
REMARK UNBOUND:                -1.262
REMARK  3 active torsions:
REMARK  status: ('A' for Active; 'I' for Inactive)
REMARK       I    between atoms: C_2  and  N_3 
REMARK    1  A    between atoms: C_2  and  C_14 
REMARK    2  A    between atoms: N_3  and  N_4 
REMARK       I    between atoms: N_4  and  C_5 
REMARK    3  A    between atoms: C_5  and  C_7 
ROOT
ATOM      1  O   UNL d   1      29.758 -15.594  -5.203  0.00  0.00    -0.266 OA
ATOM      2  C   UNL d   1      28.908 -14.775  -5.558  0.00  0.00     0.270 C 
ATOM      3  N   UNL d   1      27.664 -14.663  -4.951  0.00  0.00    -0.263 N 
ATOM      4  H   UNL d   1      26.914 -14.069  -5.302  0.00  0.00     0.190 HD
ENDROOT
BRANCH   3   5
ATOM      5  N   UNL d   1      27.326 -15.518  -3.864  0.00  0.00    -0.263 N 
ATOM      6  C   UNL d   1      26.033 -15.493  -3.353  0.00  0.00     0.270 C 
ATOM      7  O   UNL d   1      25.149 -14.771  -3.814  0.00  0.00    -0.266 OA
ATOM      8  H   UNL d   1      28.044 -16.178  -3.572  0.00  0.00     0.190 HD
BRANCH   6   9
ATOM      9  C   UNL d   1      25.728 -16.388  -2.190  0.00  0.00     0.035 A 
ATOM     10  C   UNL d   1      26.715 -16.705  -1.246  0.00  0.00     0.017 A 
ATOM     11  C   UNL d   1      26.398 -17.469  -0.114  0.00  0.00     0.003 A 
ATOM     12  C   UNL d   1      25.098 -17.937   0.079  0.00  0.00     0.024 A 
ATOM     13  C   UNL d   1      24.114 -17.629  -0.857  0.00  0.00     0.035 A 
ATOM     14 CL   UNL d   1      22.515 -18.227  -0.617  0.00  0.00    -0.084 Cl
ATOM     15  C   UNL d   1      24.415 -16.845  -1.979  0.00  0.00     0.041 A 
ENDBRANCH   6   9
ENDBRANCH   3   5
BRANCH   2  16
ATOM     16  C   UNL d   1      29.190 -13.856  -6.708  0.00  0.00     0.036 A 
ATOM     17  C   UNL d   1      28.163 -13.055  -7.241  0.00  0.00     0.017 A 
ATOM     18  C   UNL d   1      28.415 -12.183  -8.313  0.00  0.00     0.004 A 
ATOM     19  C   UNL d   1      29.687 -12.130  -8.879  0.00  0.00     0.042 A 
ATOM     20  C   UNL d   1      30.688 -12.951  -8.373  0.00  0.00     0.117 A 
ATOM     21  F   UNL d   1      31.905 -12.914  -8.932  0.00  0.00    -0.206 F 
ATOM     22  C   UNL d   1      30.457 -13.811  -7.298  0.00  0.00     0.059 A 
ENDBRANCH   2  16
TORSDOF 3
ENDMDL
