MODEL 1
REMARK VINA RESULT:    -8.163      0.000      0.000
REMARK INTER + INTRA:         -16.362
REMARK INTER:                 -11.743
REMARK INTRA:                  -4.620
REMARK CONF_INDEPENDENT:        3.580
REMARK UNBOUND:                -4.620
REMARK  12 active torsions:
REMARK  status: ('A' for Active; 'I' for Inactive)
REMARK    1  A    between atoms: C_2  and  O_3 
REMARK    2  A    between atoms: O_3  and  C_4 
REMARK    3  A    between atoms: C_7  and  C_8 
REMARK    4  A    between atoms: C_8  and  O_9 
REMARK    5  A    between atoms: C_8  and  C_10 
REMARK    6  A    between atoms: C_10  and  C_11 
REMARK    7  A    between atoms: C_11  and  C_12 
REMARK       I    between atoms: C_12  and  N_14 
REMARK    8  A    between atoms: N_14  and  N_15 
REMARK    9  A    between atoms: C_16  and  C_17 
REMARK   10  A    between atoms: C_20  and  C_21 
REMARK   11  A    between atoms: C_23  and  N_24 
REMARK   12  A    between atoms: C_29  and  O_30 
ROOT
ATOM      1  C   UNL d   1      26.477 -14.112  -1.594  0.00  0.00     0.237 C 
ATOM      2  O   UNL d   1      26.233 -12.907  -1.494  0.00  0.00    -0.272 OA
ATOM      3  N   UNL d   1      25.923 -14.940  -2.550  0.00  0.00    -0.247 N 
ATOM      4  H   UNL d   1      26.256 -15.893  -2.631  0.00  0.00     0.192 HD
ENDROOT
BRANCH   3   5
ATOM      5  N   UNL d   1      25.065 -14.431  -3.499  0.00  0.00    -0.182 NA
ATOM      6  C   UNL d   1      25.523 -14.116  -4.680  0.00  0.00     0.175 C 
BRANCH   6   7
ATOM      7  C   UNL d   1      26.863 -14.362  -5.151  0.00  0.00     0.095 A 
ATOM      8  C   UNL d   1      27.710 -13.513  -5.835  0.00  0.00     0.041 A 
ATOM      9  C   UNL d   1      28.867 -14.240  -6.130  0.00  0.00     0.041 A 
ATOM     10  C   UNL d   1      28.710 -15.485  -5.565  0.00  0.00     0.089 A 
ATOM     11  O   UNL d   1      27.485 -15.575  -4.950  0.00  0.00    -0.308 OA
BRANCH  10  12
ATOM     12  C   UNL d   1      29.655 -16.589  -5.448  0.00  0.00     0.033 A 
ATOM     13  C   UNL d   1      30.405 -17.041  -6.540  0.00  0.00     0.053 A 
ATOM     14  C   UNL d   1      31.283 -18.128  -6.372  0.00  0.00     0.103 A 
ATOM     15  C   UNL d   1      31.513 -18.682  -5.103  0.00  0.00     0.039 A 
ATOM     16  C   UNL d   1      30.803 -18.202  -4.005  0.00  0.00     0.040 A 
ATOM     17  C   UNL d   1      29.881 -17.172  -4.184  0.00  0.00     0.078 A 
BRANCH  14  18
ATOM     18  N   UNL d   1      31.884 -18.769  -7.549  0.00  0.00    -0.116 N 
ATOM     19  O   UNL d   1      33.062 -19.132  -7.471  0.00  0.00    -0.532 OA
ATOM     20  O   UNL d   1      31.181 -18.869  -8.568  0.00  0.00    -0.532 OA
ENDBRANCH  14  18
BRANCH  17  21
ATOM     21  O   UNL d   1      29.184 -16.701  -3.100  0.00  0.00    -0.360 OA
ATOM     22  H   UNL d   1      28.241 -16.633  -3.311  0.00  0.00     0.217 HD
ENDBRANCH  17  21
ENDBRANCH  10  12
ENDBRANCH   6   7
ENDBRANCH   3   5
BRANCH   1  23
ATOM     23  C   UNL d   1      27.428 -14.834  -0.642  0.00  0.00     0.107 C 
BRANCH  23  24
ATOM     24  C   UNL d   1      26.622 -15.789   0.231  0.00  0.00     0.046 C 
BRANCH  24  25
ATOM     25  C   UNL d   1      26.332 -17.159  -0.384  0.00  0.00     0.151 C 
BRANCH  25  26
ATOM     26  C   UNL d   1      24.844 -17.420  -0.567  0.00  0.00    -0.029 A 
ATOM     27  C   UNL d   1      23.969 -16.357  -0.826  0.00  0.00     0.012 A 
ATOM     28  C   UNL d   1      22.584 -16.570  -0.872  0.00  0.00     0.037 A 
ATOM     29  C   UNL d   1      22.056 -17.855  -0.733  0.00  0.00     0.068 A 
ATOM     30  C   UNL d   1      22.920 -18.925  -0.541  0.00  0.00     0.037 A 
ATOM     31  C   UNL d   1      24.293 -18.708  -0.457  0.00  0.00     0.012 A 
BRANCH  29  32
ATOM     32  O   UNL d   1      20.705 -17.984  -0.895  0.00  0.00    -0.352 OA
BRANCH  32  33
ATOM     33  C   UNL d   1      20.210 -19.325  -0.904  0.00  0.00     0.171 C 
ATOM     34  C   UNL d   1      19.603 -19.614   0.456  0.00  0.00     0.034 C 
ENDBRANCH  32  33
ENDBRANCH  29  32
ENDBRANCH  25  26
BRANCH  25  35
ATOM     35  O   UNL d   1      26.970 -17.212  -1.662  0.00  0.00    -0.391 OA
ATOM     36  H   UNL d   1      27.907 -17.425  -1.496  0.00  0.00     0.210 HD
ENDBRANCH  25  35
ENDBRANCH  24  25
ENDBRANCH  23  24
ENDBRANCH   1  23
TORSDOF 12
ENDMDL
MODEL 2
REMARK VINA RESULT:    -6.695      3.177      6.849
REMARK INTER + INTRA:         -15.789
REMARK INTER:                 -10.274
REMARK INTRA:                  -5.514
REMARK CONF_INDEPENDENT:        3.580
REMARK UNBOUND:                -5.514
REMARK  12 active torsions:
REMARK  status: ('A' for Active; 'I' for Inactive)
REMARK    1  A    between atoms: C_2  and  O_3 
REMARK    2  A    between atoms: O_3  and  C_4 
REMARK    3  A    between atoms: C_7  and  C_8 
REMARK    4  A    between atoms: C_8  and  O_9 
REMARK    5  A    between atoms: C_8  and  C_10 
REMARK    6  A    between atoms: C_10  and  C_11 
REMARK    7  A    between atoms: C_11  and  C_12 
REMARK       I    between atoms: C_12  and  N_14 
REMARK    8  A    between atoms: N_14  and  N_15 
REMARK    9  A    between atoms: C_16  and  C_17 
REMARK   10  A    between atoms: C_20  and  C_21 
REMARK   11  A    between atoms: C_23  and  N_24 
REMARK   12  A    between atoms: C_29  and  O_30 
ROOT
ATOM      1  C   UNL d   1      26.883 -15.081  -4.580  0.00  0.00     0.237 C 
ATOM      2  O   UNL d   1      26.972 -15.256  -5.798  0.00  0.00    -0.272 OA
ATOM      3  N   UNL d   1      27.958 -14.826  -3.752  0.00  0.00    -0.247 N 
ATOM      4  H   UNL d   1      27.789 -14.589  -2.782  0.00  0.00     0.192 HD
ENDROOT
BRANCH   3   5
ATOM      5  N   UNL d   1      29.227 -14.710  -4.274  0.00  0.00    -0.182 NA
ATOM      6  C   UNL d   1      29.950 -13.661  -3.987  0.00  0.00     0.175 C 
BRANCH   6   7
ATOM      7  C   UNL d   1      29.587 -12.626  -3.052  0.00  0.00     0.095 A 
ATOM      8  C   UNL d   1      29.786 -11.263  -3.151  0.00  0.00     0.041 A 
ATOM      9  C   UNL d   1      29.327 -10.696  -1.959  0.00  0.00     0.041 A 
ATOM     10  C   UNL d   1      28.810 -11.723  -1.202  0.00  0.00     0.089 A 
ATOM     11  O   UNL d   1      28.955 -12.918  -1.864  0.00  0.00    -0.308 OA
BRANCH  10  12
ATOM     12  C   UNL d   1      28.084 -11.685   0.061  0.00  0.00     0.033 A 
ATOM     13  C   UNL d   1      27.293 -10.589   0.429  0.00  0.00     0.053 A 
ATOM     14  C   UNL d   1      26.636 -10.600   1.673  0.00  0.00     0.103 A 
ATOM     15  C   UNL d   1      26.655 -11.739   2.492  0.00  0.00     0.039 A 
ATOM     16  C   UNL d   1      27.402 -12.850   2.106  0.00  0.00     0.040 A 
ATOM     17  C   UNL d   1      28.111 -12.814   0.907  0.00  0.00     0.078 A 
BRANCH  14  18
ATOM     18  N   UNL d   1      26.012  -9.370   2.179  0.00  0.00    -0.116 N 
ATOM     19  O   UNL d   1      25.549  -8.575   1.355  0.00  0.00    -0.532 OA
ATOM     20  O   UNL d   1      26.027  -9.184   3.407  0.00  0.00    -0.532 OA
ENDBRANCH  14  18
BRANCH  17  21
ATOM     21  O   UNL d   1      28.845 -13.910   0.529  0.00  0.00    -0.360 OA
ATOM     22  H   UNL d   1      28.771 -14.049  -0.428  0.00  0.00     0.217 HD
ENDBRANCH  17  21
ENDBRANCH  10  12
ENDBRANCH   6   7
ENDBRANCH   3   5
BRANCH   1  23
ATOM     23  C   UNL d   1      25.548 -15.146  -3.842  0.00  0.00     0.107 C 
BRANCH  23  24
ATOM     24  C   UNL d   1      25.605 -14.214  -2.637  0.00  0.00     0.046 C 
BRANCH  24  25
ATOM     25  C   UNL d   1      25.902 -14.888  -1.296  0.00  0.00     0.151 C 
BRANCH  25  26
ATOM     26  C   UNL d   1      24.983 -16.068  -1.014  0.00  0.00    -0.029 A 
ATOM     27  C   UNL d   1      23.609 -15.968  -1.267  0.00  0.00     0.012 A 
ATOM     28  C   UNL d   1      22.739 -17.002  -0.896  0.00  0.00     0.037 A 
ATOM     29  C   UNL d   1      23.233 -18.181  -0.332  0.00  0.00     0.068 A 
ATOM     30  C   UNL d   1      24.600 -18.316  -0.136  0.00  0.00     0.037 A 
ATOM     31  C   UNL d   1      25.461 -17.273  -0.471  0.00  0.00     0.012 A 
BRANCH  29  32
ATOM     32  O   UNL d   1      22.326 -19.176  -0.096  0.00  0.00    -0.352 OA
BRANCH  32  33
ATOM     33  C   UNL d   1      21.047 -19.002  -0.711  0.00  0.00     0.171 C 
ATOM     34  C   UNL d   1      20.121 -20.085  -0.190  0.00  0.00     0.034 C 
ENDBRANCH  32  33
ENDBRANCH  29  32
ENDBRANCH  25  26
BRANCH  25  35
ATOM     35  O   UNL d   1      27.253 -15.351  -1.326  0.00  0.00    -0.391 OA
ATOM     36  H   UNL d   1      27.813 -14.592  -1.081  0.00  0.00     0.210 HD
ENDBRANCH  25  35
ENDBRANCH  24  25
ENDBRANCH  23  24
ENDBRANCH   1  23
TORSDOF 12
ENDMDL
MODEL 3
REMARK VINA RESULT:    -6.669      3.342      7.092
REMARK INTER + INTRA:         -15.973
REMARK INTER:                 -10.248
REMARK INTRA:                  -5.724
REMARK CONF_INDEPENDENT:        3.580
REMARK UNBOUND:                -5.724
REMARK  12 active torsions:
REMARK  status: ('A' for Active; 'I' for Inactive)
REMARK    1  A    between atoms: C_2  and  O_3 
REMARK    2  A    between atoms: O_3  and  C_4 
REMARK    3  A    between atoms: C_7  and  C_8 
REMARK    4  A    between atoms: C_8  and  O_9 
REMARK    5  A    between atoms: C_8  and  C_10 
REMARK    6  A    between atoms: C_10  and  C_11 
REMARK    7  A    between atoms: C_11  and  C_12 
REMARK       I    between atoms: C_12  and  N_14 
REMARK    8  A    between atoms: N_14  and  N_15 
REMARK    9  A    between atoms: C_16  and  C_17 
REMARK   10  A    between atoms: C_20  and  C_21 
REMARK   11  A    between atoms: C_23  and  N_24 
REMARK   12  A    between atoms: C_29  and  O_30 
ROOT
ATOM      1  C   UNL d   1      28.970 -16.354  -1.742  0.00  0.00     0.237 C 
ATOM      2  O   UNL d   1      29.241 -17.316  -2.466  0.00  0.00    -0.272 OA
ATOM      3  N   UNL d   1      28.702 -15.083  -2.209  0.00  0.00    -0.247 N 
ATOM      4  H   UNL d   1      28.385 -14.374  -1.558  0.00  0.00     0.192 HD
ENDROOT
BRANCH   3   5
ATOM      5  N   UNL d   1      28.686 -14.827  -3.562  0.00  0.00    -0.182 NA
ATOM      6  C   UNL d   1      28.262 -13.671  -3.995  0.00  0.00     0.175 C 
BRANCH   6   7
ATOM      7  C   UNL d   1      27.903 -12.548  -3.166  0.00  0.00     0.095 A 
ATOM      8  C   UNL d   1      27.544 -11.271  -3.548  0.00  0.00     0.041 A 
ATOM      9  C   UNL d   1      27.363 -10.529  -2.377  0.00  0.00     0.041 A 
ATOM     10  C   UNL d   1      27.559 -11.393  -1.324  0.00  0.00     0.089 A 
ATOM     11  O   UNL d   1      27.884 -12.643  -1.792  0.00  0.00    -0.308 OA
BRANCH  10  12
ATOM     12  C   UNL d   1      27.365 -11.190   0.106  0.00  0.00     0.033 A 
ATOM     13  C   UNL d   1      26.841  -9.998   0.621  0.00  0.00     0.053 A 
ATOM     14  C   UNL d   1      26.700  -9.851   2.013  0.00  0.00     0.103 A 
ATOM     15  C   UNL d   1      26.956 -10.922   2.883  0.00  0.00     0.039 A 
ATOM     16  C   UNL d   1      27.432 -12.126   2.370  0.00  0.00     0.040 A 
ATOM     17  C   UNL d   1      27.639 -12.250   0.997  0.00  0.00     0.078 A 
BRANCH  14  18
ATOM     18  N   UNL d   1      26.391  -8.532   2.580  0.00  0.00    -0.116 N 
ATOM     19  O   UNL d   1      25.539  -7.843   2.010  0.00  0.00    -0.532 OA
ATOM     20  O   UNL d   1      27.038  -8.171   3.577  0.00  0.00    -0.532 OA
ENDBRANCH  14  18
BRANCH  17  21
ATOM     21  O   UNL d   1      28.106 -13.437   0.494  0.00  0.00    -0.360 OA
ATOM     22  H   UNL d   1      27.443 -13.839  -0.088  0.00  0.00     0.217 HD
ENDBRANCH  17  21
ENDBRANCH  10  12
ENDBRANCH   6   7
ENDBRANCH   3   5
BRANCH   1  23
ATOM     23  C   UNL d   1      28.917 -16.467  -0.220  0.00  0.00     0.107 C 
BRANCH  23  24
ATOM     24  C   UNL d   1      27.462 -16.602   0.214  0.00  0.00     0.046 C 
BRANCH  24  25
ATOM     25  C   UNL d   1      26.422 -16.219  -0.840  0.00  0.00     0.151 C 
BRANCH  25  26
ATOM     26  C   UNL d   1      25.068 -16.870  -0.594  0.00  0.00    -0.029 A 
ATOM     27  C   UNL d   1      24.992 -18.217  -0.215  0.00  0.00     0.012 A 
ATOM     28  C   UNL d   1      23.750 -18.857  -0.107  0.00  0.00     0.037 A 
ATOM     29  C   UNL d   1      22.563 -18.149  -0.307  0.00  0.00     0.068 A 
ATOM     30  C   UNL d   1      22.626 -16.798  -0.619  0.00  0.00     0.037 A 
ATOM     31  C   UNL d   1      23.861 -16.171  -0.763  0.00  0.00     0.012 A 
BRANCH  29  32
ATOM     32  O   UNL d   1      21.398 -18.827  -0.080  0.00  0.00    -0.352 OA
BRANCH  32  33
ATOM     33  C   UNL d   1      20.636 -19.149  -1.246  0.00  0.00     0.171 C 
ATOM     34  C   UNL d   1      19.293 -19.693  -0.797  0.00  0.00     0.034 C 
ENDBRANCH  32  33
ENDBRANCH  29  32
ENDBRANCH  25  26
BRANCH  25  35
ATOM     35  O   UNL d   1      26.263 -14.799  -0.807  0.00  0.00    -0.391 OA
ATOM     36  H   UNL d   1      27.059 -14.421  -1.224  0.00  0.00     0.210 HD
ENDBRANCH  25  35
ENDBRANCH  24  25
ENDBRANCH  23  24
ENDBRANCH   1  23
TORSDOF 12
ENDMDL
MODEL 4
REMARK VINA RESULT:    -6.294      3.121      6.757
REMARK INTER + INTRA:         -15.506
REMARK INTER:                  -9.874
REMARK INTRA:                  -5.632
REMARK CONF_INDEPENDENT:        3.580
REMARK UNBOUND:                -5.632
REMARK  12 active torsions:
REMARK  status: ('A' for Active; 'I' for Inactive)
REMARK    1  A    between atoms: C_2  and  O_3 
REMARK    2  A    between atoms: O_3  and  C_4 
REMARK    3  A    between atoms: C_7  and  C_8 
REMARK    4  A    between atoms: C_8  and  O_9 
REMARK    5  A    between atoms: C_8  and  C_10 
REMARK    6  A    between atoms: C_10  and  C_11 
REMARK    7  A    between atoms: C_11  and  C_12 
REMARK       I    between atoms: C_12  and  N_14 
REMARK    8  A    between atoms: N_14  and  N_15 
REMARK    9  A    between atoms: C_16  and  C_17 
REMARK   10  A    between atoms: C_20  and  C_21 
REMARK   11  A    between atoms: C_23  and  N_24 
REMARK   12  A    between atoms: C_29  and  O_30 
ROOT
ATOM      1  C   UNL d   1      27.384 -15.199  -4.293  0.00  0.00     0.237 C 
ATOM      2  O   UNL d   1      27.415 -15.562  -5.472  0.00  0.00    -0.272 OA
ATOM      3  N   UNL d   1      28.355 -15.504  -3.361  0.00  0.00    -0.247 N 
ATOM      4  H   UNL d   1      28.309 -15.079  -2.443  0.00  0.00     0.192 HD
ENDROOT
BRANCH   3   5
ATOM      5  N   UNL d   1      29.471 -16.225  -3.727  0.00  0.00    -0.182 NA
ATOM      6  C   UNL d   1      30.427 -16.418  -2.860  0.00  0.00     0.175 C 
BRANCH   6   7
ATOM      7  C   UNL d   1      30.386 -16.039  -1.470  0.00  0.00     0.095 A 
ATOM      8  C   UNL d   1      31.340 -16.235  -0.492  0.00  0.00     0.041 A 
ATOM      9  C   UNL d   1      30.800 -15.757   0.706  0.00  0.00     0.041 A 
ATOM     10  C   UNL d   1      29.564 -15.233   0.405  0.00  0.00     0.089 A 
ATOM     11  O   UNL d   1      29.296 -15.391  -0.933  0.00  0.00    -0.308 OA
BRANCH  10  12
ATOM     12  C   UNL d   1      28.631 -14.488   1.241  0.00  0.00     0.033 A 
ATOM     13  C   UNL d   1      28.753 -14.450   2.636  0.00  0.00     0.053 A 
ATOM     14  C   UNL d   1      27.806 -13.734   3.392  0.00  0.00     0.103 A 
ATOM     15  C   UNL d   1      26.820 -12.956   2.767  0.00  0.00     0.039 A 
ATOM     16  C   UNL d   1      26.725 -12.954   1.377  0.00  0.00     0.040 A 
ATOM     17  C   UNL d   1      27.619 -13.719   0.630  0.00  0.00     0.078 A 
BRANCH  14  18
ATOM     18  N   UNL d   1      27.773 -13.887   4.852  0.00  0.00    -0.116 N 
ATOM     19  O   UNL d   1      28.071 -14.989   5.326  0.00  0.00    -0.532 OA
ATOM     20  O   UNL d   1      27.405 -12.908   5.522  0.00  0.00    -0.532 OA
ENDBRANCH  14  18
BRANCH  17  21
ATOM     21  O   UNL d   1      27.524 -13.713  -0.739  0.00  0.00    -0.360 OA
ATOM     22  H   UNL d   1      27.453 -14.620  -1.074  0.00  0.00     0.217 HD
ENDBRANCH  17  21
ENDBRANCH  10  12
ENDBRANCH   6   7
ENDBRANCH   3   5
BRANCH   1  23
ATOM     23  C   UNL d   1      26.235 -14.369  -3.726  0.00  0.00     0.107 C 
BRANCH  23  24
ATOM     24  C   UNL d   1      25.222 -15.305  -3.078  0.00  0.00     0.046 C 
BRANCH  24  25
ATOM     25  C   UNL d   1      25.552 -15.749  -1.652  0.00  0.00     0.151 C 
BRANCH  25  26
ATOM     26  C   UNL d   1      24.487 -16.658  -1.057  0.00  0.00    -0.029 A 
ATOM     27  C   UNL d   1      24.831 -17.930  -0.581  0.00  0.00     0.012 A 
ATOM     28  C   UNL d   1      23.840 -18.820  -0.146  0.00  0.00     0.037 A 
ATOM     29  C   UNL d   1      22.499 -18.432  -0.112  0.00  0.00     0.068 A 
ATOM     30  C   UNL d   1      22.155 -17.151  -0.520  0.00  0.00     0.037 A 
ATOM     31  C   UNL d   1      23.135 -16.279  -0.987  0.00  0.00     0.012 A 
BRANCH  29  32
ATOM     32  O   UNL d   1      21.615 -19.327   0.423  0.00  0.00    -0.352 OA
BRANCH  32  33
ATOM     33  C   UNL d   1      20.432 -19.559  -0.345  0.00  0.00     0.171 C 
ATOM     34  C   UNL d   1      19.277 -19.766   0.616  0.00  0.00     0.034 C 
ENDBRANCH  32  33
ENDBRANCH  29  32
ENDBRANCH  25  26
BRANCH  25  35
ATOM     35  O   UNL d   1      26.794 -16.455  -1.687  0.00  0.00    -0.391 OA
ATOM     36  H   UNL d   1      27.479 -15.828  -1.390  0.00  0.00     0.210 HD
ENDBRANCH  25  35
ENDBRANCH  24  25
ENDBRANCH  23  24
ENDBRANCH   1  23
TORSDOF 12
ENDMDL
MODEL 5
REMARK VINA RESULT:    -6.117      2.415      5.225
REMARK INTER + INTRA:         -15.255
REMARK INTER:                  -9.697
REMARK INTRA:                  -5.559
REMARK CONF_INDEPENDENT:        3.580
REMARK UNBOUND:                -5.559
REMARK  12 active torsions:
REMARK  status: ('A' for Active; 'I' for Inactive)
REMARK    1  A    between atoms: C_2  and  O_3 
REMARK    2  A    between atoms: O_3  and  C_4 
REMARK    3  A    between atoms: C_7  and  C_8 
REMARK    4  A    between atoms: C_8  and  O_9 
REMARK    5  A    between atoms: C_8  and  C_10 
REMARK    6  A    between atoms: C_10  and  C_11 
REMARK    7  A    between atoms: C_11  and  C_12 
REMARK       I    between atoms: C_12  and  N_14 
REMARK    8  A    between atoms: N_14  and  N_15 
REMARK    9  A    between atoms: C_16  and  C_17 
REMARK   10  A    between atoms: C_20  and  C_21 
REMARK   11  A    between atoms: C_23  and  N_24 
REMARK   12  A    between atoms: C_29  and  O_30 
ROOT
ATOM      1  C   UNL d   1      30.366 -17.179  -0.946  0.00  0.00     0.237 C 
ATOM      2  O   UNL d   1      31.048 -18.093  -0.475  0.00  0.00    -0.272 OA
ATOM      3  N   UNL d   1      30.137 -16.998  -2.295  0.00  0.00    -0.247 N 
ATOM      4  H   UNL d   1      29.480 -16.287  -2.594  0.00  0.00     0.192 HD
ENDROOT
BRANCH   3   5
ATOM      5  N   UNL d   1      30.649 -17.887  -3.214  0.00  0.00    -0.182 NA
ATOM      6  C   UNL d   1      30.393 -17.722  -4.484  0.00  0.00     0.175 C 
BRANCH   6   7
ATOM      7  C   UNL d   1      29.699 -16.596  -5.058  0.00  0.00     0.095 A 
ATOM      8  C   UNL d   1      29.816 -16.065  -6.326  0.00  0.00     0.041 A 
ATOM      9  C   UNL d   1      28.991 -14.937  -6.374  0.00  0.00     0.041 A 
ATOM     10  C   UNL d   1      28.356 -14.856  -5.156  0.00  0.00     0.089 A 
ATOM     11  O   UNL d   1      28.775 -15.875  -4.335  0.00  0.00    -0.308 OA
BRANCH  10  12
ATOM     12  C   UNL d   1      27.295 -13.963  -4.707  0.00  0.00     0.033 A 
ATOM     13  C   UNL d   1      27.450 -12.571  -4.701  0.00  0.00     0.053 A 
ATOM     14  C   UNL d   1      26.399 -11.762  -4.232  0.00  0.00     0.103 A 
ATOM     15  C   UNL d   1      25.155 -12.317  -3.892  0.00  0.00     0.039 A 
ATOM     16  C   UNL d   1      24.982 -13.698  -3.942  0.00  0.00     0.040 A 
ATOM     17  C   UNL d   1      26.046 -14.506  -4.339  0.00  0.00     0.078 A 
BRANCH  14  18
ATOM     18  N   UNL d   1      26.632 -10.333  -3.987  0.00  0.00    -0.116 N 
ATOM     19  O   UNL d   1      27.727  -9.862  -4.311  0.00  0.00    -0.532 OA
ATOM     20  O   UNL d   1      25.726  -9.692  -3.428  0.00  0.00    -0.532 OA
ENDBRANCH  14  18
BRANCH  17  21
ATOM     21  O   UNL d   1      25.872 -15.866  -4.389  0.00  0.00    -0.360 OA
ATOM     22  H   UNL d   1      26.636 -16.317  -3.998  0.00  0.00     0.217 HD
ENDBRANCH  17  21
ENDBRANCH  10  12
ENDBRANCH   6   7
ENDBRANCH   3   5
BRANCH   1  23
ATOM     23  C   UNL d   1      29.701 -16.121  -0.069  0.00  0.00     0.107 C 
BRANCH  23  24
ATOM     24  C   UNL d   1      28.246 -16.514   0.162  0.00  0.00     0.046 C 
BRANCH  24  25
ATOM     25  C   UNL d   1      27.452 -16.867  -1.096  0.00  0.00     0.151 C 
BRANCH  25  26
ATOM     26  C   UNL d   1      25.996 -17.198  -0.800  0.00  0.00    -0.029 A 
ATOM     27  C   UNL d   1      24.977 -16.685  -1.613  0.00  0.00     0.012 A 
ATOM     28  C   UNL d   1      23.631 -16.881  -1.277  0.00  0.00     0.037 A 
ATOM     29  C   UNL d   1      23.278 -17.651  -0.166  0.00  0.00     0.068 A 
ATOM     30  C   UNL d   1      24.280 -18.218   0.609  0.00  0.00     0.037 A 
ATOM     31  C   UNL d   1      25.619 -17.991   0.297  0.00  0.00     0.012 A 
BRANCH  29  32
ATOM     32  O   UNL d   1      21.944 -17.875   0.027  0.00  0.00    -0.352 OA
BRANCH  32  33
ATOM     33  C   UNL d   1      21.283 -18.594  -1.016  0.00  0.00     0.171 C 
ATOM     34  C   UNL d   1      20.403 -19.652  -0.378  0.00  0.00     0.034 C 
ENDBRANCH  32  33
ENDBRANCH  29  32
ENDBRANCH  25  26
BRANCH  25  35
ATOM     35  O   UNL d   1      27.499 -15.743  -1.978  0.00  0.00    -0.391 OA
ATOM     36  H   UNL d   1      27.241 -16.070  -2.859  0.00  0.00     0.210 HD
ENDBRANCH  25  35
ENDBRANCH  24  25
ENDBRANCH  23  24
ENDBRANCH   1  23
TORSDOF 12
ENDMDL
MODEL 6
REMARK VINA RESULT:    -5.895      3.268      7.596
REMARK INTER + INTRA:         -15.745
REMARK INTER:                  -9.475
REMARK INTRA:                  -6.271
REMARK CONF_INDEPENDENT:        3.580
REMARK UNBOUND:                -6.271
REMARK  12 active torsions:
REMARK  status: ('A' for Active; 'I' for Inactive)
REMARK    1  A    between atoms: C_2  and  O_3 
REMARK    2  A    between atoms: O_3  and  C_4 
REMARK    3  A    between atoms: C_7  and  C_8 
REMARK    4  A    between atoms: C_8  and  O_9 
REMARK    5  A    between atoms: C_8  and  C_10 
REMARK    6  A    between atoms: C_10  and  C_11 
REMARK    7  A    between atoms: C_11  and  C_12 
REMARK       I    between atoms: C_12  and  N_14 
REMARK    8  A    between atoms: N_14  and  N_15 
REMARK    9  A    between atoms: C_16  and  C_17 
REMARK   10  A    between atoms: C_20  and  C_21 
REMARK   11  A    between atoms: C_23  and  N_24 
REMARK   12  A    between atoms: C_29  and  O_30 
ROOT
ATOM      1  C   UNL d   1      27.852 -14.580  -4.713  0.00  0.00     0.237 C 
ATOM      2  O   UNL d   1      27.845 -15.573  -5.446  0.00  0.00    -0.272 OA
ATOM      3  N   UNL d   1      28.430 -14.545  -3.460  0.00  0.00    -0.247 N 
ATOM      4  H   UNL d   1      28.487 -13.662  -2.967  0.00  0.00     0.192 HD
ENDROOT
BRANCH   3   5
ATOM      5  N   UNL d   1      29.087 -15.649  -2.964  0.00  0.00    -0.182 NA
ATOM      6  C   UNL d   1      29.417 -15.691  -1.702  0.00  0.00     0.175 C 
BRANCH   6   7
ATOM      7  C   UNL d   1      29.050 -14.713  -0.708  0.00  0.00     0.095 A 
ATOM      8  C   UNL d   1      29.045 -14.837   0.667  0.00  0.00     0.041 A 
ATOM      9  C   UNL d   1      28.540 -13.640   1.184  0.00  0.00     0.041 A 
ATOM     10  C   UNL d   1      28.312 -12.808   0.111  0.00  0.00     0.089 A 
ATOM     11  O   UNL d   1      28.628 -13.450  -1.062  0.00  0.00    -0.308 OA
BRANCH  10  12
ATOM     12  C   UNL d   1      27.919 -11.405   0.078  0.00  0.00     0.033 A 
ATOM     13  C   UNL d   1      27.301 -10.782   1.169  0.00  0.00     0.053 A 
ATOM     14  C   UNL d   1      26.921  -9.432   1.069  0.00  0.00     0.103 A 
ATOM     15  C   UNL d   1      27.264  -8.666  -0.056  0.00  0.00     0.039 A 
ATOM     16  C   UNL d   1      27.922  -9.270  -1.125  0.00  0.00     0.040 A 
ATOM     17  C   UNL d   1      28.236 -10.627  -1.055  0.00  0.00     0.078 A 
BRANCH  14  18
ATOM     18  N   UNL d   1      26.058  -8.838   2.098  0.00  0.00    -0.116 N 
ATOM     19  O   UNL d   1      25.156  -8.079   1.730  0.00  0.00    -0.532 OA
ATOM     20  O   UNL d   1      26.316  -9.104   3.284  0.00  0.00    -0.532 OA
ENDBRANCH  14  18
BRANCH  17  21
ATOM     21  O   UNL d   1      28.885 -11.219  -2.109  0.00  0.00    -0.360 OA
ATOM     22  H   UNL d   1      28.360 -11.958  -2.453  0.00  0.00     0.217 HD
ENDBRANCH  17  21
ENDBRANCH  10  12
ENDBRANCH   6   7
ENDBRANCH   3   5
BRANCH   1  23
ATOM     23  C   UNL d   1      27.196 -13.262  -5.117  0.00  0.00     0.107 C 
BRANCH  23  24
ATOM     24  C   UNL d   1      25.767 -13.239  -4.587  0.00  0.00     0.046 C 
BRANCH  24  25
ATOM     25  C   UNL d   1      25.629 -13.066  -3.073  0.00  0.00     0.151 C 
BRANCH  25  26
ATOM     26  C   UNL d   1      25.576 -14.394  -2.331  0.00  0.00    -0.029 A 
ATOM     27  C   UNL d   1      25.161 -15.556  -2.995  0.00  0.00     0.012 A 
ATOM     28  C   UNL d   1      24.990 -16.755  -2.290  0.00  0.00     0.037 A 
ATOM     29  C   UNL d   1      25.298 -16.833  -0.930  0.00  0.00     0.068 A 
ATOM     30  C   UNL d   1      25.772 -15.703  -0.278  0.00  0.00     0.037 A 
ATOM     31  C   UNL d   1      25.906 -14.502  -0.970  0.00  0.00     0.012 A 
BRANCH  29  32
ATOM     32  O   UNL d   1      25.200 -18.066  -0.348  0.00  0.00    -0.352 OA
BRANCH  32  33
ATOM     33  C   UNL d   1      23.910 -18.678  -0.415  0.00  0.00     0.171 C 
ATOM     34  C   UNL d   1      22.864 -17.596  -0.227  0.00  0.00     0.034 C 
ENDBRANCH  32  33
ENDBRANCH  29  32
ENDBRANCH  25  26
BRANCH  25  35
ATOM     35  O   UNL d   1      26.759 -12.323  -2.610  0.00  0.00    -0.391 OA
ATOM     36  H   UNL d   1      27.247 -12.910  -2.003  0.00  0.00     0.210 HD
ENDBRANCH  25  35
ENDBRANCH  24  25
ENDBRANCH  23  24
ENDBRANCH   1  23
TORSDOF 12
ENDMDL
MODEL 7
REMARK VINA RESULT:    -5.798      3.245      5.412
REMARK INTER + INTRA:         -15.646
REMARK INTER:                  -9.377
REMARK INTRA:                  -6.269
REMARK CONF_INDEPENDENT:        3.580
REMARK UNBOUND:                -6.269
REMARK  12 active torsions:
REMARK  status: ('A' for Active; 'I' for Inactive)
REMARK    1  A    between atoms: C_2  and  O_3 
REMARK    2  A    between atoms: O_3  and  C_4 
REMARK    3  A    between atoms: C_7  and  C_8 
REMARK    4  A    between atoms: C_8  and  O_9 
REMARK    5  A    between atoms: C_8  and  C_10 
REMARK    6  A    between atoms: C_10  and  C_11 
REMARK    7  A    between atoms: C_11  and  C_12 
REMARK       I    between atoms: C_12  and  N_14 
REMARK    8  A    between atoms: N_14  and  N_15 
REMARK    9  A    between atoms: C_16  and  C_17 
REMARK   10  A    between atoms: C_20  and  C_21 
REMARK   11  A    between atoms: C_23  and  N_24 
REMARK   12  A    between atoms: C_29  and  O_30 
ROOT
ATOM      1  C   UNL d   1      30.257 -13.874   2.162  0.00  0.00     0.237 C 
ATOM      2  O   UNL d   1      30.633 -13.035   1.339  0.00  0.00    -0.272 OA
ATOM      3  N   UNL d   1      30.993 -14.982   2.531  0.00  0.00    -0.247 N 
ATOM      4  H   UNL d   1      30.661 -15.565   3.291  0.00  0.00     0.192 HD
ENDROOT
BRANCH   3   5
ATOM      5  N   UNL d   1      32.249 -15.191   2.006  0.00  0.00    -0.182 NA
ATOM      6  C   UNL d   1      32.372 -15.693   0.808  0.00  0.00     0.175 C 
BRANCH   6   7
ATOM      7  C   UNL d   1      31.288 -15.954  -0.105  0.00  0.00     0.095 A 
ATOM      8  C   UNL d   1      30.704 -17.162  -0.430  0.00  0.00     0.041 A 
ATOM      9  C   UNL d   1      29.746 -16.901  -1.415  0.00  0.00     0.041 A 
ATOM     10  C   UNL d   1      29.739 -15.539  -1.612  0.00  0.00     0.089 A 
ATOM     11  O   UNL d   1      30.677 -14.939  -0.807  0.00  0.00    -0.308 OA
BRANCH  10  12
ATOM     12  C   UNL d   1      28.850 -14.711  -2.418  0.00  0.00     0.033 A 
ATOM     13  C   UNL d   1      27.783 -15.257  -3.142  0.00  0.00     0.053 A 
ATOM     14  C   UNL d   1      26.975 -14.411  -3.923  0.00  0.00     0.103 A 
ATOM     15  C   UNL d   1      27.140 -13.018  -3.888  0.00  0.00     0.039 A 
ATOM     16  C   UNL d   1      28.171 -12.468  -3.131  0.00  0.00     0.040 A 
ATOM     17  C   UNL d   1      29.018 -13.311  -2.412  0.00  0.00     0.078 A 
BRANCH  14  18
ATOM     18  N   UNL d   1      26.017 -14.991  -4.874  0.00  0.00    -0.116 N 
ATOM     19  O   UNL d   1      26.468 -15.574  -5.865  0.00  0.00    -0.532 OA
ATOM     20  O   UNL d   1      24.808 -14.822  -4.644  0.00  0.00    -0.532 OA
ENDBRANCH  14  18
BRANCH  17  21
ATOM     21  O   UNL d   1      30.031 -12.765  -1.666  0.00  0.00    -0.360 OA
ATOM     22  H   UNL d   1      29.894 -12.953  -0.725  0.00  0.00     0.217 HD
ENDBRANCH  17  21
ENDBRANCH  10  12
ENDBRANCH   6   7
ENDBRANCH   3   5
BRANCH   1  23
ATOM     23  C   UNL d   1      28.903 -13.782   2.862  0.00  0.00     0.107 C 
BRANCH  23  24
ATOM     24  C   UNL d   1      28.001 -14.893   2.340  0.00  0.00     0.046 C 
BRANCH  24  25
ATOM     25  C   UNL d   1      28.079 -15.154   0.835  0.00  0.00     0.151 C 
BRANCH  25  26
ATOM     26  C   UNL d   1      26.877 -15.925   0.308  0.00  0.00    -0.029 A 
ATOM     27  C   UNL d   1      26.729 -17.287   0.605  0.00  0.00     0.012 A 
ATOM     28  C   UNL d   1      25.695 -18.033   0.023  0.00  0.00     0.037 A 
ATOM     29  C   UNL d   1      24.752 -17.421  -0.805  0.00  0.00     0.068 A 
ATOM     30  C   UNL d   1      24.853 -16.059  -1.053  0.00  0.00     0.037 A 
ATOM     31  C   UNL d   1      25.902 -15.324  -0.506  0.00  0.00     0.012 A 
BRANCH  29  32
ATOM     32  O   UNL d   1      23.721 -18.203  -1.244  0.00  0.00    -0.352 OA
BRANCH  32  33
ATOM     33  C   UNL d   1      22.459 -17.969  -0.615  0.00  0.00     0.171 C 
ATOM     34  C   UNL d   1      21.818 -19.313  -0.329  0.00  0.00     0.034 C 
ENDBRANCH  32  33
ENDBRANCH  29  32
ENDBRANCH  25  26
BRANCH  25  35
ATOM     35  O   UNL d   1      28.142 -13.889   0.172  0.00  0.00    -0.391 OA
ATOM     36  H   UNL d   1      29.087 -13.701   0.022  0.00  0.00     0.210 HD
ENDBRANCH  25  35
ENDBRANCH  24  25
ENDBRANCH  23  24
ENDBRANCH   1  23
TORSDOF 12
ENDMDL
MODEL 8
REMARK VINA RESULT:    -5.560      4.938      8.632
REMARK INTER + INTRA:         -15.264
REMARK INTER:                  -9.139
REMARK INTRA:                  -6.124
REMARK CONF_INDEPENDENT:        3.580
REMARK UNBOUND:                -6.124
REMARK  12 active torsions:
REMARK  status: ('A' for Active; 'I' for Inactive)
REMARK    1  A    between atoms: C_2  and  O_3 
REMARK    2  A    between atoms: O_3  and  C_4 
REMARK    3  A    between atoms: C_7  and  C_8 
REMARK    4  A    between atoms: C_8  and  O_9 
REMARK    5  A    between atoms: C_8  and  C_10 
REMARK    6  A    between atoms: C_10  and  C_11 
REMARK    7  A    between atoms: C_11  and  C_12 
REMARK       I    between atoms: C_12  and  N_14 
REMARK    8  A    between atoms: N_14  and  N_15 
REMARK    9  A    between atoms: C_16  and  C_17 
REMARK   10  A    between atoms: C_20  and  C_21 
REMARK   11  A    between atoms: C_23  and  N_24 
REMARK   12  A    between atoms: C_29  and  O_30 
ROOT
ATOM      1  C   UNL d   1      25.529 -14.473  -3.940  0.00  0.00     0.237 C 
ATOM      2  O   UNL d   1      25.190 -15.215  -4.865  0.00  0.00    -0.272 OA
ATOM      3  N   UNL d   1      26.145 -13.249  -4.113  0.00  0.00    -0.247 N 
ATOM      4  H   UNL d   1      26.295 -12.654  -3.307  0.00  0.00     0.192 HD
ENDROOT
BRANCH   3   5
ATOM      5  N   UNL d   1      26.384 -12.762  -5.378  0.00  0.00    -0.182 NA
ATOM      6  C   UNL d   1      26.378 -11.473  -5.585  0.00  0.00     0.175 C 
BRANCH   6   7
ATOM      7  C   UNL d   1      26.258 -10.462  -4.565  0.00  0.00     0.095 A 
ATOM      8  C   UNL d   1      25.543  -9.282  -4.597  0.00  0.00     0.041 A 
ATOM      9  C   UNL d   1      25.804  -8.613  -3.397  0.00  0.00     0.041 A 
ATOM     10  C   UNL d   1      26.619  -9.435  -2.652  0.00  0.00     0.089 A 
ATOM     11  O   UNL d   1      26.902 -10.582  -3.353  0.00  0.00    -0.308 OA
BRANCH  10  12
ATOM     12  C   UNL d   1      27.085  -9.300  -1.277  0.00  0.00     0.033 A 
ATOM     13  C   UNL d   1      26.276  -8.759  -0.270  0.00  0.00     0.053 A 
ATOM     14  C   UNL d   1      26.790  -8.631   1.033  0.00  0.00     0.103 A 
ATOM     15  C   UNL d   1      28.049  -9.151   1.368  0.00  0.00     0.039 A 
ATOM     16  C   UNL d   1      28.838  -9.733   0.378  0.00  0.00     0.040 A 
ATOM     17  C   UNL d   1      28.358  -9.797  -0.929  0.00  0.00     0.078 A 
BRANCH  14  18
ATOM     18  N   UNL d   1      26.054  -7.847   2.033  0.00  0.00    -0.116 N 
ATOM     19  O   UNL d   1      25.242  -7.008   1.628  0.00  0.00    -0.532 OA
ATOM     20  O   UNL d   1      26.325  -8.046   3.229  0.00  0.00    -0.532 OA
ENDBRANCH  14  18
BRANCH  17  21
ATOM     21  O   UNL d   1      29.136 -10.372  -1.901  0.00  0.00    -0.360 OA
ATOM     22  H   UNL d   1      28.695 -11.154  -2.265  0.00  0.00     0.217 HD
ENDBRANCH  17  21
ENDBRANCH  10  12
ENDBRANCH   6   7
ENDBRANCH   3   5
BRANCH   1  23
ATOM     23  C   UNL d   1      25.314 -14.844  -2.475  0.00  0.00     0.107 C 
BRANCH  23  24
ATOM     24  C   UNL d   1      26.622 -14.646  -1.718  0.00  0.00     0.046 C 
BRANCH  24  25
ATOM     25  C   UNL d   1      26.813 -13.268  -1.082  0.00  0.00     0.151 C 
BRANCH  25  26
ATOM     26  C   UNL d   1      27.256 -13.346   0.372  0.00  0.00    -0.029 A 
ATOM     27  C   UNL d   1      26.536 -12.671   1.366  0.00  0.00     0.012 A 
ATOM     28  C   UNL d   1      27.006 -12.635   2.685  0.00  0.00     0.037 A 
ATOM     29  C   UNL d   1      28.161 -13.331   3.050  0.00  0.00     0.068 A 
ATOM     30  C   UNL d   1      28.846 -14.057   2.086  0.00  0.00     0.037 A 
ATOM     31  C   UNL d   1      28.400 -14.061   0.766  0.00  0.00     0.012 A 
BRANCH  29  32
ATOM     32  O   UNL d   1      28.487 -13.325   4.377  0.00  0.00    -0.352 OA
BRANCH  32  33
ATOM     33  C   UNL d   1      28.845 -14.594   4.929  0.00  0.00     0.171 C 
ATOM     34  C   UNL d   1      28.929 -14.447   6.437  0.00  0.00     0.034 C 
ENDBRANCH  32  33
ENDBRANCH  29  32
ENDBRANCH  25  26
BRANCH  25  35
ATOM     35  O   UNL d   1      27.811 -12.572  -1.832  0.00  0.00    -0.391 OA
ATOM     36  H   UNL d   1      27.427 -11.709  -2.073  0.00  0.00     0.210 HD
ENDBRANCH  25  35
ENDBRANCH  24  25
ENDBRANCH  23  24
ENDBRANCH   1  23
TORSDOF 12
ENDMDL
MODEL 9
REMARK VINA RESULT:    -5.211      3.602      7.596
REMARK INTER + INTRA:         -15.322
REMARK INTER:                  -8.790
REMARK INTRA:                  -6.531
REMARK CONF_INDEPENDENT:        3.580
REMARK UNBOUND:                -6.531
REMARK  12 active torsions:
REMARK  status: ('A' for Active; 'I' for Inactive)
REMARK    1  A    between atoms: C_2  and  O_3 
REMARK    2  A    between atoms: O_3  and  C_4 
REMARK    3  A    between atoms: C_7  and  C_8 
REMARK    4  A    between atoms: C_8  and  O_9 
REMARK    5  A    between atoms: C_8  and  C_10 
REMARK    6  A    between atoms: C_10  and  C_11 
REMARK    7  A    between atoms: C_11  and  C_12 
REMARK       I    between atoms: C_12  and  N_14 
REMARK    8  A    between atoms: N_14  and  N_15 
REMARK    9  A    between atoms: C_16  and  C_17 
REMARK   10  A    between atoms: C_20  and  C_21 
REMARK   11  A    between atoms: C_23  and  N_24 
REMARK   12  A    between atoms: C_29  and  O_30 
ROOT
ATOM      1  C   UNL d   1      31.829 -14.566   2.392  0.00  0.00     0.237 C 
ATOM      2  O   UNL d   1      32.641 -13.770   2.874  0.00  0.00    -0.272 OA
ATOM      3  N   UNL d   1      30.584 -14.825   2.929  0.00  0.00    -0.247 N 
ATOM      4  H   UNL d   1      29.937 -15.410   2.416  0.00  0.00     0.192 HD
ENDROOT
BRANCH   3   5
ATOM      5  N   UNL d   1      30.156 -14.152   4.052  0.00  0.00    -0.182 NA
ATOM      6  C   UNL d   1      29.076 -13.422   3.994  0.00  0.00     0.175 C 
BRANCH   6   7
ATOM      7  C   UNL d   1      28.184 -13.335   2.865  0.00  0.00     0.095 A 
ATOM      8  C   UNL d   1      27.436 -12.258   2.435  0.00  0.00     0.041 A 
ATOM      9  C   UNL d   1      26.679 -12.695   1.344  0.00  0.00     0.041 A 
ATOM     10  C   UNL d   1      27.037 -14.003   1.110  0.00  0.00     0.089 A 
ATOM     11  O   UNL d   1      27.969 -14.412   2.033  0.00  0.00    -0.308 OA
BRANCH  10  12
ATOM     12  C   UNL d   1      26.664 -14.899   0.022  0.00  0.00     0.033 A 
ATOM     13  C   UNL d   1      26.203 -14.417  -1.209  0.00  0.00     0.053 A 
ATOM     14  C   UNL d   1      25.834 -15.331  -2.213  0.00  0.00     0.103 A 
ATOM     15  C   UNL d   1      26.041 -16.709  -2.049  0.00  0.00     0.039 A 
ATOM     16  C   UNL d   1      26.545 -17.188  -0.842  0.00  0.00     0.040 A 
ATOM     17  C   UNL d   1      26.845 -16.289   0.180  0.00  0.00     0.078 A 
BRANCH  14  18
ATOM     18  N   UNL d   1      25.120 -14.855  -3.406  0.00  0.00    -0.116 N 
ATOM     19  O   UNL d   1      25.530 -15.224  -4.511  0.00  0.00    -0.532 OA
ATOM     20  O   UNL d   1      24.169 -14.075  -3.231  0.00  0.00    -0.532 OA
ENDBRANCH  14  18
BRANCH  17  21
ATOM     21  O   UNL d   1      27.343 -16.764   1.366  0.00  0.00    -0.360 OA
ATOM     22  H   UNL d   1      28.224 -16.395   1.532  0.00  0.00     0.217 HD
ENDBRANCH  17  21
ENDBRANCH  10  12
ENDBRANCH   6   7
ENDBRANCH   3   5
BRANCH   1  23
ATOM     23  C   UNL d   1      32.129 -15.375   1.133  0.00  0.00     0.107 C 
BRANCH  23  24
ATOM     24  C   UNL d   1      31.473 -14.692  -0.061  0.00  0.00     0.046 C 
BRANCH  24  25
ATOM     25  C   UNL d   1      29.985 -14.987  -0.254  0.00  0.00     0.151 C 
BRANCH  25  26
ATOM     26  C   UNL d   1      29.604 -15.165  -1.717  0.00  0.00    -0.029 A 
ATOM     27  C   UNL d   1      29.090 -14.085  -2.448  0.00  0.00     0.012 A 
ATOM     28  C   UNL d   1      28.622 -14.270  -3.756  0.00  0.00     0.037 A 
ATOM     29  C   UNL d   1      28.725 -15.514  -4.381  0.00  0.00     0.068 A 
ATOM     30  C   UNL d   1      29.293 -16.574  -3.688  0.00  0.00     0.037 A 
ATOM     31  C   UNL d   1      29.723 -16.400  -2.375  0.00  0.00     0.012 A 
BRANCH  29  32
ATOM     32  O   UNL d   1      28.339 -15.577  -5.691  0.00  0.00    -0.352 OA
BRANCH  32  33
ATOM     33  C   UNL d   1      28.144 -14.317  -6.336  0.00  0.00     0.171 C 
ATOM     34  C   UNL d   1      29.315 -14.079  -7.271  0.00  0.00     0.034 C 
ENDBRANCH  32  33
ENDBRANCH  29  32
ENDBRANCH  25  26
BRANCH  25  35
ATOM     35  O   UNL d   1      29.680 -16.192   0.452  0.00  0.00    -0.391 OA
ATOM     36  H   UNL d   1      29.373 -15.925   1.337  0.00  0.00     0.210 HD
ENDBRANCH  25  35
ENDBRANCH  24  25
ENDBRANCH  23  24
ENDBRANCH   1  23
TORSDOF 12
ENDMDL
