MODEL 1
REMARK VINA RESULT:    -8.171      0.000      0.000
REMARK INTER + INTRA:         -10.862
REMARK INTER:                 -10.259
REMARK INTRA:                  -0.603
REMARK CONF_INDEPENDENT:        2.088
REMARK UNBOUND:                -0.603
REMARK  7 active torsions:
REMARK  status: ('A' for Active; 'I' for Inactive)
REMARK    1  A    between atoms: C_2  and  N_17 
REMARK    2  A    between atoms: C_3  and  C_4 
REMARK       I    between atoms: C_4  and  N_6 
REMARK    3  A    between atoms: N_6  and  C_7 
REMARK    4  A    between atoms: C_12  and  N_13 
REMARK    5  A    between atoms: N_17  and  N_18 
REMARK       I    between atoms: N_18  and  C_19 
REMARK    6  A    between atoms: C_19  and  C_21 
REMARK    7  A    between atoms: C_25  and  O_26 
ROOT
ATOM      1  C   UNL d   1      23.139 -16.306  -0.475  0.00  0.00     0.070 C 
ATOM      2  C   UNL d   1      24.113 -17.449  -0.786  0.00  0.00     0.027 C 
ATOM      3  C   UNL d   1      25.462 -17.272  -0.815  0.00  0.00     0.100 C 
ENDROOT
BRANCH   2   4
ATOM      4  N   UNL d   1      23.475 -18.674  -1.042  0.00  0.00    -0.302 N 
ATOM      5  H   UNL d   1      23.695 -19.158  -1.923  0.00  0.00     0.186 HD
BRANCH   4   6
ATOM      6  N   UNL d   1      22.476 -19.285  -0.262  0.00  0.00    -0.266 N 
ATOM      7  C   UNL d   1      21.140 -18.920  -0.400  0.00  0.00     0.270 C 
ATOM      8  O   UNL d   1      20.737 -18.019  -1.140  0.00  0.00    -0.266 OA
ATOM      9  H   UNL d   1      22.732 -20.122   0.238  0.00  0.00     0.190 HD
BRANCH   7  10
ATOM     10  C   UNL d   1      20.163 -19.717   0.416  0.00  0.00     0.036 A 
ATOM     11  C   UNL d   1      20.216 -19.711   1.818  0.00  0.00     0.017 A 
ATOM     12  C   UNL d   1      19.287 -20.449   2.568  0.00  0.00     0.004 A 
ATOM     13  C   UNL d   1      18.295 -21.196   1.927  0.00  0.00     0.036 A 
ATOM     14  C   UNL d   1      18.234 -21.188   0.538  0.00  0.00     0.066 A 
ATOM     15  C   UNL d   1      19.152 -20.453  -0.219  0.00  0.00     0.053 A 
BRANCH  14  16
ATOM     16  O   UNL d   1      17.278 -21.892  -0.136  0.00  0.00    -0.361 OA
ATOM     17  H   UNL d   1      17.018 -22.674   0.379  0.00  0.00     0.217 HD
ENDBRANCH  14  16
ENDBRANCH   7  10
ENDBRANCH   4   6
ENDBRANCH   2   4
BRANCH   3  18
ATOM     18  C   UNL d   1      26.180 -15.981  -0.548  0.00  0.00     0.247 C 
ATOM     19  O   UNL d   1      26.142 -15.051  -1.349  0.00  0.00    -0.268 OA
ATOM     20  N   UNL d   1      26.950 -15.893   0.611  0.00  0.00    -0.324 N 
ATOM     21  H   UNL d   1      27.217 -16.732   1.109  0.00  0.00     0.169 HD
BRANCH  20  22
ATOM     22  C   UNL d   1      27.637 -14.669   0.874  0.00  0.00     0.037 A 
ATOM     23  C   UNL d   1      29.036 -14.669   0.878  0.00  0.00     0.031 A 
ATOM     24  C   UNL d   1      29.766 -13.556   1.283  0.00  0.00     0.029 A 
ATOM     25  C   UNL d   1      29.118 -12.388   1.685  0.00  0.00     0.067 A 
ATOM     26 CL   UNL d   1      30.181 -11.130   2.210  0.00  0.00    -0.082 Cl
ATOM     27  C   UNL d   1      27.713 -12.342   1.635  0.00  0.00     0.126 A 
ATOM     28  C   UNL d   1      26.970 -13.484   1.207  0.00  0.00     0.067 A 
BRANCH  27  29
ATOM     29  N   UNL d   1      26.962 -11.138   2.035  0.00  0.00    -0.114 N 
ATOM     30  O   UNL d   1      26.679 -10.326   1.142  0.00  0.00    -0.532 OA
ATOM     31  O   UNL d   1      26.656 -10.971   3.221  0.00  0.00    -0.532 OA
ENDBRANCH  27  29
ENDBRANCH  20  22
ENDBRANCH   3  18
TORSDOF 7
ENDMDL
MODEL 2
REMARK VINA RESULT:    -7.913      4.050      4.998
REMARK INTER + INTRA:         -10.596
REMARK INTER:                 -10.001
REMARK INTRA:                  -0.595
REMARK CONF_INDEPENDENT:        2.088
REMARK UNBOUND:                -0.595
REMARK  7 active torsions:
REMARK  status: ('A' for Active; 'I' for Inactive)
REMARK    1  A    between atoms: C_2  and  N_17 
REMARK    2  A    between atoms: C_3  and  C_4 
REMARK       I    between atoms: C_4  and  N_6 
REMARK    3  A    between atoms: N_6  and  C_7 
REMARK    4  A    between atoms: C_12  and  N_13 
REMARK    5  A    between atoms: N_17  and  N_18 
REMARK       I    between atoms: N_18  and  C_19 
REMARK    6  A    between atoms: C_19  and  C_21 
REMARK    7  A    between atoms: C_25  and  O_26 
ROOT
ATOM      1  C   UNL d   1      23.297 -16.325  -0.435  0.00  0.00     0.070 C 
ATOM      2  C   UNL d   1      24.207 -17.453  -0.933  0.00  0.00     0.027 C 
ATOM      3  C   UNL d   1      25.240 -17.234  -1.792  0.00  0.00     0.100 C 
ENDROOT
BRANCH   2   4
ATOM      4  N   UNL d   1      23.861 -18.717  -0.427  0.00  0.00    -0.302 N 
ATOM      5  H   UNL d   1      24.502 -19.502  -0.607  0.00  0.00     0.186 HD
BRANCH   4   6
ATOM      6  N   UNL d   1      22.666 -19.064   0.230  0.00  0.00    -0.266 N 
ATOM      7  C   UNL d   1      21.514 -19.363  -0.493  0.00  0.00     0.270 C 
ATOM      8  O   UNL d   1      21.424 -19.287  -1.720  0.00  0.00    -0.266 OA
ATOM      9  H   UNL d   1      22.730 -19.287   1.212  0.00  0.00     0.190 HD
BRANCH   7  10
ATOM     10  C   UNL d   1      20.337 -19.816   0.323  0.00  0.00     0.036 A 
ATOM     11  C   UNL d   1      20.318 -19.661   1.717  0.00  0.00     0.017 A 
ATOM     12  C   UNL d   1      19.205 -20.075   2.463  0.00  0.00     0.004 A 
ATOM     13  C   UNL d   1      18.099 -20.645   1.827  0.00  0.00     0.036 A 
ATOM     14  C   UNL d   1      18.112 -20.783   0.443  0.00  0.00     0.066 A 
ATOM     15  C   UNL d   1      19.215 -20.371  -0.311  0.00  0.00     0.053 A 
BRANCH  14  16
ATOM     16  O   UNL d   1      17.053 -21.324  -0.227  0.00  0.00    -0.361 OA
ATOM     17  H   UNL d   1      16.891 -20.826  -1.046  0.00  0.00     0.217 HD
ENDBRANCH  14  16
ENDBRANCH   7  10
ENDBRANCH   4   6
ENDBRANCH   2   4
BRANCH   3  18
ATOM     18  C   UNL d   1      25.640 -15.901  -2.354  0.00  0.00     0.247 C 
ATOM     19  O   UNL d   1      25.807 -14.924  -1.629  0.00  0.00    -0.268 OA
ATOM     20  N   UNL d   1      25.751 -15.787  -3.739  0.00  0.00    -0.324 N 
ATOM     21  H   UNL d   1      25.338 -16.487  -4.342  0.00  0.00     0.169 HD
BRANCH  20  22
ATOM     22  C   UNL d   1      26.131 -14.523  -4.285  0.00  0.00     0.037 A 
ATOM     23  C   UNL d   1      25.308 -13.415  -4.055  0.00  0.00     0.031 A 
ATOM     24  C   UNL d   1      25.530 -12.196  -4.687  0.00  0.00     0.029 A 
ATOM     25  C   UNL d   1      26.602 -12.034  -5.564  0.00  0.00     0.067 A 
ATOM     26 CL   UNL d   1      26.689 -10.472  -6.301  0.00  0.00    -0.082 Cl
ATOM     27  C   UNL d   1      27.479 -13.115  -5.768  0.00  0.00     0.126 A 
ATOM     28  C   UNL d   1      27.252 -14.361  -5.108  0.00  0.00     0.067 A 
BRANCH  27  29
ATOM     29  N   UNL d   1      28.639 -13.013  -6.674  0.00  0.00    -0.114 N 
ATOM     30  O   UNL d   1      29.355 -12.008  -6.562  0.00  0.00    -0.532 OA
ATOM     31  O   UNL d   1      28.848 -13.903  -7.506  0.00  0.00    -0.532 OA
ENDBRANCH  27  29
ENDBRANCH  20  22
ENDBRANCH   3  18
TORSDOF 7
ENDMDL
MODEL 3
REMARK VINA RESULT:    -7.545      3.992      4.668
REMARK INTER + INTRA:          -9.840
REMARK INTER:                  -9.633
REMARK INTRA:                  -0.207
REMARK CONF_INDEPENDENT:        2.088
REMARK UNBOUND:                -0.207
REMARK  7 active torsions:
REMARK  status: ('A' for Active; 'I' for Inactive)
REMARK    1  A    between atoms: C_2  and  N_17 
REMARK    2  A    between atoms: C_3  and  C_4 
REMARK       I    between atoms: C_4  and  N_6 
REMARK    3  A    between atoms: N_6  and  C_7 
REMARK    4  A    between atoms: C_12  and  N_13 
REMARK    5  A    between atoms: N_17  and  N_18 
REMARK       I    between atoms: N_18  and  C_19 
REMARK    6  A    between atoms: C_19  and  C_21 
REMARK    7  A    between atoms: C_25  and  O_26 
ROOT
ATOM      1  C   UNL d   1      26.358 -16.553   0.210  0.00  0.00     0.070 C 
ATOM      2  C   UNL d   1      25.470 -17.404  -0.706  0.00  0.00     0.027 C 
ATOM      3  C   UNL d   1      25.115 -17.003  -1.957  0.00  0.00     0.100 C 
ENDROOT
BRANCH   2   4
ATOM      4  N   UNL d   1      25.062 -18.615  -0.122  0.00  0.00    -0.302 N 
ATOM      5  H   UNL d   1      25.790 -19.289   0.149  0.00  0.00     0.186 HD
BRANCH   4   6
ATOM      6  N   UNL d   1      23.740 -19.064   0.051  0.00  0.00    -0.266 N 
ATOM      7  C   UNL d   1      22.660 -18.254  -0.288  0.00  0.00     0.270 C 
ATOM      8  O   UNL d   1      22.760 -17.093  -0.691  0.00  0.00    -0.266 OA
ATOM      9  H   UNL d   1      23.609 -20.048   0.229  0.00  0.00     0.190 HD
BRANCH   7  10
ATOM     10  C   UNL d   1      21.306 -18.888  -0.150  0.00  0.00     0.036 A 
ATOM     11  C   UNL d   1      20.483 -19.091  -1.268  0.00  0.00     0.017 A 
ATOM     12  C   UNL d   1      19.226 -19.699  -1.125  0.00  0.00     0.004 A 
ATOM     13  C   UNL d   1      18.780 -20.113   0.132  0.00  0.00     0.036 A 
ATOM     14  C   UNL d   1      19.603 -19.926   1.237  0.00  0.00     0.066 A 
ATOM     15  C   UNL d   1      20.859 -19.325   1.106  0.00  0.00     0.053 A 
BRANCH  14  16
ATOM     16  O   UNL d   1      19.219 -20.323   2.486  0.00  0.00    -0.361 OA
ATOM     17  H   UNL d   1      18.885 -21.235   2.455  0.00  0.00     0.217 HD
ENDBRANCH  14  16
ENDBRANCH   7  10
ENDBRANCH   4   6
ENDBRANCH   2   4
BRANCH   3  18
ATOM     18  C   UNL d   1      25.529 -15.719  -2.614  0.00  0.00     0.247 C 
ATOM     19  O   UNL d   1      25.597 -14.669  -1.980  0.00  0.00    -0.268 OA
ATOM     20  N   UNL d   1      25.770 -15.739  -3.987  0.00  0.00    -0.324 N 
ATOM     21  H   UNL d   1      25.437 -16.511  -4.550  0.00  0.00     0.169 HD
BRANCH  20  22
ATOM     22  C   UNL d   1      26.165 -14.522  -4.622  0.00  0.00     0.037 A 
ATOM     23  C   UNL d   1      27.199 -14.558  -5.563  0.00  0.00     0.031 A 
ATOM     24  C   UNL d   1      27.741 -13.395  -6.099  0.00  0.00     0.029 A 
ATOM     25  C   UNL d   1      27.253 -12.144  -5.723  0.00  0.00     0.067 A 
ATOM     26 CL   UNL d   1      28.084 -10.810  -6.442  0.00  0.00    -0.082 Cl
ATOM     27  C   UNL d   1      26.175 -12.082  -4.821  0.00  0.00     0.126 A 
ATOM     28  C   UNL d   1      25.615 -13.280  -4.283  0.00  0.00     0.067 A 
BRANCH  27  29
ATOM     29  N   UNL d   1      25.601 -10.794  -4.386  0.00  0.00    -0.114 N 
ATOM     30  O   UNL d   1      25.246 -10.006  -5.275  0.00  0.00    -0.532 OA
ATOM     31  O   UNL d   1      25.507 -10.540  -3.181  0.00  0.00    -0.532 OA
ENDBRANCH  27  29
ENDBRANCH  20  22
ENDBRANCH   3  18
TORSDOF 7
ENDMDL
MODEL 4
REMARK VINA RESULT:    -7.443      2.304      2.567
REMARK INTER + INTRA:          -9.934
REMARK INTER:                  -9.531
REMARK INTRA:                  -0.403
REMARK CONF_INDEPENDENT:        2.088
REMARK UNBOUND:                -0.403
REMARK  7 active torsions:
REMARK  status: ('A' for Active; 'I' for Inactive)
REMARK    1  A    between atoms: C_2  and  N_17 
REMARK    2  A    between atoms: C_3  and  C_4 
REMARK       I    between atoms: C_4  and  N_6 
REMARK    3  A    between atoms: N_6  and  C_7 
REMARK    4  A    between atoms: C_12  and  N_13 
REMARK    5  A    between atoms: N_17  and  N_18 
REMARK       I    between atoms: N_18  and  C_19 
REMARK    6  A    between atoms: C_19  and  C_21 
REMARK    7  A    between atoms: C_25  and  O_26 
ROOT
ATOM      1  C   UNL d   1      23.060 -16.397  -0.532  0.00  0.00     0.070 C 
ATOM      2  C   UNL d   1      23.991 -17.436  -1.168  0.00  0.00     0.027 C 
ATOM      3  C   UNL d   1      25.242 -17.125  -1.606  0.00  0.00     0.100 C 
ENDROOT
BRANCH   2   4
ATOM      4  N   UNL d   1      23.423 -18.717  -1.258  0.00  0.00    -0.302 N 
ATOM      5  H   UNL d   1      23.666 -19.297  -2.073  0.00  0.00     0.186 HD
BRANCH   4   6
ATOM      6  N   UNL d   1      22.465 -19.278  -0.393  0.00  0.00    -0.266 N 
ATOM      7  C   UNL d   1      21.122 -18.927  -0.493  0.00  0.00     0.270 C 
ATOM      8  O   UNL d   1      20.680 -18.078  -1.271  0.00  0.00    -0.266 OA
ATOM      9  H   UNL d   1      22.748 -20.080   0.149  0.00  0.00     0.190 HD
BRANCH   7  10
ATOM     10  C   UNL d   1      20.189 -19.671   0.419  0.00  0.00     0.036 A 
ATOM     11  C   UNL d   1      20.283 -19.544   1.813  0.00  0.00     0.017 A 
ATOM     12  C   UNL d   1      19.395 -20.234   2.652  0.00  0.00     0.004 A 
ATOM     13  C   UNL d   1      18.402 -21.053   2.109  0.00  0.00     0.036 A 
ATOM     14  C   UNL d   1      18.298 -21.165   0.726  0.00  0.00     0.066 A 
ATOM     15  C   UNL d   1      19.176 -20.480  -0.119  0.00  0.00     0.053 A 
BRANCH  14  16
ATOM     16  O   UNL d   1      17.339 -21.944   0.146  0.00  0.00    -0.361 OA
ATOM     17  H   UNL d   1      16.522 -21.910   0.672  0.00  0.00     0.217 HD
ENDBRANCH  14  16
ENDBRANCH   7  10
ENDBRANCH   4   6
ENDBRANCH   2   4
BRANCH   3  18
ATOM     18  C   UNL d   1      25.883 -15.770  -1.528  0.00  0.00     0.247 C 
ATOM     19  O   UNL d   1      26.808 -15.544  -0.753  0.00  0.00    -0.268 OA
ATOM     20  N   UNL d   1      25.350 -14.752  -2.318  0.00  0.00    -0.324 N 
ATOM     21  H   UNL d   1      24.427 -14.854  -2.723  0.00  0.00     0.169 HD
BRANCH  20  22
ATOM     22  C   UNL d   1      25.952 -13.459  -2.252  0.00  0.00     0.037 A 
ATOM     23  C   UNL d   1      26.052 -12.702  -3.424  0.00  0.00     0.031 A 
ATOM     24  C   UNL d   1      26.767 -11.509  -3.465  0.00  0.00     0.029 A 
ATOM     25  C   UNL d   1      27.397 -11.018  -2.323  0.00  0.00     0.067 A 
ATOM     26 CL   UNL d   1      28.288  -9.558  -2.573  0.00  0.00    -0.082 Cl
ATOM     27  C   UNL d   1      27.264 -11.731  -1.117  0.00  0.00     0.126 A 
ATOM     28  C   UNL d   1      26.519 -12.949  -1.078  0.00  0.00     0.067 A 
BRANCH  27  29
ATOM     29  N   UNL d   1      27.895 -11.266   0.133  0.00  0.00    -0.114 N 
ATOM     30  O   UNL d   1      29.133 -11.304   0.187  0.00  0.00    -0.532 OA
ATOM     31  O   UNL d   1      27.189 -10.877   1.069  0.00  0.00    -0.532 OA
ENDBRANCH  27  29
ENDBRANCH  20  22
ENDBRANCH   3  18
TORSDOF 7
ENDMDL
MODEL 5
REMARK VINA RESULT:    -7.415      6.758     10.199
REMARK INTER + INTRA:         -10.212
REMARK INTER:                  -9.504
REMARK INTRA:                  -0.708
REMARK CONF_INDEPENDENT:        2.088
REMARK UNBOUND:                -0.708
REMARK  7 active torsions:
REMARK  status: ('A' for Active; 'I' for Inactive)
REMARK    1  A    between atoms: C_2  and  N_17 
REMARK    2  A    between atoms: C_3  and  C_4 
REMARK       I    between atoms: C_4  and  N_6 
REMARK    3  A    between atoms: N_6  and  C_7 
REMARK    4  A    between atoms: C_12  and  N_13 
REMARK    5  A    between atoms: N_17  and  N_18 
REMARK       I    between atoms: N_18  and  C_19 
REMARK    6  A    between atoms: C_19  and  C_21 
REMARK    7  A    between atoms: C_25  and  O_26 
ROOT
ATOM      1  C   UNL d   1      32.257 -16.393   1.496  0.00  0.00     0.070 C 
ATOM      2  C   UNL d   1      32.310 -17.799   0.889  0.00  0.00     0.027 C 
ATOM      3  C   UNL d   1      31.563 -18.158  -0.192  0.00  0.00     0.100 C 
ENDROOT
BRANCH   2   4
ATOM      4  N   UNL d   1      33.187 -18.667   1.560  0.00  0.00    -0.302 N 
ATOM      5  H   UNL d   1      34.092 -18.876   1.117  0.00  0.00     0.186 HD
BRANCH   4   6
ATOM      6  N   UNL d   1      32.929 -19.375   2.748  0.00  0.00    -0.266 N 
ATOM      7  C   UNL d   1      33.718 -20.459   3.120  0.00  0.00     0.270 C 
ATOM      8  O   UNL d   1      34.635 -20.919   2.435  0.00  0.00    -0.266 OA
ATOM      9  H   UNL d   1      32.297 -18.948   3.409  0.00  0.00     0.190 HD
BRANCH   7  10
ATOM     10  C   UNL d   1      33.401 -21.063   4.458  0.00  0.00     0.036 A 
ATOM     11  C   UNL d   1      34.405 -21.638   5.250  0.00  0.00     0.017 A 
ATOM     12  C   UNL d   1      34.096 -22.185   6.505  0.00  0.00     0.004 A 
ATOM     13  C   UNL d   1      32.783 -22.160   6.983  0.00  0.00     0.036 A 
ATOM     14  C   UNL d   1      31.791 -21.574   6.204  0.00  0.00     0.066 A 
ATOM     15  C   UNL d   1      32.089 -21.023   4.954  0.00  0.00     0.053 A 
BRANCH  14  16
ATOM     16  O   UNL d   1      30.495 -21.514   6.629  0.00  0.00    -0.361 OA
ATOM     17  H   UNL d   1      30.170 -22.409   6.826  0.00  0.00     0.217 HD
ENDBRANCH  14  16
ENDBRANCH   7  10
ENDBRANCH   4   6
ENDBRANCH   2   4
BRANCH   3  18
ATOM     18  C   UNL d   1      30.616 -17.262  -0.935  0.00  0.00     0.247 C 
ATOM     19  O   UNL d   1      31.021 -16.438  -1.751  0.00  0.00    -0.268 OA
ATOM     20  N   UNL d   1      29.260 -17.345  -0.620  0.00  0.00    -0.324 N 
ATOM     21  H   UNL d   1      28.964 -17.795   0.237  0.00  0.00     0.169 HD
BRANCH  20  22
ATOM     22  C   UNL d   1      28.349 -16.497  -1.320  0.00  0.00     0.037 A 
ATOM     23  C   UNL d   1      27.352 -15.835  -0.596  0.00  0.00     0.031 A 
ATOM     24  C   UNL d   1      26.338 -15.125  -1.230  0.00  0.00     0.029 A 
ATOM     25  C   UNL d   1      26.294 -15.035  -2.621  0.00  0.00     0.067 A 
ATOM     26 CL   UNL d   1      24.933 -14.164  -3.236  0.00  0.00    -0.082 Cl
ATOM     27  C   UNL d   1      27.318 -15.643  -3.370  0.00  0.00     0.126 A 
ATOM     28  C   UNL d   1      28.363 -16.361  -2.713  0.00  0.00     0.067 A 
BRANCH  27  29
ATOM     29  N   UNL d   1      27.342 -15.580  -4.844  0.00  0.00    -0.114 N 
ATOM     30  O   UNL d   1      26.247 -15.540  -5.425  0.00  0.00    -0.532 OA
ATOM     31  O   UNL d   1      28.424 -15.584  -5.441  0.00  0.00    -0.532 OA
ENDBRANCH  27  29
ENDBRANCH  20  22
ENDBRANCH   3  18
TORSDOF 7
ENDMDL
MODEL 6
REMARK VINA RESULT:    -7.251      1.806      2.078
REMARK INTER + INTRA:          -9.908
REMARK INTER:                  -9.339
REMARK INTRA:                  -0.568
REMARK CONF_INDEPENDENT:        2.088
REMARK UNBOUND:                -0.568
REMARK  7 active torsions:
REMARK  status: ('A' for Active; 'I' for Inactive)
REMARK    1  A    between atoms: C_2  and  N_17 
REMARK    2  A    between atoms: C_3  and  C_4 
REMARK       I    between atoms: C_4  and  N_6 
REMARK    3  A    between atoms: N_6  and  C_7 
REMARK    4  A    between atoms: C_12  and  N_13 
REMARK    5  A    between atoms: N_17  and  N_18 
REMARK       I    between atoms: N_18  and  C_19 
REMARK    6  A    between atoms: C_19  and  C_21 
REMARK    7  A    between atoms: C_25  and  O_26 
ROOT
ATOM      1  C   UNL d   1      25.319 -18.468   0.230  0.00  0.00     0.070 C 
ATOM      2  C   UNL d   1      24.486 -17.841  -0.894  0.00  0.00     0.027 C 
ATOM      3  C   UNL d   1      24.805 -16.645  -1.461  0.00  0.00     0.100 C 
ENDROOT
BRANCH   2   4
ATOM      4  N   UNL d   1      23.372 -18.613  -1.263  0.00  0.00    -0.302 N 
ATOM      5  H   UNL d   1      23.167 -18.716  -2.267  0.00  0.00     0.186 HD
BRANCH   4   6
ATOM      6  N   UNL d   1      22.427 -19.197  -0.400  0.00  0.00    -0.266 N 
ATOM      7  C   UNL d   1      21.077 -18.875  -0.496  0.00  0.00     0.270 C 
ATOM      8  O   UNL d   1      20.615 -18.033  -1.270  0.00  0.00    -0.266 OA
ATOM      9  H   UNL d   1      22.728 -19.995   0.139  0.00  0.00     0.190 HD
BRANCH   7  10
ATOM     10  C   UNL d   1      20.161 -19.642   0.414  0.00  0.00     0.036 A 
ATOM     11  C   UNL d   1      20.291 -19.562   1.808  0.00  0.00     0.017 A 
ATOM     12  C   UNL d   1      19.418 -20.273   2.646  0.00  0.00     0.004 A 
ATOM     13  C   UNL d   1      18.406 -21.067   2.102  0.00  0.00     0.036 A 
ATOM     14  C   UNL d   1      18.268 -21.133   0.719  0.00  0.00     0.066 A 
ATOM     15  C   UNL d   1      19.130 -20.426  -0.125  0.00  0.00     0.053 A 
BRANCH  14  16
ATOM     16  O   UNL d   1      17.289 -21.887   0.138  0.00  0.00    -0.361 OA
ATOM     17  H   UNL d   1      16.905 -22.493   0.793  0.00  0.00     0.217 HD
ENDBRANCH  14  16
ENDBRANCH   7  10
ENDBRANCH   4   6
ENDBRANCH   2   4
BRANCH   3  18
ATOM     18  C   UNL d   1      25.984 -15.792  -1.094  0.00  0.00     0.247 C 
ATOM     19  O   UNL d   1      27.066 -15.919  -1.660  0.00  0.00    -0.268 OA
ATOM     20  N   UNL d   1      25.832 -14.892  -0.040  0.00  0.00    -0.324 N 
ATOM     21  H   UNL d   1      25.059 -14.991   0.605  0.00  0.00     0.169 HD
BRANCH  20  22
ATOM     22  C   UNL d   1      26.948 -14.075   0.318  0.00  0.00     0.037 A 
ATOM     23  C   UNL d   1      27.127 -13.730   1.661  0.00  0.00     0.031 A 
ATOM     24  C   UNL d   1      28.093 -12.811   2.058  0.00  0.00     0.029 A 
ATOM     25  C   UNL d   1      28.933 -12.213   1.119  0.00  0.00     0.067 A 
ATOM     26 CL   UNL d   1      30.030 -11.054   1.783  0.00  0.00    -0.082 Cl
ATOM     27  C   UNL d   1      28.812 -12.586  -0.232  0.00  0.00     0.126 A 
ATOM     28  C   UNL d   1      27.826 -13.539  -0.631  0.00  0.00     0.067 A 
BRANCH  27  29
ATOM     29  N   UNL d   1      29.673 -12.002  -1.278  0.00  0.00    -0.114 N 
ATOM     30  O   UNL d   1      30.658 -12.665  -1.633  0.00  0.00    -0.532 OA
ATOM     31  O   UNL d   1      29.402 -10.891  -1.747  0.00  0.00    -0.532 OA
ENDBRANCH  27  29
ENDBRANCH  20  22
ENDBRANCH   3  18
TORSDOF 7
ENDMDL
MODEL 7
REMARK VINA RESULT:    -7.143      1.849      2.437
REMARK INTER + INTRA:          -9.884
REMARK INTER:                  -9.231
REMARK INTRA:                  -0.653
REMARK CONF_INDEPENDENT:        2.088
REMARK UNBOUND:                -0.653
REMARK  7 active torsions:
REMARK  status: ('A' for Active; 'I' for Inactive)
REMARK    1  A    between atoms: C_2  and  N_17 
REMARK    2  A    between atoms: C_3  and  C_4 
REMARK       I    between atoms: C_4  and  N_6 
REMARK    3  A    between atoms: N_6  and  C_7 
REMARK    4  A    between atoms: C_12  and  N_13 
REMARK    5  A    between atoms: N_17  and  N_18 
REMARK       I    between atoms: N_18  and  C_19 
REMARK    6  A    between atoms: C_19  and  C_21 
REMARK    7  A    between atoms: C_25  and  O_26 
ROOT
ATOM      1  C   UNL d   1      24.793 -15.515  -1.927  0.00  0.00     0.070 C 
ATOM      2  C   UNL d   1      25.267 -16.352  -0.733  0.00  0.00     0.027 C 
ATOM      3  C   UNL d   1      26.135 -15.870   0.199  0.00  0.00     0.100 C 
ENDROOT
BRANCH   2   4
ATOM      4  N   UNL d   1      24.728 -17.649  -0.709  0.00  0.00    -0.302 N 
ATOM      5  H   UNL d   1      25.287 -18.412  -1.116  0.00  0.00     0.186 HD
BRANCH   4   6
ATOM      6  N   UNL d   1      23.445 -18.021  -0.270  0.00  0.00    -0.266 N 
ATOM      7  C   UNL d   1      22.582 -18.729  -1.102  0.00  0.00     0.270 C 
ATOM      8  O   UNL d   1      22.831 -19.022  -2.274  0.00  0.00    -0.266 OA
ATOM      9  H   UNL d   1      23.256 -17.941   0.718  0.00  0.00     0.190 HD
BRANCH   7  10
ATOM     10  C   UNL d   1      21.283 -19.152  -0.479  0.00  0.00     0.036 A 
ATOM     11  C   UNL d   1      20.156 -19.428  -1.268  0.00  0.00     0.017 A 
ATOM     12  C   UNL d   1      18.954 -19.837  -0.672  0.00  0.00     0.004 A 
ATOM     13  C   UNL d   1      18.864 -19.978   0.715  0.00  0.00     0.036 A 
ATOM     14  C   UNL d   1      19.986 -19.720   1.495  0.00  0.00     0.066 A 
ATOM     15  C   UNL d   1      21.191 -19.316   0.912  0.00  0.00     0.053 A 
BRANCH  14  16
ATOM     16  O   UNL d   1      19.954 -19.854   2.853  0.00  0.00    -0.361 OA
ATOM     17  H   UNL d   1      20.438 -19.120   3.269  0.00  0.00     0.217 HD
ENDBRANCH  14  16
ENDBRANCH   7  10
ENDBRANCH   4   6
ENDBRANCH   2   4
BRANCH   3  18
ATOM     18  C   UNL d   1      26.732 -14.493   0.207  0.00  0.00     0.247 C 
ATOM     19  O   UNL d   1      27.237 -14.009  -0.803  0.00  0.00    -0.268 OA
ATOM     20  N   UNL d   1      26.758 -13.803   1.418  0.00  0.00    -0.324 N 
ATOM     21  H   UNL d   1      26.619 -14.299   2.289  0.00  0.00     0.169 HD
BRANCH  20  22
ATOM     22  C   UNL d   1      27.324 -12.492   1.436  0.00  0.00     0.037 A 
ATOM     23  C   UNL d   1      28.696 -12.347   1.204  0.00  0.00     0.031 A 
ATOM     24  C   UNL d   1      29.340 -11.125   1.365  0.00  0.00     0.029 A 
ATOM     25  C   UNL d   1      28.626  -9.990   1.750  0.00  0.00     0.067 A 
ATOM     26 CL   UNL d   1      29.598  -8.575   1.958  0.00  0.00    -0.082 Cl
ATOM     27  C   UNL d   1      27.236 -10.096   1.933  0.00  0.00     0.126 A 
ATOM     28  C   UNL d   1      26.578 -11.351   1.755  0.00  0.00     0.067 A 
BRANCH  27  29
ATOM     29  N   UNL d   1      26.415  -8.936   2.331  0.00  0.00    -0.114 N 
ATOM     30  O   UNL d   1      26.656  -8.427   3.435  0.00  0.00    -0.532 OA
ATOM     31  O   UNL d   1      25.526  -8.525   1.577  0.00  0.00    -0.532 OA
ENDBRANCH  27  29
ENDBRANCH  20  22
ENDBRANCH   3  18
TORSDOF 7
ENDMDL
MODEL 8
REMARK VINA RESULT:    -7.102      2.358      3.299
REMARK INTER + INTRA:          -9.677
REMARK INTER:                  -9.190
REMARK INTRA:                  -0.487
REMARK CONF_INDEPENDENT:        2.088
REMARK UNBOUND:                -0.487
REMARK  7 active torsions:
REMARK  status: ('A' for Active; 'I' for Inactive)
REMARK    1  A    between atoms: C_2  and  N_17 
REMARK    2  A    between atoms: C_3  and  C_4 
REMARK       I    between atoms: C_4  and  N_6 
REMARK    3  A    between atoms: N_6  and  C_7 
REMARK    4  A    between atoms: C_12  and  N_13 
REMARK    5  A    between atoms: N_17  and  N_18 
REMARK       I    between atoms: N_18  and  C_19 
REMARK    6  A    between atoms: C_19  and  C_21 
REMARK    7  A    between atoms: C_25  and  O_26 
ROOT
ATOM      1  C   UNL d   1      28.028 -15.336  -1.750  0.00  0.00     0.070 C 
ATOM      2  C   UNL d   1      26.632 -15.690  -1.224  0.00  0.00     0.027 C 
ATOM      3  C   UNL d   1      25.988 -14.934  -0.293  0.00  0.00     0.100 C 
ENDROOT
BRANCH   2   4
ATOM      4  N   UNL d   1      26.102 -16.862  -1.789  0.00  0.00    -0.302 N 
ATOM      5  H   UNL d   1      26.674 -17.367  -2.479  0.00  0.00     0.186 HD
BRANCH   4   6
ATOM      6  N   UNL d   1      24.812 -17.387  -1.587  0.00  0.00    -0.266 N 
ATOM      7  C   UNL d   1      24.530 -18.184  -0.482  0.00  0.00     0.270 C 
ATOM      8  O   UNL d   1      25.367 -18.543   0.349  0.00  0.00    -0.266 OA
ATOM      9  H   UNL d   1      24.067 -17.001  -2.148  0.00  0.00     0.190 HD
BRANCH   7  10
ATOM     10  C   UNL d   1      23.093 -18.596  -0.330  0.00  0.00     0.036 A 
ATOM     11  C   UNL d   1      22.461 -18.573   0.922  0.00  0.00     0.017 A 
ATOM     12  C   UNL d   1      21.114 -18.946   1.045  0.00  0.00     0.004 A 
ATOM     13  C   UNL d   1      20.384 -19.341  -0.078  0.00  0.00     0.036 A 
ATOM     14  C   UNL d   1      21.007 -19.347  -1.322  0.00  0.00     0.066 A 
ATOM     15  C   UNL d   1      22.348 -18.974  -1.457  0.00  0.00     0.053 A 
BRANCH  14  16
ATOM     16  O   UNL d   1      20.335 -19.715  -2.452  0.00  0.00    -0.361 OA
ATOM     17  H   UNL d   1      19.385 -19.544  -2.342  0.00  0.00     0.217 HD
ENDBRANCH  14  16
ENDBRANCH   7  10
ENDBRANCH   4   6
ENDBRANCH   2   4
BRANCH   3  18
ATOM     18  C   UNL d   1      26.521 -13.679   0.333  0.00  0.00     0.247 C 
ATOM     19  O   UNL d   1      26.885 -12.727  -0.352  0.00  0.00    -0.268 OA
ATOM     20  N   UNL d   1      26.655 -13.650   1.721  0.00  0.00    -0.324 N 
ATOM     21  H   UNL d   1      26.639 -14.513   2.251  0.00  0.00     0.169 HD
BRANCH  20  22
ATOM     22  C   UNL d   1      27.161 -12.460   2.327  0.00  0.00     0.037 A 
ATOM     23  C   UNL d   1      28.243 -12.561   3.208  0.00  0.00     0.031 A 
ATOM     24  C   UNL d   1      28.682 -11.472   3.954  0.00  0.00     0.029 A 
ATOM     25  C   UNL d   1      28.062 -10.229   3.831  0.00  0.00     0.067 A 
ATOM     26 CL   UNL d   1      28.700  -9.009   4.876  0.00  0.00    -0.082 Cl
ATOM     27  C   UNL d   1      27.009 -10.087   2.909  0.00  0.00     0.126 A 
ATOM     28  C   UNL d   1      26.570 -11.206   2.138  0.00  0.00     0.067 A 
BRANCH  27  29
ATOM     29  N   UNL d   1      26.312  -8.800   2.719  0.00  0.00    -0.114 N 
ATOM     30  O   UNL d   1      25.282  -8.813   2.031  0.00  0.00    -0.532 OA
ATOM     31  O   UNL d   1      26.773  -7.772   3.228  0.00  0.00    -0.532 OA
ENDBRANCH  27  29
ENDBRANCH  20  22
ENDBRANCH   3  18
TORSDOF 7
ENDMDL
MODEL 9
REMARK VINA RESULT:    -7.043      6.668      9.881
REMARK INTER + INTRA:          -9.849
REMARK INTER:                  -9.131
REMARK INTRA:                  -0.718
REMARK CONF_INDEPENDENT:        2.088
REMARK UNBOUND:                -0.718
REMARK  7 active torsions:
REMARK  status: ('A' for Active; 'I' for Inactive)
REMARK    1  A    between atoms: C_2  and  N_17 
REMARK    2  A    between atoms: C_3  and  C_4 
REMARK       I    between atoms: C_4  and  N_6 
REMARK    3  A    between atoms: N_6  and  C_7 
REMARK    4  A    between atoms: C_12  and  N_13 
REMARK    5  A    between atoms: N_17  and  N_18 
REMARK       I    between atoms: N_18  and  C_19 
REMARK    6  A    between atoms: C_19  and  C_21 
REMARK    7  A    between atoms: C_25  and  O_26 
ROOT
ATOM      1  C   UNL d   1      30.277 -13.267   2.113  0.00  0.00     0.070 C 
ATOM      2  C   UNL d   1      29.332 -14.303   2.734  0.00  0.00     0.027 C 
ATOM      3  C   UNL d   1      28.157 -14.663   2.150  0.00  0.00     0.100 C 
ENDROOT
BRANCH   2   4
ATOM      4  N   UNL d   1      29.796 -14.823   3.954  0.00  0.00    -0.302 N 
ATOM      5  H   UNL d   1      30.082 -15.811   3.980  0.00  0.00     0.186 HD
BRANCH   4   6
ATOM      6  N   UNL d   1      29.826 -14.162   5.196  0.00  0.00    -0.266 N 
ATOM      7  C   UNL d   1      28.651 -13.897   5.892  0.00  0.00     0.270 C 
ATOM      8  O   UNL d   1      27.520 -14.147   5.470  0.00  0.00    -0.266 OA
ATOM      9  H   UNL d   1      30.724 -14.077   5.649  0.00  0.00     0.190 HD
BRANCH   7  10
ATOM     10  C   UNL d   1      28.828 -13.279   7.250  0.00  0.00     0.036 A 
ATOM     11  C   UNL d   1      28.981 -14.075   8.395  0.00  0.00     0.017 A 
ATOM     12  C   UNL d   1      29.161 -13.482   9.654  0.00  0.00     0.004 A 
ATOM     13  C   UNL d   1      29.192 -12.091   9.783  0.00  0.00     0.036 A 
ATOM     14  C   UNL d   1      29.056 -11.303   8.645  0.00  0.00     0.066 A 
ATOM     15  C   UNL d   1      28.880 -11.883   7.385  0.00  0.00     0.053 A 
BRANCH  14  16
ATOM     16  O   UNL d   1      29.090  -9.940   8.715  0.00  0.00    -0.361 OA
ATOM     17  H   UNL d   1      28.830  -9.648   9.605  0.00  0.00     0.217 HD
ENDBRANCH  14  16
ENDBRANCH   7  10
ENDBRANCH   4   6
ENDBRANCH   2   4
BRANCH   3  18
ATOM     18  C   UNL d   1      27.627 -14.131   0.851  0.00  0.00     0.247 C 
ATOM     19  O   UNL d   1      26.491 -13.672   0.764  0.00  0.00    -0.268 OA
ATOM     20  N   UNL d   1      28.443 -14.234  -0.275  0.00  0.00    -0.324 N 
ATOM     21  H   UNL d   1      29.236 -14.862  -0.271  0.00  0.00     0.169 HD
BRANCH  20  22
ATOM     22  C   UNL d   1      27.948 -13.730  -1.516  0.00  0.00     0.037 A 
ATOM     23  C   UNL d   1      27.826 -12.346  -1.680  0.00  0.00     0.031 A 
ATOM     24  C   UNL d   1      27.204 -11.794  -2.796  0.00  0.00     0.029 A 
ATOM     25  C   UNL d   1      26.695 -12.612  -3.803  0.00  0.00     0.067 A 
ATOM     26 CL   UNL d   1      25.905 -11.758  -5.082  0.00  0.00    -0.082 Cl
ATOM     27  C   UNL d   1      26.857 -14.005  -3.691  0.00  0.00     0.126 A 
ATOM     28  C   UNL d   1      27.506 -14.565  -2.548  0.00  0.00     0.067 A 
BRANCH  27  29
ATOM     29  N   UNL d   1      26.352 -14.931  -4.723  0.00  0.00    -0.114 N 
ATOM     30  O   UNL d   1      25.155 -15.248  -4.659  0.00  0.00    -0.532 OA
ATOM     31  O   UNL d   1      27.121 -15.362  -5.589  0.00  0.00    -0.532 OA
ENDBRANCH  27  29
ENDBRANCH  20  22
ENDBRANCH   3  18
TORSDOF 7
ENDMDL
