MODEL 1
REMARK VINA RESULT:   -11.645      0.000      0.000
REMARK INTER + INTRA:         -16.635
REMARK INTER:                 -14.628
REMARK INTRA:                  -2.008
REMARK CONF_INDEPENDENT:        2.983
REMARK UNBOUND:                -2.008
REMARK  10 active torsions:
REMARK  status: ('A' for Active; 'I' for Inactive)
REMARK    1  A    between atoms: C_6  and  C_7 
REMARK    2  A    between atoms: C_7  and  O_8 
REMARK    3  A    between atoms: O_8  and  C_9 
REMARK    4  A    between atoms: C_12  and  C_13 
REMARK    5  A    between atoms: N_14  and  N_15 
REMARK       I    between atoms: N_15  and  C_16 
REMARK    6  A    between atoms: C_16  and  C_18 
REMARK    7  A    between atoms: C_19  and  C_20 
REMARK    8  A    between atoms: C_20  and  N_21 
REMARK    9  A    between atoms: N_28  and  C_29 
REMARK   10  A    between atoms: C_33  and  N_34 
ROOT
ATOM      1  N   UNL d   1      27.687 -13.187   1.071  0.00  0.00    -0.242 N 
ATOM      2  C   UNL d   1      27.402 -12.156   2.088  0.00  0.00     0.292 C 
ATOM      3  O   UNL d   1      26.250 -11.870   2.477  0.00  0.00    -0.264 OA
ATOM      4  H   UNL d   1      28.643 -13.407   0.787  0.00  0.00     0.192 HD
ENDROOT
BRANCH   2   5
ATOM      5  C   UNL d   1      28.494 -11.411   2.730  0.00  0.00     0.153 C 
ATOM      6  C   UNL d   1      29.708 -11.769   3.359  0.00  0.00     0.112 C 
ATOM      7  N   UNL d   1      30.376 -10.593   3.645  0.00  0.00    -0.160 NA
ATOM      8  N   UNL d   1      29.668  -9.567   3.180  0.00  0.00     0.012 NA
ATOM      9  N   UNL d   1      28.470 -10.027   2.745  0.00  0.00    -0.207 N 
BRANCH   6  10
ATOM     10  C   UNL d   1      30.492 -13.081   3.563  0.00  0.00     0.297 C 
BRANCH  10  11
ATOM     11  N   UNL d   1      30.414 -13.830   4.914  0.00  0.00    -0.066 N 
ATOM     12  C   UNL d   1      29.425 -14.977   4.756  0.00  0.00     0.235 C 
ATOM     13  C   UNL d   1      28.148 -14.369   5.247  0.00  0.00     0.029 C 
ATOM     14  C   UNL d   1      28.607 -13.551   6.459  0.00  0.00     0.029 C 
ATOM     15  C   UNL d   1      30.028 -13.102   6.188  0.00  0.00     0.235 C 
ATOM     16  H   UNL d   1      31.361 -14.184   5.103  0.00  0.00     0.280 HD
ENDBRANCH  10  11
ENDBRANCH   6  10
BRANCH   9  17
ATOM     17  C   UNL d   1      27.366  -9.283   2.276  0.00  0.00     0.225 A 
ATOM     18  N   UNL d   1      26.676  -8.494   3.097  0.00  0.00    -0.081 NA
ATOM     19  O   UNL d   1      25.846  -7.771   2.222  0.00  0.00    -0.103 OA
ATOM     20  N   UNL d   1      26.096  -8.101   0.891  0.00  0.00    -0.083 NA
ATOM     21  C   UNL d   1      27.017  -9.058   0.925  0.00  0.00     0.201 A 
BRANCH  21  22
ATOM     22  N   UNL d   1      27.527  -9.675  -0.164  0.00  0.00    -0.379 N 
ATOM     23  H   UNL d   1      27.181  -9.426  -1.087  0.00  0.00     0.158 HD
ATOM     24  H   UNL d   1      28.446 -10.111  -0.245  0.00  0.00     0.158 HD
ENDBRANCH  21  22
ENDBRANCH   9  17
ENDBRANCH   2   5
BRANCH   1  25
ATOM     25  N   UNL d   1      26.696 -14.170   0.691  0.00  0.00    -0.183 NA
ATOM     26  C   UNL d   1      27.014 -15.262   0.030  0.00  0.00     0.150 C 
BRANCH  26  27
ATOM     27  C   UNL d   1      25.996 -16.353  -0.356  0.00  0.00    -0.017 A 
ATOM     28  C   UNL d   1      25.988 -17.589   0.303  0.00  0.00     0.015 A 
ATOM     29  C   UNL d   1      24.994 -18.565   0.052  0.00  0.00     0.037 A 
ATOM     30  C   UNL d   1      23.979 -18.327  -0.867  0.00  0.00     0.069 A 
ATOM     31  C   UNL d   1      24.014 -17.139  -1.600  0.00  0.00     0.037 A 
ATOM     32  C   UNL d   1      25.010 -16.157  -1.349  0.00  0.00     0.015 A 
BRANCH  30  33
ATOM     33  O   UNL d   1      22.986 -19.219  -1.174  0.00  0.00    -0.347 OA
BRANCH  33  34
ATOM     34  C   UNL d   1      21.644 -18.701  -1.275  0.00  0.00     0.214 C 
BRANCH  34  35
ATOM     35  C   UNL d   1      20.764 -19.238  -0.156  0.00  0.00    -0.034 A 
ATOM     36  C   UNL d   1      21.061 -18.950   1.187  0.00  0.00     0.009 A 
ATOM     37  C   UNL d   1      20.264 -19.459   2.219  0.00  0.00     0.001 A 
ATOM     38  C   UNL d   1      19.158 -20.256   1.925  0.00  0.00     0.007 A 
ATOM     39  C   UNL d   1      18.840 -20.549   0.598  0.00  0.00    -0.061 A 
ATOM     40  C   UNL d   1      17.647 -21.385   0.245  0.00  0.00     0.048 C 
ATOM     41  C   UNL d   1      19.648 -20.042  -0.428  0.00  0.00     0.016 A 
ENDBRANCH  34  35
ENDBRANCH  33  34
ENDBRANCH  30  33
ENDBRANCH  26  27
ENDBRANCH   1  25
TORSDOF 10
ENDMDL
MODEL 2
REMARK VINA RESULT:   -11.626      3.520      5.225
REMARK INTER + INTRA:         -17.267
REMARK INTER:                 -14.609
REMARK INTRA:                  -2.658
REMARK CONF_INDEPENDENT:        2.983
REMARK UNBOUND:                -2.658
REMARK  10 active torsions:
REMARK  status: ('A' for Active; 'I' for Inactive)
REMARK    1  A    between atoms: C_6  and  C_7 
REMARK    2  A    between atoms: C_7  and  O_8 
REMARK    3  A    between atoms: O_8  and  C_9 
REMARK    4  A    between atoms: C_12  and  C_13 
REMARK    5  A    between atoms: N_14  and  N_15 
REMARK       I    between atoms: N_15  and  C_16 
REMARK    6  A    between atoms: C_16  and  C_18 
REMARK    7  A    between atoms: C_19  and  C_20 
REMARK    8  A    between atoms: C_20  and  N_21 
REMARK    9  A    between atoms: N_28  and  C_29 
REMARK   10  A    between atoms: C_33  and  N_34 
ROOT
ATOM      1  N   UNL d   1      29.081 -16.971  -0.183  0.00  0.00    -0.242 N 
ATOM      2  C   UNL d   1      29.603 -15.657   0.241  0.00  0.00     0.292 C 
ATOM      3  O   UNL d   1      29.013 -14.578   0.023  0.00  0.00    -0.264 OA
ATOM      4  H   UNL d   1      29.582 -17.837   0.026  0.00  0.00     0.192 HD
ENDROOT
BRANCH   2   5
ATOM      5  C   UNL d   1      30.866 -15.554   0.984  0.00  0.00     0.153 C 
ATOM      6  C   UNL d   1      31.270 -14.908   2.176  0.00  0.00     0.112 C 
ATOM      7  N   UNL d   1      32.571 -15.303   2.427  0.00  0.00    -0.160 NA
ATOM      8  N   UNL d   1      32.945 -16.179   1.499  0.00  0.00     0.012 NA
ATOM      9  N   UNL d   1      31.983 -16.244   0.548  0.00  0.00    -0.207 N 
BRANCH   6  10
ATOM     10  C   UNL d   1      30.556 -14.115   3.289  0.00  0.00     0.297 C 
BRANCH  10  11
ATOM     11  N   UNL d   1      29.550 -14.824   4.224  0.00  0.00    -0.066 N 
ATOM     12  C   UNL d   1      28.146 -14.522   3.716  0.00  0.00     0.235 C 
ATOM     13  C   UNL d   1      27.760 -13.328   4.535  0.00  0.00     0.029 C 
ATOM     14  C   UNL d   1      28.311 -13.677   5.922  0.00  0.00     0.029 C 
ATOM     15  C   UNL d   1      29.538 -14.542   5.714  0.00  0.00     0.235 C 
ATOM     16  H   UNL d   1      29.755 -15.830   4.159  0.00  0.00     0.280 HD
ENDBRANCH  10  11
ENDBRANCH   6  10
BRANCH   9  17
ATOM     17  C   UNL d   1      32.006 -16.955  -0.671  0.00  0.00     0.225 A 
ATOM     18  N   UNL d   1      31.436 -18.154  -0.774  0.00  0.00    -0.081 NA
ATOM     19  O   UNL d   1      31.462 -18.402  -2.158  0.00  0.00    -0.103 OA
ATOM     20  N   UNL d   1      31.995 -17.323  -2.861  0.00  0.00    -0.083 NA
ATOM     21  C   UNL d   1      32.359 -16.438  -1.939  0.00  0.00     0.201 A 
BRANCH  21  22
ATOM     22  N   UNL d   1      32.943 -15.248  -2.202  0.00  0.00    -0.379 N 
ATOM     23  H   UNL d   1      32.467 -14.389  -1.940  0.00  0.00     0.158 HD
ATOM     24  H   UNL d   1      33.941 -15.070  -2.318  0.00  0.00     0.158 HD
ENDBRANCH  21  22
ENDBRANCH   9  17
ENDBRANCH   2   5
BRANCH   1  25
ATOM     25  N   UNL d   1      27.702 -17.145  -0.584  0.00  0.00    -0.183 NA
ATOM     26  C   UNL d   1      26.736 -17.312   0.293  0.00  0.00     0.150 C 
BRANCH  26  27
ATOM     27  C   UNL d   1      25.250 -17.458  -0.091  0.00  0.00    -0.017 A 
ATOM     28  C   UNL d   1      24.589 -18.683   0.064  0.00  0.00     0.015 A 
ATOM     29  C   UNL d   1      23.199 -18.818  -0.169  0.00  0.00     0.037 A 
ATOM     30  C   UNL d   1      22.434 -17.726  -0.564  0.00  0.00     0.069 A 
ATOM     31  C   UNL d   1      23.084 -16.515  -0.808  0.00  0.00     0.037 A 
ATOM     32  C   UNL d   1      24.480 -16.377  -0.574  0.00  0.00     0.015 A 
BRANCH  30  33
ATOM     33  O   UNL d   1      21.090 -17.773  -0.817  0.00  0.00    -0.347 OA
BRANCH  33  34
ATOM     34  C   UNL d   1      20.556 -19.018  -1.312  0.00  0.00     0.214 C 
BRANCH  34  35
ATOM     35  C   UNL d   1      19.800 -19.763  -0.223  0.00  0.00    -0.034 A 
ATOM     36  C   UNL d   1      18.608 -20.447  -0.519  0.00  0.00     0.009 A 
ATOM     37  C   UNL d   1      17.901 -21.116   0.486  0.00  0.00     0.001 A 
ATOM     38  C   UNL d   1      18.375 -21.118   1.798  0.00  0.00     0.007 A 
ATOM     39  C   UNL d   1      19.560 -20.451   2.114  0.00  0.00    -0.061 A 
ATOM     40  C   UNL d   1      20.109 -20.450   3.508  0.00  0.00     0.048 C 
ATOM     41  C   UNL d   1      20.258 -19.777   1.103  0.00  0.00     0.016 A 
ENDBRANCH  34  35
ENDBRANCH  33  34
ENDBRANCH  30  33
ENDBRANCH  26  27
ENDBRANCH   1  25
TORSDOF 10
ENDMDL
MODEL 3
REMARK VINA RESULT:   -10.588      2.737      4.745
REMARK INTER + INTRA:         -15.836
REMARK INTER:                 -13.571
REMARK INTRA:                  -2.264
REMARK CONF_INDEPENDENT:        2.983
REMARK UNBOUND:                -2.264
REMARK  10 active torsions:
REMARK  status: ('A' for Active; 'I' for Inactive)
REMARK    1  A    between atoms: C_6  and  C_7 
REMARK    2  A    between atoms: C_7  and  O_8 
REMARK    3  A    between atoms: O_8  and  C_9 
REMARK    4  A    between atoms: C_12  and  C_13 
REMARK    5  A    between atoms: N_14  and  N_15 
REMARK       I    between atoms: N_15  and  C_16 
REMARK    6  A    between atoms: C_16  and  C_18 
REMARK    7  A    between atoms: C_19  and  C_20 
REMARK    8  A    between atoms: C_20  and  N_21 
REMARK    9  A    between atoms: N_28  and  C_29 
REMARK   10  A    between atoms: C_33  and  N_34 
ROOT
ATOM      1  N   UNL d   1      28.310 -16.099   0.755  0.00  0.00    -0.242 N 
ATOM      2  C   UNL d   1      28.950 -14.774   0.637  0.00  0.00     0.292 C 
ATOM      3  O   UNL d   1      28.378 -13.772   0.159  0.00  0.00    -0.264 OA
ATOM      4  H   UNL d   1      28.803 -16.894   1.167  0.00  0.00     0.192 HD
ENDROOT
BRANCH   2   5
ATOM      5  C   UNL d   1      30.322 -14.555   1.115  0.00  0.00     0.153 C 
ATOM      6  C   UNL d   1      31.610 -14.737   0.562  0.00  0.00     0.112 C 
ATOM      7  N   UNL d   1      32.516 -14.215   1.467  0.00  0.00    -0.160 NA
ATOM      8  N   UNL d   1      31.850 -13.688   2.491  0.00  0.00     0.012 NA
ATOM      9  N   UNL d   1      30.538 -13.999   2.364  0.00  0.00    -0.207 N 
BRANCH   6  10
ATOM     10  C   UNL d   1      32.163 -15.140  -0.821  0.00  0.00     0.297 C 
BRANCH  10  11
ATOM     11  N   UNL d   1      32.009 -16.593  -1.324  0.00  0.00    -0.066 N 
ATOM     12  C   UNL d   1      31.191 -16.560  -2.608  0.00  0.00     0.235 C 
ATOM     13  C   UNL d   1      29.799 -16.797  -2.108  0.00  0.00     0.029 C 
ATOM     14  C   UNL d   1      30.005 -17.871  -1.034  0.00  0.00     0.029 C 
ATOM     15  C   UNL d   1      31.385 -17.661  -0.445  0.00  0.00     0.235 C 
ATOM     16  H   UNL d   1      32.961 -16.940  -1.503  0.00  0.00     0.280 HD
ENDBRANCH  10  11
ENDBRANCH   6  10
BRANCH   9  17
ATOM     17  C   UNL d   1      29.487 -13.744   3.271  0.00  0.00     0.225 A 
ATOM     18  N   UNL d   1      28.468 -12.957   2.934  0.00  0.00    -0.081 NA
ATOM     19  O   UNL d   1      27.552 -13.152   3.982  0.00  0.00    -0.103 OA
ATOM     20  N   UNL d   1      28.017 -14.096   4.897  0.00  0.00    -0.083 NA
ATOM     21  C   UNL d   1      29.228 -14.441   4.473  0.00  0.00     0.201 A 
BRANCH  21  22
ATOM     22  N   UNL d   1      30.038 -15.327   5.096  0.00  0.00    -0.379 N 
ATOM     23  H   UNL d   1      30.123 -16.270   4.726  0.00  0.00     0.158 HD
ATOM     24  H   UNL d   1      30.843 -15.110   5.682  0.00  0.00     0.158 HD
ENDBRANCH  21  22
ENDBRANCH   9  17
ENDBRANCH   2   5
BRANCH   1  25
ATOM     25  N   UNL d   1      26.878 -16.262   0.637  0.00  0.00    -0.183 NA
ATOM     26  C   UNL d   1      26.339 -17.062  -0.258  0.00  0.00     0.150 C 
BRANCH  26  27
ATOM     27  C   UNL d   1      24.821 -17.295  -0.388  0.00  0.00    -0.017 A 
ATOM     28  C   UNL d   1      23.944 -16.217  -0.570  0.00  0.00     0.015 A 
ATOM     29  C   UNL d   1      22.562 -16.409  -0.809  0.00  0.00     0.037 A 
ATOM     30  C   UNL d   1      22.021 -17.687  -0.875  0.00  0.00     0.069 A 
ATOM     31  C   UNL d   1      22.857 -18.775  -0.612  0.00  0.00     0.037 A 
ATOM     32  C   UNL d   1      24.246 -18.586  -0.372  0.00  0.00     0.015 A 
BRANCH  30  33
ATOM     33  O   UNL d   1      20.698 -17.959  -1.093  0.00  0.00    -0.347 OA
BRANCH  33  34
ATOM     34  C   UNL d   1      20.339 -19.333  -1.346  0.00  0.00     0.214 C 
BRANCH  34  35
ATOM     35  C   UNL d   1      19.653 -19.952  -0.138  0.00  0.00    -0.034 A 
ATOM     36  C   UNL d   1      18.407 -20.589  -0.272  0.00  0.00     0.009 A 
ATOM     37  C   UNL d   1      17.765 -21.142   0.841  0.00  0.00     0.001 A 
ATOM     38  C   UNL d   1      18.358 -21.072   2.102  0.00  0.00     0.007 A 
ATOM     39  C   UNL d   1      19.598 -20.450   2.257  0.00  0.00    -0.061 A 
ATOM     40  C   UNL d   1      20.274 -20.375   3.594  0.00  0.00     0.048 C 
ATOM     41  C   UNL d   1      20.230 -19.892   1.139  0.00  0.00     0.016 A 
ENDBRANCH  34  35
ENDBRANCH  33  34
ENDBRANCH  30  33
ENDBRANCH  26  27
ENDBRANCH   1  25
TORSDOF 10
ENDMDL
MODEL 4
REMARK VINA RESULT:   -10.048      2.755      3.777
REMARK INTER + INTRA:         -15.717
REMARK INTER:                 -13.031
REMARK INTRA:                  -2.687
REMARK CONF_INDEPENDENT:        2.983
REMARK UNBOUND:                -2.687
REMARK  10 active torsions:
REMARK  status: ('A' for Active; 'I' for Inactive)
REMARK    1  A    between atoms: C_6  and  C_7 
REMARK    2  A    between atoms: C_7  and  O_8 
REMARK    3  A    between atoms: O_8  and  C_9 
REMARK    4  A    between atoms: C_12  and  C_13 
REMARK    5  A    between atoms: N_14  and  N_15 
REMARK       I    between atoms: N_15  and  C_16 
REMARK    6  A    between atoms: C_16  and  C_18 
REMARK    7  A    between atoms: C_19  and  C_20 
REMARK    8  A    between atoms: C_20  and  N_21 
REMARK    9  A    between atoms: N_28  and  C_29 
REMARK   10  A    between atoms: C_33  and  N_34 
ROOT
ATOM      1  N   UNL d   1      27.940 -13.862   0.427  0.00  0.00    -0.242 N 
ATOM      2  C   UNL d   1      28.449 -14.030   1.802  0.00  0.00     0.292 C 
ATOM      3  O   UNL d   1      27.818 -14.622   2.703  0.00  0.00    -0.264 OA
ATOM      4  H   UNL d   1      28.491 -13.386  -0.291  0.00  0.00     0.192 HD
ENDROOT
BRANCH   2   5
ATOM      5  C   UNL d   1      29.773 -13.520   2.183  0.00  0.00     0.153 C 
ATOM      6  C   UNL d   1      30.308 -12.902   3.337  0.00  0.00     0.112 C 
ATOM      7  N   UNL d   1      31.670 -12.778   3.133  0.00  0.00    -0.160 NA
ATOM      8  N   UNL d   1      31.986 -13.328   1.964  0.00  0.00     0.012 NA
ATOM      9  N   UNL d   1      30.843 -13.661   1.317  0.00  0.00    -0.207 N 
BRANCH   6  10
ATOM     10  C   UNL d   1      29.785 -12.582   4.751  0.00  0.00     0.297 C 
BRANCH  10  11
ATOM     11  N   UNL d   1      30.520 -13.135   5.994  0.00  0.00    -0.066 N 
ATOM     12  C   UNL d   1      29.953 -14.516   6.297  0.00  0.00     0.235 C 
ATOM     13  C   UNL d   1      28.891 -14.211   7.308  0.00  0.00     0.029 C 
ATOM     14  C   UNL d   1      29.555 -13.145   8.186  0.00  0.00     0.029 C 
ATOM     15  C   UNL d   1      30.516 -12.372   7.306  0.00  0.00     0.235 C 
ATOM     16  H   UNL d   1      31.515 -13.193   5.739  0.00  0.00     0.280 HD
ENDBRANCH  10  11
ENDBRANCH   6  10
BRANCH   9  17
ATOM     17  C   UNL d   1      30.696 -14.167   0.007  0.00  0.00     0.225 A 
ATOM     18  N   UNL d   1      30.644 -13.347  -1.041  0.00  0.00    -0.081 NA
ATOM     19  O   UNL d   1      30.739 -14.223  -2.136  0.00  0.00    -0.103 OA
ATOM     20  N   UNL d   1      30.903 -15.544  -1.722  0.00  0.00    -0.083 NA
ATOM     21  C   UNL d   1      30.848 -15.513  -0.395  0.00  0.00     0.201 A 
BRANCH  21  22
ATOM     22  N   UNL d   1      30.945 -16.599   0.405  0.00  0.00    -0.379 N 
ATOM     23  H   UNL d   1      30.454 -16.610   1.294  0.00  0.00     0.158 HD
ATOM     24  H   UNL d   1      31.158 -17.553   0.115  0.00  0.00     0.158 HD
ENDBRANCH  21  22
ENDBRANCH   9  17
ENDBRANCH   2   5
BRANCH   1  25
ATOM     25  N   UNL d   1      26.833 -14.646  -0.073  0.00  0.00    -0.183 NA
ATOM     26  C   UNL d   1      26.653 -15.902   0.276  0.00  0.00     0.150 C 
BRANCH  26  27
ATOM     27  C   UNL d   1      25.464 -16.758  -0.201  0.00  0.00    -0.017 A 
ATOM     28  C   UNL d   1      25.542 -18.157  -0.192  0.00  0.00     0.015 A 
ATOM     29  C   UNL d   1      24.428 -18.970  -0.512  0.00  0.00     0.037 A 
ATOM     30  C   UNL d   1      23.204 -18.403  -0.848  0.00  0.00     0.069 A 
ATOM     31  C   UNL d   1      23.125 -17.012  -0.948  0.00  0.00     0.037 A 
ATOM     32  C   UNL d   1      24.241 -16.193  -0.626  0.00  0.00     0.015 A 
BRANCH  30  33
ATOM     33  O   UNL d   1      22.084 -19.116  -1.178  0.00  0.00    -0.347 OA
BRANCH  33  34
ATOM     34  C   UNL d   1      20.808 -18.505  -0.897  0.00  0.00     0.214 C 
BRANCH  34  35
ATOM     35  C   UNL d   1      19.962 -19.393   0.004  0.00  0.00    -0.034 A 
ATOM     36  C   UNL d   1      18.818 -20.036  -0.498  0.00  0.00     0.009 A 
ATOM     37  C   UNL d   1      18.027 -20.837   0.334  0.00  0.00     0.001 A 
ATOM     38  C   UNL d   1      18.370 -21.012   1.675  0.00  0.00     0.007 A 
ATOM     39  C   UNL d   1      19.506 -20.387   2.193  0.00  0.00    -0.061 A 
ATOM     40  C   UNL d   1      19.916 -20.570   3.623  0.00  0.00     0.048 C 
ATOM     41  C   UNL d   1      20.287 -19.581   1.356  0.00  0.00     0.016 A 
ENDBRANCH  34  35
ENDBRANCH  33  34
ENDBRANCH  30  33
ENDBRANCH  26  27
ENDBRANCH   1  25
TORSDOF 10
ENDMDL
MODEL 5
REMARK VINA RESULT:    -9.674      3.395      9.639
REMARK INTER + INTRA:         -15.395
REMARK INTER:                 -12.657
REMARK INTRA:                  -2.738
REMARK CONF_INDEPENDENT:        2.983
REMARK UNBOUND:                -2.738
REMARK  10 active torsions:
REMARK  status: ('A' for Active; 'I' for Inactive)
REMARK    1  A    between atoms: C_6  and  C_7 
REMARK    2  A    between atoms: C_7  and  O_8 
REMARK    3  A    between atoms: O_8  and  C_9 
REMARK    4  A    between atoms: C_12  and  C_13 
REMARK    5  A    between atoms: N_14  and  N_15 
REMARK       I    between atoms: N_15  and  C_16 
REMARK    6  A    between atoms: C_16  and  C_18 
REMARK    7  A    between atoms: C_19  and  C_20 
REMARK    8  A    between atoms: C_20  and  N_21 
REMARK    9  A    between atoms: N_28  and  C_29 
REMARK   10  A    between atoms: C_33  and  N_34 
ROOT
ATOM      1  N   UNL d   1      26.771 -12.945  -0.436  0.00  0.00    -0.242 N 
ATOM      2  C   UNL d   1      26.583 -14.350  -0.848  0.00  0.00     0.292 C 
ATOM      3  O   UNL d   1      26.781 -15.324  -0.091  0.00  0.00    -0.264 OA
ATOM      4  H   UNL d   1      26.584 -12.172  -1.076  0.00  0.00     0.192 HD
ENDROOT
BRANCH   2   5
ATOM      5  C   UNL d   1      26.114 -14.681  -2.201  0.00  0.00     0.153 C 
ATOM      6  C   UNL d   1      25.439 -15.780  -2.779  0.00  0.00     0.112 C 
ATOM      7  N   UNL d   1      25.155 -15.436  -4.088  0.00  0.00    -0.160 NA
ATOM      8  N   UNL d   1      25.567 -14.190  -4.308  0.00  0.00     0.012 NA
ATOM      9  N   UNL d   1      26.265 -13.765  -3.227  0.00  0.00    -0.207 N 
BRANCH   6  10
ATOM     10  C   UNL d   1      24.793 -17.075  -2.245  0.00  0.00     0.297 C 
BRANCH  10  11
ATOM     11  N   UNL d   1      24.303 -17.150  -0.781  0.00  0.00    -0.066 N 
ATOM     12  C   UNL d   1      24.489 -18.582  -0.298  0.00  0.00     0.235 C 
ATOM     13  C   UNL d   1      23.146 -19.189  -0.569  0.00  0.00     0.029 C 
ATOM     14  C   UNL d   1      22.182 -18.071  -0.159  0.00  0.00     0.029 C 
ATOM     15  C   UNL d   1      22.886 -16.753  -0.412  0.00  0.00     0.235 C 
ATOM     16  H   UNL d   1      24.894 -16.501  -0.244  0.00  0.00     0.280 HD
ENDBRANCH  10  11
ENDBRANCH   6  10
BRANCH   9  17
ATOM     17  C   UNL d   1      26.974 -12.556  -3.065  0.00  0.00     0.225 A 
ATOM     18  N   UNL d   1      28.184 -12.542  -2.508  0.00  0.00    -0.081 NA
ATOM     19  O   UNL d   1      28.631 -11.232  -2.749  0.00  0.00    -0.103 OA
ATOM     20  N   UNL d   1      27.705 -10.504  -3.495  0.00  0.00    -0.083 NA
ATOM     21  C   UNL d   1      26.666 -11.314  -3.666  0.00  0.00     0.201 A 
BRANCH  21  22
ATOM     22  N   UNL d   1      25.534 -10.985  -4.326  0.00  0.00    -0.379 N 
ATOM     23  H   UNL d   1      25.151 -11.629  -5.013  0.00  0.00     0.158 HD
ATOM     24  H   UNL d   1      24.807 -10.343  -4.009  0.00  0.00     0.158 HD
ENDBRANCH  21  22
ENDBRANCH   9  17
ENDBRANCH   2   5
BRANCH   1  25
ATOM     25  N   UNL d   1      26.876 -12.572   0.958  0.00  0.00    -0.183 NA
ATOM     26  C   UNL d   1      27.525 -13.312   1.831  0.00  0.00     0.150 C 
BRANCH  26  27
ATOM     27  C   UNL d   1      27.696 -12.929   3.314  0.00  0.00    -0.017 A 
ATOM     28  C   UNL d   1      27.881 -11.592   3.691  0.00  0.00     0.015 A 
ATOM     29  C   UNL d   1      27.924 -11.197   5.050  0.00  0.00     0.037 A 
ATOM     30  C   UNL d   1      27.782 -12.132   6.068  0.00  0.00     0.069 A 
ATOM     31  C   UNL d   1      27.683 -13.480   5.720  0.00  0.00     0.037 A 
ATOM     32  C   UNL d   1      27.639 -13.880   4.357  0.00  0.00     0.015 A 
BRANCH  30  33
ATOM     33  O   UNL d   1      27.820 -11.834   7.404  0.00  0.00    -0.347 OA
BRANCH  33  34
ATOM     34  C   UNL d   1      29.100 -11.923   8.062  0.00  0.00     0.214 C 
BRANCH  34  35
ATOM     35  C   UNL d   1      29.049 -12.898   9.229  0.00  0.00    -0.034 A 
ATOM     36  C   UNL d   1      28.156 -12.691  10.295  0.00  0.00     0.009 A 
ATOM     37  C   UNL d   1      28.122 -13.576  11.379  0.00  0.00     0.001 A 
ATOM     38  C   UNL d   1      28.974 -14.680  11.412  0.00  0.00     0.007 A 
ATOM     39  C   UNL d   1      29.864 -14.908  10.361  0.00  0.00    -0.061 A 
ATOM     40  C   UNL d   1      30.779 -16.096  10.355  0.00  0.00     0.048 C 
ATOM     41  C   UNL d   1      29.897 -14.014   9.284  0.00  0.00     0.016 A 
ENDBRANCH  34  35
ENDBRANCH  33  34
ENDBRANCH  30  33
ENDBRANCH  26  27
ENDBRANCH   1  25
TORSDOF 10
ENDMDL
MODEL 6
REMARK VINA RESULT:    -9.445      5.568      6.771
REMARK INTER + INTRA:         -15.349
REMARK INTER:                 -12.428
REMARK INTRA:                  -2.921
REMARK CONF_INDEPENDENT:        2.983
REMARK UNBOUND:                -2.921
REMARK  10 active torsions:
REMARK  status: ('A' for Active; 'I' for Inactive)
REMARK    1  A    between atoms: C_6  and  C_7 
REMARK    2  A    between atoms: C_7  and  O_8 
REMARK    3  A    between atoms: O_8  and  C_9 
REMARK    4  A    between atoms: C_12  and  C_13 
REMARK    5  A    between atoms: N_14  and  N_15 
REMARK       I    between atoms: N_15  and  C_16 
REMARK    6  A    between atoms: C_16  and  C_18 
REMARK    7  A    between atoms: C_19  and  C_20 
REMARK    8  A    between atoms: C_20  and  N_21 
REMARK    9  A    between atoms: N_28  and  C_29 
REMARK   10  A    between atoms: C_33  and  N_34 
ROOT
ATOM      1  N   UNL d   1      29.304 -16.430  -1.449  0.00  0.00    -0.242 N 
ATOM      2  C   UNL d   1      30.267 -17.524  -1.215  0.00  0.00     0.292 C 
ATOM      3  O   UNL d   1      29.935 -18.665  -0.830  0.00  0.00    -0.264 OA
ATOM      4  H   UNL d   1      29.608 -15.513  -1.780  0.00  0.00     0.192 HD
ENDROOT
BRANCH   2   5
ATOM      5  C   UNL d   1      31.703 -17.326  -1.457  0.00  0.00     0.153 C 
ATOM      6  C   UNL d   1      32.869 -17.424  -0.663  0.00  0.00     0.112 C 
ATOM      7  N   UNL d   1      33.948 -17.248  -1.509  0.00  0.00    -0.160 NA
ATOM      8  N   UNL d   1      33.505 -17.107  -2.755  0.00  0.00     0.012 NA
ATOM      9  N   UNL d   1      32.153 -17.019  -2.728  0.00  0.00    -0.207 N 
BRANCH   6  10
ATOM     10  C   UNL d   1      33.181 -17.883   0.776  0.00  0.00     0.297 C 
BRANCH  10  11
ATOM     11  N   UNL d   1      32.280 -18.933   1.467  0.00  0.00    -0.066 N 
ATOM     12  C   UNL d   1      32.350 -18.694   2.969  0.00  0.00     0.235 C 
ATOM     13  C   UNL d   1      33.434 -19.636   3.393  0.00  0.00     0.029 C 
ATOM     14  C   UNL d   1      33.145 -20.884   2.552  0.00  0.00     0.029 C 
ATOM     15  C   UNL d   1      32.511 -20.418   1.257  0.00  0.00     0.235 C 
ATOM     16  H   UNL d   1      31.327 -18.774   1.113  0.00  0.00     0.280 HD
ENDBRANCH  10  11
ENDBRANCH   6  10
BRANCH   9  17
ATOM     17  C   UNL d   1      31.274 -16.754  -3.801  0.00  0.00     0.225 A 
ATOM     18  N   UNL d   1      30.451 -15.707  -3.768  0.00  0.00    -0.081 NA
ATOM     19  O   UNL d   1      29.943 -15.661  -5.078  0.00  0.00    -0.103 OA
ATOM     20  N   UNL d   1      30.513 -16.645  -5.883  0.00  0.00    -0.083 NA
ATOM     21  C   UNL d   1      31.316 -17.341  -5.085  0.00  0.00     0.201 A 
BRANCH  21  22
ATOM     22  N   UNL d   1      32.050 -18.408  -5.473  0.00  0.00    -0.379 N 
ATOM     23  H   UNL d   1      32.367 -18.473  -6.437  0.00  0.00     0.158 HD
ATOM     24  H   UNL d   1      32.629 -19.000  -4.877  0.00  0.00     0.158 HD
ENDBRANCH  21  22
ENDBRANCH   9  17
ENDBRANCH   2   5
BRANCH   1  25
ATOM     25  N   UNL d   1      27.885 -16.684  -1.571  0.00  0.00    -0.183 NA
ATOM     26  C   UNL d   1      27.132 -16.953  -0.527  0.00  0.00     0.150 C 
BRANCH  26  27
ATOM     27  C   UNL d   1      25.610 -17.187  -0.610  0.00  0.00    -0.017 A 
ATOM     28  C   UNL d   1      25.044 -18.378  -0.137  0.00  0.00     0.015 A 
ATOM     29  C   UNL d   1      23.642 -18.573  -0.092  0.00  0.00     0.037 A 
ATOM     30  C   UNL d   1      22.770 -17.579  -0.520  0.00  0.00     0.069 A 
ATOM     31  C   UNL d   1      23.311 -16.417  -1.075  0.00  0.00     0.037 A 
ATOM     32  C   UNL d   1      24.718 -16.218  -1.121  0.00  0.00     0.015 A 
BRANCH  30  33
ATOM     33  O   UNL d   1      21.406 -17.691  -0.517  0.00  0.00    -0.347 OA
BRANCH  33  34
ATOM     34  C   UNL d   1      20.842 -18.879  -1.109  0.00  0.00     0.214 C 
BRANCH  34  35
ATOM     35  C   UNL d   1      19.980 -19.633  -0.108  0.00  0.00    -0.034 A 
ATOM     36  C   UNL d   1      18.795 -20.268  -0.520  0.00  0.00     0.009 A 
ATOM     37  C   UNL d   1      17.991 -20.946   0.403  0.00  0.00     0.001 A 
ATOM     38  C   UNL d   1      18.360 -21.005   1.747  0.00  0.00     0.007 A 
ATOM     39  C   UNL d   1      19.536 -20.388   2.177  0.00  0.00    -0.061 A 
ATOM     40  C   UNL d   1      19.973 -20.450   3.610  0.00  0.00     0.048 C 
ATOM     41  C   UNL d   1      20.331 -19.705   1.249  0.00  0.00     0.016 A 
ENDBRANCH  34  35
ENDBRANCH  33  34
ENDBRANCH  30  33
ENDBRANCH  26  27
ENDBRANCH   1  25
TORSDOF 10
ENDMDL
MODEL 7
REMARK VINA RESULT:    -9.357      3.775      5.523
REMARK INTER + INTRA:         -15.786
REMARK INTER:                 -12.340
REMARK INTRA:                  -3.446
REMARK CONF_INDEPENDENT:        2.983
REMARK UNBOUND:                -3.446
REMARK  10 active torsions:
REMARK  status: ('A' for Active; 'I' for Inactive)
REMARK    1  A    between atoms: C_6  and  C_7 
REMARK    2  A    between atoms: C_7  and  O_8 
REMARK    3  A    between atoms: O_8  and  C_9 
REMARK    4  A    between atoms: C_12  and  C_13 
REMARK    5  A    between atoms: N_14  and  N_15 
REMARK       I    between atoms: N_15  and  C_16 
REMARK    6  A    between atoms: C_16  and  C_18 
REMARK    7  A    between atoms: C_19  and  C_20 
REMARK    8  A    between atoms: C_20  and  N_21 
REMARK    9  A    between atoms: N_28  and  C_29 
REMARK   10  A    between atoms: C_33  and  N_34 
ROOT
ATOM      1  N   UNL d   1      28.548 -15.928   0.926  0.00  0.00    -0.242 N 
ATOM      2  C   UNL d   1      29.637 -16.369   0.032  0.00  0.00     0.292 C 
ATOM      3  O   UNL d   1      29.458 -17.102  -0.964  0.00  0.00    -0.264 OA
ATOM      4  H   UNL d   1      28.727 -15.314   1.723  0.00  0.00     0.192 HD
ENDROOT
BRANCH   2   5
ATOM      5  C   UNL d   1      31.021 -15.934   0.261  0.00  0.00     0.153 C 
ATOM      6  C   UNL d   1      32.291 -16.392  -0.159  0.00  0.00     0.112 C 
ATOM      7  N   UNL d   1      33.220 -15.468   0.285  0.00  0.00    -0.160 NA
ATOM      8  N   UNL d   1      32.583 -14.470   0.890  0.00  0.00     0.012 NA
ATOM      9  N   UNL d   1      31.273 -14.794   1.004  0.00  0.00    -0.207 N 
BRANCH   6  10
ATOM     10  C   UNL d   1      32.800 -17.479  -1.127  0.00  0.00     0.297 C 
BRANCH  10  11
ATOM     11  N   UNL d   1      31.806 -18.476  -1.766  0.00  0.00    -0.066 N 
ATOM     12  C   UNL d   1      32.330 -19.883  -1.519  0.00  0.00     0.235 C 
ATOM     13  C   UNL d   1      33.104 -20.161  -2.770  0.00  0.00     0.029 C 
ATOM     14  C   UNL d   1      32.210 -19.562  -3.861  0.00  0.00     0.029 C 
ATOM     15  C   UNL d   1      31.463 -18.397  -3.242  0.00  0.00     0.235 C 
ATOM     16  H   UNL d   1      30.905 -18.330  -1.290  0.00  0.00     0.280 HD
ENDBRANCH  10  11
ENDBRANCH   6  10
BRANCH   9  17
ATOM     17  C   UNL d   1      30.252 -14.085   1.673  0.00  0.00     0.225 A 
ATOM     18  N   UNL d   1      29.319 -13.423   0.990  0.00  0.00    -0.081 NA
ATOM     19  O   UNL d   1      28.386 -13.074   1.982  0.00  0.00    -0.103 OA
ATOM     20  N   UNL d   1      28.749 -13.581   3.228  0.00  0.00    -0.083 NA
ATOM     21  C   UNL d   1      29.920 -14.183   3.043  0.00  0.00     0.201 A 
BRANCH  21  22
ATOM     22  N   UNL d   1      30.634 -14.794   4.015  0.00  0.00    -0.379 N 
ATOM     23  H   UNL d   1      30.409 -15.750   4.273  0.00  0.00     0.158 HD
ATOM     24  H   UNL d   1      31.586 -14.571   4.305  0.00  0.00     0.158 HD
ENDBRANCH  21  22
ENDBRANCH   9  17
ENDBRANCH   2   5
BRANCH   1  25
ATOM     25  N   UNL d   1      27.159 -16.032   0.535  0.00  0.00    -0.183 NA
ATOM     26  C   UNL d   1      26.662 -17.129   0.008  0.00  0.00     0.150 C 
BRANCH  26  27
ATOM     27  C   UNL d   1      25.180 -17.295  -0.382  0.00  0.00    -0.017 A 
ATOM     28  C   UNL d   1      24.601 -18.568  -0.467  0.00  0.00     0.015 A 
ATOM     29  C   UNL d   1      23.217 -18.746  -0.708  0.00  0.00     0.037 A 
ATOM     30  C   UNL d   1      22.376 -17.651  -0.869  0.00  0.00     0.069 A 
ATOM     31  C   UNL d   1      22.943 -16.375  -0.875  0.00  0.00     0.037 A 
ATOM     32  C   UNL d   1      24.332 -16.193  -0.632  0.00  0.00     0.015 A 
BRANCH  30  33
ATOM     33  O   UNL d   1      21.032 -17.736  -1.113  0.00  0.00    -0.347 OA
BRANCH  33  34
ATOM     34  C   UNL d   1      20.474 -19.056  -1.278  0.00  0.00     0.214 C 
BRANCH  34  35
ATOM     35  C   UNL d   1      19.997 -19.620   0.051  0.00  0.00    -0.034 A 
ATOM     36  C   UNL d   1      20.653 -19.284   1.247  0.00  0.00     0.009 A 
ATOM     37  C   UNL d   1      20.227 -19.818   2.469  0.00  0.00     0.001 A 
ATOM     38  C   UNL d   1      19.138 -20.689   2.515  0.00  0.00     0.007 A 
ATOM     39  C   UNL d   1      18.468 -21.032   1.339  0.00  0.00    -0.061 A 
ATOM     40  C   UNL d   1      17.282 -21.948   1.355  0.00  0.00     0.048 C 
ATOM     41  C   UNL d   1      18.905 -20.499   0.120  0.00  0.00     0.016 A 
ENDBRANCH  34  35
ENDBRANCH  33  34
ENDBRANCH  30  33
ENDBRANCH  26  27
ENDBRANCH   1  25
TORSDOF 10
ENDMDL
MODEL 8
REMARK VINA RESULT:    -9.172      6.657     10.096
REMARK INTER + INTRA:         -15.134
REMARK INTER:                 -12.155
REMARK INTRA:                  -2.979
REMARK CONF_INDEPENDENT:        2.983
REMARK UNBOUND:                -2.979
REMARK  10 active torsions:
REMARK  status: ('A' for Active; 'I' for Inactive)
REMARK    1  A    between atoms: C_6  and  C_7 
REMARK    2  A    between atoms: C_7  and  O_8 
REMARK    3  A    between atoms: O_8  and  C_9 
REMARK    4  A    between atoms: C_12  and  C_13 
REMARK    5  A    between atoms: N_14  and  N_15 
REMARK       I    between atoms: N_15  and  C_16 
REMARK    6  A    between atoms: C_16  and  C_18 
REMARK    7  A    between atoms: C_19  and  C_20 
REMARK    8  A    between atoms: C_20  and  N_21 
REMARK    9  A    between atoms: N_28  and  C_29 
REMARK   10  A    between atoms: C_33  and  N_34 
ROOT
ATOM      1  N   UNL d   1      26.198 -12.842  -2.972  0.00  0.00    -0.242 N 
ATOM      2  C   UNL d   1      27.033 -13.087  -1.780  0.00  0.00     0.292 C 
ATOM      3  O   UNL d   1      27.757 -12.215  -1.253  0.00  0.00    -0.264 OA
ATOM      4  H   UNL d   1      25.605 -13.574  -3.368  0.00  0.00     0.192 HD
ENDROOT
BRANCH   2   5
ATOM      5  C   UNL d   1      27.034 -14.399  -1.119  0.00  0.00     0.153 C 
ATOM      6  C   UNL d   1      27.306 -14.853   0.192  0.00  0.00     0.112 C 
ATOM      7  N   UNL d   1      26.999 -16.201   0.224  0.00  0.00    -0.160 NA
ATOM      8  N   UNL d   1      26.514 -16.563  -0.961  0.00  0.00     0.012 NA
ATOM      9  N   UNL d   1      26.650 -15.527  -1.822  0.00  0.00    -0.207 N 
BRANCH   6  10
ATOM     10  C   UNL d   1      27.616 -14.179   1.544  0.00  0.00     0.297 C 
BRANCH  10  11
ATOM     11  N   UNL d   1      28.715 -14.756   2.465  0.00  0.00    -0.066 N 
ATOM     12  C   UNL d   1      28.154 -14.825   3.878  0.00  0.00     0.235 C 
ATOM     13  C   UNL d   1      28.617 -13.529   4.471  0.00  0.00     0.029 C 
ATOM     14  C   UNL d   1      30.042 -13.398   3.924  0.00  0.00     0.029 C 
ATOM     15  C   UNL d   1      30.072 -14.085   2.574  0.00  0.00     0.235 C 
ATOM     16  H   UNL d   1      28.928 -15.697   2.107  0.00  0.00     0.280 HD
ENDBRANCH  10  11
ENDBRANCH   6  10
BRANCH   9  17
ATOM     17  C   UNL d   1      26.374 -15.499  -3.207  0.00  0.00     0.225 A 
ATOM     18  N   UNL d   1      25.156 -15.200  -3.655  0.00  0.00    -0.081 NA
ATOM     19  O   UNL d   1      25.354 -15.045  -5.038  0.00  0.00    -0.103 OA
ATOM     20  N   UNL d   1      26.696 -15.199  -5.382  0.00  0.00    -0.083 NA
ATOM     21  C   UNL d   1      27.324 -15.509  -4.253  0.00  0.00     0.201 A 
BRANCH  21  22
ATOM     22  N   UNL d   1      28.648 -15.762  -4.152  0.00  0.00    -0.379 N 
ATOM     23  H   UNL d   1      29.301 -14.986  -4.095  0.00  0.00     0.158 HD
ATOM     24  H   UNL d   1      29.082 -16.608  -3.784  0.00  0.00     0.158 HD
ENDBRANCH  21  22
ENDBRANCH   9  17
ENDBRANCH   2   5
BRANCH   1  25
ATOM     25  N   UNL d   1      25.896 -11.501  -3.423  0.00  0.00    -0.183 NA
ATOM     26  C   UNL d   1      25.907 -11.173  -4.696  0.00  0.00     0.150 C 
BRANCH  26  27
ATOM     27  C   UNL d   1      25.550  -9.768  -5.220  0.00  0.00    -0.017 A 
ATOM     28  C   UNL d   1      25.975  -9.349  -6.488  0.00  0.00     0.015 A 
ATOM     29  C   UNL d   1      25.566  -8.112  -7.042  0.00  0.00     0.037 A 
ATOM     30  C   UNL d   1      24.718  -7.262  -6.341  0.00  0.00     0.069 A 
ATOM     31  C   UNL d   1      24.351  -7.618  -5.041  0.00  0.00     0.037 A 
ATOM     32  C   UNL d   1      24.760  -8.859  -4.482  0.00  0.00     0.015 A 
BRANCH  30  33
ATOM     33  O   UNL d   1      24.284  -6.048  -6.800  0.00  0.00    -0.347 OA
BRANCH  33  34
ATOM     34  C   UNL d   1      23.383  -6.054  -7.926  0.00  0.00     0.214 C 
BRANCH  34  35
ATOM     35  C   UNL d   1      21.933  -5.998  -7.468  0.00  0.00    -0.034 A 
ATOM     36  C   UNL d   1      21.601  -5.471  -6.208  0.00  0.00     0.009 A 
ATOM     37  C   UNL d   1      20.270  -5.436  -5.778  0.00  0.00     0.001 A 
ATOM     38  C   UNL d   1      19.252  -5.920  -6.600  0.00  0.00     0.007 A 
ATOM     39  C   UNL d   1      19.558  -6.442  -7.858  0.00  0.00    -0.061 A 
ATOM     40  C   UNL d   1      18.487  -6.951  -8.775  0.00  0.00     0.048 C 
ATOM     41  C   UNL d   1      20.894  -6.480  -8.278  0.00  0.00     0.016 A 
ENDBRANCH  34  35
ENDBRANCH  33  34
ENDBRANCH  30  33
ENDBRANCH  26  27
ENDBRANCH   1  25
TORSDOF 10
ENDMDL
MODEL 9
REMARK VINA RESULT:    -8.927      4.213      7.488
REMARK INTER + INTRA:         -15.163
REMARK INTER:                 -11.910
REMARK INTRA:                  -3.253
REMARK CONF_INDEPENDENT:        2.983
REMARK UNBOUND:                -3.253
REMARK  10 active torsions:
REMARK  status: ('A' for Active; 'I' for Inactive)
REMARK    1  A    between atoms: C_6  and  C_7 
REMARK    2  A    between atoms: C_7  and  O_8 
REMARK    3  A    between atoms: O_8  and  C_9 
REMARK    4  A    between atoms: C_12  and  C_13 
REMARK    5  A    between atoms: N_14  and  N_15 
REMARK       I    between atoms: N_15  and  C_16 
REMARK    6  A    between atoms: C_16  and  C_18 
REMARK    7  A    between atoms: C_19  and  C_20 
REMARK    8  A    between atoms: C_20  and  N_21 
REMARK    9  A    between atoms: N_28  and  C_29 
REMARK   10  A    between atoms: C_33  and  N_34 
ROOT
ATOM      1  N   UNL d   1      30.066 -14.424   7.385  0.00  0.00    -0.242 N 
ATOM      2  C   UNL d   1      31.164 -13.502   7.736  0.00  0.00     0.292 C 
ATOM      3  O   UNL d   1      31.615 -12.638   6.955  0.00  0.00    -0.264 OA
ATOM      4  H   UNL d   1      29.710 -15.109   8.054  0.00  0.00     0.192 HD
ENDROOT
BRANCH   2   5
ATOM      5  C   UNL d   1      31.779 -13.537   9.069  0.00  0.00     0.153 C 
ATOM      6  C   UNL d   1      33.095 -13.381   9.564  0.00  0.00     0.112 C 
ATOM      7  N   UNL d   1      33.011 -13.388  10.944  0.00  0.00    -0.160 NA
ATOM      8  N   UNL d   1      31.733 -13.482  11.300  0.00  0.00     0.012 NA
ATOM      9  N   UNL d   1      30.987 -13.706  10.191  0.00  0.00    -0.207 N 
BRANCH   6  10
ATOM     10  C   UNL d   1      34.457 -12.998   8.952  0.00  0.00     0.297 C 
BRANCH  10  11
ATOM     11  N   UNL d   1      34.530 -12.423   7.518  0.00  0.00    -0.066 N 
ATOM     12  C   UNL d   1      35.940 -12.654   6.992  0.00  0.00     0.235 C 
ATOM     13  C   UNL d   1      36.624 -11.365   7.330  0.00  0.00     0.029 C 
ATOM     14  C   UNL d   1      35.551 -10.319   7.005  0.00  0.00     0.029 C 
ATOM     15  C   UNL d   1      34.203 -10.967   7.245  0.00  0.00     0.235 C 
ATOM     16  H   UNL d   1      33.839 -12.945   6.962  0.00  0.00     0.280 HD
ENDBRANCH  10  11
ENDBRANCH   6  10
BRANCH   9  17
ATOM     17  C   UNL d   1      29.604 -13.979  10.108  0.00  0.00     0.225 A 
ATOM     18  N   UNL d   1      29.164 -15.209   9.850  0.00  0.00    -0.081 NA
ATOM     19  O   UNL d   1      27.783 -15.110  10.089  0.00  0.00    -0.103 OA
ATOM     20  N   UNL d   1      27.431 -13.839  10.539  0.00  0.00    -0.083 NA
ATOM     21  C   UNL d   1      28.554 -13.129  10.524  0.00  0.00     0.201 A 
BRANCH  21  22
ATOM     22  N   UNL d   1      28.647 -11.827  10.873  0.00  0.00    -0.379 N 
ATOM     23  H   UNL d   1      28.522 -11.561  11.846  0.00  0.00     0.158 HD
ATOM     24  H   UNL d   1      29.157 -11.096  10.377  0.00  0.00     0.158 HD
ENDBRANCH  21  22
ENDBRANCH   9  17
ENDBRANCH   2   5
BRANCH   1  25
ATOM     25  N   UNL d   1      29.211 -14.185   6.243  0.00  0.00    -0.183 NA
ATOM     26  C   UNL d   1      29.687 -14.104   5.020  0.00  0.00     0.150 C 
BRANCH  26  27
ATOM     27  C   UNL d   1      28.806 -13.892   3.773  0.00  0.00    -0.017 A 
ATOM     28  C   UNL d   1      29.286 -14.210   2.495  0.00  0.00     0.015 A 
ATOM     29  C   UNL d   1      28.462 -14.137   1.347  0.00  0.00     0.037 A 
ATOM     30  C   UNL d   1      27.133 -13.743   1.448  0.00  0.00     0.069 A 
ATOM     31  C   UNL d   1      26.655 -13.338   2.696  0.00  0.00     0.037 A 
ATOM     32  C   UNL d   1      27.480 -13.411   3.851  0.00  0.00     0.015 A 
BRANCH  30  33
ATOM     33  O   UNL d   1      26.273 -13.638   0.388  0.00  0.00    -0.347 OA
BRANCH  33  34
ATOM     34  C   UNL d   1      26.459 -14.559  -0.705  0.00  0.00     0.214 C 
BRANCH  34  35
ATOM     35  C   UNL d   1      25.906 -15.935  -0.363  0.00  0.00    -0.034 A 
ATOM     36  C   UNL d   1      26.736 -16.919   0.201  0.00  0.00     0.009 A 
ATOM     37  C   UNL d   1      26.234 -18.191   0.498  0.00  0.00     0.001 A 
ATOM     38  C   UNL d   1      24.896 -18.497   0.242  0.00  0.00     0.007 A 
ATOM     39  C   UNL d   1      24.053 -17.532  -0.311  0.00  0.00    -0.061 A 
ATOM     40  C   UNL d   1      22.606 -17.820  -0.579  0.00  0.00     0.048 C 
ATOM     41  C   UNL d   1      24.565 -16.264  -0.613  0.00  0.00     0.016 A 
ENDBRANCH  34  35
ENDBRANCH  33  34
ENDBRANCH  30  33
ENDBRANCH  26  27
ENDBRANCH   1  25
TORSDOF 10
ENDMDL
