MODEL 1
REMARK VINA RESULT:    -9.065      0.000      0.000
REMARK INTER + INTRA:         -11.692
REMARK INTER:                 -10.854
REMARK INTRA:                  -0.838
REMARK CONF_INDEPENDENT:        1.790
REMARK UNBOUND:                -0.838
REMARK  6 active torsions:
REMARK  status: ('A' for Active; 'I' for Inactive)
REMARK    1  A    between atoms: C_5  and  N_6 
REMARK    2  A    between atoms: N_6  and  N_7 
REMARK       I    between atoms: N_7  and  C_8 
REMARK    3  A    between atoms: C_8  and  C_10 
REMARK    4  A    between atoms: C_10  and  C_11 
REMARK    5  A    between atoms: C_11  and  N_12 
REMARK       I    between atoms: N_12  and  C_13 
REMARK    6  A    between atoms: C_13  and  C_15 
ROOT
ATOM      1  N   UNL d   1      24.813 -16.148  -1.915  0.00  0.00    -0.270 N 
ATOM      2  C   UNL d   1      23.818 -16.670  -1.091  0.00  0.00     0.237 C 
ATOM      3  O   UNL d   1      22.739 -16.100  -0.921  0.00  0.00    -0.272 OA
ATOM      4  H   UNL d   1      25.701 -16.609  -2.052  0.00  0.00     0.190 HD
ENDROOT
BRANCH   2   5
ATOM      5  C   UNL d   1      24.168 -18.005  -0.415  0.00  0.00     0.124 C 
BRANCH   5   6
ATOM      6  C   UNL d   1      23.240 -19.140  -0.880  0.00  0.00     0.132 C 
BRANCH   6   7
ATOM      7  N   UNL d   1      22.039 -19.332  -0.059  0.00  0.00    -0.360 N 
ATOM      8  C   UNL d   1      20.783 -19.373  -0.643  0.00  0.00     0.221 C 
ATOM      9  O   UNL d   1      20.632 -19.340  -1.865  0.00  0.00    -0.273 OA
ATOM     10  H   UNL d   1      22.121 -19.374   0.947  0.00  0.00     0.162 HD
BRANCH   8  11
ATOM     11  C   UNL d   1      19.584 -19.558   0.298  0.00  0.00     0.078 C 
ATOM     12  C   UNL d   1      18.765 -20.823   0.078  0.00  0.00     0.014 C 
ATOM     13  C   UNL d   1      18.009 -21.038   1.383  0.00  0.00     0.001 C 
ATOM     14  C   UNL d   1      18.891 -20.444   2.477  0.00  0.00     0.001 C 
ATOM     15  C   UNL d   1      20.034 -19.729   1.759  0.00  0.00     0.014 C 
ENDBRANCH   8  11
ENDBRANCH   6   7
ENDBRANCH   5   6
ENDBRANCH   2   5
BRANCH   1  16
ATOM     16  N   UNL d   1      24.579 -14.919  -2.566  0.00  0.00    -0.298 N 
ATOM     17  H   UNL d   1      23.729 -14.418  -2.302  0.00  0.00     0.187 HD
BRANCH  16  18
ATOM     18  C   UNL d   1      25.436 -14.414  -3.563  0.00  0.00     0.049 A 
ATOM     19  C   UNL d   1      26.460 -15.163  -4.152  0.00  0.00     0.031 A 
ATOM     20  C   UNL d   1      27.303 -14.629  -5.142  0.00  0.00     0.011 A 
ATOM     21  C   UNL d   1      27.159 -13.312  -5.587  0.00  0.00    -0.040 A 
ATOM     22  C   UNL d   1      28.078 -12.781  -6.656  0.00  0.00     0.050 C 
ATOM     23  C   UNL d   1      26.146 -12.541  -5.004  0.00  0.00     0.042 A 
ATOM     24  C   UNL d   1      25.298 -13.084  -4.012  0.00  0.00     0.055 A 
ATOM     25 CL   UNL d   1      25.905 -10.894  -5.481  0.00  0.00    -0.084 Cl
ENDBRANCH  16  18
ENDBRANCH   1  16
TORSDOF 6
ENDMDL
MODEL 2
REMARK VINA RESULT:    -8.942      1.250      1.607
REMARK INTER + INTRA:         -11.611
REMARK INTER:                 -10.732
REMARK INTRA:                  -0.879
REMARK CONF_INDEPENDENT:        1.790
REMARK UNBOUND:                -0.879
REMARK  6 active torsions:
REMARK  status: ('A' for Active; 'I' for Inactive)
REMARK    1  A    between atoms: C_5  and  N_6 
REMARK    2  A    between atoms: N_6  and  N_7 
REMARK       I    between atoms: N_7  and  C_8 
REMARK    3  A    between atoms: C_8  and  C_10 
REMARK    4  A    between atoms: C_10  and  C_11 
REMARK    5  A    between atoms: C_11  and  N_12 
REMARK       I    between atoms: N_12  and  C_13 
REMARK    6  A    between atoms: C_13  and  C_15 
ROOT
ATOM      1  N   UNL d   1      24.639 -16.155  -1.739  0.00  0.00    -0.270 N 
ATOM      2  C   UNL d   1      23.612 -16.714  -0.982  0.00  0.00     0.237 C 
ATOM      3  O   UNL d   1      22.501 -16.189  -0.892  0.00  0.00    -0.272 OA
ATOM      4  H   UNL d   1      25.553 -16.580  -1.811  0.00  0.00     0.190 HD
ENDROOT
BRANCH   2   5
ATOM      5  C   UNL d   1      23.968 -18.030  -0.274  0.00  0.00     0.124 C 
BRANCH   5   6
ATOM      6  C   UNL d   1      23.205 -19.224  -0.872  0.00  0.00     0.132 C 
BRANCH   6   7
ATOM      7  N   UNL d   1      21.982 -19.601  -0.152  0.00  0.00    -0.360 N 
ATOM      8  C   UNL d   1      20.791 -18.932  -0.384  0.00  0.00     0.221 C 
ATOM      9  O   UNL d   1      20.690 -18.067  -1.255  0.00  0.00    -0.273 OA
ATOM     10  H   UNL d   1      22.022 -20.313   0.563  0.00  0.00     0.162 HD
BRANCH   8  11
ATOM     11  C   UNL d   1      19.570 -19.383   0.430  0.00  0.00     0.078 C 
ATOM     12  C   UNL d   1      18.799 -20.566  -0.142  0.00  0.00     0.014 C 
ATOM     13  C   UNL d   1      18.011 -21.130   1.032  0.00  0.00     0.001 C 
ATOM     14  C   UNL d   1      18.839 -20.822   2.275  0.00  0.00     0.001 C 
ATOM     15  C   UNL d   1      19.980 -19.918   1.812  0.00  0.00     0.014 C 
ENDBRANCH   8  11
ENDBRANCH   6   7
ENDBRANCH   5   6
ENDBRANCH   2   5
BRANCH   1  16
ATOM     16  N   UNL d   1      24.401 -14.940  -2.414  0.00  0.00    -0.298 N 
ATOM     17  H   UNL d   1      23.512 -14.476  -2.217  0.00  0.00     0.187 HD
BRANCH  16  18
ATOM     18  C   UNL d   1      25.308 -14.401  -3.347  0.00  0.00     0.049 A 
ATOM     19  C   UNL d   1      25.126 -13.163  -3.972  0.00  0.00     0.031 A 
ATOM     20  C   UNL d   1      26.047 -12.653  -4.903  0.00  0.00     0.011 A 
ATOM     21  C   UNL d   1      27.197 -13.365  -5.255  0.00  0.00    -0.040 A 
ATOM     22  C   UNL d   1      28.162 -12.779  -6.250  0.00  0.00     0.050 C 
ATOM     23  C   UNL d   1      27.394 -14.612  -4.647  0.00  0.00     0.042 A 
ATOM     24  C   UNL d   1      26.467 -15.118  -3.709  0.00  0.00     0.055 A 
ATOM     25 CL   UNL d   1      28.781 -15.572  -5.035  0.00  0.00    -0.084 Cl
ENDBRANCH  16  18
ENDBRANCH   1  16
TORSDOF 6
ENDMDL
MODEL 3
REMARK VINA RESULT:    -8.315      2.084      2.591
REMARK INTER + INTRA:         -10.524
REMARK INTER:                 -10.105
REMARK INTRA:                  -0.419
REMARK CONF_INDEPENDENT:        1.790
REMARK UNBOUND:                -0.419
REMARK  6 active torsions:
REMARK  status: ('A' for Active; 'I' for Inactive)
REMARK    1  A    between atoms: C_5  and  N_6 
REMARK    2  A    between atoms: N_6  and  N_7 
REMARK       I    between atoms: N_7  and  C_8 
REMARK    3  A    between atoms: C_8  and  C_10 
REMARK    4  A    between atoms: C_10  and  C_11 
REMARK    5  A    between atoms: C_11  and  N_12 
REMARK       I    between atoms: N_12  and  C_13 
REMARK    6  A    between atoms: C_13  and  C_15 
ROOT
ATOM      1  N   UNL d   1      27.300 -17.606  -0.465  0.00  0.00    -0.270 N 
ATOM      2  C   UNL d   1      26.095 -16.986  -0.143  0.00  0.00     0.237 C 
ATOM      3  O   UNL d   1      25.914 -15.778  -0.301  0.00  0.00    -0.272 OA
ATOM      4  H   UNL d   1      27.454 -18.595  -0.332  0.00  0.00     0.190 HD
ENDROOT
BRANCH   2   5
ATOM      5  C   UNL d   1      25.013 -17.921   0.418  0.00  0.00     0.124 C 
BRANCH   5   6
ATOM      6  C   UNL d   1      23.964 -18.285  -0.647  0.00  0.00     0.132 C 
BRANCH   6   7
ATOM      7  N   UNL d   1      22.931 -19.228  -0.202  0.00  0.00    -0.360 N 
ATOM      8  C   UNL d   1      21.589 -18.887  -0.264  0.00  0.00     0.221 C 
ATOM      9  O   UNL d   1      21.209 -17.831  -0.771  0.00  0.00    -0.273 OA
ATOM     10  H   UNL d   1      23.202 -20.109   0.211  0.00  0.00     0.162 HD
BRANCH   8  11
ATOM     11  C   UNL d   1      20.583 -19.930   0.242  0.00  0.00     0.078 C 
ATOM     12  C   UNL d   1      20.065 -19.711   1.658  0.00  0.00     0.014 C 
ATOM     13  C   UNL d   1      18.770 -20.508   1.734  0.00  0.00     0.001 C 
ATOM     14  C   UNL d   1      18.204 -20.517   0.318  0.00  0.00     0.001 C 
ATOM     15  C   UNL d   1      19.280 -19.899  -0.574  0.00  0.00     0.014 C 
ENDBRANCH   8  11
ENDBRANCH   6   7
ENDBRANCH   5   6
ENDBRANCH   2   5
BRANCH   1  16
ATOM     16  N   UNL d   1      28.353 -16.818  -0.977  0.00  0.00    -0.298 N 
ATOM     17  H   UNL d   1      29.127 -16.623  -0.339  0.00  0.00     0.187 HD
BRANCH  16  18
ATOM     18  C   UNL d   1      28.335 -16.282  -2.279  0.00  0.00     0.049 A 
ATOM     19  C   UNL d   1      29.448 -16.274  -3.125  0.00  0.00     0.031 A 
ATOM     20  C   UNL d   1      29.401 -15.727  -4.419  0.00  0.00     0.011 A 
ATOM     21  C   UNL d   1      28.229 -15.157  -4.925  0.00  0.00    -0.040 A 
ATOM     22  C   UNL d   1      28.219 -14.590  -6.320  0.00  0.00     0.050 C 
ATOM     23  C   UNL d   1      27.104 -15.147  -4.091  0.00  0.00     0.042 A 
ATOM     24  C   UNL d   1      27.157 -15.701  -2.792  0.00  0.00     0.055 A 
ATOM     25 CL   UNL d   1      25.615 -14.446  -4.628  0.00  0.00    -0.084 Cl
ENDBRANCH  16  18
ENDBRANCH   1  16
TORSDOF 6
ENDMDL
MODEL 4
REMARK VINA RESULT:    -8.254      1.952      2.305
REMARK INTER + INTRA:         -10.847
REMARK INTER:                 -10.044
REMARK INTRA:                  -0.803
REMARK CONF_INDEPENDENT:        1.790
REMARK UNBOUND:                -0.803
REMARK  6 active torsions:
REMARK  status: ('A' for Active; 'I' for Inactive)
REMARK    1  A    between atoms: C_5  and  N_6 
REMARK    2  A    between atoms: N_6  and  N_7 
REMARK       I    between atoms: N_7  and  C_8 
REMARK    3  A    between atoms: C_8  and  C_10 
REMARK    4  A    between atoms: C_10  and  C_11 
REMARK    5  A    between atoms: C_11  and  N_12 
REMARK       I    between atoms: N_12  and  C_13 
REMARK    6  A    between atoms: C_13  and  C_15 
ROOT
ATOM      1  N   UNL d   1      25.619 -16.905  -1.940  0.00  0.00    -0.270 N 
ATOM      2  C   UNL d   1      25.298 -17.408  -0.681  0.00  0.00     0.237 C 
ATOM      3  O   UNL d   1      25.879 -17.041   0.341  0.00  0.00    -0.272 OA
ATOM      4  H   UNL d   1      25.149 -17.207  -2.782  0.00  0.00     0.190 HD
ENDROOT
BRANCH   2   5
ATOM      5  C   UNL d   1      24.168 -18.449  -0.666  0.00  0.00     0.124 C 
BRANCH   5   6
ATOM      6  C   UNL d   1      22.808 -17.820  -1.016  0.00  0.00     0.132 C 
BRANCH   6   7
ATOM      7  N   UNL d   1      21.703 -18.204  -0.130  0.00  0.00    -0.360 N 
ATOM      8  C   UNL d   1      20.729 -19.092  -0.559  0.00  0.00     0.221 C 
ATOM      9  O   UNL d   1      20.799 -19.656  -1.651  0.00  0.00    -0.273 OA
ATOM     10  H   UNL d   1      21.616 -17.770   0.779  0.00  0.00     0.162 HD
BRANCH   8  11
ATOM     11  C   UNL d   1      19.602 -19.418   0.431  0.00  0.00     0.078 C 
ATOM     12  C   UNL d   1      18.873 -20.734   0.186  0.00  0.00     0.014 C 
ATOM     13  C   UNL d   1      18.209 -21.071   1.515  0.00  0.00     0.001 C 
ATOM     14  C   UNL d   1      19.100 -20.462   2.592  0.00  0.00     0.001 C 
ATOM     15  C   UNL d   1      20.143 -19.623   1.856  0.00  0.00     0.014 C 
ENDBRANCH   8  11
ENDBRANCH   6   7
ENDBRANCH   5   6
ENDBRANCH   2   5
BRANCH   1  16
ATOM     16  N   UNL d   1      26.654 -15.952  -2.047  0.00  0.00    -0.298 N 
ATOM     17  H   UNL d   1      27.031 -15.590  -1.169  0.00  0.00     0.187 HD
BRANCH  16  18
ATOM     18  C   UNL d   1      27.125 -15.479  -3.287  0.00  0.00     0.049 A 
ATOM     19  C   UNL d   1      26.434 -14.549  -4.070  0.00  0.00     0.031 A 
ATOM     20  C   UNL d   1      26.928 -14.099  -5.307  0.00  0.00     0.011 A 
ATOM     21  C   UNL d   1      28.142 -14.566  -5.819  0.00  0.00    -0.040 A 
ATOM     22  C   UNL d   1      28.639 -14.051  -7.143  0.00  0.00     0.050 C 
ATOM     23  C   UNL d   1      28.846 -15.505  -5.054  0.00  0.00     0.042 A 
ATOM     24  C   UNL d   1      28.347 -15.951  -3.810  0.00  0.00     0.055 A 
ATOM     25 CL   UNL d   1      30.349 -16.151  -5.617  0.00  0.00    -0.084 Cl
ENDBRANCH  16  18
ENDBRANCH   1  16
TORSDOF 6
ENDMDL
MODEL 5
REMARK VINA RESULT:    -8.219      4.391      5.166
REMARK INTER + INTRA:         -10.607
REMARK INTER:                 -10.009
REMARK INTRA:                  -0.598
REMARK CONF_INDEPENDENT:        1.790
REMARK UNBOUND:                -0.598
REMARK  6 active torsions:
REMARK  status: ('A' for Active; 'I' for Inactive)
REMARK    1  A    between atoms: C_5  and  N_6 
REMARK    2  A    between atoms: N_6  and  N_7 
REMARK       I    between atoms: N_7  and  C_8 
REMARK    3  A    between atoms: C_8  and  C_10 
REMARK    4  A    between atoms: C_10  and  C_11 
REMARK    5  A    between atoms: C_11  and  N_12 
REMARK       I    between atoms: N_12  and  C_13 
REMARK    6  A    between atoms: C_13  and  C_15 
ROOT
ATOM      1  N   UNL d   1      26.097 -16.395  -0.334  0.00  0.00    -0.270 N 
ATOM      2  C   UNL d   1      25.587 -17.683  -0.187  0.00  0.00     0.237 C 
ATOM      3  O   UNL d   1      26.091 -18.507   0.578  0.00  0.00    -0.272 OA
ATOM      4  H   UNL d   1      25.689 -15.719  -0.963  0.00  0.00     0.190 HD
ENDROOT
BRANCH   2   5
ATOM      5  C   UNL d   1      24.351 -17.995  -1.045  0.00  0.00     0.124 C 
BRANCH   5   6
ATOM      6  C   UNL d   1      23.046 -17.614  -0.325  0.00  0.00     0.132 C 
BRANCH   6   7
ATOM      7  N   UNL d   1      22.225 -18.751   0.110  0.00  0.00    -0.360 N 
ATOM      8  C   UNL d   1      20.915 -18.883  -0.321  0.00  0.00     0.221 C 
ATOM      9  O   UNL d   1      20.421 -18.113  -1.146  0.00  0.00    -0.273 OA
ATOM     10  H   UNL d   1      22.598 -19.411   0.778  0.00  0.00     0.162 HD
BRANCH   8  11
ATOM     11  C   UNL d   1      20.130 -20.094   0.202  0.00  0.00     0.078 C 
ATOM     12  C   UNL d   1      19.731 -20.034   1.671  0.00  0.00     0.014 C 
ATOM     13  C   UNL d   1      18.581 -21.023   1.810  0.00  0.00     0.001 C 
ATOM     14  C   UNL d   1      17.883 -21.042   0.454  0.00  0.00     0.001 C 
ATOM     15  C   UNL d   1      18.761 -20.220  -0.487  0.00  0.00     0.014 C 
ENDBRANCH   8  11
ENDBRANCH   6   7
ENDBRANCH   5   6
ENDBRANCH   2   5
BRANCH   1  16
ATOM     16  N   UNL d   1      27.238 -16.028   0.410  0.00  0.00    -0.298 N 
ATOM     17  H   UNL d   1      28.009 -16.700   0.423  0.00  0.00     0.187 HD
BRANCH  16  18
ATOM     18  C   UNL d   1      27.315 -14.826   1.138  0.00  0.00     0.049 A 
ATOM     19  C   UNL d   1      26.992 -13.576   0.600  0.00  0.00     0.031 A 
ATOM     20  C   UNL d   1      27.082 -12.392   1.352  0.00  0.00     0.011 A 
ATOM     21  C   UNL d   1      27.506 -12.406   2.684  0.00  0.00    -0.040 A 
ATOM     22  C   UNL d   1      27.581 -11.116   3.456  0.00  0.00     0.050 C 
ATOM     23  C   UNL d   1      27.843 -13.647   3.240  0.00  0.00     0.042 A 
ATOM     24  C   UNL d   1      27.746 -14.835   2.481  0.00  0.00     0.055 A 
ATOM     25 CL   UNL d   1      28.394 -13.758   4.877  0.00  0.00    -0.084 Cl
ENDBRANCH  16  18
ENDBRANCH   1  16
TORSDOF 6
ENDMDL
MODEL 6
REMARK VINA RESULT:    -8.067      3.134      3.747
REMARK INTER + INTRA:         -10.375
REMARK INTER:                  -9.857
REMARK INTRA:                  -0.518
REMARK CONF_INDEPENDENT:        1.790
REMARK UNBOUND:                -0.518
REMARK  6 active torsions:
REMARK  status: ('A' for Active; 'I' for Inactive)
REMARK    1  A    between atoms: C_5  and  N_6 
REMARK    2  A    between atoms: N_6  and  N_7 
REMARK       I    between atoms: N_7  and  C_8 
REMARK    3  A    between atoms: C_8  and  C_10 
REMARK    4  A    between atoms: C_10  and  C_11 
REMARK    5  A    between atoms: C_11  and  N_12 
REMARK       I    between atoms: N_12  and  C_13 
REMARK    6  A    between atoms: C_13  and  C_15 
ROOT
ATOM      1  N   UNL d   1      26.250 -17.747   0.614  0.00  0.00    -0.270 N 
ATOM      2  C   UNL d   1      25.518 -17.860  -0.566  0.00  0.00     0.237 C 
ATOM      3  O   UNL d   1      25.899 -17.360  -1.626  0.00  0.00    -0.272 OA
ATOM      4  H   UNL d   1      25.938 -18.151   1.486  0.00  0.00     0.190 HD
ENDROOT
BRANCH   2   5
ATOM      5  C   UNL d   1      24.207 -18.653  -0.446  0.00  0.00     0.124 C 
BRANCH   5   6
ATOM      6  C   UNL d   1      22.977 -17.757  -0.666  0.00  0.00     0.132 C 
BRANCH   6   7
ATOM      7  N   UNL d   1      21.776 -18.163   0.075  0.00  0.00    -0.360 N 
ATOM      8  C   UNL d   1      20.812 -18.958  -0.524  0.00  0.00     0.221 C 
ATOM      9  O   UNL d   1      20.963 -19.424  -1.654  0.00  0.00    -0.273 OA
ATOM     10  H   UNL d   1      21.620 -17.809   1.008  0.00  0.00     0.162 HD
BRANCH   8  11
ATOM     11  C   UNL d   1      19.582 -19.315   0.322  0.00  0.00     0.078 C 
ATOM     12  C   UNL d   1      18.809 -20.548  -0.130  0.00  0.00     0.014 C 
ATOM     13  C   UNL d   1      18.007 -20.981   1.091  0.00  0.00     0.001 C 
ATOM     14  C   UNL d   1      18.827 -20.547   2.302  0.00  0.00     0.001 C 
ATOM     15  C   UNL d   1      19.977 -19.703   1.756  0.00  0.00     0.014 C 
ENDBRANCH   8  11
ENDBRANCH   6   7
ENDBRANCH   5   6
ENDBRANCH   2   5
BRANCH   1  16
ATOM     16  N   UNL d   1      27.461 -17.025   0.596  0.00  0.00    -0.298 N 
ATOM     17  H   UNL d   1      28.321 -17.577   0.621  0.00  0.00     0.187 HD
BRANCH  16  18
ATOM     18  C   UNL d   1      27.505 -15.618   0.588  0.00  0.00     0.049 A 
ATOM     19  C   UNL d   1      27.932 -14.853   1.679  0.00  0.00     0.031 A 
ATOM     20  C   UNL d   1      27.961 -13.449   1.643  0.00  0.00     0.011 A 
ATOM     21  C   UNL d   1      27.557 -12.742   0.507  0.00  0.00    -0.040 A 
ATOM     22  C   UNL d   1      27.611 -11.237   0.507  0.00  0.00     0.050 C 
ATOM     23  C   UNL d   1      27.117 -13.487  -0.594  0.00  0.00     0.042 A 
ATOM     24  C   UNL d   1      27.094 -14.900  -0.554  0.00  0.00     0.055 A 
ATOM     25 CL   UNL d   1      26.582 -12.696  -2.038  0.00  0.00    -0.084 Cl
ENDBRANCH  16  18
ENDBRANCH   1  16
TORSDOF 6
ENDMDL
MODEL 7
REMARK VINA RESULT:    -8.019      4.083      4.819
REMARK INTER + INTRA:         -10.600
REMARK INTER:                  -9.809
REMARK INTRA:                  -0.791
REMARK CONF_INDEPENDENT:        1.790
REMARK UNBOUND:                -0.791
REMARK  6 active torsions:
REMARK  status: ('A' for Active; 'I' for Inactive)
REMARK    1  A    between atoms: C_5  and  N_6 
REMARK    2  A    between atoms: N_6  and  N_7 
REMARK       I    between atoms: N_7  and  C_8 
REMARK    3  A    between atoms: C_8  and  C_10 
REMARK    4  A    between atoms: C_10  and  C_11 
REMARK    5  A    between atoms: C_11  and  N_12 
REMARK       I    between atoms: N_12  and  C_13 
REMARK    6  A    between atoms: C_13  and  C_15 
ROOT
ATOM      1  N   UNL d   1      25.576 -15.754  -0.557  0.00  0.00    -0.270 N 
ATOM      2  C   UNL d   1      24.829 -16.051  -1.695  0.00  0.00     0.237 C 
ATOM      3  O   UNL d   1      24.814 -15.314  -2.682  0.00  0.00    -0.272 OA
ATOM      4  H   UNL d   1      25.586 -16.353   0.256  0.00  0.00     0.190 HD
ENDROOT
BRANCH   2   5
ATOM      5  C   UNL d   1      24.031 -17.362  -1.626  0.00  0.00     0.124 C 
BRANCH   5   6
ATOM      6  C   UNL d   1      23.726 -17.768  -0.174  0.00  0.00     0.132 C 
BRANCH   6   7
ATOM      7  N   UNL d   1      22.771 -18.873  -0.028  0.00  0.00    -0.360 N 
ATOM      8  C   UNL d   1      21.440 -18.708  -0.376  0.00  0.00     0.221 C 
ATOM      9  O   UNL d   1      21.028 -17.671  -0.899  0.00  0.00    -0.273 OA
ATOM     10  H   UNL d   1      23.072 -19.743   0.387  0.00  0.00     0.162 HD
BRANCH   8  11
ATOM     11  C   UNL d   1      20.513 -19.914  -0.171  0.00  0.00     0.078 C 
ATOM     12  C   UNL d   1      20.098 -20.187   1.270  0.00  0.00     0.014 C 
ATOM     13  C   UNL d   1      18.841 -21.040   1.165  0.00  0.00     0.001 C 
ATOM     14  C   UNL d   1      18.168 -20.631  -0.141  0.00  0.00     0.001 C 
ATOM     15  C   UNL d   1      19.150 -19.701  -0.851  0.00  0.00     0.014 C 
ENDBRANCH   8  11
ENDBRANCH   6   7
ENDBRANCH   5   6
ENDBRANCH   2   5
BRANCH   1  16
ATOM     16  N   UNL d   1      26.330 -14.563  -0.532  0.00  0.00    -0.298 N 
ATOM     17  H   UNL d   1      26.490 -14.105  -1.431  0.00  0.00     0.187 HD
BRANCH  16  18
ATOM     18  C   UNL d   1      26.880 -14.039   0.654  0.00  0.00     0.049 A 
ATOM     19  C   UNL d   1      27.706 -14.773   1.511  0.00  0.00     0.031 A 
ATOM     20  C   UNL d   1      28.237 -14.223   2.691  0.00  0.00     0.011 A 
ATOM     21  C   UNL d   1      27.961 -12.906   3.069  0.00  0.00    -0.040 A 
ATOM     22  C   UNL d   1      28.556 -12.354   4.336  0.00  0.00     0.050 C 
ATOM     23  C   UNL d   1      27.128 -12.156   2.229  0.00  0.00     0.042 A 
ATOM     24  C   UNL d   1      26.600 -12.712   1.042  0.00  0.00     0.055 A 
ATOM     25 CL   UNL d   1      26.717 -10.522   2.626  0.00  0.00    -0.084 Cl
ENDBRANCH  16  18
ENDBRANCH   1  16
TORSDOF 6
ENDMDL
MODEL 8
REMARK VINA RESULT:    -7.892      1.390      2.036
REMARK INTER + INTRA:         -10.172
REMARK INTER:                  -9.682
REMARK INTRA:                  -0.490
REMARK CONF_INDEPENDENT:        1.790
REMARK UNBOUND:                -0.490
REMARK  6 active torsions:
REMARK  status: ('A' for Active; 'I' for Inactive)
REMARK    1  A    between atoms: C_5  and  N_6 
REMARK    2  A    between atoms: N_6  and  N_7 
REMARK       I    between atoms: N_7  and  C_8 
REMARK    3  A    between atoms: C_8  and  C_10 
REMARK    4  A    between atoms: C_10  and  C_11 
REMARK    5  A    between atoms: C_11  and  N_12 
REMARK       I    between atoms: N_12  and  C_13 
REMARK    6  A    between atoms: C_13  and  C_15 
ROOT
ATOM      1  N   UNL d   1      25.270 -16.196  -2.544  0.00  0.00    -0.270 N 
ATOM      2  C   UNL d   1      24.065 -15.791  -1.972  0.00  0.00     0.237 C 
ATOM      3  O   UNL d   1      23.429 -14.825  -2.395  0.00  0.00    -0.272 OA
ATOM      4  H   UNL d   1      25.797 -16.984  -2.196  0.00  0.00     0.190 HD
ENDROOT
BRANCH   2   5
ATOM      5  C   UNL d   1      23.594 -16.639  -0.781  0.00  0.00     0.124 C 
BRANCH   5   6
ATOM      6  C   UNL d   1      23.941 -18.126  -0.966  0.00  0.00     0.132 C 
BRANCH   6   7
ATOM      7  N   UNL d   1      23.000 -19.064  -0.342  0.00  0.00    -0.360 N 
ATOM      8  C   UNL d   1      21.632 -18.874  -0.458  0.00  0.00     0.221 C 
ATOM      9  O   UNL d   1      21.156 -17.976  -1.154  0.00  0.00    -0.273 OA
ATOM     10  H   UNL d   1      23.351 -19.820   0.229  0.00  0.00     0.162 HD
BRANCH   8  11
ATOM     11  C   UNL d   1      20.726 -19.895   0.245  0.00  0.00     0.078 C 
ATOM     12  C   UNL d   1      20.261 -19.508   1.643  0.00  0.00     0.014 C 
ATOM     13  C   UNL d   1      19.030 -20.367   1.902  0.00  0.00     0.001 C 
ATOM     14  C   UNL d   1      18.401 -20.615   0.535  0.00  0.00     0.001 C 
ATOM     15  C   UNL d   1      19.388 -20.065  -0.493  0.00  0.00     0.014 C 
ENDBRANCH   8  11
ENDBRANCH   6   7
ENDBRANCH   5   6
ENDBRANCH   2   5
BRANCH   1  16
ATOM     16  N   UNL d   1      25.782 -15.465  -3.636  0.00  0.00    -0.298 N 
ATOM     17  H   UNL d   1      26.021 -16.002  -4.472  0.00  0.00     0.187 HD
BRANCH  16  18
ATOM     18  C   UNL d   1      26.002 -14.075  -3.582  0.00  0.00     0.049 A 
ATOM     19  C   UNL d   1      26.333 -13.391  -2.408  0.00  0.00     0.031 A 
ATOM     20  C   UNL d   1      26.542 -12.002  -2.385  0.00  0.00     0.011 A 
ATOM     21  C   UNL d   1      26.425 -11.229  -3.544  0.00  0.00    -0.040 A 
ATOM     22  C   UNL d   1      26.666  -9.745  -3.477  0.00  0.00     0.050 C 
ATOM     23  C   UNL d   1      26.086 -11.893  -4.730  0.00  0.00     0.042 A 
ATOM     24  C   UNL d   1      25.880 -13.291  -4.748  0.00  0.00     0.055 A 
ATOM     25 CL   UNL d   1      25.903 -11.014  -6.210  0.00  0.00    -0.084 Cl
ENDBRANCH  16  18
ENDBRANCH   1  16
TORSDOF 6
ENDMDL
MODEL 9
REMARK VINA RESULT:    -7.464      3.571      9.144
REMARK INTER + INTRA:         -10.522
REMARK INTER:                  -9.254
REMARK INTRA:                  -1.268
REMARK CONF_INDEPENDENT:        1.790
REMARK UNBOUND:                -1.268
REMARK  6 active torsions:
REMARK  status: ('A' for Active; 'I' for Inactive)
REMARK    1  A    between atoms: C_5  and  N_6 
REMARK    2  A    between atoms: N_6  and  N_7 
REMARK       I    between atoms: N_7  and  C_8 
REMARK    3  A    between atoms: C_8  and  C_10 
REMARK    4  A    between atoms: C_10  and  C_11 
REMARK    5  A    between atoms: C_11  and  N_12 
REMARK       I    between atoms: N_12  and  C_13 
REMARK    6  A    between atoms: C_13  and  C_15 
ROOT
ATOM      1  N   UNL d   1      23.674 -18.457  -0.033  0.00  0.00    -0.270 N 
ATOM      2  C   UNL d   1      24.704 -17.539  -0.232  0.00  0.00     0.237 C 
ATOM      3  O   UNL d   1      24.560 -16.530  -0.923  0.00  0.00    -0.272 OA
ATOM      4  H   UNL d   1      23.790 -19.288   0.528  0.00  0.00     0.190 HD
ENDROOT
BRANCH   2   5
ATOM      5  C   UNL d   1      26.025 -17.881   0.474  0.00  0.00     0.124 C 
BRANCH   5   6
ATOM      6  C   UNL d   1      27.200 -17.063  -0.088  0.00  0.00     0.132 C 
BRANCH   6   7
ATOM      7  N   UNL d   1      26.902 -16.314  -1.314  0.00  0.00    -0.360 N 
ATOM      8  C   UNL d   1      27.223 -14.970  -1.417  0.00  0.00     0.221 C 
ATOM      9  O   UNL d   1      27.843 -14.380  -0.531  0.00  0.00    -0.273 OA
ATOM     10  H   UNL d   1      26.403 -16.766  -2.068  0.00  0.00     0.162 HD
BRANCH   8  11
ATOM     11  C   UNL d   1      26.855 -14.266  -2.730  0.00  0.00     0.078 C 
ATOM     12  C   UNL d   1      26.961 -15.121  -3.987  0.00  0.00     0.014 C 
ATOM     13  C   UNL d   1      26.093 -14.416  -5.020  0.00  0.00     0.001 C 
ATOM     14  C   UNL d   1      24.997 -13.709  -4.229  0.00  0.00     0.001 C 
ATOM     15  C   UNL d   1      25.373 -13.858  -2.756  0.00  0.00     0.014 C 
ENDBRANCH   8  11
ENDBRANCH   6   7
ENDBRANCH   5   6
ENDBRANCH   2   5
BRANCH   1  16
ATOM     16  N   UNL d   1      22.430 -18.226  -0.656  0.00  0.00    -0.298 N 
ATOM     17  H   UNL d   1      22.399 -17.475  -1.348  0.00  0.00     0.187 HD
BRANCH  16  18
ATOM     18  C   UNL d   1      21.269 -18.950  -0.322  0.00  0.00     0.049 A 
ATOM     19  C   UNL d   1      20.299 -19.327  -1.256  0.00  0.00     0.031 A 
ATOM     20  C   UNL d   1      19.148 -20.046  -0.892  0.00  0.00     0.011 A 
ATOM     21  C   UNL d   1      18.914 -20.420   0.435  0.00  0.00    -0.040 A 
ATOM     22  C   UNL d   1      17.672 -21.198   0.781  0.00  0.00     0.050 C 
ATOM     23  C   UNL d   1      19.868 -20.045   1.389  0.00  0.00     0.042 A 
ATOM     24  C   UNL d   1      21.026 -19.325   1.016  0.00  0.00     0.055 A 
ATOM     25 CL   UNL d   1      19.652 -20.450   3.058  0.00  0.00    -0.084 Cl
ENDBRANCH  16  18
ENDBRANCH   1  16
TORSDOF 6
ENDMDL
