MODEL 1
REMARK VINA RESULT:   -27.244      0.000      0.000
REMARK INTER + INTRA:         -30.284
REMARK INTER:                 -29.332
REMARK INTRA:                  -0.952
REMARK CONF_INDEPENDENT:        2.088
REMARK UNBOUND:                -0.952
REMARK  7 active torsions:
REMARK  status: ('A' for Active; 'I' for Inactive)
REMARK    1  A    between atoms: C_7  and  N_8 
REMARK    2  A    between atoms: N_8  and  S_9 
REMARK    3  A    between atoms: S_9  and  C_12 
REMARK    4  A    between atoms: C_15  and  N_16 
REMARK       I    between atoms: N_16  and  C_17 
REMARK    5  A    between atoms: C_17  and  C_19 
REMARK    6  A    between atoms: C_22  and  O_23 
REMARK    7  A    between atoms: O_23  and  C_24 
ROOT
ATOM      1  C   UNL d   1      24.157 -16.583  -1.321  0.00  0.00     0.080 A 
ATOM      2  C   UNL d   1      25.404 -17.196  -1.463  0.00  0.00     0.027 A 
ATOM      3  C   UNL d   1      26.387 -16.611  -2.301  0.00  0.00     0.031 A 
ATOM      4  C   UNL d   1      26.107 -15.460  -3.057  0.00  0.00     0.035 A 
ATOM      5  C   UNL d   1      24.853 -14.868  -2.883  0.00  0.00     0.031 A 
ATOM      6  C   UNL d   1      23.887 -15.416  -2.035  0.00  0.00     0.027 A 
ENDROOT
BRANCH   4   7
ATOM      7  N   UNL d   1      27.068 -14.945  -3.981  0.00  0.00    -0.323 N 
ATOM      8  C   UNL d   1      27.065 -15.199  -5.354  0.00  0.00     0.256 C 
ATOM      9  O   UNL d   1      26.243 -15.866  -5.974  0.00  0.00    -0.267 OA
ATOM     10  H   UNL d   1      27.814 -14.374  -3.600  0.00  0.00     0.169 HD
BRANCH   8  11
ATOM     11  C   UNL d   1      28.159 -14.644  -6.183  0.00  0.00     0.032 A 
ATOM     12  C   UNL d   1      29.346 -15.386  -6.313  0.00  0.00     0.020 A 
ATOM     13  C   UNL d   1      30.488 -14.816  -6.892  0.00  0.00     0.038 A 
ATOM     14  C   UNL d   1      30.427 -13.531  -7.434  0.00  0.00     0.069 A 
ATOM     15  C   UNL d   1      29.224 -12.822  -7.334  0.00  0.00     0.038 A 
ATOM     16  C   UNL d   1      28.111 -13.346  -6.671  0.00  0.00     0.020 A 
BRANCH  14  17
ATOM     17  O   UNL d   1      31.582 -13.065  -8.012  0.00  0.00    -0.347 OA
BRANCH  17  18
ATOM     18  C   UNL d   1      31.676 -13.100  -9.446  0.00  0.00     0.120 C 
ATOM     19  C   UNL d   1      31.259 -11.760 -10.059  0.00  0.00     0.040 C 
ATOM     20  C   UNL d   1      33.134 -13.349  -9.846  0.00  0.00     0.040 C 
ENDBRANCH  17  18
ENDBRANCH  14  17
ENDBRANCH   8  11
ENDBRANCH   4   7
BRANCH   1  21
ATOM     21  S   UNL d   1      22.924 -17.129  -0.135  0.00  0.00     0.276 S 
ATOM     22  O   UNL d   1      22.178 -15.930   0.219  0.00  0.00    -0.200 OA
ATOM     23  O   UNL d   1      23.672 -17.879   0.846  0.00  0.00    -0.200 OA
BRANCH  21  24
ATOM     24  N   UNL d   1      21.904 -18.152  -0.947  0.00  0.00    -0.109 N 
ATOM     25  H   UNL d   1      21.867 -18.248  -1.949  0.00  0.00     0.198 HD
BRANCH  24  26
ATOM     26  C   UNL d   1      20.979 -18.900  -0.209  0.00  0.00     0.736 A 
ATOM     27  N   UNL d   1      19.905 -19.325  -0.895  0.00  0.00    -0.067 NA
ATOM     28  C   UNL d   1      19.001 -20.056  -0.189  0.00  0.00     0.051 A 
ATOM     29  C   UNL d   1      19.174 -20.356   1.152  0.00  0.00     0.054 A 
ATOM     30  C   UNL d   1      17.765 -20.536  -0.901  0.00  0.00     0.071 C 
ATOM     31  C   UNL d   1      20.317 -19.869   1.750  0.00  0.00     0.051 A 
ATOM     32  C   UNL d   1      20.619 -20.113   3.195  0.00  0.00     0.071 C 
ATOM     33  N   UNL d   1      21.224 -19.143   1.076  0.00  0.00    -0.067 NA
ENDBRANCH  24  26
ENDBRANCH  21  24
ENDBRANCH   1  21
TORSDOF 7
ENDMDL
MODEL 2
REMARK VINA RESULT:   -27.217      0.888      1.853
REMARK INTER + INTRA:         -30.165
REMARK INTER:                 -29.305
REMARK INTRA:                  -0.859
REMARK CONF_INDEPENDENT:        2.088
REMARK UNBOUND:                -0.859
REMARK  7 active torsions:
REMARK  status: ('A' for Active; 'I' for Inactive)
REMARK    1  A    between atoms: C_7  and  N_8 
REMARK    2  A    between atoms: N_8  and  S_9 
REMARK    3  A    between atoms: S_9  and  C_12 
REMARK    4  A    between atoms: C_15  and  N_16 
REMARK       I    between atoms: N_16  and  C_17 
REMARK    5  A    between atoms: C_17  and  C_19 
REMARK    6  A    between atoms: C_22  and  O_23 
REMARK    7  A    between atoms: O_23  and  C_24 
ROOT
ATOM      1  C   UNL d   1      24.159 -16.515  -1.361  0.00  0.00     0.080 A 
ATOM      2  C   UNL d   1      25.385 -17.159  -1.544  0.00  0.00     0.027 A 
ATOM      3  C   UNL d   1      26.372 -16.574  -2.376  0.00  0.00     0.031 A 
ATOM      4  C   UNL d   1      26.116 -15.389  -3.087  0.00  0.00     0.035 A 
ATOM      5  C   UNL d   1      24.883 -14.767  -2.873  0.00  0.00     0.031 A 
ATOM      6  C   UNL d   1      23.913 -15.316  -2.030  0.00  0.00     0.027 A 
ENDROOT
BRANCH   4   7
ATOM      7  N   UNL d   1      27.078 -14.870  -4.006  0.00  0.00    -0.323 N 
ATOM      8  C   UNL d   1      27.090 -15.134  -5.377  0.00  0.00     0.256 C 
ATOM      9  O   UNL d   1      26.280 -15.816  -6.000  0.00  0.00    -0.267 OA
ATOM     10  H   UNL d   1      27.815 -14.288  -3.624  0.00  0.00     0.169 HD
BRANCH   8  11
ATOM     11  C   UNL d   1      28.184 -14.573  -6.202  0.00  0.00     0.032 A 
ATOM     12  C   UNL d   1      29.265 -15.407  -6.541  0.00  0.00     0.020 A 
ATOM     13  C   UNL d   1      30.425 -14.875  -7.121  0.00  0.00     0.038 A 
ATOM     14  C   UNL d   1      30.480 -13.521  -7.455  0.00  0.00     0.069 A 
ATOM     15  C   UNL d   1      29.378 -12.713  -7.149  0.00  0.00     0.038 A 
ATOM     16  C   UNL d   1      28.257 -13.217  -6.483  0.00  0.00     0.020 A 
BRANCH  14  17
ATOM     17  O   UNL d   1      31.641 -13.094  -8.051  0.00  0.00    -0.347 OA
BRANCH  17  18
ATOM     18  C   UNL d   1      32.626 -12.458  -7.219  0.00  0.00     0.120 C 
ATOM     19  C   UNL d   1      32.010 -11.313  -6.411  0.00  0.00     0.040 C 
ATOM     20  C   UNL d   1      33.170 -13.481  -6.217  0.00  0.00     0.040 C 
ENDBRANCH  17  18
ENDBRANCH  14  17
ENDBRANCH   8  11
ENDBRANCH   4   7
BRANCH   1  21
ATOM     21  S   UNL d   1      22.927 -17.066  -0.177  0.00  0.00     0.276 S 
ATOM     22  O   UNL d   1      22.207 -15.862   0.213  0.00  0.00    -0.200 OA
ATOM     23  O   UNL d   1      23.670 -17.853   0.780  0.00  0.00    -0.200 OA
BRANCH  21  24
ATOM     24  N   UNL d   1      21.880 -18.050  -1.002  0.00  0.00    -0.109 N 
ATOM     25  H   UNL d   1      21.820 -18.110  -2.006  0.00  0.00     0.198 HD
BRANCH  24  26
ATOM     26  C   UNL d   1      20.965 -18.818  -0.272  0.00  0.00     0.736 A 
ATOM     27  N   UNL d   1      21.251 -18.967   1.032  0.00  0.00    -0.067 NA
ATOM     28  C   UNL d   1      20.367 -19.709   1.752  0.00  0.00     0.051 A 
ATOM     29  C   UNL d   1      19.237 -20.273   1.187  0.00  0.00     0.054 A 
ATOM     30  C   UNL d   1      20.651 -19.928   3.214  0.00  0.00     0.071 C 
ATOM     31  C   UNL d   1      19.045 -20.051  -0.161  0.00  0.00     0.051 A 
ATOM     32  C   UNL d   1      17.869 -20.611  -0.896  0.00  0.00     0.071 C 
ATOM     33  N   UNL d   1      19.904 -19.323  -0.895  0.00  0.00    -0.067 NA
ENDBRANCH  24  26
ENDBRANCH  21  24
ENDBRANCH   1  21
TORSDOF 7
ENDMDL
MODEL 3
REMARK VINA RESULT:   -26.963      1.915      2.776
REMARK INTER + INTRA:         -29.924
REMARK INTER:                 -29.052
REMARK INTRA:                  -0.872
REMARK CONF_INDEPENDENT:        2.088
REMARK UNBOUND:                -0.872
REMARK  7 active torsions:
REMARK  status: ('A' for Active; 'I' for Inactive)
REMARK    1  A    between atoms: C_7  and  N_8 
REMARK    2  A    between atoms: N_8  and  S_9 
REMARK    3  A    between atoms: S_9  and  C_12 
REMARK    4  A    between atoms: C_15  and  N_16 
REMARK       I    between atoms: N_16  and  C_17 
REMARK    5  A    between atoms: C_17  and  C_19 
REMARK    6  A    between atoms: C_22  and  O_23 
REMARK    7  A    between atoms: O_23  and  C_24 
ROOT
ATOM      1  C   UNL d   1      24.285 -16.848  -1.478  0.00  0.00     0.080 A 
ATOM      2  C   UNL d   1      23.625 -15.697  -1.916  0.00  0.00     0.027 A 
ATOM      3  C   UNL d   1      24.297 -14.774  -2.756  0.00  0.00     0.031 A 
ATOM      4  C   UNL d   1      25.648 -14.954  -3.101  0.00  0.00     0.035 A 
ATOM      5  C   UNL d   1      26.274 -16.120  -2.654  0.00  0.00     0.031 A 
ATOM      6  C   UNL d   1      25.613 -17.054  -1.851  0.00  0.00     0.027 A 
ENDROOT
BRANCH   4   7
ATOM      7  N   UNL d   1      26.344 -13.961  -3.857  0.00  0.00    -0.323 N 
ATOM      8  C   UNL d   1      26.953 -14.186  -5.093  0.00  0.00     0.256 C 
ATOM      9  O   UNL d   1      26.966 -15.239  -5.724  0.00  0.00    -0.267 OA
ATOM     10  H   UNL d   1      26.415 -13.036  -3.449  0.00  0.00     0.169 HD
BRANCH   8  11
ATOM     11  C   UNL d   1      27.691 -13.075  -5.736  0.00  0.00     0.032 A 
ATOM     12  C   UNL d   1      27.689 -11.816  -5.111  0.00  0.00     0.020 A 
ATOM     13  C   UNL d   1      28.174 -10.683  -5.779  0.00  0.00     0.038 A 
ATOM     14  C   UNL d   1      28.754 -10.814  -7.041  0.00  0.00     0.069 A 
ATOM     15  C   UNL d   1      28.787 -12.083  -7.632  0.00  0.00     0.038 A 
ATOM     16  C   UNL d   1      28.217 -13.200  -7.014  0.00  0.00     0.020 A 
BRANCH  14  17
ATOM     17  O   UNL d   1      29.234  -9.658  -7.607  0.00  0.00    -0.347 OA
BRANCH  17  18
ATOM     18  C   UNL d   1      28.276  -8.696  -8.080  0.00  0.00     0.120 C 
ATOM     19  C   UNL d   1      27.049  -9.387  -8.680  0.00  0.00     0.040 C 
ATOM     20  C   UNL d   1      27.790  -7.851  -6.898  0.00  0.00     0.040 C 
ENDBRANCH  17  18
ENDBRANCH  14  17
ENDBRANCH   8  11
ENDBRANCH   4   7
BRANCH   1  21
ATOM     21  S   UNL d   1      23.464 -18.171  -0.584  0.00  0.00     0.276 S 
ATOM     22  O   UNL d   1      23.625 -17.836   0.824  0.00  0.00    -0.200 OA
ATOM     23  O   UNL d   1      24.012 -19.383  -1.146  0.00  0.00    -0.200 OA
BRANCH  21  24
ATOM     24  N   UNL d   1      21.853 -18.070  -0.958  0.00  0.00    -0.109 N 
ATOM     25  H   UNL d   1      21.466 -17.469  -1.668  0.00  0.00     0.198 HD
BRANCH  24  26
ATOM     26  C   UNL d   1      20.942 -18.823  -0.207  0.00  0.00     0.736 A 
ATOM     27  N   UNL d   1      19.905 -19.325  -0.897  0.00  0.00    -0.067 NA
ATOM     28  C   UNL d   1      19.015 -20.061  -0.178  0.00  0.00     0.051 A 
ATOM     29  C   UNL d   1      19.166 -20.291   1.179  0.00  0.00     0.054 A 
ATOM     30  C   UNL d   1      17.819 -20.627  -0.895  0.00  0.00     0.071 C 
ATOM     31  C   UNL d   1      20.273 -19.728   1.780  0.00  0.00     0.051 A 
ATOM     32  C   UNL d   1      20.549 -19.892   3.241  0.00  0.00     0.071 C 
ATOM     33  N   UNL d   1      21.165 -18.996   1.093  0.00  0.00    -0.067 NA
ENDBRANCH  24  26
ENDBRANCH  21  24
ENDBRANCH   1  21
TORSDOF 7
ENDMDL
MODEL 4
REMARK VINA RESULT:   -26.769      0.948      2.123
REMARK INTER + INTRA:         -29.701
REMARK INTER:                 -28.857
REMARK INTRA:                  -0.843
REMARK CONF_INDEPENDENT:        2.088
REMARK UNBOUND:                -0.843
REMARK  7 active torsions:
REMARK  status: ('A' for Active; 'I' for Inactive)
REMARK    1  A    between atoms: C_7  and  N_8 
REMARK    2  A    between atoms: N_8  and  S_9 
REMARK    3  A    between atoms: S_9  and  C_12 
REMARK    4  A    between atoms: C_15  and  N_16 
REMARK       I    between atoms: N_16  and  C_17 
REMARK    5  A    between atoms: C_17  and  C_19 
REMARK    6  A    between atoms: C_22  and  O_23 
REMARK    7  A    between atoms: O_23  and  C_24 
ROOT
ATOM      1  C   UNL d   1      24.192 -16.571  -1.376  0.00  0.00     0.080 A 
ATOM      2  C   UNL d   1      25.418 -17.215  -1.555  0.00  0.00     0.027 A 
ATOM      3  C   UNL d   1      26.402 -16.637  -2.397  0.00  0.00     0.031 A 
ATOM      4  C   UNL d   1      26.142 -15.461  -3.119  0.00  0.00     0.035 A 
ATOM      5  C   UNL d   1      24.909 -14.838  -2.909  0.00  0.00     0.031 A 
ATOM      6  C   UNL d   1      23.942 -15.380  -2.058  0.00  0.00     0.027 A 
ENDROOT
BRANCH   4   7
ATOM      7  N   UNL d   1      27.101 -14.950  -4.047  0.00  0.00    -0.323 N 
ATOM      8  C   UNL d   1      26.926 -13.800  -4.819  0.00  0.00     0.256 C 
ATOM      9  O   UNL d   1      25.955 -13.048  -4.805  0.00  0.00    -0.267 OA
ATOM     10  H   UNL d   1      27.958 -15.480  -4.165  0.00  0.00     0.169 HD
BRANCH   8  11
ATOM     11  C   UNL d   1      27.983 -13.421  -5.784  0.00  0.00     0.032 A 
ATOM     12  C   UNL d   1      27.864 -12.197  -6.466  0.00  0.00     0.020 A 
ATOM     13  C   UNL d   1      28.706 -11.893  -7.545  0.00  0.00     0.038 A 
ATOM     14  C   UNL d   1      29.738 -12.767  -7.891  0.00  0.00     0.069 A 
ATOM     15  C   UNL d   1      29.869 -13.962  -7.173  0.00  0.00     0.038 A 
ATOM     16  C   UNL d   1      28.973 -14.317  -6.161  0.00  0.00     0.020 A 
BRANCH  14  17
ATOM     17  O   UNL d   1      30.535 -12.373  -8.938  0.00  0.00    -0.347 OA
BRANCH  17  18
ATOM     18  C   UNL d   1      31.536 -11.374  -8.679  0.00  0.00     0.120 C 
ATOM     19  C   UNL d   1      32.901 -11.806  -9.222  0.00  0.00     0.040 C 
ATOM     20  C   UNL d   1      31.148 -10.080  -9.402  0.00  0.00     0.040 C 
ENDBRANCH  17  18
ENDBRANCH  14  17
ENDBRANCH   8  11
ENDBRANCH   4   7
BRANCH   1  21
ATOM     21  S   UNL d   1      22.964 -17.111  -0.182  0.00  0.00     0.276 S 
ATOM     22  O   UNL d   1      22.272 -15.898   0.228  0.00  0.00    -0.200 OA
ATOM     23  O   UNL d   1      23.703 -17.921   0.757  0.00  0.00    -0.200 OA
BRANCH  21  24
ATOM     24  N   UNL d   1      21.888 -18.067  -1.005  0.00  0.00    -0.109 N 
ATOM     25  H   UNL d   1      21.819 -18.118  -2.009  0.00  0.00     0.198 HD
BRANCH  24  26
ATOM     26  C   UNL d   1      20.964 -18.820  -0.271  0.00  0.00     0.736 A 
ATOM     27  N   UNL d   1      21.242 -18.956   1.036  0.00  0.00    -0.067 NA
ATOM     28  C   UNL d   1      20.349 -19.684   1.759  0.00  0.00     0.051 A 
ATOM     29  C   UNL d   1      19.218 -20.246   1.193  0.00  0.00     0.054 A 
ATOM     30  C   UNL d   1      20.623 -19.889   3.225  0.00  0.00     0.071 C 
ATOM     31  C   UNL d   1      19.035 -20.038  -0.158  0.00  0.00     0.051 A 
ATOM     32  C   UNL d   1      17.860 -20.599  -0.894  0.00  0.00     0.071 C 
ATOM     33  N   UNL d   1      19.903 -19.325  -0.895  0.00  0.00    -0.067 NA
ENDBRANCH  24  26
ENDBRANCH  21  24
ENDBRANCH   1  21
TORSDOF 7
ENDMDL
MODEL 5
REMARK VINA RESULT:   -26.767      5.725      7.358
REMARK INTER + INTRA:         -29.863
REMARK INTER:                 -28.855
REMARK INTRA:                  -1.007
REMARK CONF_INDEPENDENT:        2.088
REMARK UNBOUND:                -1.007
REMARK  7 active torsions:
REMARK  status: ('A' for Active; 'I' for Inactive)
REMARK    1  A    between atoms: C_7  and  N_8 
REMARK    2  A    between atoms: N_8  and  S_9 
REMARK    3  A    between atoms: S_9  and  C_12 
REMARK    4  A    between atoms: C_15  and  N_16 
REMARK       I    between atoms: N_16  and  C_17 
REMARK    5  A    between atoms: C_17  and  C_19 
REMARK    6  A    between atoms: C_22  and  O_23 
REMARK    7  A    between atoms: O_23  and  C_24 
ROOT
ATOM      1  C   UNL d   1      24.547 -17.559  -0.566  0.00  0.00     0.080 A 
ATOM      2  C   UNL d   1      24.542 -16.187  -0.830  0.00  0.00     0.027 A 
ATOM      3  C   UNL d   1      25.607 -15.375  -0.364  0.00  0.00     0.031 A 
ATOM      4  C   UNL d   1      26.638 -15.910   0.428  0.00  0.00     0.035 A 
ATOM      5  C   UNL d   1      26.616 -17.287   0.664  0.00  0.00     0.031 A 
ATOM      6  C   UNL d   1      25.589 -18.104   0.184  0.00  0.00     0.027 A 
ENDROOT
BRANCH   4   7
ATOM      7  N   UNL d   1      27.644 -15.060   0.982  0.00  0.00    -0.323 N 
ATOM      8  C   UNL d   1      27.408 -13.790   1.513  0.00  0.00     0.256 C 
ATOM      9  O   UNL d   1      26.322 -13.226   1.609  0.00  0.00    -0.267 OA
ATOM     10  H   UNL d   1      28.598 -15.402   0.964  0.00  0.00     0.169 HD
BRANCH   8  11
ATOM     11  C   UNL d   1      28.559 -12.997   2.001  0.00  0.00     0.032 A 
ATOM     12  C   UNL d   1      29.523 -13.634   2.803  0.00  0.00     0.020 A 
ATOM     13  C   UNL d   1      30.503 -12.889   3.473  0.00  0.00     0.038 A 
ATOM     14  C   UNL d   1      30.588 -11.511   3.274  0.00  0.00     0.069 A 
ATOM     15  C   UNL d   1      29.646 -10.898   2.438  0.00  0.00     0.038 A 
ATOM     16  C   UNL d   1      28.607 -11.620   1.844  0.00  0.00     0.020 A 
BRANCH  14  17
ATOM     17  O   UNL d   1      31.599 -10.866   3.943  0.00  0.00    -0.347 OA
BRANCH  17  18
ATOM     18  C   UNL d   1      31.419 -10.613   5.347  0.00  0.00     0.120 C 
ATOM     19  C   UNL d   1      29.934 -10.485   5.699  0.00  0.00     0.040 C 
ATOM     20  C   UNL d   1      31.974 -11.798   6.144  0.00  0.00     0.040 C 
ENDBRANCH  17  18
ENDBRANCH  14  17
ENDBRANCH   8  11
ENDBRANCH   4   7
BRANCH   1  21
ATOM     21  S   UNL d   1      23.359 -18.700  -1.278  0.00  0.00     0.276 S 
ATOM     22  O   UNL d   1      23.502 -19.929  -0.510  0.00  0.00    -0.200 OA
ATOM     23  O   UNL d   1      23.618 -18.655  -2.698  0.00  0.00    -0.200 OA
BRANCH  21  24
ATOM     24  N   UNL d   1      21.855 -18.073  -0.974  0.00  0.00    -0.109 N 
ATOM     25  H   UNL d   1      21.547 -17.157  -1.260  0.00  0.00     0.198 HD
BRANCH  24  26
ATOM     26  C   UNL d   1      20.953 -18.831  -0.217  0.00  0.00     0.736 A 
ATOM     27  N   UNL d   1      19.905 -19.324  -0.896  0.00  0.00    -0.067 NA
ATOM     28  C   UNL d   1      19.024 -20.065  -0.171  0.00  0.00     0.051 A 
ATOM     29  C   UNL d   1      19.194 -20.307   1.181  0.00  0.00     0.054 A 
ATOM     30  C   UNL d   1      17.817 -20.622  -0.876  0.00  0.00     0.071 C 
ATOM     31  C   UNL d   1      20.310 -19.752   1.772  0.00  0.00     0.051 A 
ATOM     32  C   UNL d   1      20.606 -19.929   3.227  0.00  0.00     0.071 C 
ATOM     33  N   UNL d   1      21.194 -19.015   1.078  0.00  0.00    -0.067 NA
ENDBRANCH  24  26
ENDBRANCH  21  24
ENDBRANCH   1  21
TORSDOF 7
ENDMDL
MODEL 6
REMARK VINA RESULT:   -26.517      4.936      6.017
REMARK INTER + INTRA:         -29.590
REMARK INTER:                 -28.605
REMARK INTRA:                  -0.985
REMARK CONF_INDEPENDENT:        2.088
REMARK UNBOUND:                -0.985
REMARK  7 active torsions:
REMARK  status: ('A' for Active; 'I' for Inactive)
REMARK    1  A    between atoms: C_7  and  N_8 
REMARK    2  A    between atoms: N_8  and  S_9 
REMARK    3  A    between atoms: S_9  and  C_12 
REMARK    4  A    between atoms: C_15  and  N_16 
REMARK       I    between atoms: N_16  and  C_17 
REMARK    5  A    between atoms: C_17  and  C_19 
REMARK    6  A    between atoms: C_22  and  O_23 
REMARK    7  A    between atoms: O_23  and  C_24 
ROOT
ATOM      1  C   UNL d   1      24.276 -17.107  -1.139  0.00  0.00     0.080 A 
ATOM      2  C   UNL d   1      24.167 -15.989  -1.969  0.00  0.00     0.027 A 
ATOM      3  C   UNL d   1      25.161 -14.978  -1.926  0.00  0.00     0.031 A 
ATOM      4  C   UNL d   1      26.222 -15.040  -1.007  0.00  0.00     0.035 A 
ATOM      5  C   UNL d   1      26.305 -16.176  -0.199  0.00  0.00     0.031 A 
ATOM      6  C   UNL d   1      25.350 -17.195  -0.253  0.00  0.00     0.027 A 
ENDROOT
BRANCH   4   7
ATOM      7  N   UNL d   1      27.154 -13.962  -0.899  0.00  0.00    -0.323 N 
ATOM      8  C   UNL d   1      27.083 -12.943   0.053  0.00  0.00     0.256 C 
ATOM      9  O   UNL d   1      26.245 -12.827   0.942  0.00  0.00    -0.267 OA
ATOM     10  H   UNL d   1      27.904 -13.930  -1.581  0.00  0.00     0.169 HD
BRANCH   8  11
ATOM     11  C   UNL d   1      28.088 -11.856   0.009  0.00  0.00     0.032 A 
ATOM     12  C   UNL d   1      28.882 -11.628   1.147  0.00  0.00     0.020 A 
ATOM     13  C   UNL d   1      29.683 -10.482   1.244  0.00  0.00     0.038 A 
ATOM     14  C   UNL d   1      29.772  -9.602   0.165  0.00  0.00     0.069 A 
ATOM     15  C   UNL d   1      29.008  -9.866  -0.978  0.00  0.00     0.038 A 
ATOM     16  C   UNL d   1      28.132 -10.954  -1.044  0.00  0.00     0.020 A 
BRANCH  14  17
ATOM     17  O   UNL d   1      30.607  -8.524   0.335  0.00  0.00    -0.347 OA
BRANCH  17  18
ATOM     18  C   UNL d   1      30.705  -7.952   1.650  0.00  0.00     0.120 C 
ATOM     19  C   UNL d   1      31.820  -6.904   1.715  0.00  0.00     0.040 C 
ATOM     20  C   UNL d   1      29.390  -7.239   1.984  0.00  0.00     0.040 C 
ENDBRANCH  17  18
ENDBRANCH  14  17
ENDBRANCH   8  11
ENDBRANCH   4   7
BRANCH   1  21
ATOM     21  S   UNL d   1      23.186 -18.529  -1.258  0.00  0.00     0.276 S 
ATOM     22  O   UNL d   1      23.577 -19.402  -0.161  0.00  0.00    -0.200 OA
ATOM     23  O   UNL d   1      23.286 -18.946  -2.637  0.00  0.00    -0.200 OA
BRANCH  21  24
ATOM     24  N   UNL d   1      21.652 -17.979  -0.960  0.00  0.00    -0.109 N 
ATOM     25  H   UNL d   1      21.300 -17.079  -1.246  0.00  0.00     0.198 HD
BRANCH  24  26
ATOM     26  C   UNL d   1      20.786 -18.784  -0.210  0.00  0.00     0.736 A 
ATOM     27  N   UNL d   1      19.766 -19.325  -0.895  0.00  0.00    -0.067 NA
ATOM     28  C   UNL d   1      18.920 -20.111  -0.177  0.00  0.00     0.051 A 
ATOM     29  C   UNL d   1      19.096 -20.351   1.175  0.00  0.00     0.054 A 
ATOM     30  C   UNL d   1      17.744 -20.724  -0.889  0.00  0.00     0.071 C 
ATOM     31  C   UNL d   1      20.181 -19.744   1.772  0.00  0.00     0.051 A 
ATOM     32  C   UNL d   1      20.481 -19.912   3.229  0.00  0.00     0.071 C 
ATOM     33  N   UNL d   1      21.030 -18.961   1.086  0.00  0.00    -0.067 NA
ENDBRANCH  24  26
ENDBRANCH  21  24
ENDBRANCH   1  21
TORSDOF 7
ENDMDL
MODEL 7
REMARK VINA RESULT:   -26.093      3.855      4.499
REMARK INTER + INTRA:         -29.161
REMARK INTER:                 -28.181
REMARK INTRA:                  -0.981
REMARK CONF_INDEPENDENT:        2.088
REMARK UNBOUND:                -0.981
REMARK  7 active torsions:
REMARK  status: ('A' for Active; 'I' for Inactive)
REMARK    1  A    between atoms: C_7  and  N_8 
REMARK    2  A    between atoms: N_8  and  S_9 
REMARK    3  A    between atoms: S_9  and  C_12 
REMARK    4  A    between atoms: C_15  and  N_16 
REMARK       I    between atoms: N_16  and  C_17 
REMARK    5  A    between atoms: C_17  and  C_19 
REMARK    6  A    between atoms: C_22  and  O_23 
REMARK    7  A    between atoms: O_23  and  C_24 
ROOT
ATOM      1  C   UNL d   1      24.407 -17.217  -1.304  0.00  0.00     0.080 A 
ATOM      2  C   UNL d   1      24.817 -16.548  -0.148  0.00  0.00     0.027 A 
ATOM      3  C   UNL d   1      25.569 -15.351  -0.254  0.00  0.00     0.031 A 
ATOM      4  C   UNL d   1      25.979 -14.857  -1.504  0.00  0.00     0.035 A 
ATOM      5  C   UNL d   1      25.544 -15.546  -2.639  0.00  0.00     0.031 A 
ATOM      6  C   UNL d   1      24.775 -16.710  -2.550  0.00  0.00     0.027 A 
ENDROOT
BRANCH   4   7
ATOM      7  N   UNL d   1      26.829 -13.712  -1.591  0.00  0.00    -0.323 N 
ATOM      8  C   UNL d   1      26.643 -12.651  -2.480  0.00  0.00     0.256 C 
ATOM      9  O   UNL d   1      25.730 -12.524  -3.290  0.00  0.00    -0.267 OA
ATOM     10  H   UNL d   1      27.634 -13.687  -0.975  0.00  0.00     0.169 HD
BRANCH   8  11
ATOM     11  C   UNL d   1      27.639 -11.555  -2.497  0.00  0.00     0.032 A 
ATOM     12  C   UNL d   1      27.979 -10.936  -1.281  0.00  0.00     0.020 A 
ATOM     13  C   UNL d   1      28.737  -9.756  -1.265  0.00  0.00     0.038 A 
ATOM     14  C   UNL d   1      29.242  -9.237  -2.457  0.00  0.00     0.069 A 
ATOM     15  C   UNL d   1      28.929  -9.890  -3.656  0.00  0.00     0.038 A 
ATOM     16  C   UNL d   1      28.094 -11.010  -3.689  0.00  0.00     0.020 A 
BRANCH  14  17
ATOM     17  O   UNL d   1      30.001  -8.098  -2.344  0.00  0.00    -0.347 OA
BRANCH  17  18
ATOM     18  C   UNL d   1      29.812  -7.065  -3.326  0.00  0.00     0.120 C 
ATOM     19  C   UNL d   1      28.351  -6.610  -3.374  0.00  0.00     0.040 C 
ATOM     20  C   UNL d   1      30.657  -5.847  -2.940  0.00  0.00     0.040 C 
ENDBRANCH  17  18
ENDBRANCH  14  17
ENDBRANCH   8  11
ENDBRANCH   4   7
BRANCH   1  21
ATOM     21  S   UNL d   1      23.288 -18.621  -1.282  0.00  0.00     0.276 S 
ATOM     22  O   UNL d   1      23.712 -19.429  -0.148  0.00  0.00    -0.200 OA
ATOM     23  O   UNL d   1      23.318 -19.129  -2.634  0.00  0.00    -0.200 OA
BRANCH  21  24
ATOM     24  N   UNL d   1      21.778 -18.020  -0.954  0.00  0.00    -0.109 N 
ATOM     25  H   UNL d   1      21.457 -17.103  -1.219  0.00  0.00     0.198 HD
BRANCH  24  26
ATOM     26  C   UNL d   1      20.893 -18.806  -0.207  0.00  0.00     0.736 A 
ATOM     27  N   UNL d   1      19.863 -19.324  -0.896  0.00  0.00    -0.067 NA
ATOM     28  C   UNL d   1      18.997 -20.092  -0.181  0.00  0.00     0.051 A 
ATOM     29  C   UNL d   1      19.165 -20.337   1.172  0.00  0.00     0.054 A 
ATOM     30  C   UNL d   1      17.810 -20.678  -0.897  0.00  0.00     0.071 C 
ATOM     31  C   UNL d   1      20.261 -19.754   1.773  0.00  0.00     0.051 A 
ATOM     32  C   UNL d   1      20.552 -19.931   3.229  0.00  0.00     0.071 C 
ATOM     33  N   UNL d   1      21.129 -18.990   1.089  0.00  0.00    -0.067 NA
ENDBRANCH  24  26
ENDBRANCH  21  24
ENDBRANCH   1  21
TORSDOF 7
ENDMDL
