MODEL 1
REMARK VINA RESULT:    -8.308      0.000      0.000
REMARK INTER + INTRA:         -11.877
REMARK INTER:                 -10.695
REMARK INTRA:                  -1.183
REMARK CONF_INDEPENDENT:        2.386
REMARK UNBOUND:                -1.183
REMARK  8 active torsions:
REMARK  status: ('A' for Active; 'I' for Inactive)
REMARK    1  A    between atoms: C_2  and  C_3 
REMARK    2  A    between atoms: C_3  and  C_4 
REMARK    3  A    between atoms: C_4  and  O_5 
REMARK    4  A    between atoms: O_5  and  C_6 
REMARK    5  A    between atoms: C_9  and  C_10 
REMARK    6  A    between atoms: C_10  and  C_11 
REMARK    7  A    between atoms: C_11  and  N_12 
REMARK       I    between atoms: N_12  and  C_13 
REMARK       I    between atoms: C_13  and  N_15 
REMARK    8  A    between atoms: N_15  and  N_16 
REMARK       I    between atoms: N_16  and  C_17 
ROOT
ATOM      1  C   UNL d   1      26.588 -17.416  -0.338  0.00  0.00     0.058 C 
ENDROOT
BRANCH   1   2
ATOM      2  C   UNL d   1      25.071 -17.513  -0.432  0.00  0.00    -0.057 A 
ATOM      3  C   UNL d   1      24.429 -18.751  -0.284  0.00  0.00     0.010 A 
ATOM      4  C   UNL d   1      23.047 -18.871  -0.503  0.00  0.00     0.037 A 
ATOM      5  C   UNL d   1      22.274 -17.749  -0.805  0.00  0.00     0.068 A 
ATOM      6  C   UNL d   1      22.893 -16.509  -0.894  0.00  0.00     0.037 A 
ATOM      7  C   UNL d   1      24.272 -16.396  -0.714  0.00  0.00     0.010 A 
BRANCH   5   8
ATOM      8  O   UNL d   1      20.922 -17.939  -0.895  0.00  0.00    -0.351 OA
BRANCH   8   9
ATOM      9  C   UNL d   1      20.513 -19.263  -1.247  0.00  0.00     0.175 C 
BRANCH   9  10
ATOM     10  C   UNL d   1      19.167 -19.540  -0.584  0.00  0.00     0.026 C 
BRANCH  10  11
ATOM     11  C   UNL d   1      19.324 -20.489   0.600  0.00  0.00    -0.002 C 
ATOM     12  C   UNL d   1      19.903 -19.768   1.805  0.00  0.00     0.005 C 
ENDBRANCH  10  11
ENDBRANCH   9  10
ENDBRANCH   8   9
ENDBRANCH   5   8
ENDBRANCH   1   2
BRANCH   1  13
ATOM     13  C   UNL d   1      27.113 -15.995  -0.057  0.00  0.00     0.129 C 
BRANCH  13  14
ATOM     14  N   UNL d   1      27.773 -15.796   1.223  0.00  0.00    -0.341 N 
ATOM     15  C   UNL d   1      27.470 -14.688   1.990  0.00  0.00     0.334 C 
ATOM     16  O   UNL d   1      26.654 -13.831   1.654  0.00  0.00    -0.246 OA
ATOM     17  N   UNL d   1      28.170 -14.636   3.179  0.00  0.00    -0.249 N 
ATOM     18  H   UNL d   1      28.829 -15.360   3.418  0.00  0.00     0.192 HD
ATOM     19  H   UNL d   1      28.456 -16.467   1.538  0.00  0.00     0.164 HD
BRANCH  17  20
ATOM     20  N   UNL d   1      27.952 -13.563   4.061  0.00  0.00    -0.266 N 
ATOM     21  C   UNL d   1      28.503 -13.406   5.310  0.00  0.00     0.232 C 
ATOM     22  C   UNL d   1      29.445 -14.451   5.851  0.00  0.00     0.119 C 
ATOM     23  O   UNL d   1      28.233 -12.413   5.990  0.00  0.00    -0.272 OA
ATOM     24  H   UNL d   1      27.320 -12.830   3.735  0.00  0.00     0.190 HD
ENDBRANCH  17  20
ENDBRANCH  13  14
ENDBRANCH   1  13
TORSDOF 8
ENDMDL
MODEL 2
REMARK VINA RESULT:    -8.160      1.421      2.236
REMARK INTER + INTRA:         -11.261
REMARK INTER:                 -10.547
REMARK INTRA:                  -0.715
REMARK CONF_INDEPENDENT:        2.386
REMARK UNBOUND:                -0.715
REMARK  8 active torsions:
REMARK  status: ('A' for Active; 'I' for Inactive)
REMARK    1  A    between atoms: C_2  and  C_3 
REMARK    2  A    between atoms: C_3  and  C_4 
REMARK    3  A    between atoms: C_4  and  O_5 
REMARK    4  A    between atoms: O_5  and  C_6 
REMARK    5  A    between atoms: C_9  and  C_10 
REMARK    6  A    between atoms: C_10  and  C_11 
REMARK    7  A    between atoms: C_11  and  N_12 
REMARK       I    between atoms: N_12  and  C_13 
REMARK       I    between atoms: C_13  and  N_15 
REMARK    8  A    between atoms: N_15  and  N_16 
REMARK       I    between atoms: N_16  and  C_17 
ROOT
ATOM      1  C   UNL d   1      27.571 -15.051   0.032  0.00  0.00     0.058 C 
ENDROOT
BRANCH   1   2
ATOM      2  C   UNL d   1      26.470 -16.052  -0.291  0.00  0.00    -0.057 A 
ATOM      3  C   UNL d   1      25.423 -15.700  -1.156  0.00  0.00     0.010 A 
ATOM      4  C   UNL d   1      24.335 -16.566  -1.351  0.00  0.00     0.037 A 
ATOM      5  C   UNL d   1      24.308 -17.822  -0.745  0.00  0.00     0.068 A 
ATOM      6  C   UNL d   1      25.370 -18.203   0.065  0.00  0.00     0.037 A 
ATOM      7  C   UNL d   1      26.433 -17.327   0.290  0.00  0.00     0.010 A 
BRANCH   5   8
ATOM      8  O   UNL d   1      23.265 -18.644  -1.076  0.00  0.00    -0.351 OA
BRANCH   8   9
ATOM      9  C   UNL d   1      21.999 -18.281  -0.517  0.00  0.00     0.175 C 
BRANCH   9  10
ATOM     10  C   UNL d   1      20.910 -19.038  -1.269  0.00  0.00     0.026 C 
BRANCH  10  11
ATOM     11  C   UNL d   1      19.715 -19.323  -0.364  0.00  0.00    -0.002 C 
ATOM     12  C   UNL d   1      20.167 -19.710   1.033  0.00  0.00     0.005 C 
ENDBRANCH  10  11
ENDBRANCH   9  10
ENDBRANCH   8   9
ENDBRANCH   5   8
ENDBRANCH   1   2
BRANCH   1  13
ATOM     13  C   UNL d   1      27.411 -14.356   1.398  0.00  0.00     0.129 C 
BRANCH  13  14
ATOM     14  N   UNL d   1      28.283 -14.825   2.462  0.00  0.00    -0.341 N 
ATOM     15  C   UNL d   1      27.986 -14.530   3.778  0.00  0.00     0.334 C 
ATOM     16  O   UNL d   1      27.002 -13.876   4.123  0.00  0.00    -0.246 OA
ATOM     17  N   UNL d   1      28.901 -15.044   4.676  0.00  0.00    -0.249 N 
ATOM     18  H   UNL d   1      29.693 -15.576   4.353  0.00  0.00     0.192 HD
ATOM     19  H   UNL d   1      29.108 -15.357   2.229  0.00  0.00     0.164 HD
BRANCH  17  20
ATOM     20  N   UNL d   1      28.714 -14.824   6.052  0.00  0.00    -0.266 N 
ATOM     21  C   UNL d   1      28.758 -13.615   6.701  0.00  0.00     0.232 C 
ATOM     22  C   UNL d   1      29.030 -12.355   5.920  0.00  0.00     0.119 C 
ATOM     23  O   UNL d   1      28.576 -13.554   7.919  0.00  0.00    -0.272 OA
ATOM     24  H   UNL d   1      28.527 -15.652   6.621  0.00  0.00     0.190 HD
ENDBRANCH  17  20
ENDBRANCH  13  14
ENDBRANCH   1  13
TORSDOF 8
ENDMDL
MODEL 3
REMARK VINA RESULT:    -7.930      4.290      5.669
REMARK INTER + INTRA:         -11.454
REMARK INTER:                 -10.316
REMARK INTRA:                  -1.138
REMARK CONF_INDEPENDENT:        2.386
REMARK UNBOUND:                -1.138
REMARK  8 active torsions:
REMARK  status: ('A' for Active; 'I' for Inactive)
REMARK    1  A    between atoms: C_2  and  C_3 
REMARK    2  A    between atoms: C_3  and  C_4 
REMARK    3  A    between atoms: C_4  and  O_5 
REMARK    4  A    between atoms: O_5  and  C_6 
REMARK    5  A    between atoms: C_9  and  C_10 
REMARK    6  A    between atoms: C_10  and  C_11 
REMARK    7  A    between atoms: C_11  and  N_12 
REMARK       I    between atoms: N_12  and  C_13 
REMARK       I    between atoms: C_13  and  N_15 
REMARK    8  A    between atoms: N_15  and  N_16 
REMARK       I    between atoms: N_16  and  C_17 
ROOT
ATOM      1  C   UNL d   1      25.977 -16.876  -0.496  0.00  0.00     0.058 C 
ENDROOT
BRANCH   1   2
ATOM      2  C   UNL d   1      24.504 -17.259  -0.545  0.00  0.00    -0.057 A 
ATOM      3  C   UNL d   1      24.116 -18.602  -0.436  0.00  0.00     0.010 A 
ATOM      4  C   UNL d   1      22.775 -18.977  -0.617  0.00  0.00     0.037 A 
ATOM      5  C   UNL d   1      21.791 -18.013  -0.839  0.00  0.00     0.068 A 
ATOM      6  C   UNL d   1      22.158 -16.674  -0.889  0.00  0.00     0.037 A 
ATOM      7  C   UNL d   1      23.496 -16.305  -0.748  0.00  0.00     0.010 A 
BRANCH   5   8
ATOM      8  O   UNL d   1      20.497 -18.455  -0.894  0.00  0.00    -0.351 OA
BRANCH   8   9
ATOM      9  C   UNL d   1      20.258 -19.723  -0.277  0.00  0.00     0.175 C 
BRANCH   9  10
ATOM     10  C   UNL d   1      19.740 -19.477   1.136  0.00  0.00     0.026 C 
BRANCH  10  11
ATOM     11  C   UNL d   1      18.958 -20.681   1.652  0.00  0.00    -0.002 C 
ATOM     12  C   UNL d   1      17.988 -21.194   0.601  0.00  0.00     0.005 C 
ENDBRANCH  10  11
ENDBRANCH   9  10
ENDBRANCH   8   9
ENDBRANCH   5   8
ENDBRANCH   1   2
BRANCH   1  13
ATOM     13  C   UNL d   1      26.579 -16.507  -1.865  0.00  0.00     0.129 C 
BRANCH  13  14
ATOM     14  N   UNL d   1      26.499 -15.106  -2.245  0.00  0.00    -0.341 N 
ATOM     15  C   UNL d   1      25.963 -14.753  -3.468  0.00  0.00     0.334 C 
ATOM     16  O   UNL d   1      25.534 -15.568  -4.284  0.00  0.00    -0.246 OA
ATOM     17  N   UNL d   1      25.949 -13.389  -3.688  0.00  0.00    -0.249 N 
ATOM     18  H   UNL d   1      26.308 -12.754  -2.993  0.00  0.00     0.192 HD
ATOM     19  H   UNL d   1      26.846 -14.401  -1.614  0.00  0.00     0.164 HD
BRANCH  17  20
ATOM     20  N   UNL d   1      25.421 -12.890  -4.892  0.00  0.00    -0.266 N 
ATOM     21  C   UNL d   1      25.682 -11.664  -5.453  0.00  0.00     0.232 C 
ATOM     22  C   UNL d   1      26.620 -10.708  -4.762  0.00  0.00     0.119 C 
ATOM     23  O   UNL d   1      25.155 -11.343  -6.521  0.00  0.00    -0.272 OA
ATOM     24  H   UNL d   1      24.780 -13.506  -5.395  0.00  0.00     0.190 HD
ENDBRANCH  17  20
ENDBRANCH  13  14
ENDBRANCH   1  13
TORSDOF 8
ENDMDL
MODEL 4
REMARK VINA RESULT:    -7.575      3.364      5.185
REMARK INTER + INTRA:         -10.938
REMARK INTER:                  -9.961
REMARK INTRA:                  -0.977
REMARK CONF_INDEPENDENT:        2.386
REMARK UNBOUND:                -0.977
REMARK  8 active torsions:
REMARK  status: ('A' for Active; 'I' for Inactive)
REMARK    1  A    between atoms: C_2  and  C_3 
REMARK    2  A    between atoms: C_3  and  C_4 
REMARK    3  A    between atoms: C_4  and  O_5 
REMARK    4  A    between atoms: O_5  and  C_6 
REMARK    5  A    between atoms: C_9  and  C_10 
REMARK    6  A    between atoms: C_10  and  C_11 
REMARK    7  A    between atoms: C_11  and  N_12 
REMARK       I    between atoms: N_12  and  C_13 
REMARK       I    between atoms: C_13  and  N_15 
REMARK    8  A    between atoms: N_15  and  N_16 
REMARK       I    between atoms: N_16  and  C_17 
ROOT
ATOM      1  C   UNL d   1      26.375 -17.416  -0.064  0.00  0.00     0.058 C 
ENDROOT
BRANCH   1   2
ATOM      2  C   UNL d   1      24.868 -17.524  -0.257  0.00  0.00    -0.057 A 
ATOM      3  C   UNL d   1      24.235 -18.775  -0.215  0.00  0.00     0.010 A 
ATOM      4  C   UNL d   1      22.871 -18.897  -0.526  0.00  0.00     0.037 A 
ATOM      5  C   UNL d   1      22.103 -17.768  -0.814  0.00  0.00     0.068 A 
ATOM      6  C   UNL d   1      22.708 -16.519  -0.799  0.00  0.00     0.037 A 
ATOM      7  C   UNL d   1      24.073 -16.401  -0.527  0.00  0.00     0.010 A 
BRANCH   5   8
ATOM      8  O   UNL d   1      20.761 -17.967  -0.998  0.00  0.00    -0.351 OA
BRANCH   8   9
ATOM      9  C   UNL d   1      20.369 -19.325  -1.216  0.00  0.00     0.175 C 
BRANCH   9  10
ATOM     10  C   UNL d   1      19.162 -19.622  -0.332  0.00  0.00     0.026 C 
BRANCH  10  11
ATOM     11  C   UNL d   1      19.476 -20.728   0.672  0.00  0.00    -0.002 C 
ATOM     12  C   UNL d   1      19.181 -20.276   2.092  0.00  0.00     0.005 C 
ENDBRANCH  10  11
ENDBRANCH   9  10
ENDBRANCH   8   9
ENDBRANCH   5   8
ENDBRANCH   1   2
BRANCH   1  13
ATOM     13  C   UNL d   1      26.866 -16.000   0.295  0.00  0.00     0.129 C 
BRANCH  13  14
ATOM     14  N   UNL d   1      26.812 -15.013  -0.771  0.00  0.00    -0.341 N 
ATOM     15  C   UNL d   1      27.397 -15.284  -1.992  0.00  0.00     0.334 C 
ATOM     16  O   UNL d   1      27.979 -16.337  -2.250  0.00  0.00    -0.246 OA
ATOM     17  N   UNL d   1      27.262 -14.257  -2.905  0.00  0.00    -0.249 N 
ATOM     18  H   UNL d   1      26.776 -13.410  -2.656  0.00  0.00     0.192 HD
ATOM     19  H   UNL d   1      26.353 -14.131  -0.606  0.00  0.00     0.164 HD
BRANCH  17  20
ATOM     20  N   UNL d   1      27.805 -14.403  -4.194  0.00  0.00    -0.266 N 
ATOM     21  C   UNL d   1      27.200 -14.999  -5.274  0.00  0.00     0.232 C 
ATOM     22  C   UNL d   1      25.814 -15.575  -5.132  0.00  0.00     0.119 C 
ATOM     23  O   UNL d   1      27.783 -15.063  -6.358  0.00  0.00    -0.272 OA
ATOM     24  H   UNL d   1      28.744 -14.026  -4.335  0.00  0.00     0.190 HD
ENDBRANCH  17  20
ENDBRANCH  13  14
ENDBRANCH   1  13
TORSDOF 8
ENDMDL
MODEL 5
REMARK VINA RESULT:    -7.314      3.089      3.533
REMARK INTER + INTRA:         -10.752
REMARK INTER:                  -9.701
REMARK INTRA:                  -1.052
REMARK CONF_INDEPENDENT:        2.386
REMARK UNBOUND:                -1.052
REMARK  8 active torsions:
REMARK  status: ('A' for Active; 'I' for Inactive)
REMARK    1  A    between atoms: C_2  and  C_3 
REMARK    2  A    between atoms: C_3  and  C_4 
REMARK    3  A    between atoms: C_4  and  O_5 
REMARK    4  A    between atoms: O_5  and  C_6 
REMARK    5  A    between atoms: C_9  and  C_10 
REMARK    6  A    between atoms: C_10  and  C_11 
REMARK    7  A    between atoms: C_11  and  N_12 
REMARK       I    between atoms: N_12  and  C_13 
REMARK       I    between atoms: C_13  and  N_15 
REMARK    8  A    between atoms: N_15  and  N_16 
REMARK       I    between atoms: N_16  and  C_17 
ROOT
ATOM      1  C   UNL d   1      25.857 -17.983   0.192  0.00  0.00     0.058 C 
ENDROOT
BRANCH   1   2
ATOM      2  C   UNL d   1      24.398 -18.048  -0.239  0.00  0.00    -0.057 A 
ATOM      3  C   UNL d   1      23.628 -16.878  -0.314  0.00  0.00     0.010 A 
ATOM      4  C   UNL d   1      22.250 -16.943  -0.577  0.00  0.00     0.037 A 
ATOM      5  C   UNL d   1      21.633 -18.168  -0.838  0.00  0.00     0.068 A 
ATOM      6  C   UNL d   1      22.400 -19.325  -0.825  0.00  0.00     0.037 A 
ATOM      7  C   UNL d   1      23.762 -19.265  -0.525  0.00  0.00     0.010 A 
BRANCH   5   8
ATOM      8  O   UNL d   1      20.312 -18.128  -1.193  0.00  0.00    -0.351 OA
BRANCH   8   9
ATOM      9  C   UNL d   1      19.519 -19.218  -0.713  0.00  0.00     0.175 C 
BRANCH   9  10
ATOM     10  C   UNL d   1      19.716 -19.326   0.795  0.00  0.00     0.026 C 
BRANCH  10  11
ATOM     11  C   UNL d   1      19.264 -20.688   1.312  0.00  0.00    -0.002 C 
ATOM     12  C   UNL d   1      18.039 -21.179   0.560  0.00  0.00     0.005 C 
ENDBRANCH  10  11
ENDBRANCH   9  10
ENDBRANCH   8   9
ENDBRANCH   5   8
ENDBRANCH   1   2
BRANCH   1  13
ATOM     13  C   UNL d   1      26.546 -16.640  -0.114  0.00  0.00     0.129 C 
BRANCH  13  14
ATOM     14  N   UNL d   1      27.809 -16.397   0.564  0.00  0.00    -0.341 N 
ATOM     15  C   UNL d   1      28.969 -16.248  -0.171  0.00  0.00     0.334 C 
ATOM     16  O   UNL d   1      29.008 -16.307  -1.400  0.00  0.00    -0.246 OA
ATOM     17  N   UNL d   1      30.086 -16.019   0.607  0.00  0.00    -0.249 N 
ATOM     18  H   UNL d   1      30.012 -15.976   1.611  0.00  0.00     0.192 HD
ATOM     19  H   UNL d   1      27.830 -16.349   1.570  0.00  0.00     0.164 HD
BRANCH  17  20
ATOM     20  N   UNL d   1      31.335 -15.840  -0.014  0.00  0.00    -0.266 N 
ATOM     21  C   UNL d   1      32.555 -15.760   0.610  0.00  0.00     0.232 C 
ATOM     22  C   UNL d   1      32.638 -15.868   2.112  0.00  0.00     0.119 C 
ATOM     23  O   UNL d   1      33.585 -15.603  -0.051  0.00  0.00    -0.272 OA
ATOM     24  H   UNL d   1      31.326 -15.762  -1.033  0.00  0.00     0.190 HD
ENDBRANCH  17  20
ENDBRANCH  13  14
ENDBRANCH   1  13
TORSDOF 8
ENDMDL
MODEL 6
REMARK VINA RESULT:    -7.196      4.626      8.755
REMARK INTER + INTRA:         -10.801
REMARK INTER:                  -9.582
REMARK INTRA:                  -1.218
REMARK CONF_INDEPENDENT:        2.386
REMARK UNBOUND:                -1.218
REMARK  8 active torsions:
REMARK  status: ('A' for Active; 'I' for Inactive)
REMARK    1  A    between atoms: C_2  and  C_3 
REMARK    2  A    between atoms: C_3  and  C_4 
REMARK    3  A    between atoms: C_4  and  O_5 
REMARK    4  A    between atoms: O_5  and  C_6 
REMARK    5  A    between atoms: C_9  and  C_10 
REMARK    6  A    between atoms: C_10  and  C_11 
REMARK    7  A    between atoms: C_11  and  N_12 
REMARK       I    between atoms: N_12  and  C_13 
REMARK       I    between atoms: C_13  and  N_15 
REMARK    8  A    between atoms: N_15  and  N_16 
REMARK       I    between atoms: N_16  and  C_17 
ROOT
ATOM      1  C   UNL d   1      25.890 -16.069  -0.418  0.00  0.00     0.058 C 
ENDROOT
BRANCH   1   2
ATOM      2  C   UNL d   1      26.319 -15.889  -1.868  0.00  0.00    -0.057 A 
ATOM      3  C   UNL d   1      27.662 -16.058  -2.236  0.00  0.00     0.010 A 
ATOM      4  C   UNL d   1      28.089 -15.762  -3.540  0.00  0.00     0.037 A 
ATOM      5  C   UNL d   1      27.174 -15.361  -4.515  0.00  0.00     0.068 A 
ATOM      6  C   UNL d   1      25.833 -15.249  -4.174  0.00  0.00     0.037 A 
ATOM      7  C   UNL d   1      25.414 -15.506  -2.868  0.00  0.00     0.010 A 
BRANCH   5   8
ATOM      8  O   UNL d   1      27.658 -15.199  -5.785  0.00  0.00    -0.351 OA
BRANCH   8   9
ATOM      9  C   UNL d   1      28.795 -14.338  -5.900  0.00  0.00     0.175 C 
BRANCH   9  10
ATOM     10  C   UNL d   1      29.905 -15.107  -6.609  0.00  0.00     0.026 C 
BRANCH  10  11
ATOM     11  C   UNL d   1      30.035 -16.522  -6.052  0.00  0.00    -0.002 C 
ATOM     12  C   UNL d   1      30.782 -17.423  -7.020  0.00  0.00     0.005 C 
ENDBRANCH  10  11
ENDBRANCH   9  10
ENDBRANCH   8   9
ENDBRANCH   5   8
ENDBRANCH   1   2
BRANCH   1  13
ATOM     13  C   UNL d   1      25.986 -17.520   0.093  0.00  0.00     0.129 C 
BRANCH  13  14
ATOM     14  N   UNL d   1      24.725 -18.181   0.388  0.00  0.00    -0.341 N 
ATOM     15  C   UNL d   1      23.744 -18.260  -0.581  0.00  0.00     0.334 C 
ATOM     16  O   UNL d   1      23.868 -17.795  -1.714  0.00  0.00    -0.246 OA
ATOM     17  N   UNL d   1      22.606 -18.918  -0.158  0.00  0.00    -0.249 N 
ATOM     18  H   UNL d   1      22.546 -19.287   0.778  0.00  0.00     0.192 HD
ATOM     19  H   UNL d   1      24.573 -18.570   1.306  0.00  0.00     0.164 HD
BRANCH  17  20
ATOM     20  N   UNL d   1      21.530 -19.078  -1.048  0.00  0.00    -0.266 N 
ATOM     21  C   UNL d   1      20.301 -19.616  -0.758  0.00  0.00     0.232 C 
ATOM     22  C   UNL d   1      20.008 -20.106   0.638  0.00  0.00     0.119 C 
ATOM     23  O   UNL d   1      19.434 -19.700  -1.631  0.00  0.00    -0.272 OA
ATOM     24  H   UNL d   1      21.685 -18.758  -2.006  0.00  0.00     0.190 HD
ENDBRANCH  17  20
ENDBRANCH  13  14
ENDBRANCH   1  13
TORSDOF 8
ENDMDL
MODEL 7
REMARK VINA RESULT:    -7.132      3.770      4.604
REMARK INTER + INTRA:         -10.506
REMARK INTER:                  -9.518
REMARK INTRA:                  -0.987
REMARK CONF_INDEPENDENT:        2.386
REMARK UNBOUND:                -0.987
REMARK  8 active torsions:
REMARK  status: ('A' for Active; 'I' for Inactive)
REMARK    1  A    between atoms: C_2  and  C_3 
REMARK    2  A    between atoms: C_3  and  C_4 
REMARK    3  A    between atoms: C_4  and  O_5 
REMARK    4  A    between atoms: O_5  and  C_6 
REMARK    5  A    between atoms: C_9  and  C_10 
REMARK    6  A    between atoms: C_10  and  C_11 
REMARK    7  A    between atoms: C_11  and  N_12 
REMARK       I    between atoms: N_12  and  C_13 
REMARK       I    between atoms: C_13  and  N_15 
REMARK    8  A    between atoms: N_15  and  N_16 
REMARK       I    between atoms: N_16  and  C_17 
ROOT
ATOM      1  C   UNL d   1      26.249 -16.706   0.100  0.00  0.00     0.058 C 
ENDROOT
BRANCH   1   2
ATOM      2  C   UNL d   1      24.837 -17.202  -0.179  0.00  0.00    -0.057 A 
ATOM      3  C   UNL d   1      24.547 -18.574  -0.145  0.00  0.00     0.010 A 
ATOM      4  C   UNL d   1      23.284 -19.048  -0.533  0.00  0.00     0.037 A 
ATOM      5  C   UNL d   1      22.270 -18.159  -0.894  0.00  0.00     0.068 A 
ATOM      6  C   UNL d   1      22.530 -16.796  -0.873  0.00  0.00     0.037 A 
ATOM      7  C   UNL d   1      23.797 -16.326  -0.524  0.00  0.00     0.010 A 
BRANCH   5   8
ATOM      8  O   UNL d   1      21.040 -18.700  -1.152  0.00  0.00    -0.351 OA
BRANCH   8   9
ATOM      9  C   UNL d   1      20.655 -19.780  -0.296  0.00  0.00     0.175 C 
BRANCH   9  10
ATOM     10  C   UNL d   1      19.153 -19.686  -0.054  0.00  0.00     0.026 C 
BRANCH  10  11
ATOM     11  C   UNL d   1      18.778 -20.265   1.307  0.00  0.00    -0.002 C 
ATOM     12  C   UNL d   1      18.031 -21.579   1.155  0.00  0.00     0.005 C 
ENDBRANCH  10  11
ENDBRANCH   9  10
ENDBRANCH   8   9
ENDBRANCH   5   8
ENDBRANCH   1   2
BRANCH   1  13
ATOM     13  C   UNL d   1      27.295 -17.164  -0.935  0.00  0.00     0.129 C 
BRANCH  13  14
ATOM     14  N   UNL d   1      28.564 -17.631  -0.402  0.00  0.00    -0.341 N 
ATOM     15  C   UNL d   1      29.724 -17.457  -1.131  0.00  0.00     0.334 C 
ATOM     16  O   UNL d   1      29.759 -16.915  -2.235  0.00  0.00    -0.246 OA
ATOM     17  N   UNL d   1      30.849 -17.946  -0.497  0.00  0.00    -0.249 N 
ATOM     18  H   UNL d   1      30.778 -18.381   0.409  0.00  0.00     0.192 HD
ATOM     19  H   UNL d   1      28.586 -18.089   0.496  0.00  0.00     0.164 HD
BRANCH  17  20
ATOM     20  N   UNL d   1      32.102 -17.826  -1.125  0.00  0.00    -0.266 N 
ATOM     21  C   UNL d   1      33.286 -18.376  -0.699  0.00  0.00     0.232 C 
ATOM     22  C   UNL d   1      33.318 -19.203   0.562  0.00  0.00     0.119 C 
ATOM     23  O   UNL d   1      34.322 -18.199  -1.342  0.00  0.00    -0.272 OA
ATOM     24  H   UNL d   1      32.126 -17.274  -1.984  0.00  0.00     0.190 HD
ENDBRANCH  17  20
ENDBRANCH  13  14
ENDBRANCH   1  13
TORSDOF 8
ENDMDL
MODEL 8
REMARK VINA RESULT:    -6.971      4.479      8.518
REMARK INTER + INTRA:         -10.713
REMARK INTER:                  -9.357
REMARK INTRA:                  -1.355
REMARK CONF_INDEPENDENT:        2.386
REMARK UNBOUND:                -1.355
REMARK  8 active torsions:
REMARK  status: ('A' for Active; 'I' for Inactive)
REMARK    1  A    between atoms: C_2  and  C_3 
REMARK    2  A    between atoms: C_3  and  C_4 
REMARK    3  A    between atoms: C_4  and  O_5 
REMARK    4  A    between atoms: O_5  and  C_6 
REMARK    5  A    between atoms: C_9  and  C_10 
REMARK    6  A    between atoms: C_10  and  C_11 
REMARK    7  A    between atoms: C_11  and  N_12 
REMARK       I    between atoms: N_12  and  C_13 
REMARK       I    between atoms: C_13  and  N_15 
REMARK    8  A    between atoms: N_15  and  N_16 
REMARK       I    between atoms: N_16  and  C_17 
ROOT
ATOM      1  C   UNL d   1      26.058 -16.129  -0.223  0.00  0.00     0.058 C 
ENDROOT
BRANCH   1   2
ATOM      2  C   UNL d   1      26.347 -15.804  -1.683  0.00  0.00    -0.057 A 
ATOM      3  C   UNL d   1      25.294 -15.559  -2.576  0.00  0.00     0.010 A 
ATOM      4  C   UNL d   1      25.543 -15.394  -3.948  0.00  0.00     0.037 A 
ATOM      5  C   UNL d   1      26.849 -15.400  -4.439  0.00  0.00     0.068 A 
ATOM      6  C   UNL d   1      27.902 -15.582  -3.553  0.00  0.00     0.037 A 
ATOM      7  C   UNL d   1      27.652 -15.785  -2.195  0.00  0.00     0.010 A 
BRANCH   5   8
ATOM      8  O   UNL d   1      27.008 -15.122  -5.770  0.00  0.00    -0.351 OA
BRANCH   8   9
ATOM      9  C   UNL d   1      28.317 -14.689  -6.151  0.00  0.00     0.175 C 
BRANCH   9  10
ATOM     10  C   UNL d   1      28.238 -13.216  -6.540  0.00  0.00     0.026 C 
BRANCH  10  11
ATOM     11  C   UNL d   1      27.791 -12.360  -5.359  0.00  0.00    -0.002 C 
ATOM     12  C   UNL d   1      26.295 -12.098  -5.409  0.00  0.00     0.005 C 
ENDBRANCH  10  11
ENDBRANCH   9  10
ENDBRANCH   8   9
ENDBRANCH   5   8
ENDBRANCH   1   2
BRANCH   1  13
ATOM     13  C   UNL d   1      26.035 -17.637   0.095  0.00  0.00     0.129 C 
BRANCH  13  14
ATOM     14  N   UNL d   1      24.735 -18.207   0.408  0.00  0.00    -0.341 N 
ATOM     15  C   UNL d   1      23.776 -18.321  -0.579  0.00  0.00     0.334 C 
ATOM     16  O   UNL d   1      23.952 -17.964  -1.743  0.00  0.00    -0.246 OA
ATOM     17  N   UNL d   1      22.595 -18.883  -0.135  0.00  0.00    -0.249 N 
ATOM     18  H   UNL d   1      22.492 -19.165   0.827  0.00  0.00     0.192 HD
ATOM     19  H   UNL d   1      24.540 -18.506   1.351  0.00  0.00     0.164 HD
BRANCH  17  20
ATOM     20  N   UNL d   1      21.535 -19.067  -1.040  0.00  0.00    -0.266 N 
ATOM     21  C   UNL d   1      20.298 -19.592  -0.755  0.00  0.00     0.232 C 
ATOM     22  C   UNL d   1      19.978 -20.037   0.649  0.00  0.00     0.119 C 
ATOM     23  O   UNL d   1      19.448 -19.700  -1.642  0.00  0.00    -0.272 OA
ATOM     24  H   UNL d   1      21.708 -18.778  -2.004  0.00  0.00     0.190 HD
ENDBRANCH  17  20
ENDBRANCH  13  14
ENDBRANCH   1  13
TORSDOF 8
ENDMDL
