MODEL 1
REMARK VINA RESULT:    -9.940      0.000      0.000
REMARK INTER + INTRA:         -14.747
REMARK INTER:                 -12.326
REMARK INTRA:                  -2.421
REMARK CONF_INDEPENDENT:        2.386
REMARK UNBOUND:                -2.421
REMARK  8 active torsions:
REMARK  status: ('A' for Active; 'I' for Inactive)
REMARK    1  A    between atoms: C_2  and  C_3 
REMARK       I    between atoms: C_2  and  N_19 
REMARK    2  A    between atoms: C_3  and  C_4 
REMARK    3  A    between atoms: C_5  and  C_4 
REMARK    4  A    between atoms: C_8  and  C_9 
REMARK       I    between atoms: C_9  and  N_11 
REMARK    5  A    between atoms: N_11  and  C_12 
REMARK    6  A    between atoms: N_19  and  C_20 
REMARK    7  A    between atoms: C_20  and  C_21 
REMARK    8  A    between atoms: C_21  and  C_22 
ROOT
ATOM      1  C   UNL d   1      26.254 -15.500  -1.888  0.00  0.00     0.105 C 
ENDROOT
BRANCH   1   2
ATOM      2  C   UNL d   1      25.178 -15.071  -2.841  0.00  0.00     0.217 C 
ATOM      3  O   UNL d   1      24.034 -14.764  -2.504  0.00  0.00    -0.274 OA
ATOM      4  N   UNL d   1      25.559 -14.996  -4.150  0.00  0.00    -0.361 N 
ATOM      5  H   UNL d   1      24.819 -14.675  -4.769  0.00  0.00     0.162 HD
BRANCH   4   6
ATOM      6  C   UNL d   1      26.881 -15.304  -4.651  0.00  0.00     0.127 C 
BRANCH   6   7
ATOM      7  C   UNL d   1      27.753 -14.077  -4.690  0.00  0.00     0.056 C 
BRANCH   7   8
ATOM      8  C   UNL d   1      28.109 -13.578  -6.051  0.00  0.00    -0.048 A 
ATOM      9  C   UNL d   1      27.643 -12.408  -6.487  0.00  0.00    -0.004 A 
ATOM     10  C   UNL d   1      26.803 -11.444  -5.868  0.00  0.00     0.037 A 
ATOM     11  C   UNL d   1      28.114 -12.275  -7.870  0.00  0.00     0.038 A 
ATOM     12  C   UNL d   1      26.379 -10.412  -6.605  0.00  0.00     0.035 A 
ATOM     13 CL   UNL d   1      25.202  -9.338  -5.958  0.00  0.00    -0.084 Cl
ATOM     14  C   UNL d   1      26.861 -10.211  -7.966  0.00  0.00     0.026 A 
ATOM     15  C   UNL d   1      27.677 -11.075  -8.610  0.00  0.00     0.031 A 
ATOM     16  N   UNL d   1      28.852 -13.261  -8.218  0.00  0.00    -0.385 N 
ATOM     17  C   UNL d   1      28.960 -14.241  -7.100  0.00  0.00     0.155 A 
ATOM     18  H   UNL d   1      29.291 -13.324  -9.136  0.00  0.00     0.160 HD
ENDBRANCH   7   8
ENDBRANCH   6   7
ENDBRANCH   4   6
ENDBRANCH   1   2
BRANCH   1  19
ATOM     19  C   UNL d   1      26.138 -16.946  -1.441  0.00  0.00     0.041 C 
BRANCH  19  20
ATOM     20  C   UNL d   1      25.223 -17.101  -0.213  0.00  0.00     0.135 C 
ATOM     21  N   UNL d   1      24.125 -16.130  -0.148  0.00  0.00    -0.245 NA
ATOM     22  N   UNL d   1      22.942 -16.615  -0.815  0.00  0.00    -0.237 NA
ATOM     23  H   UNL d   1      24.391 -15.183  -0.393  0.00  0.00     0.142 HD
ATOM     24  C   UNL d   1      23.095 -18.019  -1.245  0.00  0.00     0.226 C 
ATOM     25  H   UNL d   1      22.563 -16.040  -1.568  0.00  0.00     0.142 HD
ATOM     26  S   UNL d   1      24.451 -18.723  -0.291  0.00  0.00    -0.117 SA
BRANCH  24  27
ATOM     27  C   UNL d   1      21.792 -18.800  -1.051  0.00  0.00     0.251 C 
ATOM     28  O   UNL d   1      21.200 -19.324  -1.996  0.00  0.00    -0.270 OA
ATOM     29  N   UNL d   1      21.389 -18.905   0.284  0.00  0.00    -0.325 N 
ATOM     30  H   UNL d   1      21.792 -18.256   0.953  0.00  0.00     0.169 HD
BRANCH  29  31
ATOM     31  C   UNL d   1      20.250 -19.635   0.674  0.00  0.00     0.034 A 
ATOM     32  C   UNL d   1      20.047 -19.971   2.016  0.00  0.00     0.029 A 
ATOM     33  C   UNL d   1      18.935 -20.741   2.377  0.00  0.00     0.002 A 
ATOM     34  C   UNL d   1      18.018 -21.152   1.407  0.00  0.00     0.000 A 
ATOM     35  C   UNL d   1      18.225 -20.821   0.072  0.00  0.00     0.002 A 
ATOM     36  C   UNL d   1      19.336 -20.067  -0.288  0.00  0.00     0.029 A 
ENDBRANCH  29  31
ENDBRANCH  24  27
ENDBRANCH  19  20
ENDBRANCH   1  19
TORSDOF 8
ENDMDL
MODEL 2
REMARK VINA RESULT:    -9.552      1.599      2.130
REMARK INTER + INTRA:         -14.388
REMARK INTER:                 -11.938
REMARK INTRA:                  -2.449
REMARK CONF_INDEPENDENT:        2.386
REMARK UNBOUND:                -2.449
REMARK  8 active torsions:
REMARK  status: ('A' for Active; 'I' for Inactive)
REMARK    1  A    between atoms: C_2  and  C_3 
REMARK       I    between atoms: C_2  and  N_19 
REMARK    2  A    between atoms: C_3  and  C_4 
REMARK    3  A    between atoms: C_5  and  C_4 
REMARK    4  A    between atoms: C_8  and  C_9 
REMARK       I    between atoms: C_9  and  N_11 
REMARK    5  A    between atoms: N_11  and  C_12 
REMARK    6  A    between atoms: N_19  and  C_20 
REMARK    7  A    between atoms: C_20  and  C_21 
REMARK    8  A    between atoms: C_21  and  C_22 
ROOT
ATOM      1  C   UNL d   1      26.824 -15.964  -2.015  0.00  0.00     0.105 C 
ENDROOT
BRANCH   1   2
ATOM      2  C   UNL d   1      25.885 -15.537  -3.105  0.00  0.00     0.217 C 
ATOM      3  O   UNL d   1      24.667 -15.419  -2.964  0.00  0.00    -0.274 OA
ATOM      4  N   UNL d   1      26.477 -15.236  -4.297  0.00  0.00    -0.361 N 
ATOM      5  H   UNL d   1      25.821 -14.922  -5.007  0.00  0.00     0.162 HD
BRANCH   4   6
ATOM      6  C   UNL d   1      27.898 -15.311  -4.562  0.00  0.00     0.127 C 
BRANCH   6   7
ATOM      7  C   UNL d   1      28.485 -13.945  -4.805  0.00  0.00     0.056 C 
BRANCH   7   8
ATOM      8  C   UNL d   1      27.507 -12.875  -5.163  0.00  0.00    -0.048 A 
ATOM      9  C   UNL d   1      27.473 -12.374  -6.397  0.00  0.00    -0.004 A 
ATOM     10  C   UNL d   1      28.242 -12.676  -7.552  0.00  0.00     0.037 A 
ATOM     11  C   UNL d   1      26.469 -11.306  -6.373  0.00  0.00     0.038 A 
ATOM     12  C   UNL d   1      28.082 -11.906  -8.635  0.00  0.00     0.035 A 
ATOM     13 CL   UNL d   1      29.136 -12.107  -9.978  0.00  0.00    -0.084 Cl
ATOM     14  C   UNL d   1      27.062 -10.867  -8.674  0.00  0.00     0.026 A 
ATOM     15  C   UNL d   1      26.280 -10.540  -7.620  0.00  0.00     0.031 A 
ATOM     16  N   UNL d   1      25.904 -11.210  -5.229  0.00  0.00    -0.385 N 
ATOM     17  C   UNL d   1      26.485 -12.207  -4.285  0.00  0.00     0.155 A 
ATOM     18  H   UNL d   1      25.160 -10.540  -5.035  0.00  0.00     0.160 HD
ENDBRANCH   7   8
ENDBRANCH   6   7
ENDBRANCH   4   6
ENDBRANCH   1   2
BRANCH   1  19
ATOM     19  C   UNL d   1      26.384 -17.216  -1.280  0.00  0.00     0.041 C 
BRANCH  19  20
ATOM     20  C   UNL d   1      25.446 -16.897  -0.102  0.00  0.00     0.135 C 
ATOM     21  N   UNL d   1      24.533 -15.774  -0.340  0.00  0.00    -0.245 NA
ATOM     22  N   UNL d   1      23.288 -16.213  -0.922  0.00  0.00    -0.237 NA
ATOM     23  H   UNL d   1      24.960 -14.980  -0.802  0.00  0.00     0.142 HD
ATOM     24  C   UNL d   1      23.200 -17.685  -0.976  0.00  0.00     0.226 C 
ATOM     25  H   UNL d   1      23.020 -15.796  -1.814  0.00  0.00     0.142 HD
ATOM     26  S   UNL d   1      24.406 -18.334   0.193  0.00  0.00    -0.117 SA
BRANCH  24  27
ATOM     27  C   UNL d   1      21.779 -18.164  -0.658  0.00  0.00     0.251 C 
ATOM     28  O   UNL d   1      20.797 -17.739  -1.269  0.00  0.00    -0.270 OA
ATOM     29  N   UNL d   1      21.724 -19.152   0.329  0.00  0.00    -0.325 N 
ATOM     30  H   UNL d   1      22.532 -19.264   0.933  0.00  0.00     0.169 HD
BRANCH  29  31
ATOM     31  C   UNL d   1      20.516 -19.762   0.720  0.00  0.00     0.034 A 
ATOM     32  C   UNL d   1      19.600 -20.201  -0.241  0.00  0.00     0.029 A 
ATOM     33  C   UNL d   1      18.382 -20.759   0.167  0.00  0.00     0.002 A 
ATOM     34  C   UNL d   1      18.092 -20.899   1.525  0.00  0.00     0.000 A 
ATOM     35  C   UNL d   1      19.003 -20.456   2.479  0.00  0.00     0.002 A 
ATOM     36  C   UNL d   1      20.206 -19.891   2.074  0.00  0.00     0.029 A 
ENDBRANCH  29  31
ENDBRANCH  24  27
ENDBRANCH  19  20
ENDBRANCH   1  19
TORSDOF 8
ENDMDL
MODEL 3
REMARK VINA RESULT:    -9.532      2.574      3.610
REMARK INTER + INTRA:         -14.271
REMARK INTER:                 -11.918
REMARK INTRA:                  -2.352
REMARK CONF_INDEPENDENT:        2.386
REMARK UNBOUND:                -2.352
REMARK  8 active torsions:
REMARK  status: ('A' for Active; 'I' for Inactive)
REMARK    1  A    between atoms: C_2  and  C_3 
REMARK       I    between atoms: C_2  and  N_19 
REMARK    2  A    between atoms: C_3  and  C_4 
REMARK    3  A    between atoms: C_5  and  C_4 
REMARK    4  A    between atoms: C_8  and  C_9 
REMARK       I    between atoms: C_9  and  N_11 
REMARK    5  A    between atoms: N_11  and  C_12 
REMARK    6  A    between atoms: N_19  and  C_20 
REMARK    7  A    between atoms: C_20  and  C_21 
REMARK    8  A    between atoms: C_21  and  C_22 
ROOT
ATOM      1  C   UNL d   1      26.613 -15.424  -1.937  0.00  0.00     0.105 C 
ENDROOT
BRANCH   1   2
ATOM      2  C   UNL d   1      25.569 -15.062  -2.952  0.00  0.00     0.217 C 
ATOM      3  O   UNL d   1      24.384 -14.856  -2.687  0.00  0.00    -0.274 OA
ATOM      4  N   UNL d   1      26.027 -14.928  -4.232  0.00  0.00    -0.361 N 
ATOM      5  H   UNL d   1      25.305 -14.654  -4.893  0.00  0.00     0.162 HD
BRANCH   4   6
ATOM      6  C   UNL d   1      27.400 -15.116  -4.648  0.00  0.00     0.127 C 
BRANCH   6   7
ATOM      7  C   UNL d   1      27.699 -14.359  -5.915  0.00  0.00     0.056 C 
BRANCH   7   8
ATOM      8  C   UNL d   1      29.143 -14.247  -6.276  0.00  0.00    -0.048 A 
ATOM      9  C   UNL d   1      29.930 -15.323  -6.265  0.00  0.00    -0.004 A 
ATOM     10  C   UNL d   1      29.655 -16.681  -5.954  0.00  0.00     0.037 A 
ATOM     11  C   UNL d   1      31.278 -14.841  -6.584  0.00  0.00     0.038 A 
ATOM     12  C   UNL d   1      30.684 -17.534  -5.890  0.00  0.00     0.035 A 
ATOM     13 CL   UNL d   1      30.422 -19.134  -5.319  0.00  0.00    -0.084 Cl
ATOM     14  C   UNL d   1      32.032 -17.112  -6.249  0.00  0.00     0.026 A 
ATOM     15  C   UNL d   1      32.362 -15.842  -6.574  0.00  0.00     0.031 A 
ATOM     16  N   UNL d   1      31.290 -13.585  -6.825  0.00  0.00    -0.385 N 
ATOM     17  C   UNL d   1      29.919 -13.019  -6.666  0.00  0.00     0.155 A 
ATOM     18  H   UNL d   1      32.136 -13.082  -7.092  0.00  0.00     0.160 HD
ENDBRANCH   7   8
ENDBRANCH   6   7
ENDBRANCH   4   6
ENDBRANCH   1   2
BRANCH   1  19
ATOM     19  C   UNL d   1      26.483 -16.837  -1.399  0.00  0.00     0.041 C 
BRANCH  19  20
ATOM     20  C   UNL d   1      25.516 -16.915  -0.204  0.00  0.00     0.135 C 
ATOM     21  N   UNL d   1      24.413 -15.949  -0.251  0.00  0.00    -0.245 NA
ATOM     22  N   UNL d   1      23.262 -16.485  -0.933  0.00  0.00    -0.237 NA
ATOM     23  H   UNL d   1      24.686 -15.018  -0.548  0.00  0.00     0.142 HD
ATOM     24  C   UNL d   1      23.438 -17.913  -1.261  0.00  0.00     0.226 C 
ATOM     25  H   UNL d   1      22.913 -15.964  -1.739  0.00  0.00     0.142 HD
ATOM     26  S   UNL d   1      24.753 -18.544  -0.205  0.00  0.00    -0.117 SA
BRANCH  24  27
ATOM     27  C   UNL d   1      22.129 -18.688  -1.071  0.00  0.00     0.251 C 
ATOM     28  O   UNL d   1      21.611 -19.325  -1.989  0.00  0.00    -0.270 OA
ATOM     29  N   UNL d   1      21.634 -18.648   0.236  0.00  0.00    -0.325 N 
ATOM     30  H   UNL d   1      21.984 -17.921   0.853  0.00  0.00     0.169 HD
BRANCH  29  31
ATOM     31  C   UNL d   1      20.475 -19.346   0.626  0.00  0.00     0.034 A 
ATOM     32  C   UNL d   1      20.278 -19.703   1.963  0.00  0.00     0.029 A 
ATOM     33  C   UNL d   1      19.144 -20.442   2.323  0.00  0.00     0.002 A 
ATOM     34  C   UNL d   1      18.203 -20.802   1.358  0.00  0.00     0.000 A 
ATOM     35  C   UNL d   1      18.404 -20.450   0.027  0.00  0.00     0.002 A 
ATOM     36  C   UNL d   1      19.536 -19.728  -0.333  0.00  0.00     0.029 A 
ENDBRANCH  29  31
ENDBRANCH  24  27
ENDBRANCH  19  20
ENDBRANCH   1  19
TORSDOF 8
ENDMDL
MODEL 4
REMARK VINA RESULT:    -9.209      3.230      5.180
REMARK INTER + INTRA:         -14.244
REMARK INTER:                 -11.595
REMARK INTRA:                  -2.649
REMARK CONF_INDEPENDENT:        2.386
REMARK UNBOUND:                -2.649
REMARK  8 active torsions:
REMARK  status: ('A' for Active; 'I' for Inactive)
REMARK    1  A    between atoms: C_2  and  C_3 
REMARK       I    between atoms: C_2  and  N_19 
REMARK    2  A    between atoms: C_3  and  C_4 
REMARK    3  A    between atoms: C_5  and  C_4 
REMARK    4  A    between atoms: C_8  and  C_9 
REMARK       I    between atoms: C_9  and  N_11 
REMARK    5  A    between atoms: N_11  and  C_12 
REMARK    6  A    between atoms: N_19  and  C_20 
REMARK    7  A    between atoms: C_20  and  C_21 
REMARK    8  A    between atoms: C_21  and  C_22 
ROOT
ATOM      1  C   UNL d   1      27.311 -16.296  -1.811  0.00  0.00     0.105 C 
ENDROOT
BRANCH   1   2
ATOM      2  C   UNL d   1      26.443 -15.533  -2.767  0.00  0.00     0.217 C 
ATOM      3  O   UNL d   1      25.297 -15.861  -3.077  0.00  0.00    -0.274 OA
ATOM      4  N   UNL d   1      26.995 -14.388  -3.266  0.00  0.00    -0.361 N 
ATOM      5  H   UNL d   1      26.373 -13.876  -3.887  0.00  0.00     0.162 HD
BRANCH   4   6
ATOM      6  C   UNL d   1      28.316 -13.894  -2.945  0.00  0.00     0.127 C 
BRANCH   6   7
ATOM      7  C   UNL d   1      28.285 -12.968  -1.758  0.00  0.00     0.056 C 
BRANCH   7   8
ATOM      8  C   UNL d   1      28.543 -13.606  -0.433  0.00  0.00    -0.048 A 
ATOM      9  C   UNL d   1      28.030 -13.086   0.681  0.00  0.00    -0.004 A 
ATOM     10  C   UNL d   1      27.209 -11.947   0.892  0.00  0.00     0.037 A 
ATOM     11  C   UNL d   1      28.544 -13.905   1.784  0.00  0.00     0.038 A 
ATOM     12  C   UNL d   1      26.955 -11.577   2.152  0.00  0.00     0.035 A 
ATOM     13 CL   UNL d   1      26.141 -10.092   2.450  0.00  0.00    -0.084 Cl
ATOM     14  C   UNL d   1      27.402 -12.387   3.277  0.00  0.00     0.026 A 
ATOM     15  C   UNL d   1      28.168 -13.494   3.150  0.00  0.00     0.031 A 
ATOM     16  N   UNL d   1      29.264 -14.875   1.361  0.00  0.00    -0.385 N 
ATOM     17  C   UNL d   1      29.366 -14.827  -0.126  0.00  0.00     0.155 A 
ATOM     18  H   UNL d   1      29.683 -15.564   1.985  0.00  0.00     0.160 HD
ENDBRANCH   7   8
ENDBRANCH   6   7
ENDBRANCH   4   6
ENDBRANCH   1   2
BRANCH   1  19
ATOM     19  C   UNL d   1      26.590 -17.417  -1.086  0.00  0.00     0.041 C 
BRANCH  19  20
ATOM     20  C   UNL d   1      25.607 -16.885  -0.028  0.00  0.00     0.135 C 
ATOM     21  N   UNL d   1      24.767 -15.772  -0.484  0.00  0.00    -0.245 NA
ATOM     22  N   UNL d   1      23.535 -16.239  -1.072  0.00  0.00    -0.237 NA
ATOM     23  H   UNL d   1      25.260 -15.075  -1.031  0.00  0.00     0.142 HD
ATOM     24  C   UNL d   1      23.374 -17.697  -0.914  0.00  0.00     0.226 C 
ATOM     25  H   UNL d   1      23.338 -15.949  -2.030  0.00  0.00     0.142 HD
ATOM     26  S   UNL d   1      24.479 -18.215   0.410  0.00  0.00    -0.117 SA
BRANCH  24  27
ATOM     27  C   UNL d   1      21.915 -18.061  -0.617  0.00  0.00     0.251 C 
ATOM     28  O   UNL d   1      20.975 -17.454  -1.133  0.00  0.00    -0.270 OA
ATOM     29  N   UNL d   1      21.769 -19.165   0.229  0.00  0.00    -0.325 N 
ATOM     30  H   UNL d   1      22.571 -19.445   0.785  0.00  0.00     0.169 HD
BRANCH  29  31
ATOM     31  C   UNL d   1      20.509 -19.691   0.572  0.00  0.00     0.034 A 
ATOM     32  C   UNL d   1      20.159 -19.878   1.913  0.00  0.00     0.029 A 
ATOM     33  C   UNL d   1      18.922 -20.450   2.233  0.00  0.00     0.002 A 
ATOM     34  C   UNL d   1      18.031 -20.813   1.221  0.00  0.00     0.000 A 
ATOM     35  C   UNL d   1      18.384 -20.632  -0.112  0.00  0.00     0.002 A 
ATOM     36  C   UNL d   1      19.618 -20.075  -0.430  0.00  0.00     0.029 A 
ENDBRANCH  29  31
ENDBRANCH  24  27
ENDBRANCH  19  20
ENDBRANCH   1  19
TORSDOF 8
ENDMDL
MODEL 5
REMARK VINA RESULT:    -9.174      2.266      2.866
REMARK INTER + INTRA:         -13.839
REMARK INTER:                 -11.560
REMARK INTRA:                  -2.279
REMARK CONF_INDEPENDENT:        2.386
REMARK UNBOUND:                -2.279
REMARK  8 active torsions:
REMARK  status: ('A' for Active; 'I' for Inactive)
REMARK    1  A    between atoms: C_2  and  C_3 
REMARK       I    between atoms: C_2  and  N_19 
REMARK    2  A    between atoms: C_3  and  C_4 
REMARK    3  A    between atoms: C_5  and  C_4 
REMARK    4  A    between atoms: C_8  and  C_9 
REMARK       I    between atoms: C_9  and  N_11 
REMARK    5  A    between atoms: N_11  and  C_12 
REMARK    6  A    between atoms: N_19  and  C_20 
REMARK    7  A    between atoms: C_20  and  C_21 
REMARK    8  A    between atoms: C_21  and  C_22 
ROOT
ATOM      1  C   UNL d   1      26.776 -15.453  -1.878  0.00  0.00     0.105 C 
ENDROOT
BRANCH   1   2
ATOM      2  C   UNL d   1      25.788 -14.988  -2.907  0.00  0.00     0.217 C 
ATOM      3  O   UNL d   1      24.570 -14.940  -2.728  0.00  0.00    -0.274 OA
ATOM      4  N   UNL d   1      26.332 -14.567  -4.086  0.00  0.00    -0.361 N 
ATOM      5  H   UNL d   1      25.642 -14.230  -4.753  0.00  0.00     0.162 HD
BRANCH   4   6
ATOM      6  C   UNL d   1      27.747 -14.552  -4.391  0.00  0.00     0.127 C 
BRANCH   6   7
ATOM      7  C   UNL d   1      28.000 -14.861  -5.843  0.00  0.00     0.056 C 
BRANCH   7   8
ATOM      8  C   UNL d   1      29.355 -15.399  -6.163  0.00  0.00    -0.048 A 
ATOM      9  C   UNL d   1      30.205 -14.694  -6.909  0.00  0.00    -0.004 A 
ATOM     10  C   UNL d   1      30.081 -13.417  -7.518  0.00  0.00     0.037 A 
ATOM     11  C   UNL d   1      31.387 -15.544  -7.089  0.00  0.00     0.038 A 
ATOM     12  C   UNL d   1      31.057 -13.012  -8.338  0.00  0.00     0.035 A 
ATOM     13 CL   UNL d   1      30.850 -11.570  -9.251  0.00  0.00    -0.084 Cl
ATOM     14  C   UNL d   1      32.271 -13.799  -8.507  0.00  0.00     0.026 A 
ATOM     15  C   UNL d   1      32.467 -15.012  -7.942  0.00  0.00     0.031 A 
ATOM     16  N   UNL d   1      31.279 -16.650  -6.454  0.00  0.00    -0.385 N 
ATOM     17  C   UNL d   1      29.959 -16.717  -5.763  0.00  0.00     0.155 A 
ATOM     18  H   UNL d   1      32.016 -17.353  -6.441  0.00  0.00     0.160 HD
ENDBRANCH   7   8
ENDBRANCH   6   7
ENDBRANCH   4   6
ENDBRANCH   1   2
BRANCH   1  19
ATOM     19  C   UNL d   1      26.542 -16.874  -1.400  0.00  0.00     0.041 C 
BRANCH  19  20
ATOM     20  C   UNL d   1      25.588 -16.929  -0.193  0.00  0.00     0.135 C 
ATOM     21  N   UNL d   1      24.489 -15.958  -0.243  0.00  0.00    -0.245 NA
ATOM     22  N   UNL d   1      23.328 -16.501  -0.904  0.00  0.00    -0.237 NA
ATOM     23  H   UNL d   1      24.763 -15.034  -0.557  0.00  0.00     0.142 HD
ATOM     24  C   UNL d   1      23.494 -17.935  -1.211  0.00  0.00     0.226 C 
ATOM     25  H   UNL d   1      22.973 -15.991  -1.714  0.00  0.00     0.142 HD
ATOM     26  S   UNL d   1      24.819 -18.554  -0.160  0.00  0.00    -0.117 SA
BRANCH  24  27
ATOM     27  C   UNL d   1      22.185 -18.701  -0.994  0.00  0.00     0.251 C 
ATOM     28  O   UNL d   1      21.637 -19.324  -1.905  0.00  0.00    -0.270 OA
ATOM     29  N   UNL d   1      21.725 -18.670   0.326  0.00  0.00    -0.325 N 
ATOM     30  H   UNL d   1      22.097 -17.952   0.941  0.00  0.00     0.169 HD
BRANCH  29  31
ATOM     31  C   UNL d   1      20.571 -19.363   0.739  0.00  0.00     0.034 A 
ATOM     32  C   UNL d   1      20.223 -19.417   2.093  0.00  0.00     0.029 A 
ATOM     33  C   UNL d   1      19.100 -20.154   2.490  0.00  0.00     0.002 A 
ATOM     34  C   UNL d   1      18.318 -20.813   1.540  0.00  0.00     0.000 A 
ATOM     35  C   UNL d   1      18.670 -20.761   0.195  0.00  0.00     0.002 A 
ATOM     36  C   UNL d   1      19.791 -20.040  -0.198  0.00  0.00     0.029 A 
ENDBRANCH  29  31
ENDBRANCH  24  27
ENDBRANCH  19  20
ENDBRANCH   1  19
TORSDOF 8
ENDMDL
MODEL 6
REMARK VINA RESULT:    -9.130      5.700      8.371
REMARK INTER + INTRA:         -14.209
REMARK INTER:                 -11.516
REMARK INTRA:                  -2.692
REMARK CONF_INDEPENDENT:        2.386
REMARK UNBOUND:                -2.692
REMARK  8 active torsions:
REMARK  status: ('A' for Active; 'I' for Inactive)
REMARK    1  A    between atoms: C_2  and  C_3 
REMARK       I    between atoms: C_2  and  N_19 
REMARK    2  A    between atoms: C_3  and  C_4 
REMARK    3  A    between atoms: C_5  and  C_4 
REMARK    4  A    between atoms: C_8  and  C_9 
REMARK       I    between atoms: C_9  and  N_11 
REMARK    5  A    between atoms: N_11  and  C_12 
REMARK    6  A    between atoms: N_19  and  C_20 
REMARK    7  A    between atoms: C_20  and  C_21 
REMARK    8  A    between atoms: C_21  and  C_22 
ROOT
ATOM      1  C   UNL d   1      26.605 -14.727   0.244  0.00  0.00     0.105 C 
ENDROOT
BRANCH   1   2
ATOM      2  C   UNL d   1      27.449 -15.607   1.119  0.00  0.00     0.217 C 
ATOM      3  O   UNL d   1      27.378 -16.837   1.140  0.00  0.00    -0.274 OA
ATOM      4  N   UNL d   1      28.363 -14.952   1.892  0.00  0.00    -0.361 N 
ATOM      5  H   UNL d   1      28.941 -15.574   2.451  0.00  0.00     0.162 HD
BRANCH   4   6
ATOM      6  C   UNL d   1      28.552 -13.517   1.922  0.00  0.00     0.127 C 
BRANCH   6   7
ATOM      7  C   UNL d   1      27.819 -12.890   3.079  0.00  0.00     0.056 C 
BRANCH   7   8
ATOM      8  C   UNL d   1      28.058 -13.519   4.412  0.00  0.00    -0.048 A 
ATOM      9  C   UNL d   1      28.340 -12.767   5.475  0.00  0.00    -0.004 A 
ATOM     10  C   UNL d   1      28.471 -11.361   5.620  0.00  0.00     0.037 A 
ATOM     11  C   UNL d   1      28.591 -13.702   6.577  0.00  0.00     0.038 A 
ATOM     12  C   UNL d   1      28.904 -10.885   6.792  0.00  0.00     0.035 A 
ATOM     13 CL   UNL d   1      29.271  -9.212   6.943  0.00  0.00    -0.084 Cl
ATOM     14  C   UNL d   1      29.117 -11.770   7.930  0.00  0.00     0.026 A 
ATOM     15  C   UNL d   1      28.991 -13.115   7.870  0.00  0.00     0.031 A 
ATOM     16  N   UNL d   1      28.418 -14.918   6.218  0.00  0.00    -0.385 N 
ATOM     17  C   UNL d   1      28.046 -14.979   4.775  0.00  0.00     0.155 A 
ATOM     18  H   UNL d   1      28.521 -15.703   6.860  0.00  0.00     0.160 HD
ENDBRANCH   7   8
ENDBRANCH   6   7
ENDBRANCH   4   6
ENDBRANCH   1   2
BRANCH   1  19
ATOM     19  C   UNL d   1      26.982 -14.780  -1.225  0.00  0.00     0.041 C 
BRANCH  19  20
ATOM     20  C   UNL d   1      26.317 -15.963  -1.952  0.00  0.00     0.135 C 
ATOM     21  N   UNL d   1      26.344 -17.226  -1.206  0.00  0.00    -0.245 NA
ATOM     22  N   UNL d   1      25.181 -17.375  -0.367  0.00  0.00    -0.237 NA
ATOM     23  H   UNL d   1      27.226 -17.420  -0.746  0.00  0.00     0.142 HD
ATOM     24  C   UNL d   1      24.198 -16.299  -0.600  0.00  0.00     0.226 C 
ATOM     25  H   UNL d   1      25.342 -17.515   0.631  0.00  0.00     0.142 HD
ATOM     26  S   UNL d   1      24.581 -15.565  -2.199  0.00  0.00    -0.117 SA
BRANCH  24  27
ATOM     27  C   UNL d   1      22.765 -16.840  -0.547  0.00  0.00     0.251 C 
ATOM     28  O   UNL d   1      21.799 -16.159  -0.896  0.00  0.00    -0.270 OA
ATOM     29  N   UNL d   1      22.680 -18.171  -0.130  0.00  0.00    -0.325 N 
ATOM     30  H   UNL d   1      23.478 -18.568   0.357  0.00  0.00     0.169 HD
BRANCH  29  31
ATOM     31  C   UNL d   1      21.457 -18.867  -0.072  0.00  0.00     0.034 A 
ATOM     32  C   UNL d   1      20.698 -19.066  -1.230  0.00  0.00     0.029 A 
ATOM     33  C   UNL d   1      19.460 -19.716  -1.144  0.00  0.00     0.002 A 
ATOM     34  C   UNL d   1      18.994 -20.184   0.086  0.00  0.00     0.000 A 
ATOM     35  C   UNL d   1      19.749 -19.979   1.237  0.00  0.00     0.002 A 
ATOM     36  C   UNL d   1      20.972 -19.323   1.154  0.00  0.00     0.029 A 
ENDBRANCH  29  31
ENDBRANCH  24  27
ENDBRANCH  19  20
ENDBRANCH   1  19
TORSDOF 8
ENDMDL
MODEL 7
REMARK VINA RESULT:    -8.761      7.412     10.073
REMARK INTER + INTRA:         -13.421
REMARK INTER:                 -11.147
REMARK INTRA:                  -2.274
REMARK CONF_INDEPENDENT:        2.386
REMARK UNBOUND:                -2.274
REMARK  8 active torsions:
REMARK  status: ('A' for Active; 'I' for Inactive)
REMARK    1  A    between atoms: C_2  and  C_3 
REMARK       I    between atoms: C_2  and  N_19 
REMARK    2  A    between atoms: C_3  and  C_4 
REMARK    3  A    between atoms: C_5  and  C_4 
REMARK    4  A    between atoms: C_8  and  C_9 
REMARK       I    between atoms: C_9  and  N_11 
REMARK    5  A    between atoms: N_11  and  C_12 
REMARK    6  A    between atoms: N_19  and  C_20 
REMARK    7  A    between atoms: C_20  and  C_21 
REMARK    8  A    between atoms: C_21  and  C_22 
ROOT
ATOM      1  C   UNL d   1      28.002 -12.484   1.582  0.00  0.00     0.105 C 
ENDROOT
BRANCH   1   2
ATOM      2  C   UNL d   1      26.654 -12.875   1.052  0.00  0.00     0.217 C 
ATOM      3  O   UNL d   1      25.626 -12.914   1.730  0.00  0.00    -0.274 OA
ATOM      4  N   UNL d   1      26.615 -13.158  -0.283  0.00  0.00    -0.361 N 
ATOM      5  H   UNL d   1      25.685 -13.390  -0.621  0.00  0.00     0.162 HD
BRANCH   4   6
ATOM      6  C   UNL d   1      27.753 -13.114  -1.176  0.00  0.00     0.127 C 
BRANCH   6   7
ATOM      7  C   UNL d   1      27.827 -14.349  -2.035  0.00  0.00     0.056 C 
BRANCH   7   8
ATOM      8  C   UNL d   1      28.026 -15.634  -1.303  0.00  0.00    -0.048 A 
ATOM      9  C   UNL d   1      26.980 -16.373  -0.934  0.00  0.00    -0.004 A 
ATOM     10  C   UNL d   1      25.585 -16.176  -1.110  0.00  0.00     0.037 A 
ATOM     11  C   UNL d   1      27.529 -17.504  -0.178  0.00  0.00     0.038 A 
ATOM     12  C   UNL d   1      24.746 -17.024  -0.504  0.00  0.00     0.035 A 
ATOM     13 CL   UNL d   1      23.058 -16.702  -0.522  0.00  0.00    -0.084 Cl
ATOM     14  C   UNL d   1      25.246 -18.190   0.213  0.00  0.00     0.026 A 
ATOM     15  C   UNL d   1      26.559 -18.452   0.402  0.00  0.00     0.031 A 
ATOM     16  N   UNL d   1      28.808 -17.477  -0.145  0.00  0.00    -0.385 N 
ATOM     17  C   UNL d   1      29.315 -16.274  -0.866  0.00  0.00     0.155 A 
ATOM     18  H   UNL d   1      29.363 -18.200   0.312  0.00  0.00     0.160 HD
ENDBRANCH   7   8
ENDBRANCH   6   7
ENDBRANCH   4   6
ENDBRANCH   1   2
BRANCH   1  19
ATOM     19  C   UNL d   1      28.657 -13.551   2.440  0.00  0.00     0.041 C 
BRANCH  19  20
ATOM     20  C   UNL d   1      27.770 -13.964   3.628  0.00  0.00     0.135 C 
ATOM     21  N   UNL d   1      28.180 -15.210   4.287  0.00  0.00    -0.245 NA
ATOM     22  N   UNL d   1      29.116 -14.966   5.356  0.00  0.00    -0.237 NA
ATOM     23  H   UNL d   1      28.449 -15.950   3.649  0.00  0.00     0.142 HD
ATOM     24  C   UNL d   1      29.291 -13.522   5.610  0.00  0.00     0.226 C 
ATOM     25  H   UNL d   1      30.018 -15.441   5.303  0.00  0.00     0.142 HD
ATOM     26  S   UNL d   1      27.877 -12.678   4.881  0.00  0.00    -0.117 SA
BRANCH  24  27
ATOM     27  C   UNL d   1      29.417 -13.238   7.110  0.00  0.00     0.251 C 
ATOM     28  O   UNL d   1      29.841 -12.161   7.535  0.00  0.00    -0.270 OA
ATOM     29  N   UNL d   1      28.955 -14.277   7.923  0.00  0.00    -0.325 N 
ATOM     30  H   UNL d   1      28.852 -15.196   7.505  0.00  0.00     0.169 HD
BRANCH  29  31
ATOM     31  C   UNL d   1      28.932 -14.183   9.328  0.00  0.00     0.034 A 
ATOM     32  C   UNL d   1      29.646 -15.094  10.113  0.00  0.00     0.029 A 
ATOM     33  C   UNL d   1      29.569 -15.016  11.509  0.00  0.00     0.002 A 
ATOM     34  C   UNL d   1      28.802 -14.020  12.117  0.00  0.00     0.000 A 
ATOM     35  C   UNL d   1      28.088 -13.119  11.334  0.00  0.00     0.002 A 
ATOM     36  C   UNL d   1      28.154 -13.204   9.948  0.00  0.00     0.029 A 
ENDBRANCH  29  31
ENDBRANCH  24  27
ENDBRANCH  19  20
ENDBRANCH   1  19
TORSDOF 8
ENDMDL
MODEL 8
REMARK VINA RESULT:    -8.740      1.673      2.509
REMARK INTER + INTRA:         -13.770
REMARK INTER:                 -11.126
REMARK INTRA:                  -2.644
REMARK CONF_INDEPENDENT:        2.386
REMARK UNBOUND:                -2.644
REMARK  8 active torsions:
REMARK  status: ('A' for Active; 'I' for Inactive)
REMARK    1  A    between atoms: C_2  and  C_3 
REMARK       I    between atoms: C_2  and  N_19 
REMARK    2  A    between atoms: C_3  and  C_4 
REMARK    3  A    between atoms: C_5  and  C_4 
REMARK    4  A    between atoms: C_8  and  C_9 
REMARK       I    between atoms: C_9  and  N_11 
REMARK    5  A    between atoms: N_11  and  C_12 
REMARK    6  A    between atoms: N_19  and  C_20 
REMARK    7  A    between atoms: C_20  and  C_21 
REMARK    8  A    between atoms: C_21  and  C_22 
ROOT
ATOM      1  C   UNL d   1      26.507 -15.958  -2.293  0.00  0.00     0.105 C 
ENDROOT
BRANCH   1   2
ATOM      2  C   UNL d   1      25.532 -15.199  -3.144  0.00  0.00     0.217 C 
ATOM      3  O   UNL d   1      24.407 -14.858  -2.775  0.00  0.00    -0.274 OA
ATOM      4  N   UNL d   1      25.989 -14.856  -4.384  0.00  0.00    -0.361 N 
ATOM      5  H   UNL d   1      25.319 -14.318  -4.927  0.00  0.00     0.162 HD
BRANCH   4   6
ATOM      6  C   UNL d   1      27.300 -15.178  -4.906  0.00  0.00     0.127 C 
BRANCH   6   7
ATOM      7  C   UNL d   1      28.343 -14.215  -4.403  0.00  0.00     0.056 C 
BRANCH   7   8
ATOM      8  C   UNL d   1      27.884 -13.251  -3.359  0.00  0.00    -0.048 A 
ATOM      9  C   UNL d   1      27.174 -12.175  -3.696  0.00  0.00    -0.004 A 
ATOM     10  C   UNL d   1      26.717 -11.712  -4.958  0.00  0.00     0.037 A 
ATOM     11  C   UNL d   1      26.969 -11.421  -2.455  0.00  0.00     0.038 A 
ATOM     12  C   UNL d   1      26.134 -10.509  -5.015  0.00  0.00     0.035 A 
ATOM     13 CL   UNL d   1      25.754  -9.825  -6.546  0.00  0.00    -0.084 Cl
ATOM     14  C   UNL d   1      25.864  -9.747  -3.803  0.00  0.00     0.026 A 
ATOM     15  C   UNL d   1      26.251 -10.136  -2.567  0.00  0.00     0.031 A 
ATOM     16  N   UNL d   1      27.468 -12.025  -1.443  0.00  0.00    -0.385 N 
ATOM     17  C   UNL d   1      28.126 -13.291  -1.875  0.00  0.00     0.155 A 
ATOM     18  H   UNL d   1      27.396 -11.661  -0.493  0.00  0.00     0.160 HD
ENDBRANCH   7   8
ENDBRANCH   6   7
ENDBRANCH   4   6
ENDBRANCH   1   2
BRANCH   1  19
ATOM     19  C   UNL d   1      25.980 -17.292  -1.797  0.00  0.00     0.041 C 
BRANCH  19  20
ATOM     20  C   UNL d   1      25.220 -17.157  -0.466  0.00  0.00     0.135 C 
ATOM     21  N   UNL d   1      24.362 -15.970  -0.375  0.00  0.00    -0.245 NA
ATOM     22  N   UNL d   1      23.028 -16.238  -0.854  0.00  0.00    -0.237 NA
ATOM     23  H   UNL d   1      24.781 -15.123  -0.741  0.00  0.00     0.142 HD
ATOM     24  C   UNL d   1      22.834 -17.669  -1.157  0.00  0.00     0.226 C 
ATOM     25  H   UNL d   1      22.680 -15.651  -1.614  0.00  0.00     0.142 HD
ATOM     26  S   UNL d   1      24.129 -18.576  -0.296  0.00  0.00    -0.117 SA
BRANCH  24  27
ATOM     27  C   UNL d   1      21.435 -18.136  -0.743  0.00  0.00     0.251 C 
ATOM     28  O   UNL d   1      20.415 -17.681  -1.265  0.00  0.00    -0.270 OA
ATOM     29  N   UNL d   1      21.439 -19.148   0.221  0.00  0.00    -0.325 N 
ATOM     30  H   UNL d   1      22.290 -19.288   0.757  0.00  0.00     0.169 HD
BRANCH  29  31
ATOM     31  C   UNL d   1      20.256 -19.752   0.688  0.00  0.00     0.034 A 
ATOM     32  C   UNL d   1      19.977 -19.802   2.057  0.00  0.00     0.029 A 
ATOM     33  C   UNL d   1      18.820 -20.451   2.506  0.00  0.00     0.002 A 
ATOM     34  C   UNL d   1      17.936 -21.026   1.591  0.00  0.00     0.000 A 
ATOM     35  C   UNL d   1      18.219 -20.980   0.230  0.00  0.00     0.002 A 
ATOM     36  C   UNL d   1      19.374 -20.346  -0.215  0.00  0.00     0.029 A 
ENDBRANCH  29  31
ENDBRANCH  24  27
ENDBRANCH  19  20
ENDBRANCH   1  19
TORSDOF 8
ENDMDL
MODEL 9
REMARK VINA RESULT:    -8.325      2.171      2.847
REMARK INTER + INTRA:         -13.574
REMARK INTER:                 -10.711
REMARK INTRA:                  -2.862
REMARK CONF_INDEPENDENT:        2.386
REMARK UNBOUND:                -2.862
REMARK  8 active torsions:
REMARK  status: ('A' for Active; 'I' for Inactive)
REMARK    1  A    between atoms: C_2  and  C_3 
REMARK       I    between atoms: C_2  and  N_19 
REMARK    2  A    between atoms: C_3  and  C_4 
REMARK    3  A    between atoms: C_5  and  C_4 
REMARK    4  A    between atoms: C_8  and  C_9 
REMARK       I    between atoms: C_9  and  N_11 
REMARK    5  A    between atoms: N_11  and  C_12 
REMARK    6  A    between atoms: N_19  and  C_20 
REMARK    7  A    between atoms: C_20  and  C_21 
REMARK    8  A    between atoms: C_21  and  C_22 
ROOT
ATOM      1  C   UNL d   1      26.640 -15.041  -1.993  0.00  0.00     0.105 C 
ENDROOT
BRANCH   1   2
ATOM      2  C   UNL d   1      25.555 -14.889  -3.018  0.00  0.00     0.217 C 
ATOM      3  O   UNL d   1      24.353 -14.832  -2.753  0.00  0.00    -0.274 OA
ATOM      4  N   UNL d   1      25.988 -14.771  -4.308  0.00  0.00    -0.361 N 
ATOM      5  H   UNL d   1      25.234 -14.640  -4.977  0.00  0.00     0.162 HD
BRANCH   4   6
ATOM      6  C   UNL d   1      27.373 -14.793  -4.726  0.00  0.00     0.127 C 
BRANCH   6   7
ATOM      7  C   UNL d   1      27.690 -13.639  -5.639  0.00  0.00     0.056 C 
BRANCH   7   8
ATOM      8  C   UNL d   1      27.053 -12.337  -5.281  0.00  0.00    -0.048 A 
ATOM      9  C   UNL d   1      27.202 -11.822  -4.061  0.00  0.00    -0.004 A 
ATOM     10  C   UNL d   1      27.908 -12.296  -2.924  0.00  0.00     0.037 A 
ATOM     11  C   UNL d   1      26.389 -10.602  -4.035  0.00  0.00     0.038 A 
ATOM     12  C   UNL d   1      27.767 -11.632  -1.772  0.00  0.00     0.035 A 
ATOM     13 CL   UNL d   1      28.437 -12.286  -0.330  0.00  0.00    -0.084 Cl
ATOM     14  C   UNL d   1      27.011 -10.387  -1.710  0.00  0.00     0.026 A 
ATOM     15  C   UNL d   1      26.332  -9.867  -2.757  0.00  0.00     0.031 A 
ATOM     16  N   UNL d   1      25.840 -10.371  -5.168  0.00  0.00    -0.385 N 
ATOM     17  C   UNL d   1      26.189 -11.450  -6.136  0.00  0.00     0.155 A 
ATOM     18  H   UNL d   1      25.261  -9.551  -5.343  0.00  0.00     0.160 HD
ENDBRANCH   7   8
ENDBRANCH   6   7
ENDBRANCH   4   6
ENDBRANCH   1   2
BRANCH   1  19
ATOM     19  C   UNL d   1      26.822 -16.463  -1.497  0.00  0.00     0.041 C 
BRANCH  19  20
ATOM     20  C   UNL d   1      25.962 -16.759  -0.255  0.00  0.00     0.135 C 
ATOM     21  N   UNL d   1      24.837 -15.837  -0.063  0.00  0.00    -0.245 NA
ATOM     22  N   UNL d   1      23.644 -16.304  -0.726  0.00  0.00    -0.237 NA
ATOM     23  H   UNL d   1      25.062 -14.863  -0.232  0.00  0.00     0.142 HD
ATOM     24  C   UNL d   1      23.826 -17.658  -1.285  0.00  0.00     0.226 C 
ATOM     25  H   UNL d   1      23.217 -15.678  -1.410  0.00  0.00     0.142 HD
ATOM     26  S   UNL d   1      25.240 -18.394  -0.449  0.00  0.00    -0.117 SA
BRANCH  24  27
ATOM     27  C   UNL d   1      22.556 -18.499  -1.113  0.00  0.00     0.251 C 
ATOM     28  O   UNL d   1      22.199 -19.318  -1.961  0.00  0.00    -0.270 OA
ATOM     29  N   UNL d   1      21.900 -18.289   0.103  0.00  0.00    -0.325 N 
ATOM     30  H   UNL d   1      22.121 -17.444   0.622  0.00  0.00     0.169 HD
BRANCH  29  31
ATOM     31  C   UNL d   1      20.749 -19.010   0.474  0.00  0.00     0.034 A 
ATOM     32  C   UNL d   1      20.510 -19.325   1.815  0.00  0.00     0.029 A 
ATOM     33  C   UNL d   1      19.387 -20.088   2.159  0.00  0.00     0.002 A 
ATOM     34  C   UNL d   1      18.496 -20.512   1.172  0.00  0.00     0.000 A 
ATOM     35  C   UNL d   1      18.738 -20.202  -0.162  0.00  0.00     0.002 A 
ATOM     36  C   UNL d   1      19.860 -19.456  -0.505  0.00  0.00     0.029 A 
ENDBRANCH  29  31
ENDBRANCH  24  27
ENDBRANCH  19  20
ENDBRANCH   1  19
TORSDOF 8
ENDMDL
