MODEL 1
REMARK VINA RESULT:    -9.333      0.000      0.000
REMARK INTER + INTRA:         -11.962
REMARK INTER:                 -10.825
REMARK INTRA:                  -1.137
REMARK CONF_INDEPENDENT:        1.492
REMARK UNBOUND:                -1.137
REMARK  5 active torsions:
REMARK  status: ('A' for Active; 'I' for Inactive)
REMARK    1  A    between atoms: C_2  and  N_3 
REMARK    2  A    between atoms: C_5  and  C_6 
REMARK       I    between atoms: C_6  and  N_8 
REMARK    3  A    between atoms: N_8  and  C_9 
REMARK    4  A    between atoms: C_9  and  C_10 
REMARK       I    between atoms: C_10  and  N_12 
REMARK    5  A    between atoms: N_15  and  C_16 
ROOT
ATOM      1  C   UNL d   1      25.967 -14.912  -3.618  0.00  0.00     0.257 C 
ATOM      2  O   UNL d   1      24.777 -14.977  -3.331  0.00  0.00    -0.267 OA
ATOM      3  N   UNL d   1      26.853 -15.783  -2.994  0.00  0.00    -0.348 N 
ATOM      4  H   UNL d   1      27.851 -15.760  -3.153  0.00  0.00     0.163 HD
ENDROOT
BRANCH   1   5
ATOM      5  C   UNL d   1      26.495 -13.911  -4.640  0.00  0.00     0.098 A 
ATOM      6  C   UNL d   1      25.920 -12.720  -4.881  0.00  0.00     0.112 A 
ATOM      7  N   UNL d   1      26.341 -11.746  -5.782  0.00  0.00    -0.355 N 
ATOM      8  C   UNL d   1      27.494 -11.973  -6.571  0.00  0.00     0.051 A 
ATOM      9  C   UNL d   1      27.947 -11.019  -7.496  0.00  0.00     0.070 C 
ATOM     10  C   UNL d   1      28.184 -13.199  -6.496  0.00  0.00     0.045 A 
ATOM     11  C   UNL d   1      28.845 -11.379  -8.462  0.00  0.00     0.107 A 
ATOM     12  C   UNL d   1      29.499 -12.574  -8.428  0.00  0.00     0.106 A 
ATOM     13  O   UNL d   1      29.130 -10.605  -9.539  0.00  0.00    -0.323 OA
ATOM     14  C   UNL d   1      29.248 -13.479  -7.399  0.00  0.00     0.057 C 
ATOM     15  O   UNL d   1      30.342 -12.684  -9.495  0.00  0.00    -0.323 OA
ATOM     16  C   UNL d   1      30.084 -11.440 -10.210  0.00  0.00     0.352 A 
ATOM     17  C   UNL d   1      27.727 -14.214  -5.483  0.00  0.00     0.201 A 
ATOM     18  O   UNL d   1      28.349 -15.258  -5.386  0.00  0.00    -0.286 OA
BRANCH   7  19
ATOM     19  C   UNL d   1      25.531 -10.555  -6.125  0.00  0.00     0.124 C 
ATOM     20  C   UNL d   1      25.832  -9.364  -5.205  0.00  0.00     0.027 C 
ENDBRANCH   7  19
ENDBRANCH   1   5
BRANCH   3  21
ATOM     21  C   UNL d   1      26.374 -16.780  -2.020  0.00  0.00     0.225 C 
BRANCH  21  22
ATOM     22  C   UNL d   1      25.476 -16.177  -0.906  0.00  0.00     0.237 C 
ATOM     23  O   UNL d   1      25.626 -15.008  -0.544  0.00  0.00    -0.272 OA
ATOM     24  N   UNL d   1      24.392 -16.945  -0.471  0.00  0.00    -0.348 N 
ATOM     25  C   UNL d   1      23.101 -16.323  -0.145  0.00  0.00     0.145 C 
ATOM     26  C   UNL d   1      24.455 -18.365  -0.116  0.00  0.00     0.145 C 
ATOM     27  C   UNL d   1      21.956 -17.070  -0.900  0.00  0.00     0.144 C 
ATOM     28  N   UNL d   1      21.992 -18.527  -0.630  0.00  0.00    -0.364 N 
ATOM     29  C   UNL d   1      23.331 -19.152  -0.822  0.00  0.00     0.144 C 
BRANCH  28  30
ATOM     30  C   UNL d   1      20.959 -19.210  -0.031  0.00  0.00     0.102 A 
ATOM     31  C   UNL d   1      19.852 -19.715  -0.730  0.00  0.00     0.048 A 
ATOM     32  C   UNL d   1      18.747 -20.234  -0.046  0.00  0.00     0.005 A 
ATOM     33  C   UNL d   1      18.779 -20.326   1.336  0.00  0.00     0.017 A 
ATOM     34  C   UNL d   1      19.927 -19.915   1.996  0.00  0.00     0.089 A 
ATOM     35  N   UNL d   1      20.940 -19.350   1.311  0.00  0.00    -0.352 N 
ATOM     36  H   UNL d   1      21.717 -18.947   1.827  0.00  0.00     0.166 HD
ENDBRANCH  28  30
ENDBRANCH  21  22
ENDBRANCH   3  21
TORSDOF 5
ENDMDL
MODEL 2
REMARK VINA RESULT:    -8.755      5.813      9.140
REMARK INTER + INTRA:         -11.575
REMARK INTER:                 -10.247
REMARK INTRA:                  -1.328
REMARK CONF_INDEPENDENT:        1.492
REMARK UNBOUND:                -1.328
REMARK  5 active torsions:
REMARK  status: ('A' for Active; 'I' for Inactive)
REMARK    1  A    between atoms: C_2  and  N_3 
REMARK    2  A    between atoms: C_5  and  C_6 
REMARK       I    between atoms: C_6  and  N_8 
REMARK    3  A    between atoms: N_8  and  C_9 
REMARK    4  A    between atoms: C_9  and  C_10 
REMARK       I    between atoms: C_10  and  N_12 
REMARK    5  A    between atoms: N_15  and  C_16 
ROOT
ATOM      1  C   UNL d   1      27.100 -13.067   0.918  0.00  0.00     0.257 C 
ATOM      2  O   UNL d   1      26.801 -12.222   0.081  0.00  0.00    -0.267 OA
ATOM      3  N   UNL d   1      27.196 -14.396   0.522  0.00  0.00    -0.348 N 
ATOM      4  H   UNL d   1      27.399 -15.148   1.164  0.00  0.00     0.163 HD
ENDROOT
BRANCH   1   5
ATOM      5  C   UNL d   1      27.371 -12.698   2.372  0.00  0.00     0.098 A 
ATOM      6  C   UNL d   1      27.327 -11.437   2.841  0.00  0.00     0.112 A 
ATOM      7  N   UNL d   1      27.547 -11.016   4.149  0.00  0.00    -0.355 N 
ATOM      8  C   UNL d   1      27.866 -11.967   5.148  0.00  0.00     0.051 A 
ATOM      9  C   UNL d   1      28.103 -11.581   6.476  0.00  0.00     0.070 C 
ATOM     10  C   UNL d   1      28.021 -13.328   4.818  0.00  0.00     0.045 A 
ATOM     11  C   UNL d   1      28.717 -12.446   7.339  0.00  0.00     0.107 A 
ATOM     12  C   UNL d   1      28.909 -13.759   7.027  0.00  0.00     0.106 A 
ATOM     13  O   UNL d   1      29.215 -12.069   8.543  0.00  0.00    -0.323 OA
ATOM     14  C   UNL d   1      28.490 -14.253   5.794  0.00  0.00     0.057 C 
ATOM     15  O   UNL d   1      29.532 -14.404   8.055  0.00  0.00    -0.323 OA
ATOM     16  C   UNL d   1      29.746 -13.319   9.004  0.00  0.00     0.352 A 
ATOM     17  C   UNL d   1      27.736 -13.757   3.404  0.00  0.00     0.201 A 
ATOM     18  O   UNL d   1      27.827 -14.940   3.127  0.00  0.00    -0.286 OA
BRANCH   7  19
ATOM     19  C   UNL d   1      27.676  -9.590   4.530  0.00  0.00     0.124 C 
ATOM     20  C   UNL d   1      28.405  -8.768   3.460  0.00  0.00     0.027 C 
ENDBRANCH   7  19
ENDBRANCH   1   5
BRANCH   3  21
ATOM     21  C   UNL d   1      26.965 -14.785  -0.881  0.00  0.00     0.225 C 
BRANCH  21  22
ATOM     22  C   UNL d   1      26.942 -16.322  -1.103  0.00  0.00     0.237 C 
ATOM     23  O   UNL d   1      27.995 -16.961  -1.166  0.00  0.00    -0.272 OA
ATOM     24  N   UNL d   1      25.700 -16.961  -1.044  0.00  0.00    -0.348 N 
ATOM     25  C   UNL d   1      25.552 -18.283  -0.421  0.00  0.00     0.145 C 
ATOM     26  C   UNL d   1      24.488 -16.508  -1.729  0.00  0.00     0.145 C 
ATOM     27  C   UNL d   1      24.386 -18.244   0.617  0.00  0.00     0.144 C 
ATOM     28  N   UNL d   1      23.134 -17.741   0.004  0.00  0.00    -0.364 N 
ATOM     29  C   UNL d   1      23.293 -16.467  -0.753  0.00  0.00     0.144 C 
BRANCH  28  30
ATOM     30  C   UNL d   1      21.979 -18.483  -0.073  0.00  0.00     0.102 A 
ATOM     31  C   UNL d   1      21.288 -18.727  -1.270  0.00  0.00     0.048 A 
ATOM     32  C   UNL d   1      20.024 -19.326  -1.260  0.00  0.00     0.005 A 
ATOM     33  C   UNL d   1      19.481 -19.759  -0.061  0.00  0.00     0.017 A 
ATOM     34  C   UNL d   1      20.229 -19.600   1.095  0.00  0.00     0.089 A 
ATOM     35  N   UNL d   1      21.409 -18.949   1.058  0.00  0.00    -0.352 N 
ATOM     36  H   UNL d   1      21.881 -18.738   1.932  0.00  0.00     0.166 HD
ENDBRANCH  28  30
ENDBRANCH  21  22
ENDBRANCH   3  21
TORSDOF 5
ENDMDL
MODEL 3
REMARK VINA RESULT:    -8.614      1.342      2.555
REMARK INTER + INTRA:         -10.874
REMARK INTER:                 -10.105
REMARK INTRA:                  -0.769
REMARK CONF_INDEPENDENT:        1.492
REMARK UNBOUND:                -0.769
REMARK  5 active torsions:
REMARK  status: ('A' for Active; 'I' for Inactive)
REMARK    1  A    between atoms: C_2  and  N_3 
REMARK    2  A    between atoms: C_5  and  C_6 
REMARK       I    between atoms: C_6  and  N_8 
REMARK    3  A    between atoms: N_8  and  C_9 
REMARK    4  A    between atoms: C_9  and  C_10 
REMARK       I    between atoms: C_10  and  N_12 
REMARK    5  A    between atoms: N_15  and  C_16 
ROOT
ATOM      1  C   UNL d   1      26.422 -15.515  -3.531  0.00  0.00     0.257 C 
ATOM      2  O   UNL d   1      25.223 -15.768  -3.481  0.00  0.00    -0.267 OA
ATOM      3  N   UNL d   1      27.260 -16.056  -2.562  0.00  0.00    -0.348 N 
ATOM      4  H   UNL d   1      28.250 -15.858  -2.518  0.00  0.00     0.163 HD
ENDROOT
BRANCH   1   5
ATOM      5  C   UNL d   1      27.014 -14.633  -4.624  0.00  0.00     0.098 A 
ATOM      6  C   UNL d   1      28.094 -14.972  -5.351  0.00  0.00     0.112 A 
ATOM      7  N   UNL d   1      28.689 -14.235  -6.372  0.00  0.00    -0.355 N 
ATOM      8  C   UNL d   1      28.153 -12.976  -6.731  0.00  0.00     0.051 A 
ATOM      9  C   UNL d   1      28.728 -12.200  -7.750  0.00  0.00     0.070 C 
ATOM     10  C   UNL d   1      27.060 -12.434  -6.026  0.00  0.00     0.045 A 
ATOM     11  C   UNL d   1      28.410 -10.875  -7.860  0.00  0.00     0.107 A 
ATOM     12  C   UNL d   1      27.378 -10.322  -7.162  0.00  0.00     0.106 A 
ATOM     13  O   UNL d   1      29.105 -10.003  -8.633  0.00  0.00    -0.323 OA
ATOM     14  C   UNL d   1      26.624 -11.105  -6.291  0.00  0.00     0.057 C 
ATOM     15  O   UNL d   1      27.264  -8.994  -7.456  0.00  0.00    -0.323 OA
ATOM     16  C   UNL d   1      28.380  -8.794  -8.372  0.00  0.00     0.352 A 
ATOM     17  C   UNL d   1      26.415 -13.273  -4.956  0.00  0.00     0.201 A 
ATOM     18  O   UNL d   1      25.442 -12.824  -4.375  0.00  0.00    -0.286 OA
BRANCH   7  19
ATOM     19  C   UNL d   1      29.992 -14.595  -6.976  0.00  0.00     0.124 C 
ATOM     20  C   UNL d   1      30.374 -16.056  -6.704  0.00  0.00     0.027 C 
ENDBRANCH   7  19
ENDBRANCH   1   5
BRANCH   3  21
ATOM     21  C   UNL d   1      26.726 -16.933  -1.504  0.00  0.00     0.225 C 
BRANCH  21  22
ATOM     22  C   UNL d   1      25.687 -16.235  -0.584  0.00  0.00     0.237 C 
ATOM     23  O   UNL d   1      25.795 -15.036  -0.315  0.00  0.00    -0.272 OA
ATOM     24  N   UNL d   1      24.549 -16.965  -0.232  0.00  0.00    -0.348 N 
ATOM     25  C   UNL d   1      23.230 -16.324  -0.145  0.00  0.00     0.145 C 
ATOM     26  C   UNL d   1      24.552 -18.345   0.258  0.00  0.00     0.145 C 
ATOM     27  C   UNL d   1      22.194 -17.144  -0.978  0.00  0.00     0.144 C 
ATOM     28  N   UNL d   1      22.182 -18.569  -0.571  0.00  0.00    -0.364 N 
ATOM     29  C   UNL d   1      23.531 -19.202  -0.520  0.00  0.00     0.144 C 
BRANCH  28  30
ATOM     30  C   UNL d   1      21.072 -19.200  -0.059  0.00  0.00     0.102 A 
ATOM     31  C   UNL d   1      19.999 -19.646  -0.845  0.00  0.00     0.048 A 
ATOM     32  C   UNL d   1      18.819 -20.109  -0.253  0.00  0.00     0.005 A 
ATOM     33  C   UNL d   1      18.738 -20.206   1.127  0.00  0.00     0.017 A 
ATOM     34  C   UNL d   1      19.851 -19.857   1.877  0.00  0.00     0.089 A 
ATOM     35  N   UNL d   1      20.942 -19.342   1.276  0.00  0.00    -0.352 N 
ATOM     36  H   UNL d   1      21.696 -18.982   1.853  0.00  0.00     0.166 HD
ENDBRANCH  28  30
ENDBRANCH  21  22
ENDBRANCH   3  21
TORSDOF 5
ENDMDL
MODEL 4
REMARK VINA RESULT:    -7.984      1.756      3.174
REMARK INTER + INTRA:         -10.890
REMARK INTER:                  -9.476
REMARK INTRA:                  -1.415
REMARK CONF_INDEPENDENT:        1.492
REMARK UNBOUND:                -1.415
REMARK  5 active torsions:
REMARK  status: ('A' for Active; 'I' for Inactive)
REMARK    1  A    between atoms: C_2  and  N_3 
REMARK    2  A    between atoms: C_5  and  C_6 
REMARK       I    between atoms: C_6  and  N_8 
REMARK    3  A    between atoms: N_8  and  C_9 
REMARK    4  A    between atoms: C_9  and  C_10 
REMARK       I    between atoms: C_10  and  N_12 
REMARK    5  A    between atoms: N_15  and  C_16 
ROOT
ATOM      1  C   UNL d   1      26.823 -14.773  -4.601  0.00  0.00     0.257 C 
ATOM      2  O   UNL d   1      27.312 -15.813  -5.030  0.00  0.00    -0.267 OA
ATOM      3  N   UNL d   1      26.174 -14.797  -3.371  0.00  0.00    -0.348 N 
ATOM      4  H   UNL d   1      25.715 -13.989  -2.976  0.00  0.00     0.163 HD
ENDROOT
BRANCH   1   5
ATOM      5  C   UNL d   1      26.914 -13.462  -5.374  0.00  0.00     0.098 A 
ATOM      6  C   UNL d   1      27.773 -13.253  -6.387  0.00  0.00     0.112 A 
ATOM      7  N   UNL d   1      27.913 -12.098  -7.151  0.00  0.00    -0.355 N 
ATOM      8  C   UNL d   1      27.094 -10.975  -6.879  0.00  0.00     0.051 A 
ATOM      9  C   UNL d   1      27.209  -9.790  -7.622  0.00  0.00     0.070 C 
ATOM     10  C   UNL d   1      26.183 -10.996  -5.806  0.00  0.00     0.045 A 
ATOM     11  C   UNL d   1      26.658  -8.632  -7.148  0.00  0.00     0.107 A 
ATOM     12  C   UNL d   1      25.800  -8.624  -6.089  0.00  0.00     0.106 A 
ATOM     13  O   UNL d   1      26.942  -7.408  -7.659  0.00  0.00    -0.323 OA
ATOM     14  C   UNL d   1      25.475  -9.815  -5.444  0.00  0.00     0.057 C 
ATOM     15  O   UNL d   1      25.387  -7.351  -5.823  0.00  0.00    -0.323 OA
ATOM     16  C   UNL d   1      26.137  -6.581  -6.808  0.00  0.00     0.352 A 
ATOM     17  C   UNL d   1      26.028 -12.274  -5.025  0.00  0.00     0.201 A 
ATOM     18  O   UNL d   1      25.208 -12.307  -4.124  0.00  0.00    -0.286 OA
BRANCH   7  19
ATOM     19  C   UNL d   1      29.022 -11.890  -8.110  0.00  0.00     0.124 C 
ATOM     20  C   UNL d   1      28.759 -12.574  -9.458  0.00  0.00     0.027 C 
ENDBRANCH   7  19
ENDBRANCH   1   5
BRANCH   3  21
ATOM     21  C   UNL d   1      26.089 -16.042  -2.585  0.00  0.00     0.225 C 
BRANCH  21  22
ATOM     22  C   UNL d   1      25.410 -15.856  -1.201  0.00  0.00     0.237 C 
ATOM     23  O   UNL d   1      25.664 -14.869  -0.507  0.00  0.00    -0.272 OA
ATOM     24  N   UNL d   1      24.384 -16.743  -0.866  0.00  0.00    -0.348 N 
ATOM     25  C   UNL d   1      23.189 -16.287  -0.142  0.00  0.00     0.145 C 
ATOM     26  C   UNL d   1      24.449 -18.199  -1.012  0.00  0.00     0.145 C 
ATOM     27  C   UNL d   1      21.907 -16.763  -0.897  0.00  0.00     0.144 C 
ATOM     28  N   UNL d   1      21.930 -18.227  -1.129  0.00  0.00    -0.364 N 
ATOM     29  C   UNL d   1      23.194 -18.730  -1.739  0.00  0.00     0.144 C 
BRANCH  28  30
ATOM     30  C   UNL d   1      20.984 -19.087  -0.623  0.00  0.00     0.102 A 
ATOM     31  C   UNL d   1      19.753 -19.343  -1.245  0.00  0.00     0.048 A 
ATOM     32  C   UNL d   1      18.758 -20.079  -0.593  0.00  0.00     0.005 A 
ATOM     33  C   UNL d   1      19.019 -20.632   0.650  0.00  0.00     0.017 A 
ATOM     34  C   UNL d   1      20.280 -20.451   1.198  0.00  0.00     0.089 A 
ATOM     35  N   UNL d   1      21.187 -19.672   0.576  0.00  0.00    -0.352 N 
ATOM     36  H   UNL d   1      22.058 -19.456   1.052  0.00  0.00     0.166 HD
ENDBRANCH  28  30
ENDBRANCH  21  22
ENDBRANCH   3  21
TORSDOF 5
ENDMDL
MODEL 5
REMARK VINA RESULT:    -7.827      6.791      9.921
REMARK INTER + INTRA:         -10.597
REMARK INTER:                  -9.318
REMARK INTRA:                  -1.279
REMARK CONF_INDEPENDENT:        1.492
REMARK UNBOUND:                -1.279
REMARK  5 active torsions:
REMARK  status: ('A' for Active; 'I' for Inactive)
REMARK    1  A    between atoms: C_2  and  N_3 
REMARK    2  A    between atoms: C_5  and  C_6 
REMARK       I    between atoms: C_6  and  N_8 
REMARK    3  A    between atoms: N_8  and  C_9 
REMARK    4  A    between atoms: C_9  and  C_10 
REMARK       I    between atoms: C_10  and  N_12 
REMARK    5  A    between atoms: N_15  and  C_16 
ROOT
ATOM      1  C   UNL d   1      28.926 -13.846   0.553  0.00  0.00     0.257 C 
ATOM      2  O   UNL d   1      29.445 -12.875   0.013  0.00  0.00    -0.267 OA
ATOM      3  N   UNL d   1      29.341 -14.199   1.832  0.00  0.00    -0.348 N 
ATOM      4  H   UNL d   1      28.987 -15.009   2.321  0.00  0.00     0.163 HD
ENDROOT
BRANCH   1   5
ATOM      5  C   UNL d   1      27.841 -14.665  -0.136  0.00  0.00     0.098 A 
ATOM      6  C   UNL d   1      27.315 -14.349  -1.332  0.00  0.00     0.112 A 
ATOM      7  N   UNL d   1      26.335 -15.045  -2.035  0.00  0.00    -0.355 N 
ATOM      8  C   UNL d   1      25.781 -16.224  -1.481  0.00  0.00     0.051 A 
ATOM      9  C   UNL d   1      24.787 -16.950  -2.155  0.00  0.00     0.070 C 
ATOM     10  C   UNL d   1      26.169 -16.666  -0.201  0.00  0.00     0.045 A 
ATOM     11  C   UNL d   1      24.045 -17.879  -1.480  0.00  0.00     0.107 A 
ATOM     12  C   UNL d   1      24.381 -18.296  -0.226  0.00  0.00     0.106 A 
ATOM     13  O   UNL d   1      22.907 -18.427  -1.975  0.00  0.00    -0.323 OA
ATOM     14  C   UNL d   1      25.499 -17.763   0.411  0.00  0.00     0.057 C 
ATOM     15  O   UNL d   1      23.489 -19.228   0.219  0.00  0.00    -0.323 OA
ATOM     16  C   UNL d   1      22.542 -19.287  -0.887  0.00  0.00     0.352 A 
ATOM     17  C   UNL d   1      27.259 -15.914   0.514  0.00  0.00     0.201 A 
ATOM     18  O   UNL d   1      27.626 -16.321   1.603  0.00  0.00    -0.286 OA
BRANCH   7  19
ATOM     19  C   UNL d   1      25.675 -14.511  -3.248  0.00  0.00     0.124 C 
ATOM     20  C   UNL d   1      26.324 -15.032  -4.538  0.00  0.00     0.027 C 
ENDBRANCH   7  19
ENDBRANCH   1   5
BRANCH   3  21
ATOM     21  C   UNL d   1      30.371 -13.415   2.537  0.00  0.00     0.225 C 
BRANCH  21  22
ATOM     22  C   UNL d   1      29.796 -12.214   3.337  0.00  0.00     0.237 C 
ATOM     23  O   UNL d   1      29.365 -11.219   2.750  0.00  0.00    -0.272 OA
ATOM     24  N   UNL d   1      29.624 -12.384   4.714  0.00  0.00    -0.348 N 
ATOM     25  C   UNL d   1      28.457 -11.826   5.410  0.00  0.00     0.145 C 
ATOM     26  C   UNL d   1      30.627 -12.942   5.625  0.00  0.00     0.145 C 
ATOM     27  C   UNL d   1      27.777 -12.942   6.266  0.00  0.00     0.144 C 
ATOM     28  N   UNL d   1      28.749 -13.591   7.177  0.00  0.00    -0.364 N 
ATOM     29  C   UNL d   1      30.004 -14.041   6.512  0.00  0.00     0.144 C 
BRANCH  28  30
ATOM     30  C   UNL d   1      28.627 -13.577   8.547  0.00  0.00     0.102 A 
ATOM     31  C   UNL d   1      28.531 -12.402   9.307  0.00  0.00     0.048 A 
ATOM     32  C   UNL d   1      28.598 -12.442  10.704  0.00  0.00     0.005 A 
ATOM     33  C   UNL d   1      28.678 -13.666  11.350  0.00  0.00     0.017 A 
ATOM     34  C   UNL d   1      28.667 -14.818  10.579  0.00  0.00     0.089 A 
ATOM     35  N   UNL d   1      28.680 -14.737   9.234  0.00  0.00    -0.352 N 
ATOM     36  H   UNL d   1      28.794 -15.588   8.692  0.00  0.00     0.166 HD
ENDBRANCH  28  30
ENDBRANCH  21  22
ENDBRANCH   3  21
TORSDOF 5
ENDMDL
MODEL 6
REMARK VINA RESULT:    -7.738      1.827      2.522
REMARK INTER + INTRA:         -10.671
REMARK INTER:                  -9.230
REMARK INTRA:                  -1.441
REMARK CONF_INDEPENDENT:        1.492
REMARK UNBOUND:                -1.441
REMARK  5 active torsions:
REMARK  status: ('A' for Active; 'I' for Inactive)
REMARK    1  A    between atoms: C_2  and  N_3 
REMARK    2  A    between atoms: C_5  and  C_6 
REMARK       I    between atoms: C_6  and  N_8 
REMARK    3  A    between atoms: N_8  and  C_9 
REMARK    4  A    between atoms: C_9  and  C_10 
REMARK       I    between atoms: C_10  and  N_12 
REMARK    5  A    between atoms: N_15  and  C_16 
ROOT
ATOM      1  C   UNL d   1      26.075 -14.727  -4.326  0.00  0.00     0.257 C 
ATOM      2  O   UNL d   1      24.954 -14.274  -4.533  0.00  0.00    -0.267 OA
ATOM      3  N   UNL d   1      26.251 -15.620  -3.275  0.00  0.00    -0.348 N 
ATOM      4  H   UNL d   1      27.151 -16.001  -3.022  0.00  0.00     0.163 HD
ENDROOT
BRANCH   1   5
ATOM      5  C   UNL d   1      27.271 -14.341  -5.188  0.00  0.00     0.098 A 
ATOM      6  C   UNL d   1      27.340 -13.201  -5.900  0.00  0.00     0.112 A 
ATOM      7  N   UNL d   1      28.394 -12.768  -6.699  0.00  0.00    -0.355 N 
ATOM      8  C   UNL d   1      29.552 -13.572  -6.829  0.00  0.00     0.051 A 
ATOM      9  C   UNL d   1      30.632 -13.173  -7.631  0.00  0.00     0.070 C 
ATOM     10  C   UNL d   1      29.622 -14.832  -6.204  0.00  0.00     0.045 A 
ATOM     11  C   UNL d   1      31.581 -14.086  -8.000  0.00  0.00     0.107 A 
ATOM     12  C   UNL d   1      31.647 -15.324  -7.434  0.00  0.00     0.106 A 
ATOM     13  O   UNL d   1      32.498 -13.855  -8.973  0.00  0.00    -0.323 OA
ATOM     14  C   UNL d   1      30.723 -15.699  -6.462  0.00  0.00     0.057 C 
ATOM     15  O   UNL d   1      32.683 -16.034  -7.968  0.00  0.00    -0.323 OA
ATOM     16  C   UNL d   1      33.203 -15.104  -8.962  0.00  0.00     0.352 A 
ATOM     17  C   UNL d   1      28.484 -15.254  -5.315  0.00  0.00     0.201 A 
ATOM     18  O   UNL d   1      28.563 -16.325  -4.739  0.00  0.00    -0.286 OA
BRANCH   7  19
ATOM     19  C   UNL d   1      28.297 -11.599  -7.603  0.00  0.00     0.124 C 
ATOM     20  C   UNL d   1      27.872 -11.996  -9.022  0.00  0.00     0.027 C 
ENDBRANCH   7  19
ENDBRANCH   1   5
BRANCH   3  21
ATOM     21  C   UNL d   1      25.111 -16.033  -2.435  0.00  0.00     0.225 C 
BRANCH  21  22
ATOM     22  C   UNL d   1      25.408 -17.280  -1.558  0.00  0.00     0.237 C 
ATOM     23  O   UNL d   1      26.550 -17.504  -1.154  0.00  0.00    -0.272 OA
ATOM     24  N   UNL d   1      24.312 -18.021  -1.106  0.00  0.00    -0.348 N 
ATOM     25  C   UNL d   1      24.289 -18.599   0.245  0.00  0.00     0.145 C 
ATOM     26  C   UNL d   1      23.190 -18.459  -1.939  0.00  0.00     0.145 C 
ATOM     27  C   UNL d   1      22.960 -18.200   0.961  0.00  0.00     0.144 C 
ATOM     28  N   UNL d   1      21.777 -18.566   0.146  0.00  0.00    -0.364 N 
ATOM     29  C   UNL d   1      21.844 -18.106  -1.270  0.00  0.00     0.144 C 
BRANCH  28  30
ATOM     30  C   UNL d   1      20.809 -19.446   0.571  0.00  0.00     0.102 A 
ATOM     31  C   UNL d   1      19.893 -20.069  -0.290  0.00  0.00     0.048 A 
ATOM     32  C   UNL d   1      18.817 -20.805   0.218  0.00  0.00     0.005 A 
ATOM     33  C   UNL d   1      18.699 -20.990   1.586  0.00  0.00     0.017 A 
ATOM     34  C   UNL d   1      19.676 -20.450   2.409  0.00  0.00     0.089 A 
ATOM     35  N   UNL d   1      20.655 -19.683   1.890  0.00  0.00    -0.352 N 
ATOM     36  H   UNL d   1      21.287 -19.200   2.522  0.00  0.00     0.166 HD
ENDBRANCH  28  30
ENDBRANCH  21  22
ENDBRANCH   3  21
TORSDOF 5
ENDMDL
MODEL 7
REMARK VINA RESULT:    -7.574      3.068      9.548
REMARK INTER + INTRA:         -10.592
REMARK INTER:                  -9.065
REMARK INTRA:                  -1.527
REMARK CONF_INDEPENDENT:        1.492
REMARK UNBOUND:                -1.527
REMARK  5 active torsions:
REMARK  status: ('A' for Active; 'I' for Inactive)
REMARK    1  A    between atoms: C_2  and  N_3 
REMARK    2  A    between atoms: C_5  and  C_6 
REMARK       I    between atoms: C_6  and  N_8 
REMARK    3  A    between atoms: N_8  and  C_9 
REMARK    4  A    between atoms: C_9  and  C_10 
REMARK       I    between atoms: C_10  and  N_12 
REMARK    5  A    between atoms: N_15  and  C_16 
ROOT
ATOM      1  C   UNL d   1      27.677 -13.371  -3.281  0.00  0.00     0.257 C 
ATOM      2  O   UNL d   1      28.791 -12.920  -3.039  0.00  0.00    -0.267 OA
ATOM      3  N   UNL d   1      26.953 -12.833  -4.339  0.00  0.00    -0.348 N 
ATOM      4  H   UNL d   1      26.015 -13.129  -4.570  0.00  0.00     0.163 HD
ENDROOT
BRANCH   1   5
ATOM      5  C   UNL d   1      27.073 -14.505  -2.460  0.00  0.00     0.098 A 
ATOM      6  C   UNL d   1      27.804 -15.374  -1.738  0.00  0.00     0.112 A 
ATOM      7  N   UNL d   1      27.335 -16.424  -0.954  0.00  0.00    -0.355 N 
ATOM      8  C   UNL d   1      25.943 -16.666  -0.868  0.00  0.00     0.051 A 
ATOM      9  C   UNL d   1      25.431 -17.720  -0.094  0.00  0.00     0.070 C 
ATOM     10  C   UNL d   1      25.033 -15.892  -1.614  0.00  0.00     0.045 A 
ATOM     11  C   UNL d   1      24.142 -18.136  -0.276  0.00  0.00     0.107 A 
ATOM     12  C   UNL d   1      23.253 -17.421  -1.022  0.00  0.00     0.106 A 
ATOM     13  O   UNL d   1      23.655 -19.297   0.230  0.00  0.00    -0.323 OA
ATOM     14  C   UNL d   1      23.652 -16.239  -1.640  0.00  0.00     0.057 C 
ATOM     15  O   UNL d   1      22.039 -18.044  -1.039  0.00  0.00    -0.323 OA
ATOM     16  C   UNL d   1      22.309 -19.247  -0.263  0.00  0.00     0.352 A 
ATOM     17  C   UNL d   1      25.569 -14.740  -2.419  0.00  0.00     0.201 A 
ATOM     18  O   UNL d   1      24.778 -14.042  -3.031  0.00  0.00    -0.286 OA
BRANCH   7  19
ATOM     19  C   UNL d   1      28.222 -17.450  -0.360  0.00  0.00     0.124 C 
ATOM     20  C   UNL d   1      29.637 -17.406  -0.951  0.00  0.00     0.027 C 
ENDBRANCH   7  19
ENDBRANCH   1   5
BRANCH   3  21
ATOM     21  C   UNL d   1      27.517 -11.753  -5.169  0.00  0.00     0.225 C 
BRANCH  21  22
ATOM     22  C   UNL d   1      28.130 -12.254  -6.505  0.00  0.00     0.237 C 
ATOM     23  O   UNL d   1      28.356 -11.465  -7.425  0.00  0.00    -0.272 OA
ATOM     24  N   UNL d   1      28.574 -13.578  -6.550  0.00  0.00    -0.348 N 
ATOM     25  C   UNL d   1      29.801 -13.945  -7.270  0.00  0.00     0.145 C 
ATOM     26  C   UNL d   1      27.814 -14.738  -6.077  0.00  0.00     0.145 C 
ATOM     27  C   UNL d   1      30.724 -14.788  -6.334  0.00  0.00     0.144 C 
ATOM     28  N   UNL d   1      30.001 -15.955  -5.772  0.00  0.00    -0.364 N 
ATOM     29  C   UNL d   1      28.685 -15.621  -5.158  0.00  0.00     0.144 C 
BRANCH  28  30
ATOM     30  C   UNL d   1      30.380 -17.258  -5.996  0.00  0.00     0.102 A 
ATOM     31  C   UNL d   1      30.910 -17.717  -7.211  0.00  0.00     0.048 A 
ATOM     32  C   UNL d   1      31.101 -19.083  -7.441  0.00  0.00     0.005 A 
ATOM     33  C   UNL d   1      30.841 -19.991  -6.426  0.00  0.00     0.017 A 
ATOM     34  C   UNL d   1      30.417 -19.502  -5.200  0.00  0.00     0.089 A 
ATOM     35  N   UNL d   1      30.171 -18.187  -5.040  0.00  0.00    -0.352 N 
ATOM     36  H   UNL d   1      29.746 -17.869  -4.174  0.00  0.00     0.166 HD
ENDBRANCH  28  30
ENDBRANCH  21  22
ENDBRANCH   3  21
TORSDOF 5
ENDMDL
MODEL 8
REMARK VINA RESULT:    -7.312      4.533      9.621
REMARK INTER + INTRA:         -10.460
REMARK INTER:                  -8.803
REMARK INTRA:                  -1.656
REMARK CONF_INDEPENDENT:        1.492
REMARK UNBOUND:                -1.656
REMARK  5 active torsions:
REMARK  status: ('A' for Active; 'I' for Inactive)
REMARK    1  A    between atoms: C_2  and  N_3 
REMARK    2  A    between atoms: C_5  and  C_6 
REMARK       I    between atoms: C_6  and  N_8 
REMARK    3  A    between atoms: N_8  and  C_9 
REMARK    4  A    between atoms: C_9  and  C_10 
REMARK       I    between atoms: C_10  and  N_12 
REMARK    5  A    between atoms: N_15  and  C_16 
ROOT
ATOM      1  C   UNL d   1      29.702 -15.956  -0.519  0.00  0.00     0.257 C 
ATOM      2  O   UNL d   1      30.344 -14.996  -0.933  0.00  0.00    -0.267 OA
ATOM      3  N   UNL d   1      30.358 -16.922   0.235  0.00  0.00    -0.348 N 
ATOM      4  H   UNL d   1      29.902 -17.758   0.574  0.00  0.00     0.163 HD
ENDROOT
BRANCH   1   5
ATOM      5  C   UNL d   1      28.213 -16.111  -0.803  0.00  0.00     0.098 A 
ATOM      6  C   UNL d   1      27.474 -15.181  -1.435  0.00  0.00     0.112 A 
ATOM      7  N   UNL d   1      26.118 -15.247  -1.745  0.00  0.00    -0.355 N 
ATOM      8  C   UNL d   1      25.371 -16.391  -1.376  0.00  0.00     0.051 A 
ATOM      9  C   UNL d   1      24.000 -16.492  -1.665  0.00  0.00     0.070 C 
ATOM     10  C   UNL d   1      25.971 -17.435  -0.646  0.00  0.00     0.045 A 
ATOM     11  C   UNL d   1      23.238 -17.432  -1.028  0.00  0.00     0.107 A 
ATOM     12  C   UNL d   1      23.795 -18.431  -0.288  0.00  0.00     0.106 A 
ATOM     13  O   UNL d   1      21.881 -17.427  -1.047  0.00  0.00    -0.323 OA
ATOM     14  C   UNL d   1      25.179 -18.508  -0.148  0.00  0.00     0.057 C 
ATOM     15  O   UNL d   1      22.823 -19.237   0.230  0.00  0.00    -0.323 OA
ATOM     16  C   UNL d   1      21.609 -18.578  -0.235  0.00  0.00     0.352 A 
ATOM     17  C   UNL d   1      27.447 -17.351  -0.363  0.00  0.00     0.201 A 
ATOM     18  O   UNL d   1      27.977 -18.275   0.231  0.00  0.00    -0.286 OA
BRANCH   7  19
ATOM     19  C   UNL d   1      25.348 -14.092  -2.260  0.00  0.00     0.124 C 
ATOM     20  C   UNL d   1      25.134 -14.168  -3.778  0.00  0.00     0.027 C 
ENDBRANCH   7  19
ENDBRANCH   1   5
BRANCH   3  21
ATOM     21  C   UNL d   1      31.792 -16.792   0.550  0.00  0.00     0.225 C 
BRANCH  21  22
ATOM     22  C   UNL d   1      32.694 -17.776  -0.245  0.00  0.00     0.237 C 
ATOM     23  O   UNL d   1      33.513 -18.487   0.341  0.00  0.00    -0.272 OA
ATOM     24  N   UNL d   1      32.414 -17.947  -1.603  0.00  0.00    -0.348 N 
ATOM     25  C   UNL d   1      32.517 -19.267  -2.241  0.00  0.00     0.145 C 
ATOM     26  C   UNL d   1      32.182 -16.862  -2.559  0.00  0.00     0.145 C 
ATOM     27  C   UNL d   1      31.201 -19.574  -3.023  0.00  0.00     0.144 C 
ATOM     28  N   UNL d   1      30.873 -18.486  -3.975  0.00  0.00    -0.364 N 
ATOM     29  C   UNL d   1      30.899 -17.121  -3.377  0.00  0.00     0.144 C 
BRANCH  28  30
ATOM     30  C   UNL d   1      30.783 -18.673  -5.335  0.00  0.00     0.102 A 
ATOM     31  C   UNL d   1      30.429 -19.893  -5.931  0.00  0.00     0.048 A 
ATOM     32  C   UNL d   1      30.536 -20.074  -7.314  0.00  0.00     0.005 A 
ATOM     33  C   UNL d   1      30.919 -19.011  -8.116  0.00  0.00     0.017 A 
ATOM     34  C   UNL d   1      31.163 -17.787  -7.513  0.00  0.00     0.089 A 
ATOM     35  N   UNL d   1      31.125 -17.670  -6.171  0.00  0.00    -0.352 N 
ATOM     36  H   UNL d   1      31.424 -16.798  -5.745  0.00  0.00     0.166 HD
ENDBRANCH  28  30
ENDBRANCH  21  22
ENDBRANCH   3  21
TORSDOF 5
ENDMDL
MODEL 9
REMARK VINA RESULT:    -7.213      2.904      9.580
REMARK INTER + INTRA:         -10.405
REMARK INTER:                  -8.704
REMARK INTRA:                  -1.701
REMARK CONF_INDEPENDENT:        1.492
REMARK UNBOUND:                -1.701
REMARK  5 active torsions:
REMARK  status: ('A' for Active; 'I' for Inactive)
REMARK    1  A    between atoms: C_2  and  N_3 
REMARK    2  A    between atoms: C_5  and  C_6 
REMARK       I    between atoms: C_6  and  N_8 
REMARK    3  A    between atoms: N_8  and  C_9 
REMARK    4  A    between atoms: C_9  and  C_10 
REMARK       I    between atoms: C_10  and  N_12 
REMARK    5  A    between atoms: N_15  and  C_16 
ROOT
ATOM      1  C   UNL d   1      28.096 -14.093  -4.510  0.00  0.00     0.257 C 
ATOM      2  O   UNL d   1      29.278 -13.765  -4.502  0.00  0.00    -0.267 OA
ATOM      3  N   UNL d   1      27.300 -13.695  -5.578  0.00  0.00    -0.348 N 
ATOM      4  H   UNL d   1      26.311 -13.895  -5.631  0.00  0.00     0.163 HD
ENDROOT
BRANCH   1   5
ATOM      5  C   UNL d   1      27.484 -14.923  -3.388  0.00  0.00     0.098 A 
ATOM      6  C   UNL d   1      28.210 -15.627  -2.501  0.00  0.00     0.112 A 
ATOM      7  N   UNL d   1      27.735 -16.398  -1.443  0.00  0.00    -0.355 N 
ATOM      8  C   UNL d   1      26.341 -16.503  -1.224  0.00  0.00     0.051 A 
ATOM      9  C   UNL d   1      25.823 -17.276  -0.173  0.00  0.00     0.070 C 
ATOM     10  C   UNL d   1      25.429 -15.884  -2.101  0.00  0.00     0.045 A 
ATOM     11  C   UNL d   1      24.501 -17.627  -0.172  0.00  0.00     0.107 A 
ATOM     12  C   UNL d   1      23.607 -17.066  -1.034  0.00  0.00     0.106 A 
ATOM     13  O   UNL d   1      23.983 -18.575   0.648  0.00  0.00    -0.323 OA
ATOM     14  C   UNL d   1      24.031 -16.119  -1.963  0.00  0.00     0.057 C 
ATOM     15  O   UNL d   1      22.360 -17.577  -0.823  0.00  0.00    -0.323 OA
ATOM     16  C   UNL d   1      22.611 -18.553   0.230  0.00  0.00     0.352 A 
ATOM     17  C   UNL d   1      25.975 -15.025  -3.209  0.00  0.00     0.201 A 
ATOM     18  O   UNL d   1      25.186 -14.453  -3.942  0.00  0.00    -0.286 OA
BRANCH   7  19
ATOM     19  C   UNL d   1      28.599 -17.298  -0.645  0.00  0.00     0.124 C 
ATOM     20  C   UNL d   1      30.047 -17.312  -1.152  0.00  0.00     0.027 C 
ENDBRANCH   7  19
ENDBRANCH   1   5
BRANCH   3  21
ATOM     21  C   UNL d   1      27.864 -12.912  -6.692  0.00  0.00     0.225 C 
BRANCH  21  22
ATOM     22  C   UNL d   1      27.291 -11.472  -6.791  0.00  0.00     0.237 C 
ATOM     23  O   UNL d   1      26.774 -11.074  -7.836  0.00  0.00    -0.272 OA
ATOM     24  N   UNL d   1      27.225 -10.726  -5.610  0.00  0.00    -0.348 N 
ATOM     25  C   UNL d   1      26.085  -9.843  -5.331  0.00  0.00     0.145 C 
ATOM     26  C   UNL d   1      28.314 -10.587  -4.640  0.00  0.00     0.145 C 
ATOM     27  C   UNL d   1      25.519 -10.153  -3.909  0.00  0.00     0.144 C 
ATOM     28  N   UNL d   1      26.582 -10.083  -2.878  0.00  0.00    -0.364 N 
ATOM     29  C   UNL d   1      27.807 -10.866  -3.209  0.00  0.00     0.144 C 
BRANCH  28  30
ATOM     30  C   UNL d   1      26.556  -9.201  -1.824  0.00  0.00     0.102 A 
ATOM     31  C   UNL d   1      27.529  -9.167  -0.814  0.00  0.00     0.048 A 
ATOM     32  C   UNL d   1      27.352  -8.378   0.328  0.00  0.00     0.005 A 
ATOM     33  C   UNL d   1      26.240  -7.556   0.426  0.00  0.00     0.017 A 
ATOM     34  C   UNL d   1      25.346  -7.531  -0.633  0.00  0.00     0.089 A 
ATOM     35  N   UNL d   1      25.509  -8.362  -1.681  0.00  0.00    -0.352 N 
ATOM     36  H   UNL d   1      24.779  -8.412  -2.386  0.00  0.00     0.166 HD
ENDBRANCH  28  30
ENDBRANCH  21  22
ENDBRANCH   3  21
TORSDOF 5
ENDMDL
