MODEL 1
REMARK VINA RESULT:    -9.276      0.000      0.000
REMARK INTER + INTRA:         -12.466
REMARK INTER:                 -11.364
REMARK INTRA:                  -1.102
REMARK CONF_INDEPENDENT:        2.088
REMARK UNBOUND:                -1.102
REMARK  7 active torsions:
REMARK  status: ('A' for Active; 'I' for Inactive)
REMARK    1  A    between atoms: C_7  and  O_8 
REMARK    2  A    between atoms: O_8  and  C_9 
REMARK    3  A    between atoms: C_9  and  C_10 
REMARK       I    between atoms: C_10  and  N_12 
REMARK    4  A    between atoms: N_12  and  N_13 
REMARK       I    between atoms: N_13  and  C_14 
REMARK       I    between atoms: C_14  and  N_16 
REMARK    5  A    between atoms: N_16  and  C_17 
REMARK    6  A    between atoms: C_17  and  C_18 
REMARK    7  A    between atoms: C_21  and  N_22 
ROOT
ATOM      1  N   UNL d   1      27.537 -14.524   1.818  0.00  0.00    -0.249 N 
ATOM      2  C   UNL d   1      27.216 -15.544   0.931  0.00  0.00     0.335 C 
ATOM      3  O   UNL d   1      27.684 -16.682   1.016  0.00  0.00    -0.246 OA
ATOM      4  N   UNL d   1      26.323 -15.180  -0.061  0.00  0.00    -0.337 N 
ATOM      5  H   UNL d   1      27.164 -13.578   1.773  0.00  0.00     0.192 HD
ATOM      6  H   UNL d   1      26.011 -14.224  -0.042  0.00  0.00     0.164 HD
ENDROOT
BRANCH   1   7
ATOM      7  N   UNL d   1      28.455 -14.761   2.902  0.00  0.00    -0.264 N 
ATOM      8  C   UNL d   1      28.117 -14.333   4.190  0.00  0.00     0.260 C 
ATOM      9  O   UNL d   1      27.042 -13.762   4.395  0.00  0.00    -0.269 OA
ATOM     10  H   UNL d   1      29.322 -15.238   2.660  0.00  0.00     0.190 HD
BRANCH   8  11
ATOM     11  C   UNL d   1      29.160 -14.623   5.315  0.00  0.00     0.280 C 
BRANCH  11  12
ATOM     12  O   UNL d   1      29.334 -13.500   6.194  0.00  0.00    -0.342 OA
BRANCH  12  13
ATOM     13  C   UNL d   1      29.600 -13.729   7.523  0.00  0.00     0.070 A 
ATOM     14  C   UNL d   1      28.625 -13.297   8.438  0.00  0.00     0.043 A 
ATOM     15  C   UNL d   1      28.785 -13.474   9.827  0.00  0.00    -0.059 A 
ATOM     16  C   UNL d   1      29.948 -14.092  10.301  0.00  0.00     0.013 A 
ATOM     17  C   UNL d   1      27.722 -13.002  10.781  0.00  0.00     0.048 C 
ATOM     18  C   UNL d   1      30.929 -14.533   9.403  0.00  0.00    -0.059 A 
ATOM     19  C   UNL d   1      32.177 -15.208   9.892  0.00  0.00     0.048 C 
ATOM     20  C   UNL d   1      30.745 -14.348   8.019  0.00  0.00     0.043 A 
ENDBRANCH  12  13
ENDBRANCH  11  12
ENDBRANCH   8  11
ENDBRANCH   1   7
BRANCH   4  21
ATOM     21  C   UNL d   1      25.852 -16.108  -1.102  0.00  0.00     0.164 C 
BRANCH  21  22
ATOM     22  C   UNL d   1      24.573 -16.898  -0.793  0.00  0.00    -0.025 A 
ATOM     23  C   UNL d   1      23.295 -16.354  -0.915  0.00  0.00     0.014 A 
ATOM     24  C   UNL d   1      22.153 -17.106  -0.611  0.00  0.00     0.049 A 
ATOM     25  C   UNL d   1      22.259 -18.425  -0.160  0.00  0.00     0.102 A 
ATOM     26  N   UNL d   1      23.504 -18.920  -0.048  0.00  0.00    -0.352 N 
ATOM     27  C   UNL d   1      24.630 -18.232  -0.350  0.00  0.00     0.098 A 
ATOM     28  H   UNL d   1      23.560 -19.899   0.226  0.00  0.00     0.166 HD
BRANCH  25  29
ATOM     29  N   UNL d   1      21.191 -19.252   0.044  0.00  0.00    -0.367 N 
ATOM     30  C   UNL d   1      20.340 -19.701  -1.062  0.00  0.00     0.124 C 
ATOM     31  C   UNL d   1      18.930 -19.641  -0.498  0.00  0.00     0.021 C 
ATOM     32  C   UNL d   1      19.126 -20.051   0.953  0.00  0.00     0.021 C 
ATOM     33  C   UNL d   1      20.526 -19.523   1.328  0.00  0.00     0.124 C 
ENDBRANCH  25  29
ENDBRANCH  21  22
ENDBRANCH   4  21
TORSDOF 7
ENDMDL
MODEL 2
REMARK VINA RESULT:    -8.843      1.069      1.667
REMARK INTER + INTRA:         -12.450
REMARK INTER:                 -10.931
REMARK INTRA:                  -1.519
REMARK CONF_INDEPENDENT:        2.088
REMARK UNBOUND:                -1.519
REMARK  7 active torsions:
REMARK  status: ('A' for Active; 'I' for Inactive)
REMARK    1  A    between atoms: C_7  and  O_8 
REMARK    2  A    between atoms: O_8  and  C_9 
REMARK    3  A    between atoms: C_9  and  C_10 
REMARK       I    between atoms: C_10  and  N_12 
REMARK    4  A    between atoms: N_12  and  N_13 
REMARK       I    between atoms: N_13  and  C_14 
REMARK       I    between atoms: C_14  and  N_16 
REMARK    5  A    between atoms: N_16  and  C_17 
REMARK    6  A    between atoms: C_17  and  C_18 
REMARK    7  A    between atoms: C_21  and  N_22 
ROOT
ATOM      1  N   UNL d   1      27.582 -14.520   1.929  0.00  0.00    -0.249 N 
ATOM      2  C   UNL d   1      27.289 -15.405   0.899  0.00  0.00     0.335 C 
ATOM      3  O   UNL d   1      27.950 -16.421   0.676  0.00  0.00    -0.246 OA
ATOM      4  N   UNL d   1      26.187 -15.054   0.140  0.00  0.00    -0.337 N 
ATOM      5  H   UNL d   1      27.053 -13.676   2.137  0.00  0.00     0.192 HD
ATOM      6  H   UNL d   1      25.726 -14.200   0.403  0.00  0.00     0.164 HD
ENDROOT
BRANCH   1   7
ATOM      7  N   UNL d   1      28.703 -14.760   2.801  0.00  0.00    -0.264 N 
ATOM      8  C   UNL d   1      28.779 -14.078   4.020  0.00  0.00     0.260 C 
ATOM      9  O   UNL d   1      27.895 -13.281   4.344  0.00  0.00    -0.269 OA
ATOM     10  H   UNL d   1      29.394 -15.430   2.469  0.00  0.00     0.190 HD
BRANCH   8  11
ATOM     11  C   UNL d   1      30.021 -14.388   4.913  0.00  0.00     0.280 C 
BRANCH  11  12
ATOM     12  O   UNL d   1      29.651 -14.716   6.262  0.00  0.00    -0.342 OA
BRANCH  12  13
ATOM     13  C   UNL d   1      29.351 -13.699   7.137  0.00  0.00     0.070 A 
ATOM     14  C   UNL d   1      28.903 -14.084   8.411  0.00  0.00     0.043 A 
ATOM     15  C   UNL d   1      28.564 -13.132   9.394  0.00  0.00    -0.059 A 
ATOM     16  C   UNL d   1      28.673 -11.772   9.085  0.00  0.00     0.013 A 
ATOM     17  C   UNL d   1      28.088 -13.577  10.750  0.00  0.00     0.048 C 
ATOM     18  C   UNL d   1      29.121 -11.369   7.821  0.00  0.00    -0.059 A 
ATOM     19  C   UNL d   1      29.256  -9.915   7.476  0.00  0.00     0.048 C 
ATOM     20  C   UNL d   1      29.459 -12.338   6.856  0.00  0.00     0.043 A 
ENDBRANCH  12  13
ENDBRANCH  11  12
ENDBRANCH   8  11
ENDBRANCH   1   7
BRANCH   4  21
ATOM     21  C   UNL d   1      25.705 -15.853  -0.999  0.00  0.00     0.164 C 
BRANCH  21  22
ATOM     22  C   UNL d   1      24.459 -16.715  -0.756  0.00  0.00    -0.025 A 
ATOM     23  C   UNL d   1      23.178 -16.327  -1.145  0.00  0.00     0.014 A 
ATOM     24  C   UNL d   1      22.064 -17.139  -0.893  0.00  0.00     0.049 A 
ATOM     25  C   UNL d   1      22.201 -18.362  -0.230  0.00  0.00     0.102 A 
ATOM     26  N   UNL d   1      23.448 -18.707   0.137  0.00  0.00    -0.352 N 
ATOM     27  C   UNL d   1      24.550 -17.959  -0.105  0.00  0.00     0.098 A 
ATOM     28  H   UNL d   1      23.536 -19.625   0.567  0.00  0.00     0.166 HD
BRANCH  25  29
ATOM     29  N   UNL d   1      21.182 -19.255  -0.053  0.00  0.00    -0.367 N 
ATOM     30  C   UNL d   1      20.295 -19.641  -1.154  0.00  0.00     0.124 C 
ATOM     31  C   UNL d   1      18.914 -19.701  -0.520  0.00  0.00     0.021 C 
ATOM     32  C   UNL d   1      19.205 -20.233   0.875  0.00  0.00     0.021 C 
ATOM     33  C   UNL d   1      20.598 -19.675   1.230  0.00  0.00     0.124 C 
ENDBRANCH  25  29
ENDBRANCH  21  22
ENDBRANCH   4  21
TORSDOF 7
ENDMDL
MODEL 3
REMARK VINA RESULT:    -8.656      1.140      2.146
REMARK INTER + INTRA:         -12.303
REMARK INTER:                 -10.744
REMARK INTRA:                  -1.559
REMARK CONF_INDEPENDENT:        2.088
REMARK UNBOUND:                -1.559
REMARK  7 active torsions:
REMARK  status: ('A' for Active; 'I' for Inactive)
REMARK    1  A    between atoms: C_7  and  O_8 
REMARK    2  A    between atoms: O_8  and  C_9 
REMARK    3  A    between atoms: C_9  and  C_10 
REMARK       I    between atoms: C_10  and  N_12 
REMARK    4  A    between atoms: N_12  and  N_13 
REMARK       I    between atoms: N_13  and  C_14 
REMARK       I    between atoms: C_14  and  N_16 
REMARK    5  A    between atoms: N_16  and  C_17 
REMARK    6  A    between atoms: C_17  and  C_18 
REMARK    7  A    between atoms: C_21  and  N_22 
ROOT
ATOM      1  N   UNL d   1      28.039 -14.840   2.750  0.00  0.00    -0.249 N 
ATOM      2  C   UNL d   1      27.312 -14.925   1.569  0.00  0.00     0.335 C 
ATOM      3  O   UNL d   1      26.511 -14.061   1.208  0.00  0.00    -0.246 OA
ATOM      4  N   UNL d   1      27.561 -16.065   0.826  0.00  0.00    -0.337 N 
ATOM      5  H   UNL d   1      28.708 -15.537   3.072  0.00  0.00     0.192 HD
ATOM      6  H   UNL d   1      28.227 -16.709   1.217  0.00  0.00     0.164 HD
ENDROOT
BRANCH   1   7
ATOM      7  N   UNL d   1      27.881 -13.707   3.625  0.00  0.00    -0.264 N 
ATOM      8  C   UNL d   1      28.319 -13.799   4.949  0.00  0.00     0.260 C 
ATOM      9  O   UNL d   1      28.838 -14.840   5.363  0.00  0.00    -0.269 OA
ATOM     10  H   UNL d   1      27.445 -12.882   3.216  0.00  0.00     0.190 HD
BRANCH   8  11
ATOM     11  C   UNL d   1      28.115 -12.533   5.839  0.00  0.00     0.280 C 
BRANCH  11  12
ATOM     12  O   UNL d   1      29.226 -12.305   6.721  0.00  0.00    -0.342 OA
BRANCH  12  13
ATOM     13  C   UNL d   1      29.239 -12.920   7.950  0.00  0.00     0.070 A 
ATOM     14  C   UNL d   1      30.283 -13.832   8.181  0.00  0.00     0.043 A 
ATOM     15  C   UNL d   1      30.401 -14.526   9.402  0.00  0.00    -0.059 A 
ATOM     16  C   UNL d   1      29.450 -14.301  10.403  0.00  0.00     0.013 A 
ATOM     17  C   UNL d   1      31.531 -15.496   9.618  0.00  0.00     0.048 C 
ATOM     18  C   UNL d   1      28.405 -13.393  10.193  0.00  0.00    -0.059 A 
ATOM     19  C   UNL d   1      27.383 -13.130  11.259  0.00  0.00     0.048 C 
ATOM     20  C   UNL d   1      28.309 -12.708   8.966  0.00  0.00     0.043 A 
ENDBRANCH  12  13
ENDBRANCH  11  12
ENDBRANCH   8  11
ENDBRANCH   1   7
BRANCH   4  21
ATOM     21  C   UNL d   1      26.897 -16.351  -0.457  0.00  0.00     0.164 C 
BRANCH  21  22
ATOM     22  C   UNL d   1      25.454 -16.869  -0.385  0.00  0.00    -0.025 A 
ATOM     23  C   UNL d   1      24.372 -16.183  -0.933  0.00  0.00     0.014 A 
ATOM     24  C   UNL d   1      23.068 -16.685  -0.834  0.00  0.00     0.049 A 
ATOM     25  C   UNL d   1      22.808 -17.886  -0.168  0.00  0.00     0.102 A 
ATOM     26  N   UNL d   1      23.871 -18.523   0.354  0.00  0.00    -0.352 N 
ATOM     27  C   UNL d   1      25.147 -18.079   0.263  0.00  0.00     0.098 A 
ATOM     28  H   UNL d   1      23.671 -19.422   0.785  0.00  0.00     0.166 HD
BRANCH  25  29
ATOM     29  N   UNL d   1      21.583 -18.492  -0.132  0.00  0.00    -0.367 N 
ATOM     30  C   UNL d   1      20.986 -18.952   1.124  0.00  0.00     0.124 C 
ATOM     31  C   UNL d   1      20.353 -20.288   0.772  0.00  0.00     0.021 C 
ATOM     32  C   UNL d   1      19.852 -20.062  -0.647  0.00  0.00     0.021 C 
ATOM     33  C   UNL d   1      20.865 -19.081  -1.273  0.00  0.00     0.124 C 
ENDBRANCH  25  29
ENDBRANCH  21  22
ENDBRANCH   4  21
TORSDOF 7
ENDMDL
MODEL 4
REMARK VINA RESULT:    -8.631      1.922      2.717
REMARK INTER + INTRA:         -11.836
REMARK INTER:                 -10.720
REMARK INTRA:                  -1.117
REMARK CONF_INDEPENDENT:        2.088
REMARK UNBOUND:                -1.117
REMARK  7 active torsions:
REMARK  status: ('A' for Active; 'I' for Inactive)
REMARK    1  A    between atoms: C_7  and  O_8 
REMARK    2  A    between atoms: O_8  and  C_9 
REMARK    3  A    between atoms: C_9  and  C_10 
REMARK       I    between atoms: C_10  and  N_12 
REMARK    4  A    between atoms: N_12  and  N_13 
REMARK       I    between atoms: N_13  and  C_14 
REMARK       I    between atoms: C_14  and  N_16 
REMARK    5  A    between atoms: N_16  and  C_17 
REMARK    6  A    between atoms: C_17  and  C_18 
REMARK    7  A    between atoms: C_21  and  N_22 
ROOT
ATOM      1  N   UNL d   1      27.617 -14.801   1.224  0.00  0.00    -0.249 N 
ATOM      2  C   UNL d   1      27.116 -15.922   0.573  0.00  0.00     0.335 C 
ATOM      3  O   UNL d   1      27.174 -17.058   1.048  0.00  0.00    -0.246 OA
ATOM      4  N   UNL d   1      26.544 -15.659  -0.659  0.00  0.00    -0.337 N 
ATOM      5  H   UNL d   1      27.581 -13.852   0.856  0.00  0.00     0.192 HD
ATOM      6  H   UNL d   1      26.558 -14.698  -0.955  0.00  0.00     0.164 HD
ENDROOT
BRANCH   1   7
ATOM      7  N   UNL d   1      28.241 -14.925   2.515  0.00  0.00    -0.264 N 
ATOM      8  C   UNL d   1      27.755 -14.167   3.585  0.00  0.00     0.260 C 
ATOM      9  O   UNL d   1      26.800 -13.403   3.424  0.00  0.00    -0.269 OA
ATOM     10  H   UNL d   1      29.024 -15.575   2.575  0.00  0.00     0.190 HD
BRANCH   8  11
ATOM     11  C   UNL d   1      28.481 -14.353   4.955  0.00  0.00     0.280 C 
BRANCH  11  12
ATOM     12  O   UNL d   1      27.820 -13.647   6.018  0.00  0.00    -0.342 OA
BRANCH  12  13
ATOM     13  C   UNL d   1      28.274 -12.399   6.372  0.00  0.00     0.070 A 
ATOM     14  C   UNL d   1      28.106 -11.380   5.419  0.00  0.00     0.043 A 
ATOM     15  C   UNL d   1      28.533 -10.060   5.666  0.00  0.00    -0.059 A 
ATOM     16  C   UNL d   1      29.142  -9.763   6.891  0.00  0.00     0.013 A 
ATOM     17  C   UNL d   1      28.338  -8.991   4.626  0.00  0.00     0.048 C 
ATOM     18  C   UNL d   1      29.314 -10.765   7.855  0.00  0.00    -0.059 A 
ATOM     19  C   UNL d   1      29.954 -10.463   9.178  0.00  0.00     0.048 C 
ATOM     20  C   UNL d   1      28.876 -12.076   7.587  0.00  0.00     0.043 A 
ENDBRANCH  12  13
ENDBRANCH  11  12
ENDBRANCH   8  11
ENDBRANCH   1   7
BRANCH   4  21
ATOM     21  C   UNL d   1      25.954 -16.704  -1.513  0.00  0.00     0.164 C 
BRANCH  21  22
ATOM     22  C   UNL d   1      24.568 -17.224  -1.108  0.00  0.00    -0.025 A 
ATOM     23  C   UNL d   1      23.400 -16.481  -1.269  0.00  0.00     0.014 A 
ATOM     24  C   UNL d   1      22.155 -16.989  -0.874  0.00  0.00     0.049 A 
ATOM     25  C   UNL d   1      22.047 -18.254  -0.291  0.00  0.00     0.102 A 
ATOM     26  N   UNL d   1      23.191 -18.945  -0.143  0.00  0.00    -0.352 N 
ATOM     27  C   UNL d   1      24.409 -18.496  -0.529  0.00  0.00     0.098 A 
ATOM     28  H   UNL d   1      23.086 -19.885   0.230  0.00  0.00     0.166 HD
BRANCH  25  29
ATOM     29  N   UNL d   1      20.859 -18.858   0.012  0.00  0.00    -0.367 N 
ATOM     30  C   UNL d   1      20.553 -19.325   1.366  0.00  0.00     0.124 C 
ATOM     31  C   UNL d   1      19.853 -20.658   1.155  0.00  0.00     0.021 C 
ATOM     32  C   UNL d   1      19.051 -20.421  -0.117  0.00  0.00     0.021 C 
ATOM     33  C   UNL d   1      19.903 -19.438  -0.945  0.00  0.00     0.124 C 
ENDBRANCH  25  29
ENDBRANCH  21  22
ENDBRANCH   4  21
TORSDOF 7
ENDMDL
MODEL 5
REMARK VINA RESULT:    -8.503      6.686     10.322
REMARK INTER + INTRA:         -12.213
REMARK INTER:                 -10.591
REMARK INTRA:                  -1.622
REMARK CONF_INDEPENDENT:        2.088
REMARK UNBOUND:                -1.622
REMARK  7 active torsions:
REMARK  status: ('A' for Active; 'I' for Inactive)
REMARK    1  A    between atoms: C_7  and  O_8 
REMARK    2  A    between atoms: O_8  and  C_9 
REMARK    3  A    between atoms: C_9  and  C_10 
REMARK       I    between atoms: C_10  and  N_12 
REMARK    4  A    between atoms: N_12  and  N_13 
REMARK       I    between atoms: N_13  and  C_14 
REMARK       I    between atoms: C_14  and  N_16 
REMARK    5  A    between atoms: N_16  and  C_17 
REMARK    6  A    between atoms: C_17  and  C_18 
REMARK    7  A    between atoms: C_21  and  N_22 
ROOT
ATOM      1  N   UNL d   1      27.671 -15.554  -4.059  0.00  0.00    -0.249 N 
ATOM      2  C   UNL d   1      27.543 -15.820  -2.701  0.00  0.00     0.335 C 
ATOM      3  O   UNL d   1      28.508 -15.923  -1.941  0.00  0.00    -0.246 OA
ATOM      4  N   UNL d   1      26.237 -15.960  -2.266  0.00  0.00    -0.337 N 
ATOM      5  H   UNL d   1      26.892 -15.461  -4.708  0.00  0.00     0.192 HD
ATOM      6  H   UNL d   1      25.526 -15.866  -2.972  0.00  0.00     0.164 HD
ENDROOT
BRANCH   1   7
ATOM      7  N   UNL d   1      28.973 -15.383  -4.649  0.00  0.00    -0.264 N 
ATOM      8  C   UNL d   1      29.079 -15.215  -6.034  0.00  0.00     0.260 C 
ATOM      9  O   UNL d   1      28.067 -15.210  -6.740  0.00  0.00    -0.269 OA
ATOM     10  H   UNL d   1      29.763 -15.397  -4.007  0.00  0.00     0.190 HD
BRANCH   8  11
ATOM     11  C   UNL d   1      30.521 -15.037  -6.604  0.00  0.00     0.280 C 
BRANCH  11  12
ATOM     12  O   UNL d   1      30.827 -16.008  -7.618  0.00  0.00    -0.342 OA
BRANCH  12  13
ATOM     13  C   UNL d   1      30.924 -17.333  -7.264  0.00  0.00     0.070 A 
ATOM     14  C   UNL d   1      31.172 -18.241  -8.307  0.00  0.00     0.043 A 
ATOM     15  C   UNL d   1      31.290 -19.625  -8.069  0.00  0.00    -0.059 A 
ATOM     16  C   UNL d   1      31.151 -20.101  -6.761  0.00  0.00     0.013 A 
ATOM     17  C   UNL d   1      31.557 -20.572  -9.207  0.00  0.00     0.048 C 
ATOM     18  C   UNL d   1      30.908 -19.210  -5.707  0.00  0.00    -0.059 A 
ATOM     19  C   UNL d   1      30.768 -19.702  -4.296  0.00  0.00     0.048 C 
ATOM     20  C   UNL d   1      30.797 -17.831  -5.969  0.00  0.00     0.043 A 
ENDBRANCH  12  13
ENDBRANCH  11  12
ENDBRANCH   8  11
ENDBRANCH   1   7
BRANCH   4  21
ATOM     21  C   UNL d   1      25.879 -16.245  -0.867  0.00  0.00     0.164 C 
BRANCH  21  22
ATOM     22  C   UNL d   1      24.580 -17.027  -0.634  0.00  0.00    -0.025 A 
ATOM     23  C   UNL d   1      23.314 -16.465  -0.792  0.00  0.00     0.014 A 
ATOM     24  C   UNL d   1      22.153 -17.211  -0.557  0.00  0.00     0.049 A 
ATOM     25  C   UNL d   1      22.226 -18.544  -0.141  0.00  0.00     0.102 A 
ATOM     26  N   UNL d   1      23.460 -19.058   0.007  0.00  0.00    -0.352 N 
ATOM     27  C   UNL d   1      24.604 -18.374  -0.228  0.00  0.00     0.098 A 
ATOM     28  H   UNL d   1      23.493 -20.044   0.254  0.00  0.00     0.166 HD
BRANCH  25  29
ATOM     29  N   UNL d   1      21.140 -19.364  -0.005  0.00  0.00    -0.367 N 
ATOM     30  C   UNL d   1      20.301 -19.729  -1.149  0.00  0.00     0.124 C 
ATOM     31  C   UNL d   1      18.883 -19.680  -0.605  0.00  0.00     0.021 C 
ATOM     32  C   UNL d   1      19.049 -20.182   0.822  0.00  0.00     0.021 C 
ATOM     33  C   UNL d   1      20.451 -19.702   1.250  0.00  0.00     0.124 C 
ENDBRANCH  25  29
ENDBRANCH  21  22
ENDBRANCH   4  21
TORSDOF 7
ENDMDL
MODEL 6
REMARK VINA RESULT:    -8.498      6.703     10.303
REMARK INTER + INTRA:         -12.586
REMARK INTER:                 -10.586
REMARK INTRA:                  -2.000
REMARK CONF_INDEPENDENT:        2.088
REMARK UNBOUND:                -2.000
REMARK  7 active torsions:
REMARK  status: ('A' for Active; 'I' for Inactive)
REMARK    1  A    between atoms: C_7  and  O_8 
REMARK    2  A    between atoms: O_8  and  C_9 
REMARK    3  A    between atoms: C_9  and  C_10 
REMARK       I    between atoms: C_10  and  N_12 
REMARK    4  A    between atoms: N_12  and  N_13 
REMARK       I    between atoms: N_13  and  C_14 
REMARK       I    between atoms: C_14  and  N_16 
REMARK    5  A    between atoms: N_16  and  C_17 
REMARK    6  A    between atoms: C_17  and  C_18 
REMARK    7  A    between atoms: C_21  and  N_22 
ROOT
ATOM      1  N   UNL d   1      27.640 -15.625  -3.984  0.00  0.00    -0.249 N 
ATOM      2  C   UNL d   1      27.571 -16.197  -2.720  0.00  0.00     0.335 C 
ATOM      3  O   UNL d   1      28.529 -16.752  -2.179  0.00  0.00    -0.246 OA
ATOM      4  N   UNL d   1      26.332 -16.094  -2.113  0.00  0.00    -0.337 N 
ATOM      5  H   UNL d   1      26.866 -15.159  -4.453  0.00  0.00     0.192 HD
ATOM      6  H   UNL d   1      25.617 -15.630  -2.647  0.00  0.00     0.164 HD
ENDROOT
BRANCH   1   7
ATOM      7  N   UNL d   1      28.869 -15.658  -4.734  0.00  0.00    -0.264 N 
ATOM      8  C   UNL d   1      28.865 -15.248  -6.071  0.00  0.00     0.260 C 
ATOM      9  O   UNL d   1      27.820 -14.861  -6.601  0.00  0.00    -0.269 OA
ATOM     10  H   UNL d   1      29.692 -15.988  -4.233  0.00  0.00     0.190 HD
BRANCH   8  11
ATOM     11  C   UNL d   1      30.232 -15.311  -6.822  0.00  0.00     0.280 C 
BRANCH  11  12
ATOM     12  O   UNL d   1      31.129 -16.267  -6.234  0.00  0.00    -0.342 OA
BRANCH  12  13
ATOM     13  C   UNL d   1      31.033 -17.587  -6.606  0.00  0.00     0.070 A 
ATOM     14  C   UNL d   1      30.800 -18.511  -5.573  0.00  0.00     0.043 A 
ATOM     15  C   UNL d   1      30.685 -19.892  -5.830  0.00  0.00    -0.059 A 
ATOM     16  C   UNL d   1      30.811 -20.349  -7.146  0.00  0.00     0.013 A 
ATOM     17  C   UNL d   1      30.434 -20.856  -4.703  0.00  0.00     0.048 C 
ATOM     18  C   UNL d   1      31.040 -19.442  -8.189  0.00  0.00    -0.059 A 
ATOM     19  C   UNL d   1      31.167 -19.913  -9.608  0.00  0.00     0.048 C 
ATOM     20  C   UNL d   1      31.148 -18.066  -7.909  0.00  0.00     0.043 A 
ENDBRANCH  12  13
ENDBRANCH  11  12
ENDBRANCH   8  11
ENDBRANCH   1   7
BRANCH   4  21
ATOM     21  C   UNL d   1      26.043 -16.634  -0.774  0.00  0.00     0.164 C 
BRANCH  21  22
ATOM     22  C   UNL d   1      24.621 -17.161  -0.535  0.00  0.00    -0.025 A 
ATOM     23  C   UNL d   1      23.479 -16.395  -0.761  0.00  0.00     0.014 A 
ATOM     24  C   UNL d   1      22.199 -16.910  -0.519  0.00  0.00     0.049 A 
ATOM     25  C   UNL d   1      22.027 -18.208  -0.027  0.00  0.00     0.102 A 
ATOM     26  N   UNL d   1      23.148 -18.920   0.185  0.00  0.00    -0.352 N 
ATOM     27  C   UNL d   1      24.400 -18.464  -0.054  0.00  0.00     0.098 A 
ATOM     28  H   UNL d   1      23.001 -19.881   0.488  0.00  0.00     0.166 HD
BRANCH  25  29
ATOM     29  N   UNL d   1      20.812 -18.814   0.123  0.00  0.00    -0.367 N 
ATOM     30  C   UNL d   1      20.545 -19.746   1.221  0.00  0.00     0.124 C 
ATOM     31  C   UNL d   1      19.725 -20.856   0.582  0.00  0.00     0.021 C 
ATOM     32  C   UNL d   1      18.876 -20.107  -0.435  0.00  0.00     0.021 C 
ATOM     33  C   UNL d   1      19.760 -18.931  -0.899  0.00  0.00     0.124 C 
ENDBRANCH  25  29
ENDBRANCH  21  22
ENDBRANCH   4  21
TORSDOF 7
ENDMDL
MODEL 7
REMARK VINA RESULT:    -8.266      7.170      9.956
REMARK INTER + INTRA:         -12.192
REMARK INTER:                 -10.354
REMARK INTRA:                  -1.838
REMARK CONF_INDEPENDENT:        2.088
REMARK UNBOUND:                -1.838
REMARK  7 active torsions:
REMARK  status: ('A' for Active; 'I' for Inactive)
REMARK    1  A    between atoms: C_7  and  O_8 
REMARK    2  A    between atoms: O_8  and  C_9 
REMARK    3  A    between atoms: C_9  and  C_10 
REMARK       I    between atoms: C_10  and  N_12 
REMARK    4  A    between atoms: N_12  and  N_13 
REMARK       I    between atoms: N_13  and  C_14 
REMARK       I    between atoms: C_14  and  N_16 
REMARK    5  A    between atoms: N_16  and  C_17 
REMARK    6  A    between atoms: C_17  and  C_18 
REMARK    7  A    between atoms: C_21  and  N_22 
ROOT
ATOM      1  N   UNL d   1      25.576 -12.893  -2.595  0.00  0.00    -0.249 N 
ATOM      2  C   UNL d   1      25.565 -14.273  -2.755  0.00  0.00     0.335 C 
ATOM      3  O   UNL d   1      25.334 -14.824  -3.834  0.00  0.00    -0.246 OA
ATOM      4  N   UNL d   1      25.835 -14.985  -1.600  0.00  0.00    -0.337 N 
ATOM      5  H   UNL d   1      25.765 -12.413  -1.717  0.00  0.00     0.192 HD
ATOM      6  H   UNL d   1      26.000 -14.437  -0.773  0.00  0.00     0.164 HD
ENDROOT
BRANCH   1   7
ATOM      7  N   UNL d   1      25.311 -12.026  -3.713  0.00  0.00    -0.264 N 
ATOM      8  C   UNL d   1      25.896 -10.757  -3.748  0.00  0.00     0.260 C 
ATOM      9  O   UNL d   1      26.633 -10.385  -2.830  0.00  0.00    -0.269 OA
ATOM     10  H   UNL d   1      24.694 -12.398  -4.433  0.00  0.00     0.190 HD
BRANCH   8  11
ATOM     11  C   UNL d   1      25.564  -9.871  -4.990  0.00  0.00     0.280 C 
BRANCH  11  12
ATOM     12  O   UNL d   1      25.520 -10.637  -6.205  0.00  0.00    -0.342 OA
BRANCH  12  13
ATOM     13  C   UNL d   1      26.633 -11.349  -6.586  0.00  0.00     0.070 A 
ATOM     14  C   UNL d   1      27.383 -10.812  -7.645  0.00  0.00     0.043 A 
ATOM     15  C   UNL d   1      28.544 -11.451  -8.126  0.00  0.00    -0.059 A 
ATOM     16  C   UNL d   1      28.951 -12.651  -7.533  0.00  0.00     0.013 A 
ATOM     17  C   UNL d   1      29.327 -10.850  -9.261  0.00  0.00     0.048 C 
ATOM     18  C   UNL d   1      28.217 -13.199  -6.473  0.00  0.00    -0.059 A 
ATOM     19  C   UNL d   1      28.645 -14.479  -5.817  0.00  0.00     0.048 C 
ATOM     20  C   UNL d   1      27.063 -12.541  -6.007  0.00  0.00     0.043 A 
ENDBRANCH  12  13
ENDBRANCH  11  12
ENDBRANCH   8  11
ENDBRANCH   1   7
BRANCH   4  21
ATOM     21  C   UNL d   1      25.871 -16.456  -1.550  0.00  0.00     0.164 C 
BRANCH  21  22
ATOM     22  C   UNL d   1      24.583 -17.163  -1.107  0.00  0.00    -0.025 A 
ATOM     23  C   UNL d   1      23.316 -16.603  -1.263  0.00  0.00     0.014 A 
ATOM     24  C   UNL d   1      22.166 -17.277  -0.833  0.00  0.00     0.049 A 
ATOM     25  C   UNL d   1      22.253 -18.530  -0.219  0.00  0.00     0.102 A 
ATOM     26  N   UNL d   1      23.489 -19.042  -0.078  0.00  0.00    -0.352 N 
ATOM     27  C   UNL d   1      24.621 -18.430  -0.497  0.00  0.00     0.098 A 
ATOM     28  H   UNL d   1      23.528 -19.978   0.319  0.00  0.00     0.166 HD
BRANCH  25  29
ATOM     29  N   UNL d   1      21.171 -19.293   0.120  0.00  0.00    -0.367 N 
ATOM     30  C   UNL d   1      20.253 -19.821  -0.892  0.00  0.00     0.124 C 
ATOM     31  C   UNL d   1      18.875 -19.654  -0.271  0.00  0.00     0.021 C 
ATOM     32  C   UNL d   1      19.132 -19.922   1.204  0.00  0.00     0.021 C 
ATOM     33  C   UNL d   1      20.565 -19.408   1.455  0.00  0.00     0.124 C 
ENDBRANCH  25  29
ENDBRANCH  21  22
ENDBRANCH   4  21
TORSDOF 7
ENDMDL
MODEL 8
REMARK VINA RESULT:    -8.178      8.594     11.901
REMARK INTER + INTRA:         -11.809
REMARK INTER:                 -10.267
REMARK INTRA:                  -1.543
REMARK CONF_INDEPENDENT:        2.088
REMARK UNBOUND:                -1.543
REMARK  7 active torsions:
REMARK  status: ('A' for Active; 'I' for Inactive)
REMARK    1  A    between atoms: C_7  and  O_8 
REMARK    2  A    between atoms: O_8  and  C_9 
REMARK    3  A    between atoms: C_9  and  C_10 
REMARK       I    between atoms: C_10  and  N_12 
REMARK    4  A    between atoms: N_12  and  N_13 
REMARK       I    between atoms: N_13  and  C_14 
REMARK       I    between atoms: C_14  and  N_16 
REMARK    5  A    between atoms: N_16  and  C_17 
REMARK    6  A    between atoms: C_17  and  C_18 
REMARK    7  A    between atoms: C_21  and  N_22 
ROOT
ATOM      1  N   UNL d   1      25.392 -10.278  -3.411  0.00  0.00    -0.249 N 
ATOM      2  C   UNL d   1      25.213  -9.202  -4.272  0.00  0.00     0.335 C 
ATOM      3  O   UNL d   1      25.107  -9.328  -5.493  0.00  0.00    -0.246 OA
ATOM      4  N   UNL d   1      25.162  -7.970  -3.645  0.00  0.00    -0.337 N 
ATOM      5  H   UNL d   1      25.481 -10.202  -2.399  0.00  0.00     0.192 HD
ATOM      6  H   UNL d   1      25.268  -7.980  -2.644  0.00  0.00     0.164 HD
ENDROOT
BRANCH   1   7
ATOM      7  N   UNL d   1      25.464 -11.621  -3.925  0.00  0.00    -0.264 N 
ATOM      8  C   UNL d   1      26.002 -12.632  -3.123  0.00  0.00     0.260 C 
ATOM      9  O   UNL d   1      26.408 -12.376  -1.986  0.00  0.00    -0.269 OA
ATOM     10  H   UNL d   1      25.111 -11.759  -4.870  0.00  0.00     0.190 HD
BRANCH   8  11
ATOM     11  C   UNL d   1      26.049 -14.062  -3.746  0.00  0.00     0.280 C 
BRANCH  11  12
ATOM     12  O   UNL d   1      24.924 -14.864  -3.348  0.00  0.00    -0.342 OA
BRANCH  12  13
ATOM     13  C   UNL d   1      25.066 -15.737  -2.296  0.00  0.00     0.070 A 
ATOM     14  C   UNL d   1      26.379 -15.975  -1.856  0.00  0.00     0.043 A 
ATOM     15  C   UNL d   1      26.653 -16.851  -0.787  0.00  0.00    -0.059 A 
ATOM     16  C   UNL d   1      25.587 -17.500  -0.154  0.00  0.00     0.013 A 
ATOM     17  C   UNL d   1      28.069 -17.085  -0.338  0.00  0.00     0.048 C 
ATOM     18  C   UNL d   1      24.271 -17.272  -0.576  0.00  0.00    -0.059 A 
ATOM     19  C   UNL d   1      23.114 -17.950   0.098  0.00  0.00     0.048 C 
ATOM     20  C   UNL d   1      24.022 -16.389  -1.644  0.00  0.00     0.043 A 
ENDBRANCH  12  13
ENDBRANCH  11  12
ENDBRANCH   8  11
ENDBRANCH   1   7
BRANCH   4  21
ATOM     21  C   UNL d   1      24.978  -6.703  -4.372  0.00  0.00     0.164 C 
BRANCH  21  22
ATOM     22  C   UNL d   1      23.605  -6.472  -5.018  0.00  0.00    -0.025 A 
ATOM     23  C   UNL d   1      22.641  -5.625  -4.474  0.00  0.00     0.014 A 
ATOM     24  C   UNL d   1      21.395  -5.452  -5.090  0.00  0.00     0.049 A 
ATOM     25  C   UNL d   1      21.072  -6.136  -6.265  0.00  0.00     0.102 A 
ATOM     26  N   UNL d   1      22.021  -6.949  -6.763  0.00  0.00    -0.352 N 
ATOM     27  C   UNL d   1      23.242  -7.129  -6.208  0.00  0.00     0.098 A 
ATOM     28  H   UNL d   1      21.790  -7.395  -7.648  0.00  0.00     0.166 HD
BRANCH  25  29
ATOM     29  N   UNL d   1      19.926  -5.930  -6.980  0.00  0.00    -0.367 N 
ATOM     30  C   UNL d   1      18.822  -6.893  -6.963  0.00  0.00     0.124 C 
ATOM     31  C   UNL d   1      18.341  -6.939  -8.404  0.00  0.00     0.021 C 
ATOM     32  C   UNL d   1      18.517  -5.500  -8.867  0.00  0.00     0.021 C 
ATOM     33  C   UNL d   1      19.747  -4.983  -8.092  0.00  0.00     0.124 C 
ENDBRANCH  25  29
ENDBRANCH  21  22
ENDBRANCH   4  21
TORSDOF 7
ENDMDL
MODEL 9
REMARK VINA RESULT:    -7.803      6.439      9.172
REMARK INTER + INTRA:         -12.070
REMARK INTER:                  -9.891
REMARK INTRA:                  -2.179
REMARK CONF_INDEPENDENT:        2.088
REMARK UNBOUND:                -2.179
REMARK  7 active torsions:
REMARK  status: ('A' for Active; 'I' for Inactive)
REMARK    1  A    between atoms: C_7  and  O_8 
REMARK    2  A    between atoms: O_8  and  C_9 
REMARK    3  A    between atoms: C_9  and  C_10 
REMARK       I    between atoms: C_10  and  N_12 
REMARK    4  A    between atoms: N_12  and  N_13 
REMARK       I    between atoms: N_13  and  C_14 
REMARK       I    between atoms: C_14  and  N_16 
REMARK    5  A    between atoms: N_16  and  C_17 
REMARK    6  A    between atoms: C_17  and  C_18 
REMARK    7  A    between atoms: C_21  and  N_22 
ROOT
ATOM      1  N   UNL d   1      29.675 -17.814  -0.778  0.00  0.00    -0.249 N 
ATOM      2  C   UNL d   1      28.646 -16.974  -1.185  0.00  0.00     0.335 C 
ATOM      3  O   UNL d   1      28.738 -16.216  -2.153  0.00  0.00    -0.246 OA
ATOM      4  N   UNL d   1      27.501 -17.056  -0.412  0.00  0.00    -0.337 N 
ATOM      5  H   UNL d   1      29.626 -18.450   0.016  0.00  0.00     0.192 HD
ATOM      6  H   UNL d   1      27.537 -17.701   0.360  0.00  0.00     0.164 HD
ENDROOT
BRANCH   1   7
ATOM      7  N   UNL d   1      30.927 -17.833  -1.490  0.00  0.00    -0.264 N 
ATOM      8  C   UNL d   1      31.826 -18.879  -1.262  0.00  0.00     0.260 C 
ATOM      9  O   UNL d   1      31.550 -19.776  -0.462  0.00  0.00    -0.269 OA
ATOM     10  H   UNL d   1      31.088 -17.061  -2.135  0.00  0.00     0.190 HD
BRANCH   8  11
ATOM     11  C   UNL d   1      33.162 -18.834  -2.069  0.00  0.00     0.280 C 
BRANCH  11  12
ATOM     12  O   UNL d   1      33.160 -17.798  -3.065  0.00  0.00    -0.342 OA
BRANCH  12  13
ATOM     13  C   UNL d   1      32.307 -17.907  -4.137  0.00  0.00     0.070 A 
ATOM     14  C   UNL d   1      32.135 -19.196  -4.670  0.00  0.00     0.043 A 
ATOM     15  C   UNL d   1      31.288 -19.434  -5.771  0.00  0.00    -0.059 A 
ATOM     16  C   UNL d   1      30.607 -18.355  -6.346  0.00  0.00     0.013 A 
ATOM     17  C   UNL d   1      31.124 -20.825  -6.317  0.00  0.00     0.048 C 
ATOM     18  C   UNL d   1      30.763 -17.064  -5.826  0.00  0.00    -0.059 A 
ATOM     19  C   UNL d   1      30.032 -15.897  -6.422  0.00  0.00     0.048 C 
ATOM     20  C   UNL d   1      31.612 -16.851  -4.723  0.00  0.00     0.043 A 
ENDBRANCH  12  13
ENDBRANCH  11  12
ENDBRANCH   8  11
ENDBRANCH   1   7
BRANCH   4  21
ATOM     21  C   UNL d   1      26.295 -16.253  -0.670  0.00  0.00     0.164 C 
BRANCH  21  22
ATOM     22  C   UNL d   1      24.945 -16.965  -0.508  0.00  0.00    -0.025 A 
ATOM     23  C   UNL d   1      23.720 -16.325  -0.685  0.00  0.00     0.014 A 
ATOM     24  C   UNL d   1      22.510 -17.009  -0.515  0.00  0.00     0.049 A 
ATOM     25  C   UNL d   1      22.493 -18.358  -0.147  0.00  0.00     0.102 A 
ATOM     26  N   UNL d   1      23.689 -18.948   0.022  0.00  0.00    -0.352 N 
ATOM     27  C   UNL d   1      24.879 -18.325  -0.151  0.00  0.00     0.098 A 
ATOM     28  H   UNL d   1      23.657 -19.942   0.234  0.00  0.00     0.166 HD
BRANCH  25  29
ATOM     29  N   UNL d   1      21.358 -19.117  -0.076  0.00  0.00    -0.367 N 
ATOM     30  C   UNL d   1      20.607 -19.496  -1.275  0.00  0.00     0.124 C 
ATOM     31  C   UNL d   1      19.150 -19.352  -0.867  0.00  0.00     0.021 C 
ATOM     32  C   UNL d   1      19.161 -19.792   0.589  0.00  0.00     0.021 C 
ATOM     33  C   UNL d   1      20.541 -19.360   1.123  0.00  0.00     0.124 C 
ENDBRANCH  25  29
ENDBRANCH  21  22
ENDBRANCH   4  21
TORSDOF 7
ENDMDL
