MODEL 1
REMARK VINA RESULT:    -7.800      0.000      0.000
REMARK INTER + INTRA:         -13.081
REMARK INTER:                 -10.485
REMARK INTRA:                  -2.596
REMARK CONF_INDEPENDENT:        2.685
REMARK UNBOUND:                -2.596
REMARK  9 active torsions:
REMARK  status: ('A' for Active; 'I' for Inactive)
REMARK    1  A    between atoms: O_2  and  C_3 
REMARK    2  A    between atoms: C_9  and  C_10 
REMARK       I    between atoms: C_10  and  N_12 
REMARK    3  A    between atoms: N_12  and  C_13 
REMARK    4  A    between atoms: C_13  and  N_15 
REMARK    5  A    between atoms: N_15  and  C_16 
REMARK    6  A    between atoms: C_19  and  C_20 
REMARK    7  A    between atoms: C_23  and  C_24 
REMARK    8  A    between atoms: C_24  and  O_25 
REMARK    9  A    between atoms: C_27  and  O_28 
ROOT
ATOM      1  N   UNL d   1      28.464 -13.363  -4.334  0.00  0.00    -0.333 N 
ATOM      2  H   UNL d   1      29.094 -12.611  -4.088  0.00  0.00     0.168 HD
ENDROOT
BRANCH   1   3
ATOM      3  C   UNL d   1      27.122 -13.354  -3.863  0.00  0.00     0.179 C 
ATOM      4  S   UNL d   1      25.940 -12.301  -4.477  0.00  0.00    -0.040 SA
BRANCH   3   5
ATOM      5  N   UNL d   1      26.829 -14.323  -2.875  0.00  0.00    -0.299 N 
ATOM      6  C   UNL d   1      25.622 -15.047  -2.777  0.00  0.00     0.260 C 
ATOM      7  O   UNL d   1      24.619 -14.820  -3.468  0.00  0.00    -0.267 OA
ATOM      8  H   UNL d   1      27.538 -14.559  -2.190  0.00  0.00     0.171 HD
BRANCH   6   9
ATOM      9  C   UNL d   1      25.426 -16.154  -1.796  0.00  0.00     0.067 A 
ATOM     10  C   UNL d   1      24.094 -16.617  -1.625  0.00  0.00     0.043 A 
ATOM     11  C   UNL d   1      23.792 -17.644  -0.737  0.00  0.00     0.035 A 
ATOM     12  C   UNL d   1      24.806 -18.219   0.012  0.00  0.00     0.026 A 
ATOM     13 CL   UNL d   1      22.173 -18.196  -0.560  0.00  0.00    -0.084 Cl
ATOM     14  C   UNL d   1      26.126 -17.776  -0.146  0.00  0.00     0.039 A 
ATOM     15  C   UNL d   1      26.449 -16.762  -1.065  0.00  0.00     0.084 A 
BRANCH  15  16
ATOM     16  O   UNL d   1      27.726 -16.291  -1.209  0.00  0.00    -0.355 OA
ATOM     17  C   UNL d   1      28.590 -16.622  -0.123  0.00  0.00     0.210 C 
ENDBRANCH  15  16
ENDBRANCH   6   9
ENDBRANCH   3   5
ENDBRANCH   1   3
BRANCH   1  18
ATOM     18  C   UNL d   1      29.071 -14.501  -4.984  0.00  0.00     0.036 A 
ATOM     19  C   UNL d   1      29.431 -14.538  -6.333  0.00  0.00     0.030 A 
ATOM     20  C   UNL d   1      30.011 -15.714  -6.887  0.00  0.00     0.019 A 
ATOM     21  C   UNL d   1      30.280 -16.850  -6.096  0.00  0.00     0.031 A 
ATOM     22  C   UNL d   1      29.871 -16.817  -4.750  0.00  0.00     0.083 A 
ATOM     23  C   UNL d   1      29.261 -15.666  -4.241  0.00  0.00     0.067 A 
BRANCH  21  24
ATOM     24  C   UNL d   1      30.773 -18.104  -6.677  0.00  0.00     0.088 A 
ATOM     25  C   UNL d   1      31.469 -19.130  -6.074  0.00  0.00     0.041 A 
ATOM     26  C   UNL d   1      31.751 -20.080  -7.063  0.00  0.00     0.038 A 
ATOM     27  C   UNL d   1      31.237 -19.596  -8.247  0.00  0.00     0.077 A 
ATOM     28  O   UNL d   1      30.614 -18.380  -8.020  0.00  0.00    -0.312 OA
BRANCH  27  29
ATOM     29  C   UNL d   1      31.264 -20.172  -9.621  0.00  0.00     0.229 C 
BRANCH  29  30
ATOM     30  O   UNL d   1      30.023 -19.844 -10.263  0.00  0.00    -0.394 OA
ATOM     31  H   UNL d   1      29.498 -19.339  -9.619  0.00  0.00     0.209 HD
ENDBRANCH  29  30
ENDBRANCH  27  29
ENDBRANCH  21  24
BRANCH  22  32
ATOM     32  O   UNL d   1      30.035 -17.949  -3.981  0.00  0.00    -0.355 OA
ATOM     33  C   UNL d   1      30.531 -17.763  -2.655  0.00  0.00     0.210 C 
ENDBRANCH  22  32
ENDBRANCH   1  18
TORSDOF 9
ENDMDL
MODEL 2
REMARK VINA RESULT:    -7.520      4.228      8.505
REMARK INTER + INTRA:         -12.793
REMARK INTER:                 -10.205
REMARK INTRA:                  -2.588
REMARK CONF_INDEPENDENT:        2.685
REMARK UNBOUND:                -2.588
REMARK  9 active torsions:
REMARK  status: ('A' for Active; 'I' for Inactive)
REMARK    1  A    between atoms: O_2  and  C_3 
REMARK    2  A    between atoms: C_9  and  C_10 
REMARK       I    between atoms: C_10  and  N_12 
REMARK    3  A    between atoms: N_12  and  C_13 
REMARK    4  A    between atoms: C_13  and  N_15 
REMARK    5  A    between atoms: N_15  and  C_16 
REMARK    6  A    between atoms: C_19  and  C_20 
REMARK    7  A    between atoms: C_23  and  C_24 
REMARK    8  A    between atoms: C_24  and  O_25 
REMARK    9  A    between atoms: C_27  and  O_28 
ROOT
ATOM      1  N   UNL d   1      25.873 -13.539  -5.020  0.00  0.00    -0.333 N 
ATOM      2  H   UNL d   1      24.995 -13.710  -5.493  0.00  0.00     0.168 HD
ENDROOT
BRANCH   1   3
ATOM      3  C   UNL d   1      26.826 -14.585  -4.880  0.00  0.00     0.179 C 
ATOM      4  S   UNL d   1      28.095 -14.825  -5.982  0.00  0.00    -0.040 SA
BRANCH   3   5
ATOM      5  N   UNL d   1      26.668 -15.387  -3.725  0.00  0.00    -0.299 N 
ATOM      6  C   UNL d   1      25.479 -15.508  -2.975  0.00  0.00     0.260 C 
ATOM      7  O   UNL d   1      24.468 -14.818  -3.162  0.00  0.00    -0.267 OA
ATOM      8  H   UNL d   1      27.445 -15.955  -3.409  0.00  0.00     0.171 HD
BRANCH   6   9
ATOM      9  C   UNL d   1      25.336 -16.476  -1.849  0.00  0.00     0.067 A 
ATOM     10  C   UNL d   1      24.017 -16.923  -1.566  0.00  0.00     0.043 A 
ATOM     11  C   UNL d   1      23.763 -17.824  -0.538  0.00  0.00     0.035 A 
ATOM     12  C   UNL d   1      24.812 -18.285   0.241  0.00  0.00     0.026 A 
ATOM     13 CL   UNL d   1      22.159 -18.361  -0.225  0.00  0.00    -0.084 Cl
ATOM     14  C   UNL d   1      26.119 -17.856  -0.026  0.00  0.00     0.039 A 
ATOM     15  C   UNL d   1      26.393 -16.972  -1.084  0.00  0.00     0.084 A 
BRANCH  15  16
ATOM     16  O   UNL d   1      27.657 -16.514  -1.339  0.00  0.00    -0.355 OA
ATOM     17  C   UNL d   1      28.647 -17.021  -0.445  0.00  0.00     0.210 C 
ENDBRANCH  15  16
ENDBRANCH   6   9
ENDBRANCH   3   5
ENDBRANCH   1   3
BRANCH   1  18
ATOM     18  C   UNL d   1      25.979 -12.270  -4.339  0.00  0.00     0.036 A 
ATOM     19  C   UNL d   1      26.327 -12.124  -2.995  0.00  0.00     0.030 A 
ATOM     20  C   UNL d   1      26.389 -10.829  -2.407  0.00  0.00     0.019 A 
ATOM     21  C   UNL d   1      26.149  -9.662  -3.161  0.00  0.00     0.031 A 
ATOM     22  C   UNL d   1      25.754  -9.824  -4.503  0.00  0.00     0.083 A 
ATOM     23  C   UNL d   1      25.655 -11.110  -5.043  0.00  0.00     0.067 A 
BRANCH  21  24
ATOM     24  C   UNL d   1      26.101  -8.332  -2.543  0.00  0.00     0.088 A 
ATOM     25  C   UNL d   1      26.609  -7.137  -3.006  0.00  0.00     0.041 A 
ATOM     26  C   UNL d   1      26.347  -6.167  -2.031  0.00  0.00     0.038 A 
ATOM     27  C   UNL d   1      25.704  -6.804  -0.990  0.00  0.00     0.077 A 
ATOM     28  O   UNL d   1      25.530  -8.142  -1.301  0.00  0.00    -0.312 OA
BRANCH  27  29
ATOM     29  C   UNL d   1      25.213  -6.273   0.313  0.00  0.00     0.229 C 
BRANCH  29  30
ATOM     30  O   UNL d   1      25.155  -7.366   1.242  0.00  0.00    -0.394 OA
ATOM     31  H   UNL d   1      25.325  -8.177   0.733  0.00  0.00     0.209 HD
ENDBRANCH  29  30
ENDBRANCH  27  29
ENDBRANCH  21  24
BRANCH  22  32
ATOM     32  O   UNL d   1      25.420  -8.704  -5.233  0.00  0.00    -0.355 OA
ATOM     33  C   UNL d   1      24.028  -8.450  -5.426  0.00  0.00     0.210 C 
ENDBRANCH  22  32
ENDBRANCH   1  18
TORSDOF 9
ENDMDL
MODEL 3
REMARK VINA RESULT:    -7.487      3.132      7.866
REMARK INTER + INTRA:         -12.575
REMARK INTER:                 -10.171
REMARK INTRA:                  -2.404
REMARK CONF_INDEPENDENT:        2.685
REMARK UNBOUND:                -2.404
REMARK  9 active torsions:
REMARK  status: ('A' for Active; 'I' for Inactive)
REMARK    1  A    between atoms: O_2  and  C_3 
REMARK    2  A    between atoms: C_9  and  C_10 
REMARK       I    between atoms: C_10  and  N_12 
REMARK    3  A    between atoms: N_12  and  C_13 
REMARK    4  A    between atoms: C_13  and  N_15 
REMARK    5  A    between atoms: N_15  and  C_16 
REMARK    6  A    between atoms: C_19  and  C_20 
REMARK    7  A    between atoms: C_23  and  C_24 
REMARK    8  A    between atoms: C_24  and  O_25 
REMARK    9  A    between atoms: C_27  and  O_28 
ROOT
ATOM      1  N   UNL d   1      27.280 -12.752  -3.578  0.00  0.00    -0.333 N 
ATOM      2  H   UNL d   1      27.550 -12.034  -2.918  0.00  0.00     0.168 HD
ENDROOT
BRANCH   1   3
ATOM      3  C   UNL d   1      27.529 -12.578  -4.967  0.00  0.00     0.179 C 
ATOM      4  S   UNL d   1      26.569 -11.586  -5.955  0.00  0.00    -0.040 SA
BRANCH   3   5
ATOM      5  N   UNL d   1      28.669 -13.256  -5.459  0.00  0.00    -0.299 N 
ATOM      6  C   UNL d   1      28.695 -14.597  -5.893  0.00  0.00     0.260 C 
ATOM      7  O   UNL d   1      27.748 -15.385  -5.767  0.00  0.00    -0.267 OA
ATOM      8  H   UNL d   1      29.543 -12.749  -5.548  0.00  0.00     0.171 HD
BRANCH   6   9
ATOM      9  C   UNL d   1      29.895 -15.213  -6.531  0.00  0.00     0.067 A 
ATOM     10  C   UNL d   1      30.009 -16.625  -6.428  0.00  0.00     0.043 A 
ATOM     11  C   UNL d   1      31.086 -17.307  -6.983  0.00  0.00     0.035 A 
ATOM     12  C   UNL d   1      32.081 -16.597  -7.637  0.00  0.00     0.026 A 
ATOM     13 CL   UNL d   1      31.194 -19.019  -6.857  0.00  0.00    -0.084 Cl
ATOM     14  C   UNL d   1      31.983 -15.204  -7.749  0.00  0.00     0.039 A 
ATOM     15  C   UNL d   1      30.882 -14.507  -7.222  0.00  0.00     0.084 A 
BRANCH  15  16
ATOM     16  O   UNL d   1      30.784 -13.143  -7.291  0.00  0.00    -0.355 OA
ATOM     17  C   UNL d   1      29.977 -12.676  -8.371  0.00  0.00     0.210 C 
ENDBRANCH  15  16
ENDBRANCH   6   9
ENDBRANCH   3   5
ENDBRANCH   1   3
BRANCH   1  18
ATOM     18  C   UNL d   1      26.460 -13.815  -3.043  0.00  0.00     0.036 A 
ATOM     19  C   UNL d   1      25.065 -13.795  -3.015  0.00  0.00     0.030 A 
ATOM     20  C   UNL d   1      24.344 -14.886  -2.451  0.00  0.00     0.019 A 
ATOM     21  C   UNL d   1      25.003 -16.027  -1.950  0.00  0.00     0.031 A 
ATOM     22  C   UNL d   1      26.411 -16.016  -1.941  0.00  0.00     0.083 A 
ATOM     23  C   UNL d   1      27.095 -14.911  -2.459  0.00  0.00     0.067 A 
BRANCH  21  24
ATOM     24  C   UNL d   1      24.280 -17.106  -1.267  0.00  0.00     0.088 A 
ATOM     25  C   UNL d   1      24.779 -18.178  -0.558  0.00  0.00     0.041 A 
ATOM     26  C   UNL d   1      23.686 -18.950  -0.143  0.00  0.00     0.038 A 
ATOM     27  C   UNL d   1      22.551 -18.335  -0.629  0.00  0.00     0.077 A 
ATOM     28  O   UNL d   1      22.902 -17.184  -1.313  0.00  0.00    -0.312 OA
BRANCH  27  29
ATOM     29  C   UNL d   1      21.117 -18.725  -0.515  0.00  0.00     0.229 C 
BRANCH  29  30
ATOM     30  O   UNL d   1      20.341 -17.779  -1.268  0.00  0.00    -0.394 OA
ATOM     31  H   UNL d   1      20.901 -16.994  -1.395  0.00  0.00     0.209 HD
ENDBRANCH  29  30
ENDBRANCH  27  29
ENDBRANCH  21  24
BRANCH  22  32
ATOM     32  O   UNL d   1      27.077 -17.077  -1.369  0.00  0.00    -0.355 OA
ATOM     33  C   UNL d   1      27.809 -16.811  -0.172  0.00  0.00     0.210 C 
ENDBRANCH  22  32
ENDBRANCH   1  18
TORSDOF 9
ENDMDL
MODEL 4
REMARK VINA RESULT:    -7.392      1.724      2.276
REMARK INTER + INTRA:         -12.360
REMARK INTER:                 -10.077
REMARK INTRA:                  -2.283
REMARK CONF_INDEPENDENT:        2.685
REMARK UNBOUND:                -2.283
REMARK  9 active torsions:
REMARK  status: ('A' for Active; 'I' for Inactive)
REMARK    1  A    between atoms: O_2  and  C_3 
REMARK    2  A    between atoms: C_9  and  C_10 
REMARK       I    between atoms: C_10  and  N_12 
REMARK    3  A    between atoms: N_12  and  C_13 
REMARK    4  A    between atoms: C_13  and  N_15 
REMARK    5  A    between atoms: N_15  and  C_16 
REMARK    6  A    between atoms: C_19  and  C_20 
REMARK    7  A    between atoms: C_23  and  C_24 
REMARK    8  A    between atoms: C_24  and  O_25 
REMARK    9  A    between atoms: C_27  and  O_28 
ROOT
ATOM      1  N   UNL d   1      29.645 -15.567  -4.502  0.00  0.00    -0.333 N 
ATOM      2  H   UNL d   1      30.330 -15.185  -3.863  0.00  0.00     0.168 HD
ENDROOT
BRANCH   1   3
ATOM      3  C   UNL d   1      28.259 -15.319  -4.296  0.00  0.00     0.179 C 
ATOM      4  S   UNL d   1      27.322 -14.398  -5.371  0.00  0.00    -0.040 SA
BRANCH   3   5
ATOM      5  N   UNL d   1      27.705 -15.938  -3.151  0.00  0.00    -0.299 N 
ATOM      6  C   UNL d   1      26.335 -15.950  -2.815  0.00  0.00     0.260 C 
ATOM      7  O   UNL d   1      25.468 -15.300  -3.415  0.00  0.00    -0.267 OA
ATOM      8  H   UNL d   1      28.315 -16.448  -2.523  0.00  0.00     0.171 HD
BRANCH   6   9
ATOM      9  C   UNL d   1      25.796 -16.738  -1.668  0.00  0.00     0.067 A 
ATOM     10  C   UNL d   1      24.416 -17.069  -1.724  0.00  0.00     0.043 A 
ATOM     11  C   UNL d   1      23.805 -17.800  -0.711  0.00  0.00     0.035 A 
ATOM     12  C   UNL d   1      24.549 -18.200   0.387  0.00  0.00     0.026 A 
ATOM     13 CL   UNL d   1      22.135 -18.201  -0.811  0.00  0.00    -0.084 Cl
ATOM     14  C   UNL d   1      25.912 -17.883   0.457  0.00  0.00     0.039 A 
ATOM     15  C   UNL d   1      26.549 -17.174  -0.576  0.00  0.00     0.084 A 
BRANCH  15  16
ATOM     16  O   UNL d   1      27.871 -16.825  -0.511  0.00  0.00    -0.355 OA
ATOM     17  C   UNL d   1      28.129 -15.695   0.321  0.00  0.00     0.210 C 
ENDBRANCH  15  16
ENDBRANCH   6   9
ENDBRANCH   3   5
ENDBRANCH   1   3
BRANCH   1  18
ATOM     18  C   UNL d   1      30.148 -16.521  -5.462  0.00  0.00     0.036 A 
ATOM     19  C   UNL d   1      30.696 -16.178  -6.700  0.00  0.00     0.030 A 
ATOM     20  C   UNL d   1      31.152 -17.194  -7.588  0.00  0.00     0.019 A 
ATOM     21  C   UNL d   1      31.109 -18.558  -7.235  0.00  0.00     0.031 A 
ATOM     22  C   UNL d   1      30.512 -18.894  -6.005  0.00  0.00     0.083 A 
ATOM     23  C   UNL d   1      30.030 -17.880  -5.172  0.00  0.00     0.067 A 
BRANCH  21  24
ATOM     24  C   UNL d   1      31.472 -19.618  -8.182  0.00  0.00     0.088 A 
ATOM     25  C   UNL d   1      31.557 -19.568  -9.557  0.00  0.00     0.041 A 
ATOM     26  C   UNL d   1      31.894 -20.852 -10.002  0.00  0.00     0.038 A 
ATOM     27  C   UNL d   1      31.985 -21.655  -8.884  0.00  0.00     0.077 A 
ATOM     28  O   UNL d   1      31.742 -20.901  -7.748  0.00  0.00    -0.312 OA
BRANCH  27  29
ATOM     29  C   UNL d   1      32.290 -23.109  -8.760  0.00  0.00     0.229 C 
BRANCH  29  30
ATOM     30  O   UNL d   1      31.540 -23.625  -7.650  0.00  0.00    -0.394 OA
ATOM     31  H   UNL d   1      31.061 -22.873  -7.261  0.00  0.00     0.209 HD
ENDBRANCH  29  30
ENDBRANCH  27  29
ENDBRANCH  21  24
BRANCH  22  32
ATOM     32  O   UNL d   1      30.370 -20.226  -5.681  0.00  0.00    -0.355 OA
ATOM     33  C   UNL d   1      31.304 -20.766  -4.745  0.00  0.00     0.210 C 
ENDBRANCH  22  32
ENDBRANCH   1  18
TORSDOF 9
ENDMDL
MODEL 5
REMARK VINA RESULT:    -7.288      0.938      1.655
REMARK INTER + INTRA:         -12.637
REMARK INTER:                  -9.973
REMARK INTRA:                  -2.664
REMARK CONF_INDEPENDENT:        2.685
REMARK UNBOUND:                -2.664
REMARK  9 active torsions:
REMARK  status: ('A' for Active; 'I' for Inactive)
REMARK    1  A    between atoms: O_2  and  C_3 
REMARK    2  A    between atoms: C_9  and  C_10 
REMARK       I    between atoms: C_10  and  N_12 
REMARK    3  A    between atoms: N_12  and  C_13 
REMARK    4  A    between atoms: C_13  and  N_15 
REMARK    5  A    between atoms: N_15  and  C_16 
REMARK    6  A    between atoms: C_19  and  C_20 
REMARK    7  A    between atoms: C_23  and  C_24 
REMARK    8  A    between atoms: C_24  and  O_25 
REMARK    9  A    between atoms: C_27  and  O_28 
ROOT
ATOM      1  N   UNL d   1      28.758 -13.612  -3.765  0.00  0.00    -0.333 N 
ATOM      2  H   UNL d   1      29.491 -12.955  -3.530  0.00  0.00     0.168 HD
ENDROOT
BRANCH   1   3
ATOM      3  C   UNL d   1      27.428 -13.391  -3.314  0.00  0.00     0.179 C 
ATOM      4  S   UNL d   1      26.451 -12.139  -3.914  0.00  0.00    -0.040 SA
BRANCH   3   5
ATOM      5  N   UNL d   1      26.957 -14.324  -2.361  0.00  0.00    -0.299 N 
ATOM      6  C   UNL d   1      25.890 -15.224  -2.560  0.00  0.00     0.260 C 
ATOM      7  O   UNL d   1      25.147 -15.210  -3.551  0.00  0.00    -0.267 OA
ATOM      8  H   UNL d   1      27.429 -14.395  -1.466  0.00  0.00     0.171 HD
BRANCH   6   9
ATOM      9  C   UNL d   1      25.531 -16.278  -1.567  0.00  0.00     0.067 A 
ATOM     10  C   UNL d   1      24.210 -16.795  -1.645  0.00  0.00     0.043 A 
ATOM     11  C   UNL d   1      23.764 -17.779  -0.771  0.00  0.00     0.035 A 
ATOM     12  C   UNL d   1      24.617 -18.258   0.212  0.00  0.00     0.026 A 
ATOM     13 CL   UNL d   1      22.165 -18.399  -0.896  0.00  0.00    -0.084 Cl
ATOM     14  C   UNL d   1      25.924 -17.761   0.301  0.00  0.00     0.039 A 
ATOM     15  C   UNL d   1      26.397 -16.790  -0.599  0.00  0.00     0.084 A 
BRANCH  15  16
ATOM     16  O   UNL d   1      27.659 -16.266  -0.507  0.00  0.00    -0.355 OA
ATOM     17  C   UNL d   1      28.698 -17.236  -0.642  0.00  0.00     0.210 C 
ENDBRANCH  15  16
ENDBRANCH   6   9
ENDBRANCH   3   5
ENDBRANCH   1   3
BRANCH   1  18
ATOM     18  C   UNL d   1      29.197 -14.844  -4.377  0.00  0.00     0.036 A 
ATOM     19  C   UNL d   1      29.185 -16.087  -3.741  0.00  0.00     0.030 A 
ATOM     20  C   UNL d   1      29.655 -17.246  -4.423  0.00  0.00     0.019 A 
ATOM     21  C   UNL d   1      30.099 -17.187  -5.760  0.00  0.00     0.031 A 
ATOM     22  C   UNL d   1      30.151 -15.922  -6.375  0.00  0.00     0.083 A 
ATOM     23  C   UNL d   1      29.727 -14.793  -5.666  0.00  0.00     0.067 A 
BRANCH  21  24
ATOM     24  C   UNL d   1      30.688 -18.349  -6.436  0.00  0.00     0.088 A 
ATOM     25  C   UNL d   1      31.501 -19.337  -5.922  0.00  0.00     0.041 A 
ATOM     26  C   UNL d   1      31.835 -20.194  -6.978  0.00  0.00     0.038 A 
ATOM     27  C   UNL d   1      31.231 -19.691  -8.112  0.00  0.00     0.077 A 
ATOM     28  O   UNL d   1      30.504 -18.558  -7.788  0.00  0.00    -0.312 OA
BRANCH  27  29
ATOM     29  C   UNL d   1      31.261 -20.177  -9.521  0.00  0.00     0.229 C 
BRANCH  29  30
ATOM     30  O   UNL d   1      30.034 -19.780 -10.152  0.00  0.00    -0.394 OA
ATOM     31  H   UNL d   1      29.478 -19.383  -9.459  0.00  0.00     0.209 HD
ENDBRANCH  29  30
ENDBRANCH  27  29
ENDBRANCH  21  24
BRANCH  22  32
ATOM     32  O   UNL d   1      30.672 -15.825  -7.646  0.00  0.00    -0.355 OA
ATOM     33  C   UNL d   1      32.013 -15.349  -7.760  0.00  0.00     0.210 C 
ENDBRANCH  22  32
ENDBRANCH   1  18
TORSDOF 9
ENDMDL
MODEL 6
REMARK VINA RESULT:    -7.110      4.265      8.109
REMARK INTER + INTRA:         -12.552
REMARK INTER:                  -9.794
REMARK INTRA:                  -2.758
REMARK CONF_INDEPENDENT:        2.685
REMARK UNBOUND:                -2.758
REMARK  9 active torsions:
REMARK  status: ('A' for Active; 'I' for Inactive)
REMARK    1  A    between atoms: O_2  and  C_3 
REMARK    2  A    between atoms: C_9  and  C_10 
REMARK       I    between atoms: C_10  and  N_12 
REMARK    3  A    between atoms: N_12  and  C_13 
REMARK    4  A    between atoms: C_13  and  N_15 
REMARK    5  A    between atoms: N_15  and  C_16 
REMARK    6  A    between atoms: C_19  and  C_20 
REMARK    7  A    between atoms: C_23  and  C_24 
REMARK    8  A    between atoms: C_24  and  O_25 
REMARK    9  A    between atoms: C_27  and  O_28 
ROOT
ATOM      1  N   UNL d   1      25.813 -13.525  -5.021  0.00  0.00    -0.333 N 
ATOM      2  H   UNL d   1      24.921 -13.727  -5.455  0.00  0.00     0.168 HD
ENDROOT
BRANCH   1   3
ATOM      3  C   UNL d   1      26.783 -14.554  -4.868  0.00  0.00     0.179 C 
ATOM      4  S   UNL d   1      28.049 -14.795  -5.972  0.00  0.00    -0.040 SA
BRANCH   3   5
ATOM      5  N   UNL d   1      26.644 -15.335  -3.696  0.00  0.00    -0.299 N 
ATOM      6  C   UNL d   1      25.458 -15.473  -2.946  0.00  0.00     0.260 C 
ATOM      7  O   UNL d   1      24.429 -14.815  -3.148  0.00  0.00    -0.267 OA
ATOM      8  H   UNL d   1      27.436 -15.876  -3.368  0.00  0.00     0.171 HD
BRANCH   6   9
ATOM      9  C   UNL d   1      25.338 -16.421  -1.799  0.00  0.00     0.067 A 
ATOM     10  C   UNL d   1      24.035 -16.912  -1.521  0.00  0.00     0.043 A 
ATOM     11  C   UNL d   1      23.803 -17.800  -0.477  0.00  0.00     0.035 A 
ATOM     12  C   UNL d   1      24.860 -18.204   0.324  0.00  0.00     0.026 A 
ATOM     13 CL   UNL d   1      22.217 -18.392  -0.170  0.00  0.00    -0.084 Cl
ATOM     14  C   UNL d   1      26.152 -17.730   0.062  0.00  0.00     0.039 A 
ATOM     15  C   UNL d   1      26.405 -16.859  -1.012  0.00  0.00     0.084 A 
BRANCH  15  16
ATOM     16  O   UNL d   1      27.654 -16.358  -1.264  0.00  0.00    -0.355 OA
ATOM     17  C   UNL d   1      28.685 -16.960  -0.483  0.00  0.00     0.210 C 
ENDBRANCH  15  16
ENDBRANCH   6   9
ENDBRANCH   3   5
ENDBRANCH   1   3
BRANCH   1  18
ATOM     18  C   UNL d   1      25.927 -12.225  -4.403  0.00  0.00     0.036 A 
ATOM     19  C   UNL d   1      25.636 -11.019  -5.044  0.00  0.00     0.030 A 
ATOM     20  C   UNL d   1      25.796  -9.784  -4.353  0.00  0.00     0.019 A 
ATOM     21  C   UNL d   1      26.203  -9.738  -3.005  0.00  0.00     0.031 A 
ATOM     22  C   UNL d   1      26.538 -10.956  -2.383  0.00  0.00     0.083 A 
ATOM     23  C   UNL d   1      26.417 -12.152  -3.099  0.00  0.00     0.067 A 
BRANCH  21  24
ATOM     24  C   UNL d   1      26.477  -8.471  -2.317  0.00  0.00     0.088 A 
ATOM     25  C   UNL d   1      27.374  -7.477  -2.646  0.00  0.00     0.041 A 
ATOM     26  C   UNL d   1      27.293  -6.495  -1.650  0.00  0.00     0.038 A 
ATOM     27  C   UNL d   1      26.361  -6.930  -0.731  0.00  0.00     0.077 A 
ATOM     28  O   UNL d   1      25.836  -8.144  -1.139  0.00  0.00    -0.312 OA
BRANCH  27  29
ATOM     29  C   UNL d   1      25.890  -6.304   0.538  0.00  0.00     0.229 C 
BRANCH  29  30
ATOM     30  O   UNL d   1      25.303  -7.335   1.347  0.00  0.00    -0.394 OA
ATOM     31  H   UNL d   1      25.588  -8.185   0.970  0.00  0.00     0.209 HD
ENDBRANCH  29  30
ENDBRANCH  27  29
ENDBRANCH  21  24
BRANCH  22  32
ATOM     32  O   UNL d   1      27.031 -10.929  -1.097  0.00  0.00    -0.355 OA
ATOM     33  C   UNL d   1      27.400 -12.181  -0.520  0.00  0.00     0.210 C 
ENDBRANCH  22  32
ENDBRANCH   1  18
TORSDOF 9
ENDMDL
MODEL 7
REMARK VINA RESULT:    -7.063      2.599      7.636
REMARK INTER + INTRA:         -12.021
REMARK INTER:                  -9.748
REMARK INTRA:                  -2.274
REMARK CONF_INDEPENDENT:        2.685
REMARK UNBOUND:                -2.274
REMARK  9 active torsions:
REMARK  status: ('A' for Active; 'I' for Inactive)
REMARK    1  A    between atoms: O_2  and  C_3 
REMARK    2  A    between atoms: C_9  and  C_10 
REMARK       I    between atoms: C_10  and  N_12 
REMARK    3  A    between atoms: N_12  and  C_13 
REMARK    4  A    between atoms: C_13  and  N_15 
REMARK    5  A    between atoms: N_15  and  C_16 
REMARK    6  A    between atoms: C_19  and  C_20 
REMARK    7  A    between atoms: C_23  and  C_24 
REMARK    8  A    between atoms: C_24  and  O_25 
REMARK    9  A    between atoms: C_27  and  O_28 
ROOT
ATOM      1  N   UNL d   1      28.463 -14.219  -4.242  0.00  0.00    -0.333 N 
ATOM      2  H   UNL d   1      28.962 -13.522  -3.704  0.00  0.00     0.168 HD
ENDROOT
BRANCH   1   3
ATOM      3  C   UNL d   1      28.631 -14.288  -5.653  0.00  0.00     0.179 C 
ATOM      4  S   UNL d   1      28.164 -13.032  -6.695  0.00  0.00    -0.040 SA
BRANCH   3   5
ATOM      5  N   UNL d   1      29.262 -15.464  -6.123  0.00  0.00    -0.299 N 
ATOM      6  C   UNL d   1      29.915 -16.417  -5.313  0.00  0.00     0.260 C 
ATOM      7  O   UNL d   1      30.132 -16.266  -4.103  0.00  0.00    -0.267 OA
ATOM      8  H   UNL d   1      29.228 -15.679  -7.113  0.00  0.00     0.171 HD
BRANCH   6   9
ATOM      9  C   UNL d   1      30.440 -17.704  -5.853  0.00  0.00     0.067 A 
ATOM     10  C   UNL d   1      30.416 -18.815  -4.968  0.00  0.00     0.043 A 
ATOM     11  C   UNL d   1      30.881 -20.065  -5.362  0.00  0.00     0.035 A 
ATOM     12  C   UNL d   1      31.396 -20.232  -6.638  0.00  0.00     0.026 A 
ATOM     13 CL   UNL d   1      30.826 -21.398  -4.276  0.00  0.00    -0.084 Cl
ATOM     14  C   UNL d   1      31.425 -19.147  -7.524  0.00  0.00     0.039 A 
ATOM     15  C   UNL d   1      30.927 -17.887  -7.149  0.00  0.00     0.084 A 
BRANCH  15  16
ATOM     16  O   UNL d   1      30.978 -16.806  -7.987  0.00  0.00    -0.355 OA
ATOM     17  C   UNL d   1      32.128 -15.982  -7.797  0.00  0.00     0.210 C 
ENDBRANCH  15  16
ENDBRANCH   6   9
ENDBRANCH   3   5
ENDBRANCH   1   3
BRANCH   1  18
ATOM     18  C   UNL d   1      27.450 -14.956  -3.524  0.00  0.00     0.036 A 
ATOM     19  C   UNL d   1      26.076 -14.779  -3.699  0.00  0.00     0.030 A 
ATOM     20  C   UNL d   1      25.152 -15.543  -2.930  0.00  0.00     0.019 A 
ATOM     21  C   UNL d   1      25.585 -16.521  -2.012  0.00  0.00     0.031 A 
ATOM     22  C   UNL d   1      26.971 -16.657  -1.810  0.00  0.00     0.083 A 
ATOM     23  C   UNL d   1      27.857 -15.861  -2.544  0.00  0.00     0.067 A 
BRANCH  21  24
ATOM     24  C   UNL d   1      24.648 -17.235  -1.136  0.00  0.00     0.088 A 
ATOM     25  C   UNL d   1      24.849 -17.731   0.134  0.00  0.00     0.041 A 
ATOM     26  C   UNL d   1      23.665 -18.370   0.524  0.00  0.00     0.038 A 
ATOM     27  C   UNL d   1      22.783 -18.262  -0.530  0.00  0.00     0.077 A 
ATOM     28  O   UNL d   1      23.372 -17.548  -1.559  0.00  0.00    -0.312 OA
BRANCH  27  29
ATOM     29  C   UNL d   1      21.391 -18.775  -0.682  0.00  0.00     0.229 C 
BRANCH  29  30
ATOM     30  O   UNL d   1      20.598 -17.732  -1.270  0.00  0.00    -0.394 OA
ATOM     31  H   UNL d   1      21.219 -17.083  -1.643  0.00  0.00     0.209 HD
ENDBRANCH  29  30
ENDBRANCH  27  29
ENDBRANCH  21  24
BRANCH  22  32
ATOM     32  O   UNL d   1      27.417 -17.538  -0.848  0.00  0.00    -0.355 OA
ATOM     33  C   UNL d   1      28.170 -16.987   0.232  0.00  0.00     0.210 C 
ENDBRANCH  22  32
ENDBRANCH   1  18
TORSDOF 9
ENDMDL
MODEL 8
REMARK VINA RESULT:    -6.954      2.982      7.340
REMARK INTER + INTRA:         -12.177
REMARK INTER:                  -9.638
REMARK INTRA:                  -2.539
REMARK CONF_INDEPENDENT:        2.685
REMARK UNBOUND:                -2.539
REMARK  9 active torsions:
REMARK  status: ('A' for Active; 'I' for Inactive)
REMARK    1  A    between atoms: O_2  and  C_3 
REMARK    2  A    between atoms: C_9  and  C_10 
REMARK       I    between atoms: C_10  and  N_12 
REMARK    3  A    between atoms: N_12  and  C_13 
REMARK    4  A    between atoms: C_13  and  N_15 
REMARK    5  A    between atoms: N_15  and  C_16 
REMARK    6  A    between atoms: C_19  and  C_20 
REMARK    7  A    between atoms: C_23  and  C_24 
REMARK    8  A    between atoms: C_24  and  O_25 
REMARK    9  A    between atoms: C_27  and  O_28 
ROOT
ATOM      1  N   UNL d   1      27.952 -13.106  -3.430  0.00  0.00    -0.333 N 
ATOM      2  H   UNL d   1      27.770 -12.163  -3.109  0.00  0.00     0.168 HD
ENDROOT
BRANCH   1   3
ATOM      3  C   UNL d   1      28.922 -13.341  -4.444  0.00  0.00     0.179 C 
ATOM      4  S   UNL d   1      29.446 -12.129  -5.512  0.00  0.00    -0.040 SA
BRANCH   3   5
ATOM      5  N   UNL d   1      29.457 -14.650  -4.468  0.00  0.00    -0.299 N 
ATOM      6  C   UNL d   1      29.316 -15.568  -5.530  0.00  0.00     0.260 C 
ATOM      7  O   UNL d   1      28.589 -15.382  -6.515  0.00  0.00    -0.267 OA
ATOM      8  H   UNL d   1      30.018 -14.967  -3.686  0.00  0.00     0.171 HD
BRANCH   6   9
ATOM      9  C   UNL d   1      30.020 -16.883  -5.553  0.00  0.00     0.067 A 
ATOM     10  C   UNL d   1      30.411 -17.366  -6.831  0.00  0.00     0.043 A 
ATOM     11  C   UNL d   1      31.073 -18.580  -6.975  0.00  0.00     0.035 A 
ATOM     12  C   UNL d   1      31.343 -19.348  -5.853  0.00  0.00     0.026 A 
ATOM     13 CL   UNL d   1      31.549 -19.135  -8.532  0.00  0.00    -0.084 Cl
ATOM     14  C   UNL d   1      30.966 -18.886  -4.586  0.00  0.00     0.039 A 
ATOM     15  C   UNL d   1      30.327 -17.644  -4.424  0.00  0.00     0.084 A 
BRANCH  15  16
ATOM     16  O   UNL d   1      29.919 -17.190  -3.198  0.00  0.00    -0.355 OA
ATOM     17  C   UNL d   1      30.777 -17.577  -2.125  0.00  0.00     0.210 C 
ENDBRANCH  15  16
ENDBRANCH   6   9
ENDBRANCH   3   5
ENDBRANCH   1   3
BRANCH   1  18
ATOM     18  C   UNL d   1      27.035 -14.116  -2.956  0.00  0.00     0.036 A 
ATOM     19  C   UNL d   1      25.672 -14.145  -3.256  0.00  0.00     0.030 A 
ATOM     20  C   UNL d   1      24.844 -15.176  -2.726  0.00  0.00     0.019 A 
ATOM     21  C   UNL d   1      25.372 -16.213  -1.931  0.00  0.00     0.031 A 
ATOM     22  C   UNL d   1      26.738 -16.147  -1.597  0.00  0.00     0.083 A 
ATOM     23  C   UNL d   1      27.520 -15.098  -2.092  0.00  0.00     0.067 A 
BRANCH  21  24
ATOM     24  C   UNL d   1      24.514 -17.215  -1.289  0.00  0.00     0.088 A 
ATOM     25  C   UNL d   1      24.837 -18.160  -0.339  0.00  0.00     0.041 A 
ATOM     26  C   UNL d   1      23.681 -18.909  -0.085  0.00  0.00     0.038 A 
ATOM     27  C   UNL d   1      22.690 -18.412  -0.905  0.00  0.00     0.077 A 
ATOM     28  O   UNL d   1      23.187 -17.352  -1.645  0.00  0.00    -0.312 OA
BRANCH  27  29
ATOM     29  C   UNL d   1      21.271 -18.837  -1.075  0.00  0.00     0.229 C 
BRANCH  29  30
ATOM     30  O   UNL d   1      20.474 -17.656  -1.252  0.00  0.00    -0.394 OA
ATOM     31  H   UNL d   1      21.052 -16.984  -1.652  0.00  0.00     0.209 HD
ENDBRANCH  29  30
ENDBRANCH  27  29
ENDBRANCH  21  24
BRANCH  22  32
ATOM     32  O   UNL d   1      27.256 -17.095  -0.742  0.00  0.00    -0.355 OA
ATOM     33  C   UNL d   1      27.672 -16.644   0.547  0.00  0.00     0.210 C 
ENDBRANCH  22  32
ENDBRANCH   1  18
TORSDOF 9
ENDMDL
MODEL 9
REMARK VINA RESULT:    -6.276      4.366      7.190
REMARK INTER + INTRA:         -12.158
REMARK INTER:                  -8.961
REMARK INTRA:                  -3.197
REMARK CONF_INDEPENDENT:        2.685
REMARK UNBOUND:                -3.197
REMARK  9 active torsions:
REMARK  status: ('A' for Active; 'I' for Inactive)
REMARK    1  A    between atoms: O_2  and  C_3 
REMARK    2  A    between atoms: C_9  and  C_10 
REMARK       I    between atoms: C_10  and  N_12 
REMARK    3  A    between atoms: N_12  and  C_13 
REMARK    4  A    between atoms: C_13  and  N_15 
REMARK    5  A    between atoms: N_15  and  C_16 
REMARK    6  A    between atoms: C_19  and  C_20 
REMARK    7  A    between atoms: C_23  and  C_24 
REMARK    8  A    between atoms: C_24  and  O_25 
REMARK    9  A    between atoms: C_27  and  O_28 
ROOT
ATOM      1  N   UNL d   1      28.508 -14.288  -7.167  0.00  0.00    -0.333 N 
ATOM      2  H   UNL d   1      28.882 -14.989  -7.794  0.00  0.00     0.168 HD
ENDROOT
BRANCH   1   3
ATOM      3  C   UNL d   1      28.531 -12.915  -7.535  0.00  0.00     0.179 C 
ATOM      4  S   UNL d   1      29.060 -12.380  -9.057  0.00  0.00    -0.040 SA
BRANCH   3   5
ATOM      5  N   UNL d   1      28.034 -12.025  -6.554  0.00  0.00    -0.299 N 
ATOM      6  C   UNL d   1      26.877 -11.228  -6.689  0.00  0.00     0.260 C 
ATOM      7  O   UNL d   1      26.235 -11.112  -7.741  0.00  0.00    -0.267 OA
ATOM      8  H   UNL d   1      28.508 -11.960  -5.661  0.00  0.00     0.171 HD
BRANCH   6   9
ATOM      9  C   UNL d   1      26.327 -10.415  -5.566  0.00  0.00     0.067 A 
ATOM     10  C   UNL d   1      25.359  -9.434  -5.914  0.00  0.00     0.043 A 
ATOM     11  C   UNL d   1      24.778  -8.617  -4.951  0.00  0.00     0.035 A 
ATOM     12  C   UNL d   1      25.160  -8.745  -3.625  0.00  0.00     0.026 A 
ATOM     13 CL   UNL d   1      23.598  -7.447  -5.396  0.00  0.00    -0.084 Cl
ATOM     14  C   UNL d   1      26.112  -9.708  -3.265  0.00  0.00     0.039 A 
ATOM     15  C   UNL d   1      26.681 -10.564  -4.224  0.00  0.00     0.084 A 
BRANCH  15  16
ATOM     16  O   UNL d   1      27.637 -11.488  -3.899  0.00  0.00    -0.355 OA
ATOM     17  C   UNL d   1      27.428 -12.114  -2.633  0.00  0.00     0.210 C 
ENDBRANCH  15  16
ENDBRANCH   6   9
ENDBRANCH   3   5
ENDBRANCH   1   3
BRANCH   1  18
ATOM     18  C   UNL d   1      28.171 -14.752  -5.841  0.00  0.00     0.036 A 
ATOM     19  C   UNL d   1      29.062 -15.400  -4.983  0.00  0.00     0.030 A 
ATOM     20  C   UNL d   1      28.630 -15.836  -3.698  0.00  0.00     0.019 A 
ATOM     21  C   UNL d   1      27.321 -15.591  -3.236  0.00  0.00     0.031 A 
ATOM     22  C   UNL d   1      26.419 -14.979  -4.127  0.00  0.00     0.083 A 
ATOM     23  C   UNL d   1      26.856 -14.603  -5.401  0.00  0.00     0.067 A 
BRANCH  21  24
ATOM     24  C   UNL d   1      26.832 -16.131  -1.962  0.00  0.00     0.088 A 
ATOM     25  C   UNL d   1      27.374 -16.015  -0.700  0.00  0.00     0.041 A 
ATOM     26  C   UNL d   1      26.561 -16.747   0.173  0.00  0.00     0.038 A 
ATOM     27  C   UNL d   1      25.555 -17.306  -0.586  0.00  0.00     0.077 A 
ATOM     28  O   UNL d   1      25.700 -16.920  -1.908  0.00  0.00    -0.312 OA
BRANCH  27  29
ATOM     29  C   UNL d   1      24.425 -18.196  -0.192  0.00  0.00     0.229 C 
BRANCH  29  30
ATOM     30  O   UNL d   1      23.452 -18.169  -1.247  0.00  0.00    -0.394 OA
ATOM     31  H   UNL d   1      23.896 -17.799  -2.029  0.00  0.00     0.209 HD
ENDBRANCH  29  30
ENDBRANCH  27  29
ENDBRANCH  21  24
BRANCH  22  32
ATOM     32  O   UNL d   1      25.108 -14.817  -3.734  0.00  0.00    -0.355 OA
ATOM     33  C   UNL d   1      24.409 -13.690  -4.265  0.00  0.00     0.210 C 
ENDBRANCH  22  32
ENDBRANCH   1  18
TORSDOF 9
ENDMDL
