MODEL 1
REMARK VINA RESULT:    -9.128      0.000      0.000
REMARK INTER + INTRA:         -11.703
REMARK INTER:                 -10.917
REMARK INTRA:                  -0.786
REMARK CONF_INDEPENDENT:        1.790
REMARK UNBOUND:                -0.786
REMARK  6 active torsions:
REMARK  status: ('A' for Active; 'I' for Inactive)
REMARK    1  A    between atoms: C_2  and  N_3 
REMARK       I    between atoms: N_3  and  C_4 
REMARK    2  A    between atoms: C_4  and  C_6 
REMARK    3  A    between atoms: C_11  and  N_12 
REMARK       I    between atoms: N_12  and  C_13 
REMARK       I    between atoms: C_13  and  N_15 
REMARK    4  A    between atoms: N_15  and  O_16 
REMARK    5  A    between atoms: O_16  and  C_17 
REMARK    6  A    between atoms: C_17  and  C_18 
ROOT
ATOM      1  N   UNL d   1      25.088 -17.586  -1.239  0.00  0.00    -0.307 N 
ATOM      2  C   UNL d   1      23.714 -17.840  -1.157  0.00  0.00     0.344 C 
ATOM      3  O   UNL d   1      22.817 -17.005  -1.270  0.00  0.00    -0.245 OA
ATOM      4  N   UNL d   1      23.390 -19.162  -0.947  0.00  0.00    -0.216 N 
ATOM      5  H   UNL d   1      25.713 -18.358  -1.070  0.00  0.00     0.170 HD
ATOM      6  H   UNL d   1      24.032 -19.914  -0.764  0.00  0.00     0.199 HD
ENDROOT
BRANCH   1   7
ATOM      7  C   UNL d   1      25.686 -16.303  -1.462  0.00  0.00     0.043 C 
ATOM      8  C   UNL d   1      26.736 -15.790  -0.685  0.00  0.00    -0.035 C 
ATOM      9  C   UNL d   1      27.241 -14.490  -0.966  0.00  0.00     0.010 C 
ATOM     10  C   UNL d   1      27.386 -16.592   0.403  0.00  0.00     0.050 C 
ATOM     11  C   UNL d   1      26.685 -13.688  -1.976  0.00  0.00     0.017 C 
ATOM     12  C   UNL d   1      25.646 -14.196  -2.746  0.00  0.00     0.034 C 
ATOM     13  C   UNL d   1      25.250 -15.511  -2.516  0.00  0.00     0.047 C 
BRANCH  12  14
ATOM     14  C   UNL d   1      25.054 -13.447  -3.893  0.00  0.00     0.251 C 
ATOM     15  N   UNL d   1      25.755 -12.392  -4.461  0.00  0.00    -0.357 N 
ATOM     16  H   UNL d   1      25.140 -11.808  -5.015  0.00  0.00     0.162 HD
ATOM     17  O   UNL d   1      23.909 -13.700  -4.270  0.00  0.00    -0.268 OA
BRANCH  15  18
ATOM     18  C   UNL d   1      27.127 -12.486  -4.976  0.00  0.00     0.118 C 
ATOM     19  C   UNL d   1      27.482 -13.890  -5.419  0.00  0.00     0.026 C 
ENDBRANCH  15  18
ENDBRANCH  12  14
ENDBRANCH   1   7
BRANCH   4  20
ATOM     20  O   UNL d   1      21.984 -19.388  -0.884  0.00  0.00    -0.272 OA
BRANCH  20  21
ATOM     21  C   UNL d   1      21.405 -18.950   0.344  0.00  0.00     0.240 C 
BRANCH  21  22
ATOM     22  C   UNL d   1      20.146 -19.715   0.695  0.00  0.00    -0.032 A 
ATOM     23  C   UNL d   1      19.914 -20.083   2.031  0.00  0.00     0.009 A 
ATOM     24  C   UNL d   1      18.770 -20.802   2.386  0.00  0.00     0.001 A 
ATOM     25  C   UNL d   1      17.848 -21.173   1.410  0.00  0.00     0.000 A 
ATOM     26  C   UNL d   1      18.070 -20.825   0.079  0.00  0.00     0.001 A 
ATOM     27  C   UNL d   1      19.214 -20.107  -0.277  0.00  0.00     0.009 A 
ENDBRANCH  21  22
ENDBRANCH  20  21
ENDBRANCH   4  20
TORSDOF 6
ENDMDL
MODEL 2
REMARK VINA RESULT:    -8.583      1.521      1.987
REMARK INTER + INTRA:         -11.254
REMARK INTER:                 -10.373
REMARK INTRA:                  -0.881
REMARK CONF_INDEPENDENT:        1.790
REMARK UNBOUND:                -0.881
REMARK  6 active torsions:
REMARK  status: ('A' for Active; 'I' for Inactive)
REMARK    1  A    between atoms: C_2  and  N_3 
REMARK       I    between atoms: N_3  and  C_4 
REMARK    2  A    between atoms: C_4  and  C_6 
REMARK    3  A    between atoms: C_11  and  N_12 
REMARK       I    between atoms: N_12  and  C_13 
REMARK       I    between atoms: C_13  and  N_15 
REMARK    4  A    between atoms: N_15  and  O_16 
REMARK    5  A    between atoms: O_16  and  C_17 
REMARK    6  A    between atoms: C_17  and  C_18 
ROOT
ATOM      1  N   UNL d   1      24.654 -18.035   0.098  0.00  0.00    -0.307 N 
ATOM      2  C   UNL d   1      23.641 -18.299  -0.830  0.00  0.00     0.344 C 
ATOM      3  O   UNL d   1      23.621 -17.927  -2.003  0.00  0.00    -0.245 OA
ATOM      4  N   UNL d   1      22.604 -19.062  -0.341  0.00  0.00    -0.216 N 
ATOM      5  H   UNL d   1      24.512 -18.354   1.043  0.00  0.00     0.170 HD
ATOM      6  H   UNL d   1      22.474 -19.355   0.613  0.00  0.00     0.199 HD
ENDROOT
BRANCH   1   7
ATOM      7  C   UNL d   1      25.843 -17.277  -0.158  0.00  0.00     0.043 C 
ATOM      8  C   UNL d   1      27.138 -17.748   0.106  0.00  0.00    -0.035 C 
ATOM      9  C   UNL d   1      28.253 -16.906  -0.154  0.00  0.00     0.010 C 
ATOM     10  C   UNL d   1      27.390 -19.140   0.605  0.00  0.00     0.050 C 
ATOM     11  C   UNL d   1      28.090 -15.595  -0.630  0.00  0.00     0.017 C 
ATOM     12  C   UNL d   1      26.808 -15.128  -0.893  0.00  0.00     0.034 C 
ATOM     13  C   UNL d   1      25.747 -16.015  -0.731  0.00  0.00     0.047 C 
BRANCH  12  14
ATOM     14  C   UNL d   1      26.547 -13.780  -1.480  0.00  0.00     0.251 C 
ATOM     15  N   UNL d   1      26.411 -13.643  -2.855  0.00  0.00    -0.357 N 
ATOM     16  H   UNL d   1      26.525 -12.676  -3.133  0.00  0.00     0.162 HD
ATOM     17  O   UNL d   1      26.550 -12.782  -0.759  0.00  0.00    -0.268 OA
BRANCH  15  18
ATOM     18  C   UNL d   1      25.460 -14.403  -3.677  0.00  0.00     0.118 C 
ATOM     19  C   UNL d   1      26.132 -15.097  -4.843  0.00  0.00     0.026 C 
ENDBRANCH  15  18
ENDBRANCH  12  14
ENDBRANCH   1   7
BRANCH   4  20
ATOM     20  O   UNL d   1      21.597 -19.325  -1.315  0.00  0.00    -0.272 OA
BRANCH  20  21
ATOM     21  C   UNL d   1      20.340 -18.735  -0.989  0.00  0.00     0.240 C 
BRANCH  21  22
ATOM     22  C   UNL d   1      19.520 -19.601  -0.056  0.00  0.00    -0.032 A 
ATOM     23  C   UNL d   1      19.843 -19.638   1.311  0.00  0.00     0.009 A 
ATOM     24  C   UNL d   1      19.117 -20.439   2.196  0.00  0.00     0.001 A 
ATOM     25  C   UNL d   1      18.065 -21.222   1.726  0.00  0.00     0.000 A 
ATOM     26  C   UNL d   1      17.740 -21.205   0.371  0.00  0.00     0.001 A 
ATOM     27  C   UNL d   1      18.467 -20.406  -0.514  0.00  0.00     0.009 A 
ENDBRANCH  21  22
ENDBRANCH  20  21
ENDBRANCH   4  20
TORSDOF 6
ENDMDL
MODEL 3
REMARK VINA RESULT:    -8.548      1.531      2.010
REMARK INTER + INTRA:         -11.152
REMARK INTER:                 -10.337
REMARK INTRA:                  -0.814
REMARK CONF_INDEPENDENT:        1.790
REMARK UNBOUND:                -0.814
REMARK  6 active torsions:
REMARK  status: ('A' for Active; 'I' for Inactive)
REMARK    1  A    between atoms: C_2  and  N_3 
REMARK       I    between atoms: N_3  and  C_4 
REMARK    2  A    between atoms: C_4  and  C_6 
REMARK    3  A    between atoms: C_11  and  N_12 
REMARK       I    between atoms: N_12  and  C_13 
REMARK       I    between atoms: C_13  and  N_15 
REMARK    4  A    between atoms: N_15  and  O_16 
REMARK    5  A    between atoms: O_16  and  C_17 
REMARK    6  A    between atoms: C_17  and  C_18 
ROOT
ATOM      1  N   UNL d   1      24.366 -16.224  -1.003  0.00  0.00    -0.307 N 
ATOM      2  C   UNL d   1      23.427 -17.244  -1.192  0.00  0.00     0.344 C 
ATOM      3  O   UNL d   1      23.582 -18.250  -1.883  0.00  0.00    -0.245 OA
ATOM      4  N   UNL d   1      22.246 -17.064  -0.506  0.00  0.00    -0.216 N 
ATOM      5  H   UNL d   1      24.084 -15.428  -0.454  0.00  0.00     0.170 HD
ATOM      6  H   UNL d   1      21.978 -16.252   0.023  0.00  0.00     0.199 HD
ENDROOT
BRANCH   1   7
ATOM      7  C   UNL d   1      25.673 -16.175  -1.591  0.00  0.00     0.043 C 
ATOM      8  C   UNL d   1      26.816 -16.727  -0.993  0.00  0.00    -0.035 C 
ATOM      9  C   UNL d   1      28.074 -16.598  -1.644  0.00  0.00     0.010 C 
ATOM     10  C   UNL d   1      26.747 -17.502   0.288  0.00  0.00     0.050 C 
ATOM     11  C   UNL d   1      28.209 -15.892  -2.850  0.00  0.00     0.017 C 
ATOM     12  C   UNL d   1      27.078 -15.346  -3.443  0.00  0.00     0.034 C 
ATOM     13  C   UNL d   1      25.847 -15.585  -2.837  0.00  0.00     0.047 C 
BRANCH  12  14
ATOM     14  C   UNL d   1      27.116 -14.655  -4.766  0.00  0.00     0.251 C 
ATOM     15  N   UNL d   1      26.507 -13.416  -4.912  0.00  0.00    -0.357 N 
ATOM     16  H   UNL d   1      26.358 -13.202  -5.891  0.00  0.00     0.162 HD
ATOM     17  O   UNL d   1      27.598 -15.224  -5.746  0.00  0.00    -0.268 OA
BRANCH  15  18
ATOM     18  C   UNL d   1      26.790 -12.246  -4.071  0.00  0.00     0.118 C 
ATOM     19  C   UNL d   1      25.529 -11.520  -3.651  0.00  0.00     0.026 C 
ENDBRANCH  15  18
ENDBRANCH  12  14
ENDBRANCH   1   7
BRANCH   4  20
ATOM     20  O   UNL d   1      21.317 -18.127  -0.708  0.00  0.00    -0.272 OA
BRANCH  20  21
ATOM     21  C   UNL d   1      21.559 -19.246   0.143  0.00  0.00     0.240 C 
BRANCH  21  22
ATOM     22  C   UNL d   1      20.279 -19.856   0.673  0.00  0.00    -0.032 A 
ATOM     23  C   UNL d   1      19.296 -20.288  -0.234  0.00  0.00     0.009 A 
ATOM     24  C   UNL d   1      18.097 -20.843   0.221  0.00  0.00     0.001 A 
ATOM     25  C   UNL d   1      17.858 -20.962   1.588  0.00  0.00     0.000 A 
ATOM     26  C   UNL d   1      18.818 -20.528   2.500  0.00  0.00     0.001 A 
ATOM     27  C   UNL d   1      20.017 -19.973   2.046  0.00  0.00     0.009 A 
ENDBRANCH  21  22
ENDBRANCH  20  21
ENDBRANCH   4  20
TORSDOF 6
ENDMDL
MODEL 4
REMARK VINA RESULT:    -8.010      1.874      8.863
REMARK INTER + INTRA:         -10.672
REMARK INTER:                  -9.799
REMARK INTRA:                  -0.872
REMARK CONF_INDEPENDENT:        1.790
REMARK UNBOUND:                -0.872
REMARK  6 active torsions:
REMARK  status: ('A' for Active; 'I' for Inactive)
REMARK    1  A    between atoms: C_2  and  N_3 
REMARK       I    between atoms: N_3  and  C_4 
REMARK    2  A    between atoms: C_4  and  C_6 
REMARK    3  A    between atoms: C_11  and  N_12 
REMARK       I    between atoms: N_12  and  C_13 
REMARK       I    between atoms: C_13  and  N_15 
REMARK    4  A    between atoms: N_15  and  O_16 
REMARK    5  A    between atoms: O_16  and  C_17 
REMARK    6  A    between atoms: C_17  and  C_18 
ROOT
ATOM      1  N   UNL d   1      25.256 -15.141  -1.525  0.00  0.00    -0.307 N 
ATOM      2  C   UNL d   1      25.422 -14.827  -2.878  0.00  0.00     0.344 C 
ATOM      3  O   UNL d   1      25.155 -15.561  -3.829  0.00  0.00    -0.245 OA
ATOM      4  N   UNL d   1      25.916 -13.563  -3.113  0.00  0.00    -0.216 N 
ATOM      5  H   UNL d   1      25.571 -14.464  -0.849  0.00  0.00     0.170 HD
ATOM      6  H   UNL d   1      26.241 -12.908  -2.421  0.00  0.00     0.199 HD
ENDROOT
BRANCH   1   7
ATOM      7  C   UNL d   1      24.751 -16.381  -1.014  0.00  0.00     0.043 C 
ATOM      8  C   UNL d   1      25.558 -17.362  -0.416  0.00  0.00    -0.035 C 
ATOM      9  C   UNL d   1      24.965 -18.574   0.031  0.00  0.00     0.010 C 
ATOM     10  C   UNL d   1      27.024 -17.150  -0.180  0.00  0.00     0.050 C 
ATOM     11  C   UNL d   1      23.598 -18.835  -0.149  0.00  0.00     0.017 C 
ATOM     12  C   UNL d   1      22.798 -17.865  -0.740  0.00  0.00     0.034 C 
ATOM     13  C   UNL d   1      23.389 -16.647  -1.067  0.00  0.00     0.047 C 
BRANCH  12  14
ATOM     14  C   UNL d   1      21.322 -18.022  -0.894  0.00  0.00     0.251 C 
ATOM     15  N   UNL d   1      20.741 -19.271  -0.720  0.00  0.00    -0.357 N 
ATOM     16  H   UNL d   1      19.813 -19.296  -1.124  0.00  0.00     0.162 HD
ATOM     17  O   UNL d   1      20.635 -17.071  -1.270  0.00  0.00    -0.268 OA
BRANCH  15  18
ATOM     18  C   UNL d   1      20.903 -20.103   0.479  0.00  0.00     0.118 C 
ATOM     19  C   UNL d   1      19.577 -20.446   1.127  0.00  0.00     0.026 C 
ENDBRANCH  15  18
ENDBRANCH  12  14
ENDBRANCH   1   7
BRANCH   4  20
ATOM     20  O   UNL d   1      26.059 -13.268  -4.501  0.00  0.00    -0.272 OA
BRANCH  20  21
ATOM     21  C   UNL d   1      27.362 -12.794  -4.837  0.00  0.00     0.240 C 
BRANCH  21  22
ATOM     22  C   UNL d   1      28.303 -13.916  -5.222  0.00  0.00    -0.032 A 
ATOM     23  C   UNL d   1      29.264 -13.696  -6.224  0.00  0.00     0.009 A 
ATOM     24  C   UNL d   1      30.138 -14.714  -6.613  0.00  0.00     0.001 A 
ATOM     25  C   UNL d   1      30.057 -15.969  -6.016  0.00  0.00     0.000 A 
ATOM     26  C   UNL d   1      29.101 -16.207  -5.029  0.00  0.00     0.001 A 
ATOM     27  C   UNL d   1      28.227 -15.190  -4.640  0.00  0.00     0.009 A 
ENDBRANCH  21  22
ENDBRANCH  20  21
ENDBRANCH   4  20
TORSDOF 6
ENDMDL
MODEL 5
REMARK VINA RESULT:    -7.940      3.991      9.205
REMARK INTER + INTRA:         -10.547
REMARK INTER:                  -9.730
REMARK INTRA:                  -0.817
REMARK CONF_INDEPENDENT:        1.790
REMARK UNBOUND:                -0.817
REMARK  6 active torsions:
REMARK  status: ('A' for Active; 'I' for Inactive)
REMARK    1  A    between atoms: C_2  and  N_3 
REMARK       I    between atoms: N_3  and  C_4 
REMARK    2  A    between atoms: C_4  and  C_6 
REMARK    3  A    between atoms: C_11  and  N_12 
REMARK       I    between atoms: N_12  and  C_13 
REMARK       I    between atoms: C_13  and  N_15 
REMARK    4  A    between atoms: N_15  and  O_16 
REMARK    5  A    between atoms: O_16  and  C_17 
REMARK    6  A    between atoms: C_17  and  C_18 
ROOT
ATOM      1  N   UNL d   1      27.728 -15.560  -3.419  0.00  0.00    -0.307 N 
ATOM      2  C   UNL d   1      28.001 -15.532  -4.791  0.00  0.00     0.344 C 
ATOM      3  O   UNL d   1      27.167 -15.574  -5.695  0.00  0.00    -0.245 OA
ATOM      4  N   UNL d   1      29.339 -15.433  -5.104  0.00  0.00    -0.216 N 
ATOM      5  H   UNL d   1      28.514 -15.576  -2.790  0.00  0.00     0.170 HD
ATOM      6  H   UNL d   1      30.109 -15.469  -4.458  0.00  0.00     0.199 HD
ENDROOT
BRANCH   1   7
ATOM      7  C   UNL d   1      26.424 -15.648  -2.831  0.00  0.00     0.043 C 
ATOM      8  C   UNL d   1      25.407 -14.706  -3.049  0.00  0.00    -0.035 C 
ATOM      9  C   UNL d   1      24.156 -14.866  -2.393  0.00  0.00     0.010 C 
ATOM     10  C   UNL d   1      25.577 -13.559  -4.001  0.00  0.00     0.050 C 
ATOM     11  C   UNL d   1      23.925 -15.922  -1.497  0.00  0.00     0.017 C 
ATOM     12  C   UNL d   1      24.931 -16.855  -1.281  0.00  0.00     0.034 C 
ATOM     13  C   UNL d   1      26.103 -16.731  -2.021  0.00  0.00     0.047 C 
BRANCH  12  14
ATOM     14  C   UNL d   1      24.744 -18.054  -0.411  0.00  0.00     0.251 C 
ATOM     15  N   UNL d   1      23.468 -18.558  -0.200  0.00  0.00    -0.357 N 
ATOM     16  H   UNL d   1      23.450 -19.167   0.608  0.00  0.00     0.162 HD
ATOM     17  O   UNL d   1      25.703 -18.534   0.194  0.00  0.00    -0.268 OA
BRANCH  15  18
ATOM     18  C   UNL d   1      22.539 -18.945  -1.270  0.00  0.00     0.118 C 
ATOM     19  C   UNL d   1      21.097 -18.957  -0.805  0.00  0.00     0.026 C 
ENDBRANCH  15  18
ENDBRANCH  12  14
ENDBRANCH   1   7
BRANCH   4  20
ATOM     20  O   UNL d   1      29.581 -15.392  -6.509  0.00  0.00    -0.272 OA
BRANCH  20  21
ATOM     21  C   UNL d   1      30.839 -15.960  -6.872  0.00  0.00     0.240 C 
BRANCH  21  22
ATOM     22  C   UNL d   1      30.807 -17.473  -6.887  0.00  0.00    -0.032 A 
ATOM     23  C   UNL d   1      30.438 -18.166  -5.721  0.00  0.00     0.009 A 
ATOM     24  C   UNL d   1      30.412 -19.563  -5.697  0.00  0.00     0.001 A 
ATOM     25  C   UNL d   1      30.766 -20.287  -6.833  0.00  0.00     0.000 A 
ATOM     26  C   UNL d   1      31.145 -19.615  -7.993  0.00  0.00     0.001 A 
ATOM     27  C   UNL d   1      31.172 -18.219  -8.018  0.00  0.00     0.009 A 
ENDBRANCH  21  22
ENDBRANCH  20  21
ENDBRANCH   4  20
TORSDOF 6
ENDMDL
MODEL 6
REMARK VINA RESULT:    -7.804      2.140      3.441
REMARK INTER + INTRA:         -10.372
REMARK INTER:                  -9.594
REMARK INTRA:                  -0.778
REMARK CONF_INDEPENDENT:        1.790
REMARK UNBOUND:                -0.778
REMARK  6 active torsions:
REMARK  status: ('A' for Active; 'I' for Inactive)
REMARK    1  A    between atoms: C_2  and  N_3 
REMARK       I    between atoms: N_3  and  C_4 
REMARK    2  A    between atoms: C_4  and  C_6 
REMARK    3  A    between atoms: C_11  and  N_12 
REMARK       I    between atoms: N_12  and  C_13 
REMARK       I    between atoms: C_13  and  N_15 
REMARK    4  A    between atoms: N_15  and  O_16 
REMARK    5  A    between atoms: O_16  and  C_17 
REMARK    6  A    between atoms: C_17  and  C_18 
ROOT
ATOM      1  N   UNL d   1      24.930 -16.902  -1.751  0.00  0.00    -0.307 N 
ATOM      2  C   UNL d   1      23.644 -17.215  -1.298  0.00  0.00     0.344 C 
ATOM      3  O   UNL d   1      22.941 -16.511  -0.573  0.00  0.00    -0.245 OA
ATOM      4  N   UNL d   1      23.160 -18.424  -1.747  0.00  0.00    -0.216 N 
ATOM      5  H   UNL d   1      25.413 -17.598  -2.295  0.00  0.00     0.170 HD
ATOM      6  H   UNL d   1      23.668 -19.113  -2.275  0.00  0.00     0.199 HD
ENDROOT
BRANCH   1   7
ATOM      7  C   UNL d   1      25.654 -15.704  -1.440  0.00  0.00     0.043 C 
ATOM      8  C   UNL d   1      25.637 -14.554  -2.243  0.00  0.00    -0.035 C 
ATOM      9  C   UNL d   1      26.416 -13.427  -1.864  0.00  0.00     0.010 C 
ATOM     10  C   UNL d   1      24.775 -14.452  -3.467  0.00  0.00     0.050 C 
ATOM     11  C   UNL d   1      27.238 -13.450  -0.727  0.00  0.00     0.017 C 
ATOM     12  C   UNL d   1      27.255 -14.588   0.070  0.00  0.00     0.034 C 
ATOM     13  C   UNL d   1      26.399 -15.632  -0.269  0.00  0.00     0.047 C 
BRANCH  12  14
ATOM     14  C   UNL d   1      28.034 -14.669   1.341  0.00  0.00     0.251 C 
ATOM     15  N   UNL d   1      29.317 -15.198   1.330  0.00  0.00    -0.357 N 
ATOM     16  H   UNL d   1      29.609 -15.455   2.265  0.00  0.00     0.162 HD
ATOM     17  O   UNL d   1      27.504 -14.361   2.410  0.00  0.00    -0.268 OA
BRANCH  15  18
ATOM     18  C   UNL d   1      30.405 -14.723   0.465  0.00  0.00     0.118 C 
ATOM     19  C   UNL d   1      30.341 -15.325  -0.924  0.00  0.00     0.026 C 
ENDBRANCH  15  18
ENDBRANCH  12  14
ENDBRANCH   1   7
BRANCH   4  20
ATOM     20  O   UNL d   1      21.843 -18.706  -1.280  0.00  0.00    -0.272 OA
BRANCH  20  21
ATOM     21  C   UNL d   1      21.783 -18.892   0.133  0.00  0.00     0.240 C 
BRANCH  21  22
ATOM     22  C   UNL d   1      20.504 -19.574   0.572  0.00  0.00    -0.032 A 
ATOM     23  C   UNL d   1      20.270 -19.785   1.941  0.00  0.00     0.009 A 
ATOM     24  C   UNL d   1      19.108 -20.424   2.379  0.00  0.00     0.001 A 
ATOM     25  C   UNL d   1      18.168 -20.872   1.454  0.00  0.00     0.000 A 
ATOM     26  C   UNL d   1      18.390 -20.681   0.091  0.00  0.00     0.001 A 
ATOM     27  C   UNL d   1      19.553 -20.043  -0.347  0.00  0.00     0.009 A 
ENDBRANCH  21  22
ENDBRANCH  20  21
ENDBRANCH   4  20
TORSDOF 6
ENDMDL
MODEL 7
REMARK VINA RESULT:    -7.733      2.038      8.624
REMARK INTER + INTRA:         -10.282
REMARK INTER:                  -9.523
REMARK INTRA:                  -0.759
REMARK CONF_INDEPENDENT:        1.790
REMARK UNBOUND:                -0.759
REMARK  6 active torsions:
REMARK  status: ('A' for Active; 'I' for Inactive)
REMARK    1  A    between atoms: C_2  and  N_3 
REMARK       I    between atoms: N_3  and  C_4 
REMARK    2  A    between atoms: C_4  and  C_6 
REMARK    3  A    between atoms: C_11  and  N_12 
REMARK       I    between atoms: N_12  and  C_13 
REMARK       I    between atoms: C_13  and  N_15 
REMARK    4  A    between atoms: N_15  and  O_16 
REMARK    5  A    between atoms: O_16  and  C_17 
REMARK    6  A    between atoms: C_17  and  C_18 
ROOT
ATOM      1  N   UNL d   1      26.838 -15.886  -2.350  0.00  0.00    -0.307 N 
ATOM      2  C   UNL d   1      26.386 -15.374  -3.571  0.00  0.00     0.344 C 
ATOM      3  O   UNL d   1      25.247 -15.485  -4.024  0.00  0.00    -0.245 OA
ATOM      4  N   UNL d   1      27.337 -14.678  -4.284  0.00  0.00    -0.216 N 
ATOM      5  H   UNL d   1      27.814 -15.769  -2.130  0.00  0.00     0.170 HD
ATOM      6  H   UNL d   1      28.312 -14.588  -4.052  0.00  0.00     0.199 HD
ENDROOT
BRANCH   1   7
ATOM      7  C   UNL d   1      26.048 -16.636  -1.418  0.00  0.00     0.043 C 
ATOM      8  C   UNL d   1      26.595 -17.484  -0.442  0.00  0.00    -0.035 C 
ATOM      9  C   UNL d   1      25.725 -18.211   0.416  0.00  0.00     0.010 C 
ATOM     10  C   UNL d   1      28.075 -17.608  -0.235  0.00  0.00     0.050 C 
ATOM     11  C   UNL d   1      24.329 -18.136   0.283  0.00  0.00     0.017 C 
ATOM     12  C   UNL d   1      23.788 -17.296  -0.682  0.00  0.00     0.034 C 
ATOM     13  C   UNL d   1      24.665 -16.516  -1.431  0.00  0.00     0.047 C 
BRANCH  12  14
ATOM     14  C   UNL d   1      22.317 -17.090  -0.836  0.00  0.00     0.251 C 
ATOM     15  N   UNL d   1      21.484 -18.185  -1.021  0.00  0.00    -0.357 N 
ATOM     16  H   UNL d   1      20.587 -17.896  -1.389  0.00  0.00     0.162 HD
ATOM     17  O   UNL d   1      21.857 -15.949  -0.897  0.00  0.00    -0.268 OA
BRANCH  15  18
ATOM     18  C   UNL d   1      21.426 -19.346  -0.124  0.00  0.00     0.118 C 
ATOM     19  C   UNL d   1      20.016 -19.870   0.051  0.00  0.00     0.026 C 
ENDBRANCH  15  18
ENDBRANCH  12  14
ENDBRANCH   1   7
BRANCH   4  20
ATOM     20  O   UNL d   1      26.841 -14.157  -5.514  0.00  0.00    -0.272 OA
BRANCH  20  21
ATOM     21  C   UNL d   1      27.465 -12.930  -5.890  0.00  0.00     0.240 C 
BRANCH  21  22
ATOM     22  C   UNL d   1      26.670 -11.719  -5.450  0.00  0.00    -0.032 A 
ATOM     23  C   UNL d   1      26.330 -11.574  -4.094  0.00  0.00     0.009 A 
ATOM     24  C   UNL d   1      25.585 -10.476  -3.657  0.00  0.00     0.001 A 
ATOM     25  C   UNL d   1      25.158  -9.515  -4.569  0.00  0.00     0.000 A 
ATOM     26  C   UNL d   1      25.476  -9.651  -5.919  0.00  0.00     0.001 A 
ATOM     27  C   UNL d   1      26.221 -10.748  -6.357  0.00  0.00     0.009 A 
ENDBRANCH  21  22
ENDBRANCH  20  21
ENDBRANCH   4  20
TORSDOF 6
ENDMDL
MODEL 8
REMARK VINA RESULT:    -7.688      5.043      6.743
REMARK INTER + INTRA:         -10.370
REMARK INTER:                  -9.478
REMARK INTRA:                  -0.893
REMARK CONF_INDEPENDENT:        1.790
REMARK UNBOUND:                -0.893
REMARK  6 active torsions:
REMARK  status: ('A' for Active; 'I' for Inactive)
REMARK    1  A    between atoms: C_2  and  N_3 
REMARK       I    between atoms: N_3  and  C_4 
REMARK    2  A    between atoms: C_4  and  C_6 
REMARK    3  A    between atoms: C_11  and  N_12 
REMARK       I    between atoms: N_12  and  C_13 
REMARK       I    between atoms: C_13  and  N_15 
REMARK    4  A    between atoms: N_15  and  O_16 
REMARK    5  A    between atoms: O_16  and  C_17 
REMARK    6  A    between atoms: C_17  and  C_18 
ROOT
ATOM      1  N   UNL d   1      28.498 -14.558   2.844  0.00  0.00    -0.307 N 
ATOM      2  C   UNL d   1      27.772 -14.793   1.672  0.00  0.00     0.344 C 
ATOM      3  O   UNL d   1      26.867 -14.088   1.228  0.00  0.00    -0.245 OA
ATOM      4  N   UNL d   1      28.156 -15.921   0.980  0.00  0.00    -0.216 N 
ATOM      5  H   UNL d   1      29.175 -15.251   3.118  0.00  0.00     0.170 HD
ATOM      6  H   UNL d   1      28.824 -16.610   1.282  0.00  0.00     0.199 HD
ENDROOT
BRANCH   1   7
ATOM      7  C   UNL d   1      28.304 -13.453   3.736  0.00  0.00     0.043 C 
ATOM      8  C   UNL d   1      28.423 -13.550   5.131  0.00  0.00    -0.035 C 
ATOM      9  C   UNL d   1      28.179 -12.401   5.933  0.00  0.00     0.010 C 
ATOM     10  C   UNL d   1      28.855 -14.817   5.806  0.00  0.00     0.050 C 
ATOM     11  C   UNL d   1      27.780 -11.180   5.366  0.00  0.00     0.017 C 
ATOM     12  C   UNL d   1      27.663 -11.083   3.985  0.00  0.00     0.034 C 
ATOM     13  C   UNL d   1      28.015 -12.194   3.224  0.00  0.00     0.047 C 
BRANCH  12  14
ATOM     14  C   UNL d   1      27.328  -9.803   3.294  0.00  0.00     0.251 C 
ATOM     15  N   UNL d   1      28.196  -9.288   2.341  0.00  0.00    -0.357 N 
ATOM     16  H   UNL d   1      28.002  -8.309   2.169  0.00  0.00     0.162 HD
ATOM     17  O   UNL d   1      26.336  -9.158   3.636  0.00  0.00    -0.268 OA
BRANCH  15  18
ATOM     18  C   UNL d   1      28.674 -10.027   1.165  0.00  0.00     0.118 C 
ATOM     19  C   UNL d   1      27.538 -10.535   0.301  0.00  0.00     0.026 C 
ENDBRANCH  15  18
ENDBRANCH  12  14
ENDBRANCH   1   7
BRANCH   4  20
ATOM     20  O   UNL d   1      27.408 -16.124  -0.216  0.00  0.00    -0.272 OA
BRANCH  20  21
ATOM     21  C   UNL d   1      26.857 -17.437  -0.312  0.00  0.00     0.240 C 
BRANCH  21  22
ATOM     22  C   UNL d   1      25.345 -17.424  -0.392  0.00  0.00    -0.032 A 
ATOM     23  C   UNL d   1      24.629 -18.589  -0.067  0.00  0.00     0.009 A 
ATOM     24  C   UNL d   1      23.235 -18.616  -0.145  0.00  0.00     0.001 A 
ATOM     25  C   UNL d   1      22.537 -17.484  -0.559  0.00  0.00     0.000 A 
ATOM     26  C   UNL d   1      23.233 -16.325  -0.895  0.00  0.00     0.001 A 
ATOM     27  C   UNL d   1      24.627 -16.297  -0.819  0.00  0.00     0.009 A 
ENDBRANCH  21  22
ENDBRANCH  20  21
ENDBRANCH   4  20
TORSDOF 6
ENDMDL
MODEL 9
REMARK VINA RESULT:    -7.450      4.292      7.464
REMARK INTER + INTRA:         -10.346
REMARK INTER:                  -9.240
REMARK INTRA:                  -1.106
REMARK CONF_INDEPENDENT:        1.790
REMARK UNBOUND:                -1.106
REMARK  6 active torsions:
REMARK  status: ('A' for Active; 'I' for Inactive)
REMARK    1  A    between atoms: C_2  and  N_3 
REMARK       I    between atoms: N_3  and  C_4 
REMARK    2  A    between atoms: C_4  and  C_6 
REMARK    3  A    between atoms: C_11  and  N_12 
REMARK       I    between atoms: N_12  and  C_13 
REMARK       I    between atoms: C_13  and  N_15 
REMARK    4  A    between atoms: N_15  and  O_16 
REMARK    5  A    between atoms: O_16  and  C_17 
REMARK    6  A    between atoms: C_17  and  C_18 
ROOT
ATOM      1  N   UNL d   1      28.386 -16.529   0.260  0.00  0.00    -0.307 N 
ATOM      2  C   UNL d   1      29.083 -15.332   0.457  0.00  0.00     0.344 C 
ATOM      3  O   UNL d   1      28.735 -14.219   0.061  0.00  0.00    -0.245 OA
ATOM      4  N   UNL d   1      30.248 -15.463   1.179  0.00  0.00    -0.216 N 
ATOM      5  H   UNL d   1      28.817 -17.377   0.590  0.00  0.00     0.170 HD
ATOM      6  H   UNL d   1      30.669 -16.324   1.484  0.00  0.00     0.199 HD
ENDROOT
BRANCH   1   7
ATOM      7  C   UNL d   1      27.145 -16.664  -0.446  0.00  0.00     0.043 C 
ATOM      8  C   UNL d   1      26.181 -17.638  -0.144  0.00  0.00    -0.035 C 
ATOM      9  C   UNL d   1      24.996 -17.711  -0.924  0.00  0.00     0.010 C 
ATOM     10  C   UNL d   1      26.335 -18.575   1.017  0.00  0.00     0.050 C 
ATOM     11  C   UNL d   1      24.783 -16.860  -2.020  0.00  0.00     0.017 C 
ATOM     12  C   UNL d   1      25.736 -15.894  -2.319  0.00  0.00     0.034 C 
ATOM     13  C   UNL d   1      26.832 -15.778  -1.469  0.00  0.00     0.047 C 
BRANCH  12  14
ATOM     14  C   UNL d   1      25.553 -14.893  -3.411  0.00  0.00     0.251 C 
ATOM     15  N   UNL d   1      26.663 -14.382  -4.069  0.00  0.00    -0.357 N 
ATOM     16  H   UNL d   1      26.427 -13.531  -4.565  0.00  0.00     0.162 HD
ATOM     17  O   UNL d   1      24.431 -14.450  -3.661  0.00  0.00    -0.268 OA
BRANCH  15  18
ATOM     18  C   UNL d   1      27.692 -15.200  -4.724  0.00  0.00     0.118 C 
ATOM     19  C   UNL d   1      28.036 -14.694  -6.110  0.00  0.00     0.026 C 
ENDBRANCH  15  18
ENDBRANCH  12  14
ENDBRANCH   1   7
BRANCH   4  20
ATOM     20  O   UNL d   1      30.926 -14.224   1.374  0.00  0.00    -0.272 OA
BRANCH  20  21
ATOM     21  C   UNL d   1      31.085 -13.889   2.752  0.00  0.00     0.240 C 
BRANCH  21  22
ATOM     22  C   UNL d   1      29.807 -14.075   3.542  0.00  0.00    -0.032 A 
ATOM     23  C   UNL d   1      28.625 -13.461   3.094  0.00  0.00     0.009 A 
ATOM     24  C   UNL d   1      27.432 -13.600   3.808  0.00  0.00     0.001 A 
ATOM     25  C   UNL d   1      27.405 -14.345   4.985  0.00  0.00     0.000 A 
ATOM     26  C   UNL d   1      28.572 -14.950   5.448  0.00  0.00     0.001 A 
ATOM     27  C   UNL d   1      29.765 -14.811   4.736  0.00  0.00     0.009 A 
ENDBRANCH  21  22
ENDBRANCH  20  21
ENDBRANCH   4  20
TORSDOF 6
ENDMDL
