MODEL 1
REMARK VINA RESULT:   -29.794      0.000      0.000
REMARK INTER + INTRA:         -33.025
REMARK INTER:                 -30.987
REMARK INTRA:                  -2.038
REMARK CONF_INDEPENDENT:        1.193
REMARK UNBOUND:                -2.038
REMARK  4 active torsions:
REMARK  status: ('A' for Active; 'I' for Inactive)
REMARK    1  A    between atoms: C_5  and  N_6 
REMARK    2  A    between atoms: N_6  and  N_7 
REMARK       I    between atoms: N_7  and  C_8 
REMARK    3  A    between atoms: C_8  and  C_10 
REMARK    4  A    between atoms: C_10  and  N_11 
ROOT
ATOM      1  N   UNL d   1      22.904 -17.420  -1.152  0.00  0.00    -0.254 N 
ATOM      2  C   UNL d   1      24.004 -17.679  -0.344  0.00  0.00     0.256 C 
ATOM      3  O   UNL d   1      24.132 -18.828   0.075  0.00  0.00    -0.270 OA
ATOM      4  H   UNL d   1      22.769 -16.499  -1.538  0.00  0.00     0.190 HD
ENDROOT
BRANCH   2   5
ATOM      5  C   UNL d   1      24.923 -16.457  -0.100  0.00  0.00     0.259 C 
BRANCH   5   6
ATOM      6  N   UNL d   1      25.845 -16.148  -1.179  0.00  0.00    -0.225 N 
ATOM      7  N   UNL d   1      27.151 -16.485  -0.980  0.00  0.00    -0.181 NA
ATOM      8  C   UNL d   1      28.022 -16.273  -1.904  0.00  0.00     0.151 A 
ATOM      9  C   UNL d   1      27.690 -15.661  -3.172  0.00  0.00    -0.001 A 
ATOM     10  C   UNL d   1      28.653 -15.569  -4.167  0.00  0.00     0.014 C 
ATOM     11  C   UNL d   1      26.378 -15.255  -3.376  0.00  0.00     0.045 A 
ATOM     12  C   UNL d   1      28.239 -15.197  -5.439  0.00  0.00     0.001 C 
ATOM     13  C   UNL d   1      26.951 -14.688  -5.636  0.00  0.00     0.001 C 
ATOM     14  C   UNL d   1      26.025 -14.677  -4.591  0.00  0.00     0.018 C 
ATOM     15  C   UNL d   1      25.375 -15.508  -2.323  0.00  0.00     0.275 A 
ATOM     16  O   UNL d   1      24.199 -15.191  -2.488  0.00  0.00    -0.266 OA
ENDBRANCH   5   6
ENDBRANCH   2   5
BRANCH   1  17
ATOM     17  N   UNL d   1      22.062 -18.537  -1.349  0.00  0.00    -0.126 N 
ATOM     18  H   UNL d   1      22.233 -19.053  -2.229  0.00  0.00     0.206 HD
BRANCH  17  19
ATOM     19  C   UNL d   1      21.056 -18.950  -0.524  0.00  0.00     0.738 A 
ATOM     20  N   UNL d   1      21.365 -18.948   0.983  0.00  0.00    -0.110 N 
ATOM     21  N   UNL d   1      20.477 -19.316   1.868  0.00  0.00    -0.188 NA
ATOM     22  H   UNL d   1      22.292 -18.641   1.250  0.00  0.00     0.207 HD
ATOM     23  C   UNL d   1      19.160 -19.771   1.408  0.00  0.00     0.220 A 
ATOM     24  C   UNL d   1      18.988 -21.199   1.907  0.00  0.00     0.046 C 
ATOM     25  C   UNL d   1      18.925 -19.730  -0.098  0.00  0.00     0.286 A 
ATOM     26  N   UNL d   1      19.905 -19.325  -0.968  0.00  0.00    -0.023 NA
ATOM     27  O   UNL d   1      17.824 -20.088  -0.525  0.00  0.00    -0.268 OA
ENDBRANCH  17  19
ENDBRANCH   1  17
TORSDOF 4
ENDMDL
MODEL 2
REMARK VINA RESULT:   -29.246      1.599      2.100
REMARK INTER + INTRA:         -32.230
REMARK INTER:                 -30.439
REMARK INTRA:                  -1.791
REMARK CONF_INDEPENDENT:        1.193
REMARK UNBOUND:                -1.791
REMARK  4 active torsions:
REMARK  status: ('A' for Active; 'I' for Inactive)
REMARK    1  A    between atoms: C_5  and  N_6 
REMARK    2  A    between atoms: N_6  and  N_7 
REMARK       I    between atoms: N_7  and  C_8 
REMARK    3  A    between atoms: C_8  and  C_10 
REMARK    4  A    between atoms: C_10  and  N_11 
ROOT
ATOM      1  N   UNL d   1      23.103 -17.640  -1.120  0.00  0.00    -0.254 N 
ATOM      2  C   UNL d   1      24.114 -18.215  -0.359  0.00  0.00     0.256 C 
ATOM      3  O   UNL d   1      23.992 -19.404  -0.076  0.00  0.00    -0.270 OA
ATOM      4  H   UNL d   1      23.170 -16.673  -1.398  0.00  0.00     0.190 HD
ENDROOT
BRANCH   2   5
ATOM      5  C   UNL d   1      25.266 -17.248   0.011  0.00  0.00     0.259 C 
BRANCH   5   6
ATOM      6  N   UNL d   1      25.554 -16.218  -0.972  0.00  0.00    -0.225 N 
ATOM      7  N   UNL d   1      25.223 -16.501  -2.264  0.00  0.00    -0.181 NA
ATOM      8  C   UNL d   1      25.416 -15.625  -3.188  0.00  0.00     0.151 A 
ATOM      9  C   UNL d   1      26.001 -14.327  -2.930  0.00  0.00    -0.001 A 
ATOM     10  C   UNL d   1      26.073 -13.388  -3.950  0.00  0.00     0.014 C 
ATOM     11  C   UNL d   1      26.400 -14.039  -1.632  0.00  0.00     0.045 A 
ATOM     12  C   UNL d   1      26.418 -12.086  -3.610  0.00  0.00     0.001 C 
ATOM     13  C   UNL d   1      26.921 -11.804  -2.336  0.00  0.00     0.001 C 
ATOM     14  C   UNL d   1      26.953 -12.793  -1.351  0.00  0.00     0.018 C 
ATOM     15  C   UNL d   1      26.169 -15.036  -0.570  0.00  0.00     0.275 A 
ATOM     16  O   UNL d   1      26.480 -14.796   0.595  0.00  0.00    -0.266 OA
ENDBRANCH   5   6
ENDBRANCH   2   5
BRANCH   1  17
ATOM     17  N   UNL d   1      22.048 -18.525  -1.433  0.00  0.00    -0.126 N 
ATOM     18  H   UNL d   1      22.035 -18.846  -2.416  0.00  0.00     0.206 HD
BRANCH  17  19
ATOM     19  C   UNL d   1      21.062 -18.943  -0.586  0.00  0.00     0.738 A 
ATOM     20  N   UNL d   1      21.402 -18.936   0.913  0.00  0.00    -0.110 N 
ATOM     21  N   UNL d   1      20.534 -19.308   1.817  0.00  0.00    -0.188 NA
ATOM     22  H   UNL d   1      22.332 -18.623   1.160  0.00  0.00     0.207 HD
ATOM     23  C   UNL d   1      19.211 -19.772   1.385  0.00  0.00     0.220 A 
ATOM     24  C   UNL d   1      19.058 -21.200   1.890  0.00  0.00     0.046 C 
ATOM     25  C   UNL d   1      18.945 -19.735  -0.116  0.00  0.00     0.286 A 
ATOM     26  N   UNL d   1      19.904 -19.325  -1.007  0.00  0.00    -0.023 NA
ATOM     27  O   UNL d   1      17.837 -20.100  -0.520  0.00  0.00    -0.268 OA
ENDBRANCH  17  19
ENDBRANCH   1  17
TORSDOF 4
ENDMDL
MODEL 3
REMARK VINA RESULT:   -28.993      1.176      1.731
REMARK INTER + INTRA:         -32.099
REMARK INTER:                 -30.187
REMARK INTRA:                  -1.913
REMARK CONF_INDEPENDENT:        1.193
REMARK UNBOUND:                -1.913
REMARK  4 active torsions:
REMARK  status: ('A' for Active; 'I' for Inactive)
REMARK    1  A    between atoms: C_5  and  N_6 
REMARK    2  A    between atoms: N_6  and  N_7 
REMARK       I    between atoms: N_7  and  C_8 
REMARK    3  A    between atoms: C_8  and  C_10 
REMARK    4  A    between atoms: C_10  and  N_11 
ROOT
ATOM      1  N   UNL d   1      23.091 -17.633  -1.206  0.00  0.00    -0.254 N 
ATOM      2  C   UNL d   1      24.058 -18.141  -0.349  0.00  0.00     0.256 C 
ATOM      3  O   UNL d   1      23.916 -19.302   0.028  0.00  0.00    -0.270 OA
ATOM      4  H   UNL d   1      23.175 -16.692  -1.561  0.00  0.00     0.190 HD
ENDROOT
BRANCH   2   5
ATOM      5  C   UNL d   1      25.195 -17.147  -0.003  0.00  0.00     0.259 C 
BRANCH   5   6
ATOM      6  N   UNL d   1      25.694 -16.362  -1.118  0.00  0.00    -0.225 N 
ATOM      7  N   UNL d   1      24.848 -15.423  -1.629  0.00  0.00    -0.181 NA
ATOM      8  C   UNL d   1      25.231 -14.665  -2.597  0.00  0.00     0.151 A 
ATOM      9  C   UNL d   1      26.538 -14.769  -3.206  0.00  0.00    -0.001 A 
ATOM     10  C   UNL d   1      26.928 -13.845  -4.166  0.00  0.00     0.014 C 
ATOM     11  C   UNL d   1      27.397 -15.756  -2.743  0.00  0.00     0.045 A 
ATOM     12  C   UNL d   1      28.263 -13.832  -4.551  0.00  0.00     0.001 C 
ATOM     13  C   UNL d   1      29.111 -14.879  -4.175  0.00  0.00     0.001 C 
ATOM     14  C   UNL d   1      28.667 -15.871  -3.299  0.00  0.00     0.018 C 
ATOM     15  C   UNL d   1      26.965 -16.618  -1.625  0.00  0.00     0.275 A 
ATOM     16  O   UNL d   1      27.716 -17.479  -1.170  0.00  0.00    -0.266 OA
ENDBRANCH   5   6
ENDBRANCH   2   5
BRANCH   1  17
ATOM     17  N   UNL d   1      22.048 -18.541  -1.496  0.00  0.00    -0.126 N 
ATOM     18  H   UNL d   1      22.042 -18.888  -2.471  0.00  0.00     0.206 HD
BRANCH  17  19
ATOM     19  C   UNL d   1      21.067 -18.949  -0.640  0.00  0.00     0.738 A 
ATOM     20  N   UNL d   1      21.420 -18.941   0.857  0.00  0.00    -0.110 N 
ATOM     21  N   UNL d   1      20.558 -19.305   1.769  0.00  0.00    -0.188 NA
ATOM     22  H   UNL d   1      22.354 -18.634   1.095  0.00  0.00     0.207 HD
ATOM     23  C   UNL d   1      19.227 -19.761   1.349  0.00  0.00     0.220 A 
ATOM     24  C   UNL d   1      19.069 -21.186   1.859  0.00  0.00     0.046 C 
ATOM     25  C   UNL d   1      18.949 -19.726  -0.150  0.00  0.00     0.286 A 
ATOM     26  N   UNL d   1      19.902 -19.325  -1.049  0.00  0.00    -0.023 NA
ATOM     27  O   UNL d   1      17.835 -20.084  -0.543  0.00  0.00    -0.268 OA
ENDBRANCH  17  19
ENDBRANCH   1  17
TORSDOF 4
ENDMDL
MODEL 4
REMARK VINA RESULT:   -28.688      2.080      2.959
REMARK INTER + INTRA:         -31.008
REMARK INTER:                 -29.881
REMARK INTRA:                  -1.127
REMARK CONF_INDEPENDENT:        1.193
REMARK UNBOUND:                -1.127
REMARK  4 active torsions:
REMARK  status: ('A' for Active; 'I' for Inactive)
REMARK    1  A    between atoms: C_5  and  N_6 
REMARK    2  A    between atoms: N_6  and  N_7 
REMARK       I    between atoms: N_7  and  C_8 
REMARK    3  A    between atoms: C_8  and  C_10 
REMARK    4  A    between atoms: C_10  and  N_11 
ROOT
ATOM      1  N   UNL d   1      23.944 -17.307  -1.570  0.00  0.00    -0.254 N 
ATOM      2  C   UNL d   1      25.072 -16.553  -1.273  0.00  0.00     0.256 C 
ATOM      3  O   UNL d   1      25.119 -16.034  -0.160  0.00  0.00    -0.270 OA
ATOM      4  H   UNL d   1      23.869 -17.772  -2.462  0.00  0.00     0.190 HD
ENDROOT
BRANCH   2   5
ATOM      5  C   UNL d   1      26.120 -16.491  -2.411  0.00  0.00     0.259 C 
BRANCH   5   6
ATOM      6  N   UNL d   1      26.051 -15.312  -3.256  0.00  0.00    -0.225 N 
ATOM      7  N   UNL d   1      25.012 -14.459  -3.027  0.00  0.00    -0.181 NA
ATOM      8  C   UNL d   1      24.902 -13.375  -3.714  0.00  0.00     0.151 A 
ATOM      9  C   UNL d   1      25.831 -13.009  -4.759  0.00  0.00    -0.001 A 
ATOM     10  C   UNL d   1      25.721 -11.773  -5.380  0.00  0.00     0.014 C 
ATOM     11  C   UNL d   1      26.864 -13.890  -5.051  0.00  0.00     0.045 A 
ATOM     12  C   UNL d   1      26.762 -11.363  -6.202  0.00  0.00     0.001 C 
ATOM     13  C   UNL d   1      27.752 -12.274  -6.586  0.00  0.00     0.001 C 
ATOM     14  C   UNL d   1      27.782 -13.559  -6.043  0.00  0.00     0.018 C 
ATOM     15  C   UNL d   1      27.000 -15.127  -4.258  0.00  0.00     0.275 A 
ATOM     16  O   UNL d   1      27.923 -15.911  -4.470  0.00  0.00    -0.266 OA
ENDBRANCH   5   6
ENDBRANCH   2   5
BRANCH   1  17
ATOM     17  N   UNL d   1      22.985 -17.337  -0.533  0.00  0.00    -0.126 N 
ATOM     18  H   UNL d   1      23.136 -16.634   0.210  0.00  0.00     0.206 HD
BRANCH  17  19
ATOM     19  C   UNL d   1      21.941 -18.209  -0.419  0.00  0.00     0.738 A 
ATOM     20  N   UNL d   1      20.641 -17.815  -1.141  0.00  0.00    -0.110 N 
ATOM     21  N   UNL d   1      19.579 -18.575  -1.108  0.00  0.00    -0.188 NA
ATOM     22  H   UNL d   1      20.657 -16.938  -1.646  0.00  0.00     0.207 HD
ATOM     23  C   UNL d   1      19.620 -19.823  -0.336  0.00  0.00     0.220 A 
ATOM     24  C   UNL d   1      18.528 -19.725   0.720  0.00  0.00     0.046 C 
ATOM     25  C   UNL d   1      20.948 -20.151   0.338  0.00  0.00     0.286 A 
ATOM     26  N   UNL d   1      22.025 -19.307   0.253  0.00  0.00    -0.023 NA
ATOM     27  O   UNL d   1      21.030 -21.201   0.981  0.00  0.00    -0.268 OA
ENDBRANCH  17  19
ENDBRANCH   1  17
TORSDOF 4
ENDMDL
MODEL 5
REMARK VINA RESULT:   -28.173      2.165      2.629
REMARK INTER + INTRA:         -30.572
REMARK INTER:                 -29.366
REMARK INTRA:                  -1.206
REMARK CONF_INDEPENDENT:        1.193
REMARK UNBOUND:                -1.206
REMARK  4 active torsions:
REMARK  status: ('A' for Active; 'I' for Inactive)
REMARK    1  A    between atoms: C_5  and  N_6 
REMARK    2  A    between atoms: N_6  and  N_7 
REMARK       I    between atoms: N_7  and  C_8 
REMARK    3  A    between atoms: C_8  and  C_10 
REMARK    4  A    between atoms: C_10  and  N_11 
ROOT
ATOM      1  N   UNL d   1      23.925 -17.298  -1.421  0.00  0.00    -0.254 N 
ATOM      2  C   UNL d   1      24.899 -16.353  -1.125  0.00  0.00     0.256 C 
ATOM      3  O   UNL d   1      24.700 -15.632  -0.149  0.00  0.00    -0.270 OA
ATOM      4  H   UNL d   1      24.053 -17.928  -2.198  0.00  0.00     0.190 HD
ENDROOT
BRANCH   2   5
ATOM      5  C   UNL d   1      26.114 -16.362  -2.085  0.00  0.00     0.259 C 
BRANCH   5   6
ATOM      6  N   UNL d   1      26.568 -15.054  -2.524  0.00  0.00    -0.225 N 
ATOM      7  N   UNL d   1      27.673 -14.552  -1.902  0.00  0.00    -0.181 NA
ATOM      8  C   UNL d   1      28.155 -13.413  -2.260  0.00  0.00     0.151 A 
ATOM      9  C   UNL d   1      27.564 -12.601  -3.300  0.00  0.00    -0.001 A 
ATOM     10  C   UNL d   1      28.201 -11.440  -3.715  0.00  0.00     0.014 C 
ATOM     11  C   UNL d   1      26.405 -13.063  -3.908  0.00  0.00     0.045 A 
ATOM     12  C   UNL d   1      27.734 -10.819  -4.866  0.00  0.00     0.001 C 
ATOM     13  C   UNL d   1      26.513 -11.208  -5.427  0.00  0.00     0.001 C 
ATOM     14  C   UNL d   1      25.820 -12.310  -4.922  0.00  0.00     0.018 C 
ATOM     15  C   UNL d   1      25.856 -14.373  -3.509  0.00  0.00     0.275 A 
ATOM     16  O   UNL d   1      24.850 -14.825  -4.052  0.00  0.00    -0.266 OA
ENDBRANCH   5   6
ENDBRANCH   2   5
BRANCH   1  17
ATOM     17  N   UNL d   1      22.811 -17.265  -0.552  0.00  0.00    -0.126 N 
ATOM     18  H   UNL d   1      22.792 -16.452   0.089  0.00  0.00     0.206 HD
BRANCH  17  19
ATOM     19  C   UNL d   1      21.821 -18.200  -0.466  0.00  0.00     0.738 A 
ATOM     20  N   UNL d   1      20.542 -17.915  -1.270  0.00  0.00    -0.110 N 
ATOM     21  N   UNL d   1      19.530 -18.742  -1.270  0.00  0.00    -0.188 NA
ATOM     22  H   UNL d   1      20.529 -17.054  -1.802  0.00  0.00     0.207 HD
ATOM     23  C   UNL d   1      19.609 -19.962  -0.457  0.00  0.00     0.220 A 
ATOM     24  C   UNL d   1      18.455 -19.905   0.534  0.00  0.00     0.046 C 
ATOM     25  C   UNL d   1      20.915 -20.181   0.299  0.00  0.00     0.286 A 
ATOM     26  N   UNL d   1      21.938 -19.269   0.246  0.00  0.00    -0.023 NA
ATOM     27  O   UNL d   1      21.028 -21.204   0.980  0.00  0.00    -0.268 OA
ENDBRANCH  17  19
ENDBRANCH   1  17
TORSDOF 4
ENDMDL
MODEL 6
REMARK VINA RESULT:   -28.133      2.213      2.361
REMARK INTER + INTRA:         -30.577
REMARK INTER:                 -29.326
REMARK INTRA:                  -1.250
REMARK CONF_INDEPENDENT:        1.193
REMARK UNBOUND:                -1.250
REMARK  4 active torsions:
REMARK  status: ('A' for Active; 'I' for Inactive)
REMARK    1  A    between atoms: C_5  and  N_6 
REMARK    2  A    between atoms: N_6  and  N_7 
REMARK       I    between atoms: N_7  and  C_8 
REMARK    3  A    between atoms: C_8  and  C_10 
REMARK    4  A    between atoms: C_10  and  N_11 
ROOT
ATOM      1  N   UNL d   1      22.768 -17.318  -1.182  0.00  0.00    -0.254 N 
ATOM      2  C   UNL d   1      23.842 -17.336  -0.301  0.00  0.00     0.256 C 
ATOM      3  O   UNL d   1      24.083 -18.400   0.264  0.00  0.00    -0.270 OA
ATOM      4  H   UNL d   1      22.544 -16.475  -1.687  0.00  0.00     0.190 HD
ENDROOT
BRANCH   2   5
ATOM      5  C   UNL d   1      24.589 -15.985  -0.173  0.00  0.00     0.259 C 
BRANCH   5   6
ATOM      6  N   UNL d   1      26.031 -16.055  -0.335  0.00  0.00    -0.225 N 
ATOM      7  N   UNL d   1      26.583 -17.302  -0.335  0.00  0.00    -0.181 NA
ATOM      8  C   UNL d   1      27.851 -17.447  -0.507  0.00  0.00     0.151 A 
ATOM      9  C   UNL d   1      28.753 -16.331  -0.684  0.00  0.00    -0.001 A 
ATOM     10  C   UNL d   1      30.089 -16.563  -0.981  0.00  0.00     0.014 C 
ATOM     11  C   UNL d   1      28.223 -15.049  -0.629  0.00  0.00     0.045 A 
ATOM     12  C   UNL d   1      30.865 -15.480  -1.375  0.00  0.00     0.001 C 
ATOM     13  C   UNL d   1      30.378 -14.177  -1.225  0.00  0.00     0.001 C 
ATOM     14  C   UNL d   1      29.064 -13.955  -0.810  0.00  0.00     0.018 C 
ATOM     15  C   UNL d   1      26.769 -14.879  -0.444  0.00  0.00     0.275 A 
ATOM     16  O   UNL d   1      26.264 -13.758  -0.425  0.00  0.00    -0.266 OA
ENDBRANCH   5   6
ENDBRANCH   2   5
BRANCH   1  17
ATOM     17  N   UNL d   1      22.081 -18.550  -1.273  0.00  0.00    -0.126 N 
ATOM     18  H   UNL d   1      22.410 -19.168  -2.035  0.00  0.00     0.206 HD
BRANCH  17  19
ATOM     19  C   UNL d   1      21.037 -18.955  -0.493  0.00  0.00     0.738 A 
ATOM     20  N   UNL d   1      21.277 -18.951   1.026  0.00  0.00    -0.110 N 
ATOM     21  N   UNL d   1      20.348 -19.312   1.870  0.00  0.00    -0.188 NA
ATOM     22  H   UNL d   1      22.193 -18.648   1.333  0.00  0.00     0.207 HD
ATOM     23  C   UNL d   1      19.051 -19.762   1.351  0.00  0.00     0.220 A 
ATOM     24  C   UNL d   1      18.849 -21.187   1.846  0.00  0.00     0.046 C 
ATOM     25  C   UNL d   1      18.885 -19.723  -0.164  0.00  0.00     0.286 A 
ATOM     26  N   UNL d   1      19.905 -19.325  -0.989  0.00  0.00    -0.023 NA
ATOM     27  O   UNL d   1      17.802 -20.076  -0.640  0.00  0.00    -0.268 OA
ENDBRANCH  17  19
ENDBRANCH   1  17
TORSDOF 4
ENDMDL
MODEL 7
REMARK VINA RESULT:   -27.979      1.903      2.675
REMARK INTER + INTRA:         -30.272
REMARK INTER:                 -29.172
REMARK INTRA:                  -1.099
REMARK CONF_INDEPENDENT:        1.193
REMARK UNBOUND:                -1.099
REMARK  4 active torsions:
REMARK  status: ('A' for Active; 'I' for Inactive)
REMARK    1  A    between atoms: C_5  and  N_6 
REMARK    2  A    between atoms: N_6  and  N_7 
REMARK       I    between atoms: N_7  and  C_8 
REMARK    3  A    between atoms: C_8  and  C_10 
REMARK    4  A    between atoms: C_10  and  N_11 
ROOT
ATOM      1  N   UNL d   1      24.209 -17.497  -0.540  0.00  0.00    -0.254 N 
ATOM      2  C   UNL d   1      24.761 -16.303  -0.986  0.00  0.00     0.256 C 
ATOM      3  O   UNL d   1      24.239 -15.779  -1.968  0.00  0.00    -0.270 OA
ATOM      4  H   UNL d   1      24.588 -17.954   0.276  0.00  0.00     0.190 HD
ENDROOT
BRANCH   2   5
ATOM      5  C   UNL d   1      25.967 -15.802  -0.153  0.00  0.00     0.259 C 
BRANCH   5   6
ATOM      6  N   UNL d   1      27.274 -16.147  -0.684  0.00  0.00    -0.225 N 
ATOM      7  N   UNL d   1      28.182 -16.642   0.205  0.00  0.00    -0.181 NA
ATOM      8  C   UNL d   1      29.352 -17.001  -0.196  0.00  0.00     0.151 A 
ATOM      9  C   UNL d   1      29.779 -16.889  -1.573  0.00  0.00    -0.001 A 
ATOM     10  C   UNL d   1      31.009 -17.402  -1.959  0.00  0.00     0.014 C 
ATOM     11  C   UNL d   1      28.893 -16.334  -2.487  0.00  0.00     0.045 A 
ATOM     12  C   UNL d   1      31.280 -17.489  -3.318  0.00  0.00     0.001 C 
ATOM     13  C   UNL d   1      30.450 -16.844  -4.240  0.00  0.00     0.001 C 
ATOM     14  C   UNL d   1      29.270 -16.226  -3.822  0.00  0.00     0.018 C 
ATOM     15  C   UNL d   1      27.548 -15.932  -2.032  0.00  0.00     0.275 A 
ATOM     16  O   UNL d   1      26.729 -15.469  -2.825  0.00  0.00    -0.266 OA
ENDBRANCH   5   6
ENDBRANCH   2   5
BRANCH   1  17
ATOM     17  N   UNL d   1      23.125 -17.954  -1.321  0.00  0.00    -0.126 N 
ATOM     18  H   UNL d   1      23.194 -17.723  -2.327  0.00  0.00     0.206 HD
BRANCH  17  19
ATOM     19  C   UNL d   1      22.020 -18.615  -0.867  0.00  0.00     0.738 A 
ATOM     20  N   UNL d   1      20.658 -18.024  -1.267  0.00  0.00    -0.110 N 
ATOM     21  N   UNL d   1      19.533 -18.575  -0.897  0.00  0.00    -0.188 NA
ATOM     22  H   UNL d   1      20.683 -17.188  -1.837  0.00  0.00     0.207 HD
ATOM     23  C   UNL d   1      19.573 -19.774  -0.051  0.00  0.00     0.220 A 
ATOM     24  C   UNL d   1      18.833 -19.432   1.234  0.00  0.00     0.046 C 
ATOM     25  C   UNL d   1      20.960 -20.309   0.290  0.00  0.00     0.286 A 
ATOM     26  N   UNL d   1      22.099 -19.679  -0.141  0.00  0.00    -0.023 NA
ATOM     27  O   UNL d   1      21.037 -21.326   0.983  0.00  0.00    -0.268 OA
ENDBRANCH  17  19
ENDBRANCH   1  17
TORSDOF 4
ENDMDL
MODEL 8
REMARK VINA RESULT:   -27.932      1.461      1.685
REMARK INTER + INTRA:         -30.485
REMARK INTER:                 -29.125
REMARK INTRA:                  -1.360
REMARK CONF_INDEPENDENT:        1.193
REMARK UNBOUND:                -1.360
REMARK  4 active torsions:
REMARK  status: ('A' for Active; 'I' for Inactive)
REMARK    1  A    between atoms: C_5  and  N_6 
REMARK    2  A    between atoms: N_6  and  N_7 
REMARK       I    between atoms: N_7  and  C_8 
REMARK    3  A    between atoms: C_8  and  C_10 
REMARK    4  A    between atoms: C_10  and  N_11 
ROOT
ATOM      1  N   UNL d   1      23.719 -17.219  -1.069  0.00  0.00    -0.254 N 
ATOM      2  C   UNL d   1      24.992 -17.253  -0.513  0.00  0.00     0.256 C 
ATOM      3  O   UNL d   1      25.499 -18.360  -0.346  0.00  0.00    -0.270 OA
ATOM      4  H   UNL d   1      23.270 -16.334  -1.247  0.00  0.00     0.190 HD
ENDROOT
BRANCH   2   5
ATOM      5  C   UNL d   1      25.588 -15.860  -0.191  0.00  0.00     0.259 C 
BRANCH   5   6
ATOM      6  N   UNL d   1      26.397 -15.273  -1.245  0.00  0.00    -0.225 N 
ATOM      7  N   UNL d   1      27.629 -14.815  -0.883  0.00  0.00    -0.181 NA
ATOM      8  C   UNL d   1      28.417 -14.311  -1.768  0.00  0.00     0.151 A 
ATOM      9  C   UNL d   1      28.054 -14.180  -3.162  0.00  0.00    -0.001 A 
ATOM     10  C   UNL d   1      28.993 -13.737  -4.082  0.00  0.00     0.014 C 
ATOM     11  C   UNL d   1      26.782 -14.586  -3.544  0.00  0.00     0.045 A 
ATOM     12  C   UNL d   1      28.684 -13.850  -5.431  0.00  0.00     0.001 C 
ATOM     13  C   UNL d   1      27.378 -14.156  -5.828  0.00  0.00     0.001 C 
ATOM     14  C   UNL d   1      26.408 -14.486  -4.880  0.00  0.00     0.018 C 
ATOM     15  C   UNL d   1      25.881 -15.174  -2.534  0.00  0.00     0.275 A 
ATOM     16  O   UNL d   1      24.761 -15.574  -2.849  0.00  0.00    -0.266 OA
ENDBRANCH   5   6
ENDBRANCH   2   5
BRANCH   1  17
ATOM     17  N   UNL d   1      23.177 -18.496  -1.337  0.00  0.00    -0.126 N 
ATOM     18  H   UNL d   1      23.750 -19.080  -1.971  0.00  0.00     0.206 HD
BRANCH  17  19
ATOM     19  C   UNL d   1      21.989 -18.986  -0.878  0.00  0.00     0.738 A 
ATOM     20  N   UNL d   1      20.728 -18.198  -1.272  0.00  0.00    -0.110 N 
ATOM     21  N   UNL d   1      19.536 -18.576  -0.896  0.00  0.00    -0.188 NA
ATOM     22  H   UNL d   1      20.875 -17.375  -1.843  0.00  0.00     0.207 HD
ATOM     23  C   UNL d   1      19.400 -19.768  -0.050  0.00  0.00     0.220 A 
ATOM     24  C   UNL d   1      18.725 -19.319   1.238  0.00  0.00     0.046 C 
ATOM     25  C   UNL d   1      20.694 -20.502   0.285  0.00  0.00     0.286 A 
ATOM     26  N   UNL d   1      21.912 -20.049  -0.152  0.00  0.00    -0.023 NA
ATOM     27  O   UNL d   1      20.622 -21.520   0.979  0.00  0.00    -0.268 OA
ENDBRANCH  17  19
ENDBRANCH   1  17
TORSDOF 4
ENDMDL
MODEL 9
REMARK VINA RESULT:   -27.586      3.048      4.220
REMARK INTER + INTRA:         -29.925
REMARK INTER:                 -28.779
REMARK INTRA:                  -1.146
REMARK CONF_INDEPENDENT:        1.193
REMARK UNBOUND:                -1.146
REMARK  4 active torsions:
REMARK  status: ('A' for Active; 'I' for Inactive)
REMARK    1  A    between atoms: C_5  and  N_6 
REMARK    2  A    between atoms: N_6  and  N_7 
REMARK       I    between atoms: N_7  and  C_8 
REMARK    3  A    between atoms: C_8  and  C_10 
REMARK    4  A    between atoms: C_10  and  N_11 
ROOT
ATOM      1  N   UNL d   1      24.455 -18.164  -0.840  0.00  0.00    -0.254 N 
ATOM      2  C   UNL d   1      25.292 -17.072  -1.030  0.00  0.00     0.256 C 
ATOM      3  O   UNL d   1      24.788 -16.059  -1.512  0.00  0.00    -0.270 OA
ATOM      4  H   UNL d   1      24.817 -19.010  -0.426  0.00  0.00     0.190 HD
ENDROOT
BRANCH   2   5
ATOM      5  C   UNL d   1      26.758 -17.301  -0.586  0.00  0.00     0.259 C 
BRANCH   5   6
ATOM      6  N   UNL d   1      27.412 -16.152   0.016  0.00  0.00    -0.225 N 
ATOM      7  N   UNL d   1      26.598 -15.211   0.573  0.00  0.00    -0.181 NA
ATOM      8  C   UNL d   1      27.105 -14.180   1.155  0.00  0.00     0.151 A 
ATOM      9  C   UNL d   1      28.529 -13.945   1.236  0.00  0.00    -0.001 A 
ATOM     10  C   UNL d   1      29.011 -12.875   1.978  0.00  0.00     0.014 C 
ATOM     11  C   UNL d   1      29.377 -14.859   0.625  0.00  0.00     0.045 A 
ATOM     12  C   UNL d   1      30.376 -12.820   2.228  0.00  0.00     0.001 C 
ATOM     13  C   UNL d   1      31.249 -13.668   1.538  0.00  0.00     0.001 C 
ATOM     14  C   UNL d   1      30.753 -14.667   0.699  0.00  0.00     0.018 C 
ATOM     15  C   UNL d   1      28.799 -16.048  -0.032  0.00  0.00     0.275 A 
ATOM     16  O   UNL d   1      29.526 -16.892  -0.552  0.00  0.00    -0.266 OA
ENDBRANCH   5   6
ENDBRANCH   2   5
BRANCH   1  17
ATOM     17  N   UNL d   1      23.126 -17.950  -1.269  0.00  0.00    -0.126 N 
ATOM     18  H   UNL d   1      23.017 -17.187  -1.959  0.00  0.00     0.206 HD
BRANCH  17  19
ATOM     19  C   UNL d   1      22.017 -18.615  -0.835  0.00  0.00     0.738 A 
ATOM     20  N   UNL d   1      20.659 -18.021  -1.248  0.00  0.00    -0.110 N 
ATOM     21  N   UNL d   1      19.530 -18.576  -0.897  0.00  0.00    -0.188 NA
ATOM     22  H   UNL d   1      20.691 -17.180  -1.810  0.00  0.00     0.207 HD
ATOM     23  C   UNL d   1      19.559 -19.782  -0.061  0.00  0.00     0.220 A 
ATOM     24  C   UNL d   1      18.802 -19.451   1.217  0.00  0.00     0.046 C 
ATOM     25  C   UNL d   1      20.942 -20.318   0.294  0.00  0.00     0.286 A 
ATOM     26  N   UNL d   1      22.086 -19.684  -0.117  0.00  0.00    -0.023 NA
ATOM     27  O   UNL d   1      21.011 -21.342   0.980  0.00  0.00    -0.268 OA
ENDBRANCH  17  19
ENDBRANCH   1  17
TORSDOF 4
ENDMDL
