MODEL 1
REMARK VINA RESULT:    -9.525      0.000      0.000
REMARK INTER + INTRA:         -12.720
REMARK INTER:                 -11.911
REMARK INTRA:                  -0.809
REMARK CONF_INDEPENDENT:        2.386
REMARK UNBOUND:                -0.809
REMARK  8 active torsions:
REMARK  status: ('A' for Active; 'I' for Inactive)
REMARK    1  A    between atoms: C_2  and  O_3 
REMARK    2  A    between atoms: O_3  and  C_4 
REMARK    3  A    between atoms: C_7  and  C_8 
REMARK    4  A    between atoms: C_10  and  S_11 
REMARK    5  A    between atoms: S_11  and  C_12 
REMARK    6  A    between atoms: C_12  and  C_13 
REMARK       I    between atoms: C_13  and  N_15 
REMARK    7  A    between atoms: N_15  and  C_16 
REMARK    8  A    between atoms: C_19  and  C_20 
ROOT
ATOM      1  C   UNL d   1      24.902 -15.640  -1.545  0.00  0.00     0.164 A 
ATOM      2  N   UNL d   1      25.970 -15.273  -0.708  0.00  0.00    -0.202 NA
ATOM      3  C   UNL d   1      26.751 -14.318  -1.146  0.00  0.00     0.192 A 
ATOM      4  N   UNL d   1      26.507 -13.690  -2.342  0.00  0.00    -0.211 N 
ATOM      5  N   UNL d   1      27.257 -12.776  -3.034  0.00  0.00    -0.256 N 
ATOM      6  C   UNL d   1      26.713 -12.679  -4.306  0.00  0.00     0.264 C 
ATOM      7  O   UNL d   1      27.158 -12.096  -5.269  0.00  0.00    -0.267 OA
ATOM      8  C   UNL d   1      25.455 -13.483  -4.294  0.00  0.00     0.128 C 
ATOM      9  C   UNL d   1      25.473 -14.125  -3.116  0.00  0.00     0.159 A 
ATOM     10  N   UNL d   1      24.617 -15.107  -2.709  0.00  0.00    -0.209 NA
ATOM     11  H   UNL d   1      28.060 -12.288  -2.659  0.00  0.00     0.191 HD
ENDROOT
BRANCH   3  12
ATOM     12  S   UNL d   1      28.138 -13.766  -0.226  0.00  0.00    -0.081 SA
BRANCH  12  13
ATOM     13  C   UNL d   1      28.361 -14.919   1.185  0.00  0.00     0.185 C 
BRANCH  13  14
ATOM     14  C   UNL d   1      28.431 -14.092   2.498  0.00  0.00     0.231 C 
ATOM     15  O   UNL d   1      28.547 -12.864   2.483  0.00  0.00    -0.272 OA
ATOM     16  N   UNL d   1      28.401 -14.816   3.696  0.00  0.00    -0.327 N 
ATOM     17  H   UNL d   1      28.537 -15.819   3.690  0.00  0.00     0.169 HD
BRANCH  16  18
ATOM     18  C   UNL d   1      28.461 -14.164   4.961  0.00  0.00     0.034 A 
ATOM     19  C   UNL d   1      27.712 -13.011   5.223  0.00  0.00     0.030 A 
ATOM     20  C   UNL d   1      27.776 -12.388   6.488  0.00  0.00     0.009 A 
ATOM     21  C   UNL d   1      28.565 -12.927   7.515  0.00  0.00    -0.058 A 
ATOM     22  C   UNL d   1      29.351 -14.044   7.214  0.00  0.00     0.009 A 
ATOM     23  C   UNL d   1      29.294 -14.656   5.963  0.00  0.00     0.030 A 
BRANCH  21  24
ATOM     24  C   UNL d   1      28.501 -12.351   8.916  0.00  0.00     0.034 C 
ATOM     25  C   UNL d   1      28.313 -13.400  10.011  0.00  0.00     0.010 C 
ENDBRANCH  21  24
ENDBRANCH  16  18
ENDBRANCH  13  14
ENDBRANCH  12  13
ENDBRANCH   3  12
BRANCH   1  26
ATOM     26  C   UNL d   1      24.008 -16.746  -1.045  0.00  0.00     0.012 A 
ATOM     27  C   UNL d   1      24.527 -18.031  -0.830  0.00  0.00     0.018 A 
ATOM     28  C   UNL d   1      23.669 -19.109  -0.535  0.00  0.00     0.037 A 
ATOM     29  C   UNL d   1      22.290 -18.917  -0.406  0.00  0.00     0.068 A 
ATOM     30  C   UNL d   1      21.779 -17.630  -0.575  0.00  0.00     0.037 A 
ATOM     31  C   UNL d   1      22.631 -16.550  -0.895  0.00  0.00     0.018 A 
BRANCH  29  32
ATOM     32  O   UNL d   1      21.557 -20.009  -0.010  0.00  0.00    -0.352 OA
BRANCH  32  33
ATOM     33  C   UNL d   1      20.333 -19.747   0.688  0.00  0.00     0.171 C 
ATOM     34  C   UNL d   1      19.183 -19.696  -0.312  0.00  0.00     0.034 C 
ENDBRANCH  32  33
ENDBRANCH  29  32
ENDBRANCH   1  26
TORSDOF 8
ENDMDL
MODEL 2
REMARK VINA RESULT:    -9.190      4.566      7.971
REMARK INTER + INTRA:         -13.439
REMARK INTER:                 -11.576
REMARK INTRA:                  -1.863
REMARK CONF_INDEPENDENT:        2.386
REMARK UNBOUND:                -1.863
REMARK  8 active torsions:
REMARK  status: ('A' for Active; 'I' for Inactive)
REMARK    1  A    between atoms: C_2  and  O_3 
REMARK    2  A    between atoms: O_3  and  C_4 
REMARK    3  A    between atoms: C_7  and  C_8 
REMARK    4  A    between atoms: C_10  and  S_11 
REMARK    5  A    between atoms: S_11  and  C_12 
REMARK    6  A    between atoms: C_12  and  C_13 
REMARK       I    between atoms: C_13  and  N_15 
REMARK    7  A    between atoms: N_15  and  C_16 
REMARK    8  A    between atoms: C_19  and  C_20 
ROOT
ATOM      1  C   UNL d   1      25.569 -16.666  -0.932  0.00  0.00     0.164 A 
ATOM      2  N   UNL d   1      25.584 -15.412  -1.567  0.00  0.00    -0.202 NA
ATOM      3  C   UNL d   1      26.757 -14.852  -1.720  0.00  0.00     0.192 A 
ATOM      4  N   UNL d   1      27.907 -15.480  -1.312  0.00  0.00    -0.211 N 
ATOM      5  N   UNL d   1      29.198 -15.025  -1.259  0.00  0.00    -0.256 N 
ATOM      6  C   UNL d   1      29.924 -15.936  -0.507  0.00  0.00     0.264 C 
ATOM      7  O   UNL d   1      31.059 -15.838  -0.102  0.00  0.00    -0.267 OA
ATOM      8  C   UNL d   1      29.013 -17.089  -0.239  0.00  0.00     0.128 C 
ATOM      9  C   UNL d   1      27.810 -16.679  -0.670  0.00  0.00     0.159 A 
ATOM     10  N   UNL d   1      26.618 -17.320  -0.493  0.00  0.00    -0.209 NA
ATOM     11  H   UNL d   1      29.525 -14.171  -1.692  0.00  0.00     0.191 HD
ENDROOT
BRANCH   3  12
ATOM     12  S   UNL d   1      26.936 -13.278  -2.474  0.00  0.00    -0.081 SA
BRANCH  12  13
ATOM     13  C   UNL d   1      26.406 -13.439  -4.224  0.00  0.00     0.185 C 
BRANCH  13  14
ATOM     14  C   UNL d   1      27.177 -14.623  -4.871  0.00  0.00     0.231 C 
ATOM     15  O   UNL d   1      26.678 -15.305  -5.769  0.00  0.00    -0.272 OA
ATOM     16  N   UNL d   1      28.447 -14.900  -4.351  0.00  0.00    -0.327 N 
ATOM     17  H   UNL d   1      28.741 -14.486  -3.476  0.00  0.00     0.169 HD
BRANCH  16  18
ATOM     18  C   UNL d   1      29.245 -15.962  -4.865  0.00  0.00     0.034 A 
ATOM     19  C   UNL d   1      29.655 -17.025  -4.052  0.00  0.00     0.030 A 
ATOM     20  C   UNL d   1      30.435 -18.074  -4.585  0.00  0.00     0.009 A 
ATOM     21  C   UNL d   1      30.788 -18.088  -5.942  0.00  0.00    -0.058 A 
ATOM     22  C   UNL d   1      30.419 -16.987  -6.723  0.00  0.00     0.009 A 
ATOM     23  C   UNL d   1      29.655 -15.948  -6.196  0.00  0.00     0.030 A 
BRANCH  21  24
ATOM     24  C   UNL d   1      31.481 -19.295  -6.543  0.00  0.00     0.034 C 
ATOM     25  C   UNL d   1      30.947 -19.699  -7.917  0.00  0.00     0.010 C 
ENDBRANCH  21  24
ENDBRANCH  16  18
ENDBRANCH  13  14
ENDBRANCH  12  13
ENDBRANCH   3  12
BRANCH   1  26
ATOM     26  C   UNL d   1      24.218 -17.308  -0.748  0.00  0.00     0.012 A 
ATOM     27  C   UNL d   1      24.117 -18.688  -0.517  0.00  0.00     0.018 A 
ATOM     28  C   UNL d   1      22.860 -19.324  -0.520  0.00  0.00     0.037 A 
ATOM     29  C   UNL d   1      21.684 -18.593  -0.709  0.00  0.00     0.068 A 
ATOM     30  C   UNL d   1      21.780 -17.214  -0.895  0.00  0.00     0.037 A 
ATOM     31  C   UNL d   1      23.039 -16.574  -0.916  0.00  0.00     0.018 A 
BRANCH  29  32
ATOM     32  O   UNL d   1      20.506 -19.290  -0.587  0.00  0.00    -0.352 OA
BRANCH  32  33
ATOM     33  C   UNL d   1      20.180 -19.783   0.719  0.00  0.00     0.171 C 
ATOM     34  C   UNL d   1      19.049 -20.799   0.606  0.00  0.00     0.034 C 
ENDBRANCH  32  33
ENDBRANCH  29  32
ENDBRANCH   1  26
TORSDOF 8
ENDMDL
MODEL 3
REMARK VINA RESULT:    -8.943      2.505      3.159
REMARK INTER + INTRA:         -12.432
REMARK INTER:                 -11.329
REMARK INTRA:                  -1.103
REMARK CONF_INDEPENDENT:        2.386
REMARK UNBOUND:                -1.103
REMARK  8 active torsions:
REMARK  status: ('A' for Active; 'I' for Inactive)
REMARK    1  A    between atoms: C_2  and  O_3 
REMARK    2  A    between atoms: O_3  and  C_4 
REMARK    3  A    between atoms: C_7  and  C_8 
REMARK    4  A    between atoms: C_10  and  S_11 
REMARK    5  A    between atoms: S_11  and  C_12 
REMARK    6  A    between atoms: C_12  and  C_13 
REMARK       I    between atoms: C_13  and  N_15 
REMARK    7  A    between atoms: N_15  and  C_16 
REMARK    8  A    between atoms: C_19  and  C_20 
ROOT
ATOM      1  C   UNL d   1      26.096 -16.747  -0.486  0.00  0.00     0.164 A 
ATOM      2  N   UNL d   1      26.278 -15.384  -0.198  0.00  0.00    -0.202 NA
ATOM      3  C   UNL d   1      27.516 -14.973  -0.085  0.00  0.00     0.192 A 
ATOM      4  N   UNL d   1      28.571 -15.829  -0.277  0.00  0.00    -0.211 N 
ATOM      5  N   UNL d   1      29.914 -15.640  -0.082  0.00  0.00    -0.256 N 
ATOM      6  C   UNL d   1      30.516 -16.888  -0.142  0.00  0.00     0.264 C 
ATOM      7  O   UNL d   1      31.660 -17.181   0.119  0.00  0.00    -0.267 OA
ATOM      8  C   UNL d   1      29.457 -17.852  -0.562  0.00  0.00     0.128 C 
ATOM      9  C   UNL d   1      28.317 -17.146  -0.518  0.00  0.00     0.159 A 
ATOM     10  N   UNL d   1      27.050 -17.632  -0.660  0.00  0.00    -0.209 NA
ATOM     11  H   UNL d   1      30.352 -14.743   0.082  0.00  0.00     0.191 HD
ENDROOT
BRANCH   3  12
ATOM     12  S   UNL d   1      27.902 -13.305   0.295  0.00  0.00    -0.081 SA
BRANCH  12  13
ATOM     13  C   UNL d   1      26.615 -12.687   1.449  0.00  0.00     0.185 C 
BRANCH  13  14
ATOM     14  C   UNL d   1      27.241 -12.544   2.864  0.00  0.00     0.231 C 
ATOM     15  O   UNL d   1      27.382 -11.443   3.400  0.00  0.00    -0.272 OA
ATOM     16  N   UNL d   1      27.676 -13.725   3.478  0.00  0.00    -0.327 N 
ATOM     17  H   UNL d   1      27.763 -14.578   2.940  0.00  0.00     0.169 HD
BRANCH  16  18
ATOM     18  C   UNL d   1      28.266 -13.716   4.773  0.00  0.00     0.034 A 
ATOM     19  C   UNL d   1      27.708 -12.980   5.825  0.00  0.00     0.030 A 
ATOM     20  C   UNL d   1      28.303 -12.996   7.104  0.00  0.00     0.009 A 
ATOM     21  C   UNL d   1      29.444 -13.770   7.357  0.00  0.00    -0.058 A 
ATOM     22  C   UNL d   1      30.021 -14.450   6.278  0.00  0.00     0.009 A 
ATOM     23  C   UNL d   1      29.438 -14.430   5.013  0.00  0.00     0.030 A 
BRANCH  21  24
ATOM     24  C   UNL d   1      29.979 -13.913   8.768  0.00  0.00     0.034 C 
ATOM     25  C   UNL d   1      28.994 -14.555   9.744  0.00  0.00     0.010 C 
ENDBRANCH  21  24
ENDBRANCH  16  18
ENDBRANCH  13  14
ENDBRANCH  12  13
ENDBRANCH   3  12
BRANCH   1  26
ATOM     26  C   UNL d   1      24.671 -17.223  -0.608  0.00  0.00     0.012 A 
ATOM     27  C   UNL d   1      23.651 -16.320  -0.941  0.00  0.00     0.018 A 
ATOM     28  C   UNL d   1      22.299 -16.714  -0.884  0.00  0.00     0.037 A 
ATOM     29  C   UNL d   1      21.945 -18.021  -0.539  0.00  0.00     0.068 A 
ATOM     30  C   UNL d   1      22.961 -18.932  -0.251  0.00  0.00     0.037 A 
ATOM     31  C   UNL d   1      24.317 -18.537  -0.283  0.00  0.00     0.018 A 
BRANCH  29  32
ATOM     32  O   UNL d   1      20.609 -18.332  -0.618  0.00  0.00    -0.352 OA
BRANCH  32  33
ATOM     33  C   UNL d   1      20.280 -19.698  -0.898  0.00  0.00     0.171 C 
ATOM     34  C   UNL d   1      19.534 -20.291   0.292  0.00  0.00     0.034 C 
ENDBRANCH  32  33
ENDBRANCH  29  32
ENDBRANCH   1  26
TORSDOF 8
ENDMDL
MODEL 4
REMARK VINA RESULT:    -8.863      4.841      8.971
REMARK INTER + INTRA:         -12.860
REMARK INTER:                 -11.250
REMARK INTRA:                  -1.610
REMARK CONF_INDEPENDENT:        2.386
REMARK UNBOUND:                -1.610
REMARK  8 active torsions:
REMARK  status: ('A' for Active; 'I' for Inactive)
REMARK    1  A    between atoms: C_2  and  O_3 
REMARK    2  A    between atoms: O_3  and  C_4 
REMARK    3  A    between atoms: C_7  and  C_8 
REMARK    4  A    between atoms: C_10  and  S_11 
REMARK    5  A    between atoms: S_11  and  C_12 
REMARK    6  A    between atoms: C_12  and  C_13 
REMARK       I    between atoms: C_13  and  N_15 
REMARK    7  A    between atoms: N_15  and  C_16 
REMARK    8  A    between atoms: C_19  and  C_20 
ROOT
ATOM      1  C   UNL d   1      28.895 -15.871  -4.811  0.00  0.00     0.164 A 
ATOM      2  N   UNL d   1      29.137 -15.861  -3.427  0.00  0.00    -0.202 NA
ATOM      3  C   UNL d   1      28.133 -15.513  -2.663  0.00  0.00     0.192 A 
ATOM      4  N   UNL d   1      26.904 -15.213  -3.194  0.00  0.00    -0.211 N 
ATOM      5  N   UNL d   1      25.777 -14.710  -2.598  0.00  0.00    -0.256 N 
ATOM      6  C   UNL d   1      24.916 -14.320  -3.613  0.00  0.00     0.264 C 
ATOM      7  O   UNL d   1      23.882 -13.700  -3.521  0.00  0.00    -0.267 OA
ATOM      8  C   UNL d   1      25.530 -14.781  -4.894  0.00  0.00     0.128 C 
ATOM      9  C   UNL d   1      26.754 -15.209  -4.549  0.00  0.00     0.159 A 
ATOM     10  N   UNL d   1      27.759 -15.575  -5.396  0.00  0.00    -0.209 NA
ATOM     11  H   UNL d   1      25.636 -14.641  -1.599  0.00  0.00     0.191 HD
ENDROOT
BRANCH   3  12
ATOM     12  S   UNL d   1      28.287 -15.431  -0.918  0.00  0.00    -0.081 SA
BRANCH  12  13
ATOM     13  C   UNL d   1      28.325 -17.153  -0.283  0.00  0.00     0.185 C 
BRANCH  13  14
ATOM     14  C   UNL d   1      26.866 -17.620  -0.023  0.00  0.00     0.231 C 
ATOM     15  O   UNL d   1      26.573 -18.311   0.955  0.00  0.00    -0.272 OA
ATOM     16  N   UNL d   1      25.912 -17.253  -0.980  0.00  0.00    -0.327 N 
ATOM     17  H   UNL d   1      26.204 -16.890  -1.879  0.00  0.00     0.169 HD
BRANCH  16  18
ATOM     18  C   UNL d   1      24.544 -17.626  -0.848  0.00  0.00     0.034 A 
ATOM     19  C   UNL d   1      23.514 -16.693  -1.018  0.00  0.00     0.030 A 
ATOM     20  C   UNL d   1      22.165 -17.088  -0.895  0.00  0.00     0.009 A 
ATOM     21  C   UNL d   1      21.828 -18.423  -0.631  0.00  0.00    -0.058 A 
ATOM     22  C   UNL d   1      22.873 -19.326  -0.405  0.00  0.00     0.009 A 
ATOM     23  C   UNL d   1      24.206 -18.936  -0.520  0.00  0.00     0.030 A 
BRANCH  21  24
ATOM     24  C   UNL d   1      20.380 -18.871  -0.665  0.00  0.00     0.034 C 
ATOM     25  C   UNL d   1      19.880 -19.456   0.655  0.00  0.00     0.010 C 
ENDBRANCH  21  24
ENDBRANCH  16  18
ENDBRANCH  13  14
ENDBRANCH  12  13
ENDBRANCH   3  12
BRANCH   1  26
ATOM     26  C   UNL d   1      30.054 -16.263  -5.692  0.00  0.00     0.012 A 
ATOM     27  C   UNL d   1      30.731 -15.291  -6.442  0.00  0.00     0.018 A 
ATOM     28  C   UNL d   1      31.695 -15.668  -7.399  0.00  0.00     0.037 A 
ATOM     29  C   UNL d   1      32.031 -17.011  -7.591  0.00  0.00     0.068 A 
ATOM     30  C   UNL d   1      31.389 -17.975  -6.813  0.00  0.00     0.037 A 
ATOM     31  C   UNL d   1      30.405 -17.606  -5.870  0.00  0.00     0.018 A 
BRANCH  29  32
ATOM     32  O   UNL d   1      33.057 -17.263  -8.468  0.00  0.00    -0.352 OA
BRANCH  32  33
ATOM     33  C   UNL d   1      33.537 -18.613  -8.530  0.00  0.00     0.171 C 
ATOM     34  C   UNL d   1      32.907 -19.316  -9.728  0.00  0.00     0.034 C 
ENDBRANCH  32  33
ENDBRANCH  29  32
ENDBRANCH   1  26
TORSDOF 8
ENDMDL
MODEL 5
REMARK VINA RESULT:    -8.457      5.398      8.550
REMARK INTER + INTRA:         -12.626
REMARK INTER:                 -10.843
REMARK INTRA:                  -1.783
REMARK CONF_INDEPENDENT:        2.386
REMARK UNBOUND:                -1.783
REMARK  8 active torsions:
REMARK  status: ('A' for Active; 'I' for Inactive)
REMARK    1  A    between atoms: C_2  and  O_3 
REMARK    2  A    between atoms: O_3  and  C_4 
REMARK    3  A    between atoms: C_7  and  C_8 
REMARK    4  A    between atoms: C_10  and  S_11 
REMARK    5  A    between atoms: S_11  and  C_12 
REMARK    6  A    between atoms: C_12  and  C_13 
REMARK       I    between atoms: C_13  and  N_15 
REMARK    7  A    between atoms: N_15  and  C_16 
REMARK    8  A    between atoms: C_19  and  C_20 
ROOT
ATOM      1  C   UNL d   1      25.632 -16.325  -2.137  0.00  0.00     0.164 A 
ATOM      2  N   UNL d   1      26.864 -16.156  -1.484  0.00  0.00    -0.202 NA
ATOM      3  C   UNL d   1      27.830 -15.624  -2.190  0.00  0.00     0.192 A 
ATOM      4  N   UNL d   1      27.626 -15.222  -3.486  0.00  0.00    -0.211 N 
ATOM      5  N   UNL d   1      28.515 -14.772  -4.426  0.00  0.00    -0.256 N 
ATOM      6  C   UNL d   1      27.858 -14.777  -5.647  0.00  0.00     0.264 C 
ATOM      7  O   UNL d   1      28.322 -14.590  -6.749  0.00  0.00    -0.267 OA
ATOM      8  C   UNL d   1      26.430 -15.105  -5.361  0.00  0.00     0.128 C 
ATOM      9  C   UNL d   1      26.414 -15.451  -4.065  0.00  0.00     0.159 A 
ATOM     10  N   UNL d   1      25.365 -15.990  -3.377  0.00  0.00    -0.209 NA
ATOM     11  H   UNL d   1      29.471 -14.503  -4.232  0.00  0.00     0.191 HD
ENDROOT
BRANCH   3  12
ATOM     12  S   UNL d   1      29.430 -15.371  -1.520  0.00  0.00    -0.081 SA
BRANCH  12  13
ATOM     13  C   UNL d   1      30.404 -16.899  -1.817  0.00  0.00     0.185 C 
BRANCH  13  14
ATOM     14  C   UNL d   1      30.632 -17.054  -3.346  0.00  0.00     0.231 C 
ATOM     15  O   UNL d   1      30.860 -16.081  -4.068  0.00  0.00    -0.272 OA
ATOM     16  N   UNL d   1      30.522 -18.350  -3.866  0.00  0.00    -0.327 N 
ATOM     17  H   UNL d   1      30.115 -19.090  -3.310  0.00  0.00     0.169 HD
BRANCH  16  18
ATOM     18  C   UNL d   1      30.710 -18.613  -5.253  0.00  0.00     0.034 A 
ATOM     19  C   UNL d   1      30.865 -17.574  -6.178  0.00  0.00     0.030 A 
ATOM     20  C   UNL d   1      31.063 -17.858  -7.546  0.00  0.00     0.009 A 
ATOM     21  C   UNL d   1      31.139 -19.182  -8.001  0.00  0.00    -0.058 A 
ATOM     22  C   UNL d   1      30.920 -20.204  -7.071  0.00  0.00     0.009 A 
ATOM     23  C   UNL d   1      30.718 -19.925  -5.721  0.00  0.00     0.030 A 
BRANCH  21  24
ATOM     24  C   UNL d   1      31.515 -19.480  -9.440  0.00  0.00     0.034 C 
ATOM     25  C   UNL d   1      30.378 -20.075 -10.269  0.00  0.00     0.010 C 
ENDBRANCH  21  24
ENDBRANCH  16  18
ENDBRANCH  13  14
ENDBRANCH  12  13
ENDBRANCH   3  12
BRANCH   1  26
ATOM     26  C   UNL d   1      24.522 -16.946  -1.327  0.00  0.00     0.012 A 
ATOM     27  C   UNL d   1      24.676 -18.231  -0.787  0.00  0.00     0.018 A 
ATOM     28  C   UNL d   1      23.586 -18.889  -0.183  0.00  0.00     0.037 A 
ATOM     29  C   UNL d   1      22.342 -18.262  -0.067  0.00  0.00     0.068 A 
ATOM     30  C   UNL d   1      22.201 -16.966  -0.565  0.00  0.00     0.037 A 
ATOM     31  C   UNL d   1      23.283 -16.311  -1.193  0.00  0.00     0.018 A 
BRANCH  29  32
ATOM     32  O   UNL d   1      21.378 -18.945   0.633  0.00  0.00    -0.352 OA
BRANCH  32  33
ATOM     33  C   UNL d   1      20.363 -19.602  -0.137  0.00  0.00     0.171 C 
ATOM     34  C   UNL d   1      19.426 -20.353   0.802  0.00  0.00     0.034 C 
ENDBRANCH  32  33
ENDBRANCH  29  32
ENDBRANCH   1  26
TORSDOF 8
ENDMDL
MODEL 6
REMARK VINA RESULT:    -8.095      2.280      3.830
REMARK INTER + INTRA:         -13.119
REMARK INTER:                 -10.481
REMARK INTRA:                  -2.638
REMARK CONF_INDEPENDENT:        2.386
REMARK UNBOUND:                -2.638
REMARK  8 active torsions:
REMARK  status: ('A' for Active; 'I' for Inactive)
REMARK    1  A    between atoms: C_2  and  O_3 
REMARK    2  A    between atoms: O_3  and  C_4 
REMARK    3  A    between atoms: C_7  and  C_8 
REMARK    4  A    between atoms: C_10  and  S_11 
REMARK    5  A    between atoms: S_11  and  C_12 
REMARK    6  A    between atoms: C_12  and  C_13 
REMARK       I    between atoms: C_13  and  N_15 
REMARK    7  A    between atoms: N_15  and  C_16 
REMARK    8  A    between atoms: C_19  and  C_20 
ROOT
ATOM      1  C   UNL d   1      25.711 -16.903  -1.239  0.00  0.00     0.164 A 
ATOM      2  N   UNL d   1      25.859 -15.956  -2.267  0.00  0.00    -0.202 NA
ATOM      3  C   UNL d   1      27.082 -15.571  -2.531  0.00  0.00     0.192 A 
ATOM      4  N   UNL d   1      28.156 -16.098  -1.859  0.00  0.00    -0.211 N 
ATOM      5  N   UNL d   1      29.481 -15.747  -1.887  0.00  0.00    -0.256 N 
ATOM      6  C   UNL d   1      30.097 -16.387  -0.822  0.00  0.00     0.264 C 
ATOM      7  O   UNL d   1      31.222 -16.235  -0.406  0.00  0.00    -0.267 OA
ATOM      8  C   UNL d   1      29.078 -17.303  -0.229  0.00  0.00     0.128 C 
ATOM      9  C   UNL d   1      27.932 -16.985  -0.849  0.00  0.00     0.159 A 
ATOM     10  N   UNL d   1      26.682 -17.435  -0.536  0.00  0.00    -0.209 NA
ATOM     11  H   UNL d   1      29.897 -15.126  -2.568  0.00  0.00     0.191 HD
ENDROOT
BRANCH   3  12
ATOM     12  S   UNL d   1      27.426 -14.379  -3.771  0.00  0.00    -0.081 SA
BRANCH  12  13
ATOM     13  C   UNL d   1      26.907 -12.741  -3.124  0.00  0.00     0.185 C 
BRANCH  13  14
ATOM     14  C   UNL d   1      27.366 -12.621  -1.645  0.00  0.00     0.231 C 
ATOM     15  O   UNL d   1      28.307 -11.894  -1.317  0.00  0.00    -0.272 OA
ATOM     16  N   UNL d   1      26.685 -13.413  -0.713  0.00  0.00    -0.327 N 
ATOM     17  H   UNL d   1      26.080 -14.162  -1.024  0.00  0.00     0.169 HD
BRANCH  16  18
ATOM     18  C   UNL d   1      27.020 -13.387   0.671  0.00  0.00     0.034 A 
ATOM     19  C   UNL d   1      26.700 -12.289   1.479  0.00  0.00     0.030 A 
ATOM     20  C   UNL d   1      27.030 -12.290   2.851  0.00  0.00     0.009 A 
ATOM     21  C   UNL d   1      27.655 -13.398   3.438  0.00  0.00    -0.058 A 
ATOM     22  C   UNL d   1      28.021 -14.459   2.602  0.00  0.00     0.009 A 
ATOM     23  C   UNL d   1      27.702 -14.457   1.246  0.00  0.00     0.030 A 
BRANCH  21  24
ATOM     24  C   UNL d   1      27.857 -13.460   4.940  0.00  0.00     0.034 C 
ATOM     25  C   UNL d   1      28.207 -14.853   5.463  0.00  0.00     0.010 C 
ENDBRANCH  21  24
ENDBRANCH  16  18
ENDBRANCH  13  14
ENDBRANCH  12  13
ENDBRANCH   3  12
BRANCH   1  26
ATOM     26  C   UNL d   1      24.302 -17.340  -0.928  0.00  0.00     0.012 A 
ATOM     27  C   UNL d   1      24.028 -18.684  -0.636  0.00  0.00     0.018 A 
ATOM     28  C   UNL d   1      22.698 -19.135  -0.519  0.00  0.00     0.037 A 
ATOM     29  C   UNL d   1      21.624 -18.249  -0.648  0.00  0.00     0.068 A 
ATOM     30  C   UNL d   1      21.898 -16.903  -0.895  0.00  0.00     0.037 A 
ATOM     31  C   UNL d   1      23.228 -16.450  -1.036  0.00  0.00     0.018 A 
BRANCH  29  32
ATOM     32  O   UNL d   1      20.375 -18.767  -0.410  0.00  0.00    -0.352 OA
BRANCH  32  33
ATOM     33  C   UNL d   1      20.313 -19.982   0.348  0.00  0.00     0.171 C 
ATOM     34  C   UNL d   1      18.864 -20.452   0.430  0.00  0.00     0.034 C 
ENDBRANCH  32  33
ENDBRANCH  29  32
ENDBRANCH   1  26
TORSDOF 8
ENDMDL
MODEL 7
REMARK VINA RESULT:    -7.790      2.928      8.013
REMARK INTER + INTRA:         -12.384
REMARK INTER:                 -10.177
REMARK INTRA:                  -2.207
REMARK CONF_INDEPENDENT:        2.386
REMARK UNBOUND:                -2.207
REMARK  8 active torsions:
REMARK  status: ('A' for Active; 'I' for Inactive)
REMARK    1  A    between atoms: C_2  and  O_3 
REMARK    2  A    between atoms: O_3  and  C_4 
REMARK    3  A    between atoms: C_7  and  C_8 
REMARK    4  A    between atoms: C_10  and  S_11 
REMARK    5  A    between atoms: S_11  and  C_12 
REMARK    6  A    between atoms: C_12  and  C_13 
REMARK       I    between atoms: C_13  and  N_15 
REMARK    7  A    between atoms: N_15  and  C_16 
REMARK    8  A    between atoms: C_19  and  C_20 
ROOT
ATOM      1  C   UNL d   1      27.505 -13.261  -0.592  0.00  0.00     0.164 A 
ATOM      2  N   UNL d   1      28.685 -14.023  -0.599  0.00  0.00    -0.202 NA
ATOM      3  C   UNL d   1      29.074 -14.503   0.555  0.00  0.00     0.192 A 
ATOM      4  N   UNL d   1      28.341 -14.297   1.697  0.00  0.00    -0.211 N 
ATOM      5  N   UNL d   1      28.630 -14.592   3.003  0.00  0.00    -0.256 N 
ATOM      6  C   UNL d   1      27.702 -13.925   3.789  0.00  0.00     0.264 C 
ATOM      7  O   UNL d   1      27.689 -13.803   4.992  0.00  0.00    -0.267 OA
ATOM      8  C   UNL d   1      26.704 -13.326   2.854  0.00  0.00     0.128 C 
ATOM      9  C   UNL d   1      27.226 -13.516   1.632  0.00  0.00     0.159 A 
ATOM     10  N   UNL d   1      26.762 -12.999   0.457  0.00  0.00    -0.209 NA
ATOM     11  H   UNL d   1      29.392 -15.184   3.304  0.00  0.00     0.191 HD
ENDROOT
BRANCH   3  12
ATOM     12  S   UNL d   1      30.539 -15.454   0.711  0.00  0.00    -0.081 SA
BRANCH  12  13
ATOM     13  C   UNL d   1      30.336 -16.959  -0.321  0.00  0.00     0.185 C 
BRANCH  13  14
ATOM     14  C   UNL d   1      28.850 -17.062  -0.764  0.00  0.00     0.231 C 
ATOM     15  O   UNL d   1      28.531 -17.076  -1.955  0.00  0.00    -0.272 OA
ATOM     16  N   UNL d   1      27.893 -17.093   0.258  0.00  0.00    -0.327 N 
ATOM     17  H   UNL d   1      28.152 -16.852   1.206  0.00  0.00     0.169 HD
BRANCH  16  18
ATOM     18  C   UNL d   1      26.502 -17.185  -0.029  0.00  0.00     0.034 A 
ATOM     19  C   UNL d   1      25.710 -18.202   0.516  0.00  0.00     0.030 A 
ATOM     20  C   UNL d   1      24.330 -18.267   0.229  0.00  0.00     0.009 A 
ATOM     21  C   UNL d   1      23.719 -17.299  -0.582  0.00  0.00    -0.058 A 
ATOM     22  C   UNL d   1      24.538 -16.327  -1.166  0.00  0.00     0.009 A 
ATOM     23  C   UNL d   1      25.903 -16.266  -0.888  0.00  0.00     0.030 A 
BRANCH  21  24
ATOM     24  C   UNL d   1      22.212 -17.279  -0.751  0.00  0.00     0.034 C 
ATOM     25  C   UNL d   1      21.584 -18.665  -0.892  0.00  0.00     0.010 C 
ENDBRANCH  21  24
ENDBRANCH  16  18
ENDBRANCH  13  14
ENDBRANCH  12  13
ENDBRANCH   3  12
BRANCH   1  26
ATOM     26  C   UNL d   1      27.060 -12.701  -1.920  0.00  0.00     0.012 A 
ATOM     27  C   UNL d   1      27.211 -11.335  -2.196  0.00  0.00     0.018 A 
ATOM     28  C   UNL d   1      26.641 -10.771  -3.355  0.00  0.00     0.037 A 
ATOM     29  C   UNL d   1      25.952 -11.565  -4.277  0.00  0.00     0.068 A 
ATOM     30  C   UNL d   1      25.840 -12.933  -4.024  0.00  0.00     0.037 A 
ATOM     31  C   UNL d   1      26.388 -13.499  -2.852  0.00  0.00     0.018 A 
BRANCH  29  32
ATOM     32  O   UNL d   1      25.530 -10.940  -5.425  0.00  0.00    -0.352 OA
BRANCH  32  33
ATOM     33  C   UNL d   1      25.758  -9.528  -5.512  0.00  0.00     0.171 C 
ATOM     34  C   UNL d   1      24.417  -8.806  -5.606  0.00  0.00     0.034 C 
ENDBRANCH  32  33
ENDBRANCH  29  32
ENDBRANCH   1  26
TORSDOF 8
ENDMDL
MODEL 8
REMARK VINA RESULT:    -7.593      4.348      7.380
REMARK INTER + INTRA:         -12.402
REMARK INTER:                  -9.980
REMARK INTRA:                  -2.422
REMARK CONF_INDEPENDENT:        2.386
REMARK UNBOUND:                -2.422
REMARK  8 active torsions:
REMARK  status: ('A' for Active; 'I' for Inactive)
REMARK    1  A    between atoms: C_2  and  O_3 
REMARK    2  A    between atoms: O_3  and  C_4 
REMARK    3  A    between atoms: C_7  and  C_8 
REMARK    4  A    between atoms: C_10  and  S_11 
REMARK    5  A    between atoms: S_11  and  C_12 
REMARK    6  A    between atoms: C_12  and  C_13 
REMARK       I    between atoms: C_13  and  N_15 
REMARK    7  A    between atoms: N_15  and  C_16 
REMARK    8  A    between atoms: C_19  and  C_20 
ROOT
ATOM      1  C   UNL d   1      25.568 -16.771  -0.578  0.00  0.00     0.164 A 
ATOM      2  N   UNL d   1      25.591 -15.386  -0.337  0.00  0.00    -0.202 NA
ATOM      3  C   UNL d   1      26.773 -14.838  -0.207  0.00  0.00     0.192 A 
ATOM      4  N   UNL d   1      27.921 -15.578  -0.339  0.00  0.00    -0.211 N 
ATOM      5  N   UNL d   1      29.228 -15.235  -0.117  0.00  0.00    -0.256 N 
ATOM      6  C   UNL d   1      29.965 -16.410  -0.113  0.00  0.00     0.264 C 
ATOM      7  O   UNL d   1      31.126 -16.566   0.189  0.00  0.00    -0.267 OA
ATOM      8  C   UNL d   1      29.030 -17.500  -0.523  0.00  0.00     0.128 C 
ATOM      9  C   UNL d   1      27.819 -16.922  -0.537  0.00  0.00     0.159 A 
ATOM     10  N   UNL d   1      26.617 -17.550  -0.693  0.00  0.00    -0.209 NA
ATOM     11  H   UNL d   1      29.560 -14.290   0.025  0.00  0.00     0.191 HD
ENDROOT
BRANCH   3  12
ATOM     12  S   UNL d   1      26.962 -13.125   0.119  0.00  0.00    -0.081 SA
BRANCH  12  13
ATOM     13  C   UNL d   1      27.431 -12.309  -1.458  0.00  0.00     0.185 C 
BRANCH  13  14
ATOM     14  C   UNL d   1      28.346 -13.271  -2.264  0.00  0.00     0.231 C 
ATOM     15  O   UNL d   1      29.542 -13.403  -1.993  0.00  0.00    -0.272 OA
ATOM     16  N   UNL d   1      27.753 -13.945  -3.338  0.00  0.00    -0.327 N 
ATOM     17  H   UNL d   1      26.847 -13.656  -3.684  0.00  0.00     0.169 HD
BRANCH  16  18
ATOM     18  C   UNL d   1      28.495 -14.851  -4.148  0.00  0.00     0.034 A 
ATOM     19  C   UNL d   1      28.616 -14.663  -5.530  0.00  0.00     0.030 A 
ATOM     20  C   UNL d   1      29.366 -15.567  -6.312  0.00  0.00     0.009 A 
ATOM     21  C   UNL d   1      30.030 -16.650  -5.720  0.00  0.00    -0.058 A 
ATOM     22  C   UNL d   1      29.847 -16.854  -4.347  0.00  0.00     0.009 A 
ATOM     23  C   UNL d   1      29.100 -15.967  -3.575  0.00  0.00     0.030 A 
BRANCH  21  24
ATOM     24  C   UNL d   1      30.967 -17.518  -6.537  0.00  0.00     0.034 C 
ATOM     25  C   UNL d   1      30.626 -19.007  -6.500  0.00  0.00     0.010 C 
ENDBRANCH  21  24
ENDBRANCH  16  18
ENDBRANCH  13  14
ENDBRANCH  12  13
ENDBRANCH   3  12
BRANCH   1  26
ATOM     26  C   UNL d   1      24.208 -17.405  -0.719  0.00  0.00     0.012 A 
ATOM     27  C   UNL d   1      23.076 -16.606  -0.939  0.00  0.00     0.018 A 
ATOM     28  C   UNL d   1      21.784 -17.168  -0.895  0.00  0.00     0.037 A 
ATOM     29  C   UNL d   1      21.602 -18.537  -0.676  0.00  0.00     0.068 A 
ATOM     30  C   UNL d   1      22.730 -19.339  -0.501  0.00  0.00     0.037 A 
ATOM     31  C   UNL d   1      24.026 -18.778  -0.520  0.00  0.00     0.018 A 
BRANCH  29  32
ATOM     32  O   UNL d   1      20.312 -19.001  -0.760  0.00  0.00    -0.352 OA
BRANCH  32  33
ATOM     33  C   UNL d   1      19.800 -19.695   0.385  0.00  0.00     0.171 C 
ATOM     34  C   UNL d   1      18.535 -20.450  -0.009  0.00  0.00     0.034 C 
ENDBRANCH  32  33
ENDBRANCH  29  32
ENDBRANCH   1  26
TORSDOF 8
ENDMDL
MODEL 9
REMARK VINA RESULT:    -7.418      3.634      6.684
REMARK INTER + INTRA:         -12.714
REMARK INTER:                  -9.805
REMARK INTRA:                  -2.909
REMARK CONF_INDEPENDENT:        2.386
REMARK UNBOUND:                -2.909
REMARK  8 active torsions:
REMARK  status: ('A' for Active; 'I' for Inactive)
REMARK    1  A    between atoms: C_2  and  O_3 
REMARK    2  A    between atoms: O_3  and  C_4 
REMARK    3  A    between atoms: C_7  and  C_8 
REMARK    4  A    between atoms: C_10  and  S_11 
REMARK    5  A    between atoms: S_11  and  C_12 
REMARK    6  A    between atoms: C_12  and  C_13 
REMARK       I    between atoms: C_13  and  N_15 
REMARK    7  A    between atoms: N_15  and  C_16 
REMARK    8  A    between atoms: C_19  and  C_20 
ROOT
ATOM      1  C   UNL d   1      26.541 -16.826  -0.100  0.00  0.00     0.164 A 
ATOM      2  N   UNL d   1      27.560 -17.664  -0.583  0.00  0.00    -0.202 NA
ATOM      3  C   UNL d   1      28.789 -17.286  -0.338  0.00  0.00     0.192 A 
ATOM      4  N   UNL d   1      29.055 -16.150   0.384  0.00  0.00    -0.211 N 
ATOM      5  N   UNL d   1      30.243 -15.515   0.637  0.00  0.00    -0.256 N 
ATOM      6  C   UNL d   1      29.938 -14.268   1.160  0.00  0.00     0.264 C 
ATOM      7  O   UNL d   1      30.688 -13.345   1.382  0.00  0.00    -0.267 OA
ATOM      8  C   UNL d   1      28.461 -14.245   1.373  0.00  0.00     0.128 C 
ATOM      9  C   UNL d   1      28.015 -15.367   0.788  0.00  0.00     0.159 A 
ATOM     10  N   UNL d   1      26.713 -15.715   0.575  0.00  0.00    -0.209 NA
ATOM     11  H   UNL d   1      31.156 -15.910   0.454  0.00  0.00     0.191 HD
ENDROOT
BRANCH   3  12
ATOM     12  S   UNL d   1      30.168 -18.215  -0.896  0.00  0.00    -0.081 SA
BRANCH  12  13
ATOM     13  C   UNL d   1      30.573 -17.644  -2.593  0.00  0.00     0.185 C 
BRANCH  13  14
ATOM     14  C   UNL d   1      29.853 -16.291  -2.847  0.00  0.00     0.231 C 
ATOM     15  O   UNL d   1      30.478 -15.230  -2.922  0.00  0.00    -0.272 OA
ATOM     16  N   UNL d   1      28.457 -16.334  -2.944  0.00  0.00    -0.327 N 
ATOM     17  H   UNL d   1      27.951 -17.161  -2.655  0.00  0.00     0.169 HD
BRANCH  16  18
ATOM     18  C   UNL d   1      27.691 -15.155  -3.175  0.00  0.00     0.034 A 
ATOM     19  C   UNL d   1      27.598 -14.145  -2.211  0.00  0.00     0.030 A 
ATOM     20  C   UNL d   1      26.843 -12.980  -2.466  0.00  0.00     0.009 A 
ATOM     21  C   UNL d   1      26.199 -12.797  -3.697  0.00  0.00    -0.058 A 
ATOM     22  C   UNL d   1      26.254 -13.845  -4.624  0.00  0.00     0.009 A 
ATOM     23  C   UNL d   1      26.993 -14.999  -4.370  0.00  0.00     0.030 A 
BRANCH  21  24
ATOM     24  C   UNL d   1      25.531 -11.476  -4.026  0.00  0.00     0.034 C 
ATOM     25  C   UNL d   1      26.130 -10.277  -3.293  0.00  0.00     0.010 C 
ENDBRANCH  21  24
ENDBRANCH  16  18
ENDBRANCH  13  14
ENDBRANCH  12  13
ENDBRANCH   3  12
BRANCH   1  26
ATOM     26  C   UNL d   1      25.125 -17.257  -0.389  0.00  0.00     0.012 A 
ATOM     27  C   UNL d   1      24.170 -16.315  -0.795  0.00  0.00     0.018 A 
ATOM     28  C   UNL d   1      22.810 -16.672  -0.895  0.00  0.00     0.037 A 
ATOM     29  C   UNL d   1      22.388 -17.979  -0.637  0.00  0.00     0.068 A 
ATOM     30  C   UNL d   1      23.346 -18.928  -0.276  0.00  0.00     0.037 A 
ATOM     31  C   UNL d   1      24.706 -18.570  -0.150  0.00  0.00     0.018 A 
BRANCH  29  32
ATOM     32  O   UNL d   1      21.061 -18.249  -0.868  0.00  0.00    -0.352 OA
BRANCH  32  33
ATOM     33  C   UNL d   1      20.531 -19.438  -0.269  0.00  0.00     0.171 C 
ATOM     34  C   UNL d   1      19.133 -19.699  -0.821  0.00  0.00     0.034 C 
ENDBRANCH  32  33
ENDBRANCH  29  32
ENDBRANCH   1  26
TORSDOF 8
ENDMDL
