MODEL 1
REMARK VINA RESULT:   -31.891      0.000      0.000
REMARK INTER + INTRA:         -37.954
REMARK INTER:                 -35.173
REMARK INTRA:                  -2.781
REMARK CONF_INDEPENDENT:        3.281
REMARK UNBOUND:                -2.781
REMARK  11 active torsions:
REMARK  status: ('A' for Active; 'I' for Inactive)
REMARK    1  A    between atoms: N_1  and  C_2 
REMARK    2  A    between atoms: C_4  and  C_5 
REMARK    3  A    between atoms: C_5  and  N_6 
REMARK    4  A    between atoms: C_7  and  C_8 
REMARK    5  A    between atoms: C_11  and  O_12 
REMARK    6  A    between atoms: O_12  and  C_13 
REMARK    7  A    between atoms: C_23  and  C_24 
REMARK    8  A    between atoms: C_33  and  N_34 
REMARK    9  A    between atoms: N_34  and  C_35 
REMARK   10  A    between atoms: C_35  and  C_36 
REMARK   11  A    between atoms: C_36  and  O_37 
ROOT
ATOM      1  N   UNL d   1      27.314 -15.552  -2.259  0.00  0.00    -0.340 N 
ATOM      2  C   UNL d   1      25.961 -15.830  -2.458  0.00  0.00     0.045 A 
ATOM      3  C   UNL d   1      25.727 -15.683  -3.814  0.00  0.00     0.033 A 
ATOM      4  C   UNL d   1      26.913 -15.214  -4.419  0.00  0.00     0.033 A 
ATOM      5  C   UNL d   1      27.899 -15.158  -3.450  0.00  0.00     0.047 A 
ENDROOT
BRANCH   1   6
ATOM      6  C   UNL d   1      28.049 -15.786  -1.014  0.00  0.00     0.186 C 
BRANCH   6   7
ATOM      7  C   UNL d   1      27.749 -14.779   0.070  0.00  0.00     0.029 C 
ATOM      8  N   UNL d   1      28.373 -14.922   1.242  0.00  0.00    -0.343 N 
ATOM      9  C   UNL d   1      28.268 -14.081   2.281  0.00  0.00     0.126 C 
ATOM     10  H   UNL d   1      28.977 -15.726   1.395  0.00  0.00     0.167 HD
ATOM     11  C   UNL d   1      27.473 -12.903   2.138  0.00  0.00     0.072 C 
ATOM     12  C   UNL d   1      26.757 -12.763   0.950  0.00  0.00     0.035 C 
ATOM     13  C   UNL d   1      26.853 -13.712  -0.051  0.00  0.00     0.029 C 
BRANCH   9  14
ATOM     14  N   UNL d   1      28.990 -14.444   3.382  0.00  0.00    -0.384 N 
ATOM     15  H   UNL d   1      29.341 -15.371   3.580  0.00  0.00     0.157 HD
ATOM     16  H   UNL d   1      29.111 -13.806   4.152  0.00  0.00     0.157 HD
ENDBRANCH   9  14
BRANCH  11  17
ATOM     17  N   UNL d   1      27.273 -11.906   3.085  0.00  0.00    -0.385 N 
ATOM     18  H   UNL d   1      26.345 -11.492   3.165  0.00  0.00     0.159 HD
BRANCH  17  19
ATOM     19  C   UNL d   1      28.341 -11.280   3.826  0.00  0.00     0.146 C 
BRANCH  19  20
ATOM     20  C   UNL d   1      27.927 -10.090   4.673  0.00  0.00     0.183 C 
BRANCH  20  21
ATOM     21  O   UNL d   1      26.576  -9.768   4.352  0.00  0.00    -0.399 OA
ATOM     22  H   UNL d   1      26.025  -9.936   5.139  0.00  0.00     0.209 HD
ENDBRANCH  20  21
ENDBRANCH  19  20
ENDBRANCH  17  19
ENDBRANCH  11  17
ENDBRANCH   6   7
ENDBRANCH   1   6
BRANCH   2  23
ATOM     23  C   UNL d   1      25.092 -16.413  -1.429  0.00  0.00    -0.009 A 
ATOM     24  C   UNL d   1      25.516 -17.513  -0.677  0.00  0.00     0.016 A 
ATOM     25  C   UNL d   1      24.603 -18.248   0.083  0.00  0.00     0.038 A 
ATOM     26  C   UNL d   1      23.273 -17.831   0.184  0.00  0.00     0.076 A 
ATOM     27  C   UNL d   1      22.857 -16.702  -0.528  0.00  0.00     0.038 A 
ATOM     28  C   UNL d   1      23.760 -15.997  -1.326  0.00  0.00     0.016 A 
BRANCH  26  29
ATOM     29  O   UNL d   1      22.476 -18.579   1.029  0.00  0.00    -0.308 OA
BRANCH  29  30
ATOM     30  C   UNL d   1      21.259 -18.982   0.563  0.00  0.00     0.111 A 
ATOM     31  C   UNL d   1      20.275 -19.483   1.388  0.00  0.00     0.156 A 
ATOM     32  N   UNL d   1      19.090 -19.948   0.946  0.00  0.00    -0.251 NA
ATOM     33  C   UNL d   1      18.888 -19.845  -0.379  0.00  0.00     0.232 A 
ATOM     34  N   UNL d   1      19.750 -19.325  -1.270  0.00  0.00    -0.251 NA
ATOM     35  C   UNL d   1      20.928 -18.892  -0.770  0.00  0.00     0.156 A 
ENDBRANCH  29  30
ENDBRANCH  26  29
ENDBRANCH   2  23
BRANCH   5  36
ATOM     36  C   UNL d   1      29.314 -14.807  -3.616  0.00  0.00     0.013 A 
ATOM     37  C   UNL d   1      29.719 -13.502  -3.301  0.00  0.00     0.015 A 
ATOM     38  C   UNL d   1      31.053 -13.121  -3.454  0.00  0.00     0.001 A 
ATOM     39  C   UNL d   1      32.010 -14.057  -3.841  0.00  0.00     0.002 A 
ATOM     40  C   UNL d   1      31.627 -15.356  -4.147  0.00  0.00     0.025 A 
ATOM     41  C   UNL d   1      30.282 -15.716  -4.085  0.00  0.00     0.046 A 
ATOM     42 CL   UNL d   1      29.907 -17.309  -4.634  0.00  0.00    -0.083 Cl
ENDBRANCH   5  36
TORSDOF 11
ENDMDL
MODEL 2
REMARK VINA RESULT:   -31.551      1.579      1.992
REMARK INTER + INTRA:         -37.648
REMARK INTER:                 -34.832
REMARK INTRA:                  -2.815
REMARK CONF_INDEPENDENT:        3.281
REMARK UNBOUND:                -2.815
REMARK  11 active torsions:
REMARK  status: ('A' for Active; 'I' for Inactive)
REMARK    1  A    between atoms: N_1  and  C_2 
REMARK    2  A    between atoms: C_4  and  C_5 
REMARK    3  A    between atoms: C_5  and  N_6 
REMARK    4  A    between atoms: C_7  and  C_8 
REMARK    5  A    between atoms: C_11  and  O_12 
REMARK    6  A    between atoms: O_12  and  C_13 
REMARK    7  A    between atoms: C_23  and  C_24 
REMARK    8  A    between atoms: C_33  and  N_34 
REMARK    9  A    between atoms: N_34  and  C_35 
REMARK   10  A    between atoms: C_35  and  C_36 
REMARK   11  A    between atoms: C_36  and  O_37 
ROOT
ATOM      1  N   UNL d   1      26.924 -14.959  -2.656  0.00  0.00    -0.340 N 
ATOM      2  C   UNL d   1      25.554 -15.176  -2.813  0.00  0.00     0.045 A 
ATOM      3  C   UNL d   1      25.182 -14.509  -3.967  0.00  0.00     0.033 A 
ATOM      4  C   UNL d   1      26.305 -13.802  -4.449  0.00  0.00     0.033 A 
ATOM      5  C   UNL d   1      27.387 -14.106  -3.644  0.00  0.00     0.047 A 
ENDROOT
BRANCH   1   6
ATOM      6  C   UNL d   1      27.781 -15.647  -1.689  0.00  0.00     0.186 C 
BRANCH   6   7
ATOM      7  C   UNL d   1      27.770 -15.026  -0.313  0.00  0.00     0.029 C 
ATOM      8  N   UNL d   1      28.878 -15.127   0.425  0.00  0.00    -0.343 N 
ATOM      9  C   UNL d   1      29.054 -14.577   1.635  0.00  0.00     0.126 C 
ATOM     10  H   UNL d   1      29.667 -15.665   0.075  0.00  0.00     0.167 HD
ATOM     11  C   UNL d   1      28.010 -13.772   2.185  0.00  0.00     0.072 C 
ATOM     12  C   UNL d   1      26.818 -13.703   1.466  0.00  0.00     0.035 C 
ATOM     13  C   UNL d   1      26.679 -14.361   0.258  0.00  0.00     0.029 C 
BRANCH   9  14
ATOM     14  N   UNL d   1      30.268 -14.832   2.205  0.00  0.00    -0.384 N 
ATOM     15  H   UNL d   1      30.689 -15.744   2.319  0.00  0.00     0.157 HD
ATOM     16  H   UNL d   1      30.779 -14.103   2.676  0.00  0.00     0.157 HD
ENDBRANCH   9  14
BRANCH  11  17
ATOM     17  N   UNL d   1      28.023 -13.098   3.400  0.00  0.00    -0.385 N 
ATOM     18  H   UNL d   1      28.190 -12.093   3.396  0.00  0.00     0.159 HD
BRANCH  17  19
ATOM     19  C   UNL d   1      28.014 -13.760   4.682  0.00  0.00     0.146 C 
BRANCH  19  20
ATOM     20  C   UNL d   1      29.319 -14.432   5.071  0.00  0.00     0.183 C 
BRANCH  20  21
ATOM     21  O   UNL d   1      30.391 -13.582   4.668  0.00  0.00    -0.399 OA
ATOM     22  H   UNL d   1      31.229 -13.987   4.958  0.00  0.00     0.209 HD
ENDBRANCH  20  21
ENDBRANCH  19  20
ENDBRANCH  17  19
ENDBRANCH  11  17
ENDBRANCH   6   7
ENDBRANCH   1   6
BRANCH   2  23
ATOM     23  C   UNL d   1      24.790 -16.148  -2.021  0.00  0.00    -0.009 A 
ATOM     24  C   UNL d   1      23.510 -15.838  -1.553  0.00  0.00     0.016 A 
ATOM     25  C   UNL d   1      22.906 -16.623  -0.567  0.00  0.00     0.038 A 
ATOM     26  C   UNL d   1      23.530 -17.787  -0.112  0.00  0.00     0.076 A 
ATOM     27  C   UNL d   1      24.790 -18.126  -0.615  0.00  0.00     0.038 A 
ATOM     28  C   UNL d   1      25.414 -17.315  -1.564  0.00  0.00     0.016 A 
BRANCH  26  29
ATOM     29  O   UNL d   1      22.808 -18.534   0.799  0.00  0.00    -0.308 OA
BRANCH  29  30
ATOM     30  C   UNL d   1      21.563 -18.953   0.431  0.00  0.00     0.111 A 
ATOM     31  C   UNL d   1      21.145 -18.978  -0.882  0.00  0.00     0.156 A 
ATOM     32  N   UNL d   1      19.901 -19.325  -1.267  0.00  0.00    -0.251 NA
ATOM     33  C   UNL d   1      19.078 -19.710  -0.277  0.00  0.00     0.232 A 
ATOM     34  N   UNL d   1      19.392 -19.778   1.028  0.00  0.00    -0.251 NA
ATOM     35  C   UNL d   1      20.647 -19.401   1.355  0.00  0.00     0.156 A 
ENDBRANCH  29  30
ENDBRANCH  26  29
ENDBRANCH   2  23
BRANCH   5  36
ATOM     36  C   UNL d   1      28.781 -13.675  -3.796  0.00  0.00     0.013 A 
ATOM     37  C   UNL d   1      29.372 -12.949  -2.752  0.00  0.00     0.015 A 
ATOM     38  C   UNL d   1      30.694 -12.510  -2.860  0.00  0.00     0.001 A 
ATOM     39  C   UNL d   1      31.462 -12.860  -3.968  0.00  0.00     0.002 A 
ATOM     40  C   UNL d   1      30.893 -13.587  -5.006  0.00  0.00     0.025 A 
ATOM     41  C   UNL d   1      29.548 -13.948  -4.945  0.00  0.00     0.046 A 
ATOM     42 CL   UNL d   1      28.914 -14.713  -6.356  0.00  0.00    -0.083 Cl
ENDBRANCH   5  36
TORSDOF 11
ENDMDL
MODEL 3
REMARK VINA RESULT:   -31.547      1.577      2.020
REMARK INTER + INTRA:         -37.618
REMARK INTER:                 -34.828
REMARK INTRA:                  -2.790
REMARK CONF_INDEPENDENT:        3.281
REMARK UNBOUND:                -2.790
REMARK  11 active torsions:
REMARK  status: ('A' for Active; 'I' for Inactive)
REMARK    1  A    between atoms: N_1  and  C_2 
REMARK    2  A    between atoms: C_4  and  C_5 
REMARK    3  A    between atoms: C_5  and  N_6 
REMARK    4  A    between atoms: C_7  and  C_8 
REMARK    5  A    between atoms: C_11  and  O_12 
REMARK    6  A    between atoms: O_12  and  C_13 
REMARK    7  A    between atoms: C_23  and  C_24 
REMARK    8  A    between atoms: C_33  and  N_34 
REMARK    9  A    between atoms: N_34  and  C_35 
REMARK   10  A    between atoms: C_35  and  C_36 
REMARK   11  A    between atoms: C_36  and  O_37 
ROOT
ATOM      1  N   UNL d   1      27.307 -15.820  -2.729  0.00  0.00    -0.340 N 
ATOM      2  C   UNL d   1      25.915 -15.927  -2.762  0.00  0.00     0.045 A 
ATOM      3  C   UNL d   1      25.531 -15.635  -4.058  0.00  0.00     0.033 A 
ATOM      4  C   UNL d   1      26.680 -15.248  -4.783  0.00  0.00     0.033 A 
ATOM      5  C   UNL d   1      27.780 -15.389  -3.956  0.00  0.00     0.047 A 
ENDROOT
BRANCH   1   6
ATOM      6  C   UNL d   1      28.158 -16.245  -1.616  0.00  0.00     0.186 C 
BRANCH   6   7
ATOM      7  C   UNL d   1      27.998 -15.407  -0.370  0.00  0.00     0.029 C 
ATOM      8  N   UNL d   1      29.010 -15.388   0.501  0.00  0.00    -0.343 N 
ATOM      9  C   UNL d   1      29.054 -14.648   1.619  0.00  0.00     0.126 C 
ATOM     10  H   UNL d   1      29.823 -15.977   0.340  0.00  0.00     0.167 HD
ATOM     11  C   UNL d   1      27.970 -13.762   1.902  0.00  0.00     0.072 C 
ATOM     12  C   UNL d   1      26.872 -13.810   1.045  0.00  0.00     0.035 C 
ATOM     13  C   UNL d   1      26.863 -14.657  -0.048  0.00  0.00     0.029 C 
BRANCH   9  14
ATOM     14  N   UNL d   1      30.188 -14.808   2.363  0.00  0.00    -0.384 N 
ATOM     15  H   UNL d   1      30.273 -15.373   3.196  0.00  0.00     0.157 HD
ATOM     16  H   UNL d   1      31.004 -14.246   2.184  0.00  0.00     0.157 HD
ENDBRANCH   9  14
BRANCH  11  17
ATOM     17  N   UNL d   1      27.854 -12.899   2.985  0.00  0.00    -0.385 N 
ATOM     18  H   UNL d   1      27.879 -11.895   2.810  0.00  0.00     0.159 HD
BRANCH  17  19
ATOM     19  C   UNL d   1      27.900 -13.331   4.361  0.00  0.00     0.146 C 
BRANCH  19  20
ATOM     20  C   UNL d   1      28.080 -14.825   4.563  0.00  0.00     0.183 C 
BRANCH  20  21
ATOM     21  O   UNL d   1      29.391 -15.046   5.080  0.00  0.00    -0.399 OA
ATOM     22  H   UNL d   1      29.830 -15.715   4.525  0.00  0.00     0.209 HD
ENDBRANCH  20  21
ENDBRANCH  19  20
ENDBRANCH  17  19
ENDBRANCH  11  17
ENDBRANCH   6   7
ENDBRANCH   1   6
BRANCH   2  23
ATOM     23  C   UNL d   1      25.119 -16.500  -1.669  0.00  0.00    -0.009 A 
ATOM     24  C   UNL d   1      25.471 -17.725  -1.096  0.00  0.00     0.016 A 
ATOM     25  C   UNL d   1      24.571 -18.410  -0.276  0.00  0.00     0.038 A 
ATOM     26  C   UNL d   1      23.347 -17.830   0.065  0.00  0.00     0.076 A 
ATOM     27  C   UNL d   1      23.012 -16.582  -0.468  0.00  0.00     0.038 A 
ATOM     28  C   UNL d   1      23.892 -15.920  -1.326  0.00  0.00     0.016 A 
BRANCH  26  29
ATOM     29  O   UNL d   1      22.570 -18.554   0.950  0.00  0.00    -0.308 OA
BRANCH  29  30
ATOM     30  C   UNL d   1      21.391 -19.063   0.491  0.00  0.00     0.111 A 
ATOM     31  C   UNL d   1      20.962 -18.889  -0.808  0.00  0.00     0.156 A 
ATOM     32  N   UNL d   1      19.773 -19.325  -1.269  0.00  0.00    -0.251 NA
ATOM     33  C   UNL d   1      19.027 -20.007  -0.385  0.00  0.00     0.232 A 
ATOM     34  N   UNL d   1      19.366 -20.285   0.886  0.00  0.00    -0.251 NA
ATOM     35  C   UNL d   1      20.560 -19.807   1.297  0.00  0.00     0.156 A 
ENDBRANCH  29  30
ENDBRANCH  26  29
ENDBRANCH   2  23
BRANCH   5  36
ATOM     36  C   UNL d   1      29.194 -15.185  -4.287  0.00  0.00     0.013 A 
ATOM     37  C   UNL d   1      29.816 -16.096  -5.153  0.00  0.00     0.015 A 
ATOM     38  C   UNL d   1      31.164 -15.945  -5.486  0.00  0.00     0.001 A 
ATOM     39  C   UNL d   1      31.881 -14.842  -5.027  0.00  0.00     0.002 A 
ATOM     40  C   UNL d   1      31.277 -13.926  -4.177  0.00  0.00     0.025 A 
ATOM     41  C   UNL d   1      29.959 -14.122  -3.767  0.00  0.00     0.046 A 
ATOM     42 CL   UNL d   1      29.366 -13.006  -2.593  0.00  0.00    -0.083 Cl
ENDBRANCH   5  36
TORSDOF 11
ENDMDL
MODEL 4
REMARK VINA RESULT:   -30.554      2.855      3.475
REMARK INTER + INTRA:         -36.827
REMARK INTER:                 -33.835
REMARK INTRA:                  -2.992
REMARK CONF_INDEPENDENT:        3.281
REMARK UNBOUND:                -2.992
REMARK  11 active torsions:
REMARK  status: ('A' for Active; 'I' for Inactive)
REMARK    1  A    between atoms: N_1  and  C_2 
REMARK    2  A    between atoms: C_4  and  C_5 
REMARK    3  A    between atoms: C_5  and  N_6 
REMARK    4  A    between atoms: C_7  and  C_8 
REMARK    5  A    between atoms: C_11  and  O_12 
REMARK    6  A    between atoms: O_12  and  C_13 
REMARK    7  A    between atoms: C_23  and  C_24 
REMARK    8  A    between atoms: C_33  and  N_34 
REMARK    9  A    between atoms: N_34  and  C_35 
REMARK   10  A    between atoms: C_35  and  C_36 
REMARK   11  A    between atoms: C_36  and  O_37 
ROOT
ATOM      1  N   UNL d   1      27.088 -14.444  -0.220  0.00  0.00    -0.340 N 
ATOM      2  C   UNL d   1      26.042 -14.806  -1.071  0.00  0.00     0.045 A 
ATOM      3  C   UNL d   1      25.974 -13.828  -2.047  0.00  0.00     0.033 A 
ATOM      4  C   UNL d   1      26.907 -12.818  -1.725  0.00  0.00     0.033 A 
ATOM      5  C   UNL d   1      27.610 -13.220  -0.604  0.00  0.00     0.047 A 
ENDROOT
BRANCH   1   6
ATOM      6  C   UNL d   1      27.654 -15.293   0.829  0.00  0.00     0.186 C 
BRANCH   6   7
ATOM      7  C   UNL d   1      27.912 -14.569   2.128  0.00  0.00     0.029 C 
ATOM      8  N   UNL d   1      29.075 -14.792   2.745  0.00  0.00    -0.343 N 
ATOM      9  C   UNL d   1      29.485 -14.183   3.867  0.00  0.00     0.126 C 
ATOM     10  H   UNL d   1      29.721 -15.480   2.366  0.00  0.00     0.167 HD
ATOM     11  C   UNL d   1      28.656 -13.173   4.445  0.00  0.00     0.072 C 
ATOM     12  C   UNL d   1      27.409 -12.965   3.860  0.00  0.00     0.035 C 
ATOM     13  C   UNL d   1      27.019 -13.688   2.747  0.00  0.00     0.029 C 
BRANCH   9  14
ATOM     14  N   UNL d   1      30.707 -14.588   4.321  0.00  0.00    -0.384 N 
ATOM     15  H   UNL d   1      31.379 -14.010   4.807  0.00  0.00     0.157 HD
ATOM     16  H   UNL d   1      31.073 -15.493   4.076  0.00  0.00     0.157 HD
ENDBRANCH   9  14
BRANCH  11  17
ATOM     17  N   UNL d   1      28.926 -12.414   5.578  0.00  0.00    -0.385 N 
ATOM     18  H   UNL d   1      28.153 -12.182   6.201  0.00  0.00     0.159 HD
BRANCH  17  19
ATOM     19  C   UNL d   1      30.191 -11.766   5.825  0.00  0.00     0.146 C 
BRANCH  19  20
ATOM     20  C   UNL d   1      30.905 -11.251   4.589  0.00  0.00     0.183 C 
BRANCH  20  21
ATOM     21  O   UNL d   1      32.129 -11.970   4.453  0.00  0.00    -0.399 OA
ATOM     22  H   UNL d   1      31.965 -12.901   4.689  0.00  0.00     0.209 HD
ENDBRANCH  20  21
ENDBRANCH  19  20
ENDBRANCH  17  19
ENDBRANCH  11  17
ENDBRANCH   6   7
ENDBRANCH   1   6
BRANCH   2  23
ATOM     23  C   UNL d   1      25.377 -16.114  -1.027  0.00  0.00    -0.009 A 
ATOM     24  C   UNL d   1      24.052 -16.256  -1.450  0.00  0.00     0.016 A 
ATOM     25  C   UNL d   1      23.328 -17.410  -1.141  0.00  0.00     0.038 A 
ATOM     26  C   UNL d   1      23.950 -18.481  -0.493  0.00  0.00     0.076 A 
ATOM     27  C   UNL d   1      25.290 -18.361  -0.112  0.00  0.00     0.038 A 
ATOM     28  C   UNL d   1      25.999 -17.188  -0.380  0.00  0.00     0.016 A 
BRANCH  26  29
ATOM     29  O   UNL d   1      23.167 -19.605  -0.313  0.00  0.00    -0.308 OA
BRANCH  29  30
ATOM     30  C   UNL d   1      21.818 -19.429  -0.216  0.00  0.00     0.111 A 
ATOM     31  C   UNL d   1      21.166 -19.327   0.994  0.00  0.00     0.156 A 
ATOM     32  N   UNL d   1      19.828 -19.218   1.120  0.00  0.00    -0.251 NA
ATOM     33  C   UNL d   1      19.145 -19.159  -0.035  0.00  0.00     0.232 A 
ATOM     34  N   UNL d   1      19.676 -19.194  -1.270  0.00  0.00    -0.251 NA
ATOM     35  C   UNL d   1      21.019 -19.321  -1.332  0.00  0.00     0.156 A 
ENDBRANCH  29  30
ENDBRANCH  26  29
ENDBRANCH   2  23
BRANCH   5  36
ATOM     36  C   UNL d   1      28.732 -12.542   0.054  0.00  0.00     0.013 A 
ATOM     37  C   UNL d   1      30.019 -13.080  -0.098  0.00  0.00     0.015 A 
ATOM     38  C   UNL d   1      31.114 -12.473   0.520  0.00  0.00     0.001 A 
ATOM     39  C   UNL d   1      30.952 -11.282   1.225  0.00  0.00     0.002 A 
ATOM     40  C   UNL d   1      29.685 -10.732   1.377  0.00  0.00     0.025 A 
ATOM     41  C   UNL d   1      28.576 -11.384   0.840  0.00  0.00     0.046 A 
ATOM     42 CL   UNL d   1      27.043 -10.691   1.222  0.00  0.00    -0.083 Cl
ENDBRANCH   5  36
TORSDOF 11
ENDMDL
MODEL 5
REMARK VINA RESULT:   -30.500      2.366      2.896
REMARK INTER + INTRA:         -37.091
REMARK INTER:                 -33.782
REMARK INTRA:                  -3.310
REMARK CONF_INDEPENDENT:        3.281
REMARK UNBOUND:                -3.310
REMARK  11 active torsions:
REMARK  status: ('A' for Active; 'I' for Inactive)
REMARK    1  A    between atoms: N_1  and  C_2 
REMARK    2  A    between atoms: C_4  and  C_5 
REMARK    3  A    between atoms: C_5  and  N_6 
REMARK    4  A    between atoms: C_7  and  C_8 
REMARK    5  A    between atoms: C_11  and  O_12 
REMARK    6  A    between atoms: O_12  and  C_13 
REMARK    7  A    between atoms: C_23  and  C_24 
REMARK    8  A    between atoms: C_33  and  N_34 
REMARK    9  A    between atoms: N_34  and  C_35 
REMARK   10  A    between atoms: C_35  and  C_36 
REMARK   11  A    between atoms: C_36  and  O_37 
ROOT
ATOM      1  N   UNL d   1      25.969 -13.899  -3.052  0.00  0.00    -0.340 N 
ATOM      2  C   UNL d   1      25.506 -15.210  -3.175  0.00  0.00     0.045 A 
ATOM      3  C   UNL d   1      25.986 -15.683  -4.384  0.00  0.00     0.033 A 
ATOM      4  C   UNL d   1      26.649 -14.623  -5.040  0.00  0.00     0.033 A 
ATOM      5  C   UNL d   1      26.655 -13.528  -4.196  0.00  0.00     0.047 A 
ENDROOT
BRANCH   1   6
ATOM      6  C   UNL d   1      25.881 -13.084  -1.839  0.00  0.00     0.186 C 
BRANCH   6   7
ATOM      7  C   UNL d   1      26.851 -13.492  -0.757  0.00  0.00     0.029 C 
ATOM      8  N   UNL d   1      28.135 -13.163  -0.917  0.00  0.00    -0.343 N 
ATOM      9  C   UNL d   1      29.110 -13.392  -0.023  0.00  0.00     0.126 C 
ATOM     10  H   UNL d   1      28.435 -12.709  -1.777  0.00  0.00     0.167 HD
ATOM     11  C   UNL d   1      28.770 -13.989   1.229  0.00  0.00     0.072 C 
ATOM     12  C   UNL d   1      27.449 -14.402   1.396  0.00  0.00     0.035 C 
ATOM     13  C   UNL d   1      26.513 -14.204   0.398  0.00  0.00     0.029 C 
BRANCH   9  14
ATOM     14  N   UNL d   1      30.350 -12.979  -0.416  0.00  0.00    -0.384 N 
ATOM     15  H   UNL d   1      30.686 -12.025  -0.410  0.00  0.00     0.157 HD
ATOM     16  H   UNL d   1      30.985 -13.615  -0.871  0.00  0.00     0.157 HD
ENDBRANCH   9  14
BRANCH  11  17
ATOM     17  N   UNL d   1      29.630 -14.271   2.284  0.00  0.00    -0.385 N 
ATOM     18  H   UNL d   1      29.839 -15.247   2.491  0.00  0.00     0.159 HD
BRANCH  17  19
ATOM     19  C   UNL d   1      30.089 -13.282   3.229  0.00  0.00     0.146 C 
BRANCH  19  20
ATOM     20  C   UNL d   1      30.404 -13.812   4.615  0.00  0.00     0.183 C 
BRANCH  20  21
ATOM     21  O   UNL d   1      30.729 -15.196   4.496  0.00  0.00    -0.399 OA
ATOM     22  H   UNL d   1      31.693 -15.277   4.382  0.00  0.00     0.209 HD
ENDBRANCH  20  21
ENDBRANCH  19  20
ENDBRANCH  17  19
ENDBRANCH  11  17
ENDBRANCH   6   7
ENDBRANCH   1   6
BRANCH   2  23
ATOM     23  C   UNL d   1      24.872 -15.953  -2.079  0.00  0.00    -0.009 A 
ATOM     24  C   UNL d   1      25.476 -17.097  -1.549  0.00  0.00     0.016 A 
ATOM     25  C   UNL d   1      24.753 -17.964  -0.725  0.00  0.00     0.038 A 
ATOM     26  C   UNL d   1      23.449 -17.645  -0.337  0.00  0.00     0.076 A 
ATOM     27  C   UNL d   1      22.860 -16.476  -0.827  0.00  0.00     0.038 A 
ATOM     28  C   UNL d   1      23.566 -15.635  -1.689  0.00  0.00     0.016 A 
BRANCH  26  29
ATOM     29  O   UNL d   1      22.858 -18.527   0.547  0.00  0.00    -0.308 OA
BRANCH  29  30
ATOM     30  C   UNL d   1      21.575 -18.915   0.293  0.00  0.00     0.111 A 
ATOM     31  C   UNL d   1      20.711 -19.322   1.287  0.00  0.00     0.156 A 
ATOM     32  N   UNL d   1      19.462 -19.772   1.058  0.00  0.00    -0.251 NA
ATOM     33  C   UNL d   1      19.069 -19.751  -0.227  0.00  0.00     0.232 A 
ATOM     34  N   UNL d   1      19.803 -19.325  -1.270  0.00  0.00    -0.251 NA
ATOM     35  C   UNL d   1      21.053 -18.903  -0.980  0.00  0.00     0.156 A 
ENDBRANCH  29  30
ENDBRANCH  26  29
ENDBRANCH   2  23
BRANCH   5  36
ATOM     36  C   UNL d   1      27.294 -12.224  -4.406  0.00  0.00     0.013 A 
ATOM     37  C   UNL d   1      26.488 -11.140  -4.786  0.00  0.00     0.015 A 
ATOM     38  C   UNL d   1      27.056  -9.884  -5.008  0.00  0.00     0.001 A 
ATOM     39  C   UNL d   1      28.414  -9.675  -4.773  0.00  0.00     0.002 A 
ATOM     40  C   UNL d   1      29.222 -10.736  -4.387  0.00  0.00     0.025 A 
ATOM     41  C   UNL d   1      28.678 -12.012  -4.255  0.00  0.00     0.046 A 
ATOM     42 CL   UNL d   1      29.804 -13.276  -3.921  0.00  0.00    -0.083 Cl
ENDBRANCH   5  36
TORSDOF 11
ENDMDL
MODEL 6
REMARK VINA RESULT:   -30.254      3.544      6.040
REMARK INTER + INTRA:         -36.977
REMARK INTER:                 -33.535
REMARK INTRA:                  -3.442
REMARK CONF_INDEPENDENT:        3.281
REMARK UNBOUND:                -3.442
REMARK  11 active torsions:
REMARK  status: ('A' for Active; 'I' for Inactive)
REMARK    1  A    between atoms: N_1  and  C_2 
REMARK    2  A    between atoms: C_4  and  C_5 
REMARK    3  A    between atoms: C_5  and  N_6 
REMARK    4  A    between atoms: C_7  and  C_8 
REMARK    5  A    between atoms: C_11  and  O_12 
REMARK    6  A    between atoms: O_12  and  C_13 
REMARK    7  A    between atoms: C_23  and  C_24 
REMARK    8  A    between atoms: C_33  and  N_34 
REMARK    9  A    between atoms: N_34  and  C_35 
REMARK   10  A    between atoms: C_35  and  C_36 
REMARK   11  A    between atoms: C_36  and  O_37 
ROOT
ATOM      1  N   UNL d   1      26.220 -14.106  -1.887  0.00  0.00    -0.340 N 
ATOM      2  C   UNL d   1      26.119 -14.945  -0.776  0.00  0.00     0.045 A 
ATOM      3  C   UNL d   1      26.604 -14.228   0.303  0.00  0.00     0.033 A 
ATOM      4  C   UNL d   1      27.098 -12.994  -0.174  0.00  0.00     0.033 A 
ATOM      5  C   UNL d   1      26.834 -12.917  -1.530  0.00  0.00     0.047 A 
ENDROOT
BRANCH   1   6
ATOM      6  C   UNL d   1      25.632 -14.372  -3.201  0.00  0.00     0.186 C 
BRANCH   6   7
ATOM      7  C   UNL d   1      26.629 -14.338  -4.334  0.00  0.00     0.029 C 
ATOM      8  N   UNL d   1      26.674 -13.239  -5.091  0.00  0.00    -0.343 N 
ATOM      9  C   UNL d   1      27.541 -13.023  -6.091  0.00  0.00     0.126 C 
ATOM     10  H   UNL d   1      26.005 -12.490  -4.930  0.00  0.00     0.167 HD
ATOM     11  C   UNL d   1      28.542 -14.007  -6.359  0.00  0.00     0.072 C 
ATOM     12  C   UNL d   1      28.478 -15.192  -5.629  0.00  0.00     0.035 C 
ATOM     13  C   UNL d   1      27.505 -15.378  -4.664  0.00  0.00     0.029 C 
BRANCH   9  14
ATOM     14  N   UNL d   1      27.383 -11.829  -6.734  0.00  0.00    -0.384 N 
ATOM     15  H   UNL d   1      27.359 -10.919  -6.294  0.00  0.00     0.157 HD
ATOM     16  H   UNL d   1      27.147 -11.798  -7.712  0.00  0.00     0.157 HD
ENDBRANCH   9  14
BRANCH  11  17
ATOM     17  N   UNL d   1      29.540 -13.945  -7.325  0.00  0.00    -0.385 N 
ATOM     18  H   UNL d   1      30.041 -14.801  -7.559  0.00  0.00     0.159 HD
BRANCH  17  19
ATOM     19  C   UNL d   1      30.048 -12.711  -7.873  0.00  0.00     0.146 C 
BRANCH  19  20
ATOM     20  C   UNL d   1      29.156 -12.049  -8.908  0.00  0.00     0.183 C 
BRANCH  20  21
ATOM     21  O   UNL d   1      28.120 -12.967  -9.251  0.00  0.00    -0.399 OA
ATOM     22  H   UNL d   1      28.495 -13.648  -9.838  0.00  0.00     0.209 HD
ENDBRANCH  20  21
ENDBRANCH  19  20
ENDBRANCH  17  19
ENDBRANCH  11  17
ENDBRANCH   6   7
ENDBRANCH   1   6
BRANCH   2  23
ATOM     23  C   UNL d   1      25.385 -16.217  -0.784  0.00  0.00    -0.009 A 
ATOM     24  C   UNL d   1      24.003 -16.242  -0.990  0.00  0.00     0.016 A 
ATOM     25  C   UNL d   1      23.264 -17.394  -0.710  0.00  0.00     0.038 A 
ATOM     26  C   UNL d   1      23.912 -18.569  -0.319  0.00  0.00     0.076 A 
ATOM     27  C   UNL d   1      25.301 -18.561  -0.160  0.00  0.00     0.038 A 
ATOM     28  C   UNL d   1      26.032 -17.395  -0.393  0.00  0.00     0.016 A 
BRANCH  26  29
ATOM     29  O   UNL d   1      23.096 -19.672  -0.151  0.00  0.00    -0.308 OA
BRANCH  29  30
ATOM     30  C   UNL d   1      21.749 -19.466  -0.118  0.00  0.00     0.111 A 
ATOM     31  C   UNL d   1      21.047 -19.322   1.060  0.00  0.00     0.156 A 
ATOM     32  N   UNL d   1      19.708 -19.183   1.124  0.00  0.00    -0.251 NA
ATOM     33  C   UNL d   1      19.077 -19.134  -0.061  0.00  0.00     0.232 A 
ATOM     34  N   UNL d   1      19.661 -19.207  -1.270  0.00  0.00    -0.251 NA
ATOM     35  C   UNL d   1      21.002 -19.365  -1.270  0.00  0.00     0.156 A 
ENDBRANCH  29  30
ENDBRANCH  26  29
ENDBRANCH   2  23
BRANCH   5  36
ATOM     36  C   UNL d   1      27.088 -11.796  -2.441  0.00  0.00     0.013 A 
ATOM     37  C   UNL d   1      25.997 -11.028  -2.875  0.00  0.00     0.015 A 
ATOM     38  C   UNL d   1      26.192  -9.959  -3.751  0.00  0.00     0.001 A 
ATOM     39  C   UNL d   1      27.480  -9.593  -4.137  0.00  0.00     0.002 A 
ATOM     40  C   UNL d   1      28.571 -10.337  -3.708  0.00  0.00     0.025 A 
ATOM     41  C   UNL d   1      28.373 -11.462  -2.908  0.00  0.00     0.046 A 
ATOM     42 CL   UNL d   1      29.785 -12.393  -2.565  0.00  0.00    -0.083 Cl
ENDBRANCH   5  36
TORSDOF 11
ENDMDL
MODEL 7
REMARK VINA RESULT:   -30.023      3.344      5.821
REMARK INTER + INTRA:         -36.989
REMARK INTER:                 -33.304
REMARK INTRA:                  -3.685
REMARK CONF_INDEPENDENT:        3.281
REMARK UNBOUND:                -3.685
REMARK  11 active torsions:
REMARK  status: ('A' for Active; 'I' for Inactive)
REMARK    1  A    between atoms: N_1  and  C_2 
REMARK    2  A    between atoms: C_4  and  C_5 
REMARK    3  A    between atoms: C_5  and  N_6 
REMARK    4  A    between atoms: C_7  and  C_8 
REMARK    5  A    between atoms: C_11  and  O_12 
REMARK    6  A    between atoms: O_12  and  C_13 
REMARK    7  A    between atoms: C_23  and  C_24 
REMARK    8  A    between atoms: C_33  and  N_34 
REMARK    9  A    between atoms: N_34  and  C_35 
REMARK   10  A    between atoms: C_35  and  C_36 
REMARK   11  A    between atoms: C_36  and  O_37 
ROOT
ATOM      1  N   UNL d   1      26.895 -14.509  -2.379  0.00  0.00    -0.340 N 
ATOM      2  C   UNL d   1      26.288 -14.737  -1.142  0.00  0.00     0.045 A 
ATOM      3  C   UNL d   1      26.468 -13.583  -0.399  0.00  0.00     0.033 A 
ATOM      4  C   UNL d   1      27.275 -12.698  -1.147  0.00  0.00     0.033 A 
ATOM      5  C   UNL d   1      27.515 -13.271  -2.383  0.00  0.00     0.047 A 
ENDROOT
BRANCH   1   6
ATOM      6  C   UNL d   1      26.770 -15.376  -3.552  0.00  0.00     0.186 C 
BRANCH   6   7
ATOM      7  C   UNL d   1      28.061 -15.566  -4.310  0.00  0.00     0.029 C 
ATOM      8  N   UNL d   1      28.103 -15.156  -5.580  0.00  0.00    -0.343 N 
ATOM      9  C   UNL d   1      29.187 -15.193  -6.370  0.00  0.00     0.126 C 
ATOM     10  H   UNL d   1      27.261 -14.790  -6.018  0.00  0.00     0.167 HD
ATOM     11  C   UNL d   1      30.423 -15.654  -5.822  0.00  0.00     0.072 C 
ATOM     12  C   UNL d   1      30.393 -16.150  -4.520  0.00  0.00     0.035 C 
ATOM     13  C   UNL d   1      29.219 -16.153  -3.790  0.00  0.00     0.029 C 
BRANCH   9  14
ATOM     14  N   UNL d   1      28.983 -14.733  -7.639  0.00  0.00    -0.384 N 
ATOM     15  H   UNL d   1      28.123 -14.812  -8.165  0.00  0.00     0.157 HD
ATOM     16  H   UNL d   1      29.750 -14.385  -8.190  0.00  0.00     0.157 HD
ENDBRANCH   9  14
BRANCH  11  17
ATOM     17  N   UNL d   1      31.650 -15.732  -6.471  0.00  0.00    -0.385 N 
ATOM     18  H   UNL d   1      32.400 -16.260  -6.026  0.00  0.00     0.159 HD
BRANCH  17  19
ATOM     19  C   UNL d   1      31.991 -14.951  -7.635  0.00  0.00     0.146 C 
BRANCH  19  20
ATOM     20  C   UNL d   1      31.848 -13.449  -7.468  0.00  0.00     0.183 C 
BRANCH  20  21
ATOM     21  O   UNL d   1      30.913 -12.984  -8.439  0.00  0.00    -0.399 OA
ATOM     22  H   UNL d   1      30.954 -13.575  -9.213  0.00  0.00     0.209 HD
ENDBRANCH  20  21
ENDBRANCH  19  20
ENDBRANCH  17  19
ENDBRANCH  11  17
ENDBRANCH   6   7
ENDBRANCH   1   6
BRANCH   2  23
ATOM     23  C   UNL d   1      25.423 -15.890  -0.864  0.00  0.00    -0.009 A 
ATOM     24  C   UNL d   1      25.971 -17.119  -0.488  0.00  0.00     0.016 A 
ATOM     25  C   UNL d   1      25.193 -18.280  -0.509  0.00  0.00     0.038 A 
ATOM     26  C   UNL d   1      23.830 -18.209  -0.807  0.00  0.00     0.076 A 
ATOM     27  C   UNL d   1      23.267 -16.972  -1.135  0.00  0.00     0.038 A 
ATOM     28  C   UNL d   1      24.057 -15.820  -1.160  0.00  0.00     0.016 A 
BRANCH  26  29
ATOM     29  O   UNL d   1      23.137 -19.401  -0.715  0.00  0.00    -0.308 OA
BRANCH  29  30
ATOM     30  C   UNL d   1      21.798 -19.339  -0.466  0.00  0.00     0.111 A 
ATOM     31  C   UNL d   1      21.281 -19.262   0.810  0.00  0.00     0.156 A 
ATOM     32  N   UNL d   1      19.963 -19.266   1.087  0.00  0.00    -0.251 NA
ATOM     33  C   UNL d   1      19.149 -19.294   0.018  0.00  0.00     0.232 A 
ATOM     34  N   UNL d   1      19.538 -19.313  -1.269  0.00  0.00    -0.251 NA
ATOM     35  C   UNL d   1      20.871 -19.327  -1.484  0.00  0.00     0.156 A 
ENDBRANCH  29  30
ENDBRANCH  26  29
ENDBRANCH   2  23
BRANCH   5  36
ATOM     36  C   UNL d   1      28.235 -12.696  -3.524  0.00  0.00     0.013 A 
ATOM     37  C   UNL d   1      29.636 -12.640  -3.469  0.00  0.00     0.015 A 
ATOM     38  C   UNL d   1      30.361 -12.091  -4.529  0.00  0.00     0.001 A 
ATOM     39  C   UNL d   1      29.707 -11.670  -5.684  0.00  0.00     0.002 A 
ATOM     40  C   UNL d   1      28.321 -11.728  -5.758  0.00  0.00     0.025 A 
ATOM     41  C   UNL d   1      27.586 -12.189  -4.666  0.00  0.00     0.046 A 
ATOM     42 CL   UNL d   1      25.871 -12.071  -4.815  0.00  0.00    -0.083 Cl
ENDBRANCH   5  36
TORSDOF 11
ENDMDL
MODEL 8
REMARK VINA RESULT:   -29.692      2.875      4.713
REMARK INTER + INTRA:         -36.401
REMARK INTER:                 -32.974
REMARK INTRA:                  -3.427
REMARK CONF_INDEPENDENT:        3.281
REMARK UNBOUND:                -3.427
REMARK  11 active torsions:
REMARK  status: ('A' for Active; 'I' for Inactive)
REMARK    1  A    between atoms: N_1  and  C_2 
REMARK    2  A    between atoms: C_4  and  C_5 
REMARK    3  A    between atoms: C_5  and  N_6 
REMARK    4  A    between atoms: C_7  and  C_8 
REMARK    5  A    between atoms: C_11  and  O_12 
REMARK    6  A    between atoms: O_12  and  C_13 
REMARK    7  A    between atoms: C_23  and  C_24 
REMARK    8  A    between atoms: C_33  and  N_34 
REMARK    9  A    between atoms: N_34  and  C_35 
REMARK   10  A    between atoms: C_35  and  C_36 
REMARK   11  A    between atoms: C_36  and  O_37 
ROOT
ATOM      1  N   UNL d   1      28.421 -15.494  -0.298  0.00  0.00    -0.340 N 
ATOM      2  C   UNL d   1      27.319 -15.751   0.519  0.00  0.00     0.045 A 
ATOM      3  C   UNL d   1      27.520 -15.034   1.685  0.00  0.00     0.033 A 
ATOM      4  C   UNL d   1      28.794 -14.429   1.617  0.00  0.00     0.033 A 
ATOM      5  C   UNL d   1      29.335 -14.700   0.373  0.00  0.00     0.047 A 
ENDROOT
BRANCH   1   6
ATOM      6  C   UNL d   1      28.534 -15.876  -1.707  0.00  0.00     0.186 C 
BRANCH   6   7
ATOM      7  C   UNL d   1      27.637 -15.083  -2.627  0.00  0.00     0.029 C 
ATOM      8  N   UNL d   1      27.300 -13.846  -2.255  0.00  0.00    -0.343 N 
ATOM      9  C   UNL d   1      26.568 -12.991  -2.984  0.00  0.00     0.126 C 
ATOM     10  H   UNL d   1      27.597 -13.496  -1.347  0.00  0.00     0.167 HD
ATOM     11  C   UNL d   1      26.143 -13.387  -4.289  0.00  0.00     0.072 C 
ATOM     12  C   UNL d   1      26.424 -14.696  -4.677  0.00  0.00     0.035 C 
ATOM     13  C   UNL d   1      27.117 -15.550  -3.839  0.00  0.00     0.029 C 
BRANCH   9  14
ATOM     14  N   UNL d   1      26.339 -11.785  -2.386  0.00  0.00    -0.384 N 
ATOM     15  H   UNL d   1      26.943 -11.334  -1.713  0.00  0.00     0.157 HD
ATOM     16  H   UNL d   1      25.454 -11.317  -2.494  0.00  0.00     0.157 HD
ENDBRANCH   9  14
BRANCH  11  17
ATOM     17  N   UNL d   1      25.412 -12.631  -5.197  0.00  0.00    -0.385 N 
ATOM     18  H   UNL d   1      24.560 -13.032  -5.587  0.00  0.00     0.159 HD
BRANCH  17  19
ATOM     19  C   UNL d   1      25.884 -11.396  -5.775  0.00  0.00     0.146 C 
BRANCH  19  20
ATOM     20  C   UNL d   1      26.315 -10.339  -4.776  0.00  0.00     0.183 C 
BRANCH  20  21
ATOM     21  O   UNL d   1      25.150  -9.865  -4.104  0.00  0.00    -0.399 OA
ATOM     22  H   UNL d   1      24.561 -10.623  -3.939  0.00  0.00     0.209 HD
ENDBRANCH  20  21
ENDBRANCH  19  20
ENDBRANCH  17  19
ENDBRANCH  11  17
ENDBRANCH   6   7
ENDBRANCH   1   6
BRANCH   2  23
ATOM     23  C   UNL d   1      26.107 -16.437   0.054  0.00  0.00    -0.009 A 
ATOM     24  C   UNL d   1      25.954 -17.815   0.232  0.00  0.00     0.016 A 
ATOM     25  C   UNL d   1      24.960 -18.514  -0.457  0.00  0.00     0.038 A 
ATOM     26  C   UNL d   1      24.039 -17.829  -1.254  0.00  0.00     0.076 A 
ATOM     27  C   UNL d   1      24.160 -16.443  -1.395  0.00  0.00     0.038 A 
ATOM     28  C   UNL d   1      25.183 -15.752  -0.744  0.00  0.00     0.016 A 
BRANCH  26  29
ATOM     29  O   UNL d   1      23.046 -18.605  -1.820  0.00  0.00    -0.308 OA
BRANCH  29  30
ATOM     30  C   UNL d   1      21.943 -18.873  -1.065  0.00  0.00     0.111 A 
ATOM     31  C   UNL d   1      20.705 -19.121  -1.619  0.00  0.00     0.156 A 
ATOM     32  N   UNL d   1      19.586 -19.325  -0.896  0.00  0.00    -0.251 NA
ATOM     33  C   UNL d   1      19.755 -19.329   0.437  0.00  0.00     0.232 A 
ATOM     34  N   UNL d   1      20.920 -19.154   1.086  0.00  0.00    -0.251 NA
ATOM     35  C   UNL d   1      22.003 -18.936   0.309  0.00  0.00     0.156 A 
ENDBRANCH  29  30
ENDBRANCH  26  29
ENDBRANCH   2  23
BRANCH   5  36
ATOM     36  C   UNL d   1      30.603 -14.220  -0.188  0.00  0.00     0.013 A 
ATOM     37  C   UNL d   1      31.725 -15.057  -0.113  0.00  0.00     0.015 A 
ATOM     38  C   UNL d   1      32.954 -14.636  -0.625  0.00  0.00     0.001 A 
ATOM     39  C   UNL d   1      33.057 -13.415  -1.289  0.00  0.00     0.002 A 
ATOM     40  C   UNL d   1      31.952 -12.579  -1.380  0.00  0.00     0.025 A 
ATOM     41  C   UNL d   1      30.747 -12.954  -0.789  0.00  0.00     0.046 A 
ATOM     42 CL   UNL d   1      29.491 -11.772  -0.834  0.00  0.00    -0.083 Cl
ENDBRANCH   5  36
TORSDOF 11
ENDMDL
MODEL 9
REMARK VINA RESULT:   -29.180      3.205      5.536
REMARK INTER + INTRA:         -36.403
REMARK INTER:                 -32.462
REMARK INTRA:                  -3.941
REMARK CONF_INDEPENDENT:        3.281
REMARK UNBOUND:                -3.941
REMARK  11 active torsions:
REMARK  status: ('A' for Active; 'I' for Inactive)
REMARK    1  A    between atoms: N_1  and  C_2 
REMARK    2  A    between atoms: C_4  and  C_5 
REMARK    3  A    between atoms: C_5  and  N_6 
REMARK    4  A    between atoms: C_7  and  C_8 
REMARK    5  A    between atoms: C_11  and  O_12 
REMARK    6  A    between atoms: O_12  and  C_13 
REMARK    7  A    between atoms: C_23  and  C_24 
REMARK    8  A    between atoms: C_33  and  N_34 
REMARK    9  A    between atoms: N_34  and  C_35 
REMARK   10  A    between atoms: C_35  and  C_36 
REMARK   11  A    between atoms: C_36  and  O_37 
ROOT
ATOM      1  N   UNL d   1      27.954 -15.063  -0.904  0.00  0.00    -0.340 N 
ATOM      2  C   UNL d   1      26.766 -15.079  -0.170  0.00  0.00     0.045 A 
ATOM      3  C   UNL d   1      26.693 -13.862   0.483  0.00  0.00     0.033 A 
ATOM      4  C   UNL d   1      27.887 -13.153   0.230  0.00  0.00     0.033 A 
ATOM      5  C   UNL d   1      28.653 -13.895  -0.651  0.00  0.00     0.047 A 
ENDROOT
BRANCH   1   6
ATOM      6  C   UNL d   1      28.338 -16.056  -1.909  0.00  0.00     0.186 C 
BRANCH   6   7
ATOM      7  C   UNL d   1      28.426 -15.504  -3.311  0.00  0.00     0.029 C 
ATOM      8  N   UNL d   1      29.630 -15.451  -3.885  0.00  0.00    -0.343 N 
ATOM      9  C   UNL d   1      29.870 -15.051  -5.143  0.00  0.00     0.126 C 
ATOM     10  H   UNL d   1      30.453 -15.720  -3.352  0.00  0.00     0.167 HD
ATOM     11  C   UNL d   1      28.766 -14.694  -5.975  0.00  0.00     0.072 C 
ATOM     12  C   UNL d   1      27.505 -14.677  -5.382  0.00  0.00     0.035 C 
ATOM     13  C   UNL d   1      27.341 -15.028  -4.055  0.00  0.00     0.029 C 
BRANCH   9  14
ATOM     14  N   UNL d   1      31.187 -15.067  -5.503  0.00  0.00    -0.384 N 
ATOM     15  H   UNL d   1      31.651 -14.378  -6.079  0.00  0.00     0.157 HD
ATOM     16  H   UNL d   1      31.764 -15.869  -5.309  0.00  0.00     0.157 HD
ENDBRANCH   9  14
BRANCH  11  17
ATOM     17  N   UNL d   1      28.815 -14.290  -7.304  0.00  0.00    -0.385 N 
ATOM     18  H   UNL d   1      28.667 -14.991  -8.029  0.00  0.00     0.159 HD
BRANCH  17  19
ATOM     19  C   UNL d   1      29.257 -12.984  -7.728  0.00  0.00     0.146 C 
BRANCH  19  20
ATOM     20  C   UNL d   1      30.758 -12.831  -7.889  0.00  0.00     0.183 C 
BRANCH  20  21
ATOM     21  O   UNL d   1      31.328 -14.136  -7.979  0.00  0.00    -0.399 OA
ATOM     22  H   UNL d   1      31.115 -14.504  -8.856  0.00  0.00     0.209 HD
ENDBRANCH  20  21
ENDBRANCH  19  20
ENDBRANCH  17  19
ENDBRANCH  11  17
ENDBRANCH   6   7
ENDBRANCH   1   6
BRANCH   2  23
ATOM     23  C   UNL d   1      25.730 -16.107  -0.328  0.00  0.00    -0.009 A 
ATOM     24  C   UNL d   1      25.910 -17.389   0.200  0.00  0.00     0.016 A 
ATOM     25  C   UNL d   1      25.079 -18.441  -0.192  0.00  0.00     0.038 A 
ATOM     26  C   UNL d   1      23.992 -18.204  -1.037  0.00  0.00     0.076 A 
ATOM     27  C   UNL d   1      23.780 -16.912  -1.528  0.00  0.00     0.038 A 
ATOM     28  C   UNL d   1      24.640 -15.871  -1.173  0.00  0.00     0.016 A 
BRANCH  26  29
ATOM     29  O   UNL d   1      23.185 -19.296  -1.292  0.00  0.00    -0.308 OA
BRANCH  29  30
ATOM     30  C   UNL d   1      21.908 -19.267  -0.815  0.00  0.00     0.111 A 
ATOM     31  C   UNL d   1      20.804 -19.325  -1.639  0.00  0.00     0.156 A 
ATOM     32  N   UNL d   1      19.534 -19.233  -1.200  0.00  0.00    -0.251 NA
ATOM     33  C   UNL d   1      19.391 -19.132   0.132  0.00  0.00     0.232 A 
ATOM     34  N   UNL d   1      20.387 -19.121   1.034  0.00  0.00    -0.251 NA
ATOM     35  C   UNL d   1      21.639 -19.198   0.534  0.00  0.00     0.156 A 
ENDBRANCH  29  30
ENDBRANCH  26  29
ENDBRANCH   2  23
BRANCH   5  36
ATOM     36  C   UNL d   1      29.935 -13.533  -1.264  0.00  0.00     0.013 A 
ATOM     37  C   UNL d   1      31.097 -14.172  -0.807  0.00  0.00     0.015 A 
ATOM     38  C   UNL d   1      32.341 -13.851  -1.355  0.00  0.00     0.001 A 
ATOM     39  C   UNL d   1      32.429 -12.955  -2.418  0.00  0.00     0.002 A 
ATOM     40  C   UNL d   1      31.287 -12.322  -2.889  0.00  0.00     0.025 A 
ATOM     41  C   UNL d   1      30.056 -12.569  -2.284  0.00  0.00     0.046 A 
ATOM     42 CL   UNL d   1      28.736 -11.613  -2.851  0.00  0.00    -0.083 Cl
ENDBRANCH   5  36
TORSDOF 11
ENDMDL
