MODEL 1
REMARK VINA RESULT:   -33.891      0.000      0.000
REMARK INTER + INTRA:         -38.388
REMARK INTER:                 -36.874
REMARK INTRA:                  -1.515
REMARK CONF_INDEPENDENT:        2.983
REMARK UNBOUND:                -1.515
REMARK  10 active torsions:
REMARK  status: ('A' for Active; 'I' for Inactive)
REMARK    1  A    between atoms: N_1  and  C_2 
REMARK    2  A    between atoms: C_6  and  C_7 
REMARK       I    between atoms: C_7  and  N_9 
REMARK    3  A    between atoms: N_9  and  C_10 
REMARK    4  A    between atoms: C_10  and  C_11 
REMARK    5  A    between atoms: C_11  and  N_12 
REMARK    6  A    between atoms: N_12  and  C_13 
REMARK    7  A    between atoms: C_13  and  C_14 
REMARK    8  A    between atoms: C_20  and  O_21 
REMARK    9  A    between atoms: O_21  and  C_22 
REMARK   10  A    between atoms: C_22  and  C_23 
ROOT
ATOM      1  C   UNL d   1      28.568 -16.674  -0.370  0.00  0.00     0.273 C 
ENDROOT
BRANCH   1   2
ATOM      2  N   UNL d   1      27.801 -17.437   0.562  0.00  0.00    -0.070 N 
ATOM      3  H   UNL d   1      28.388 -18.270   0.733  0.00  0.00     0.277 HD
ATOM      4  H   UNL d   1      27.931 -16.707   1.248  0.00  0.00     0.277 HD
BRANCH   2   5
ATOM      5  C   UNL d   1      26.353 -17.715   0.520  0.00  0.00     0.252 C 
BRANCH   5   6
ATOM      6  C   UNL d   1      25.736 -17.626  -0.916  0.00  0.00     0.150 C 
BRANCH   6   7
ATOM      7  N   UNL d   1      24.405 -18.218  -1.111  0.00  0.00    -0.354 N 
ATOM      8  C   UNL d   1      23.424 -18.589  -0.177  0.00  0.00     0.276 C 
ATOM      9  O   UNL d   1      23.655 -18.577   1.052  0.00  0.00    -0.266 OA
ATOM     10  H   UNL d   1      24.002 -17.979  -1.987  0.00  0.00     0.162 HD
BRANCH   8  11
ATOM     11  C   UNL d   1      22.110 -19.024  -0.680  0.00  0.00     0.201 A 
ATOM     12  N   UNL d   1      21.905 -19.326  -1.974  0.00  0.00    -0.096 NA
ATOM     13  O   UNL d   1      20.530 -19.463  -2.117  0.00  0.00    -0.104 OA
ATOM     14  N   UNL d   1      19.891 -19.324  -0.895  0.00  0.00    -0.085 NA
ATOM     15  C   UNL d   1      20.862 -19.102  -0.011  0.00  0.00     0.188 A 
BRANCH  15  16
ATOM     16  N   UNL d   1      20.631 -18.922   1.300  0.00  0.00    -0.380 N 
ATOM     17  H   UNL d   1      21.421 -18.922   1.934  0.00  0.00     0.158 HD
ATOM     18  H   UNL d   1      19.787 -18.626   1.744  0.00  0.00     0.158 HD
ENDBRANCH  15  16
ENDBRANCH   8  11
ENDBRANCH   6   7
ENDBRANCH   5   6
ENDBRANCH   2   5
ENDBRANCH   1   2
BRANCH   1  19
ATOM     19  C   UNL d   1      27.756 -15.442  -0.731  0.00  0.00     0.002 A 
ATOM     20  C   UNL d   1      27.441 -15.475  -2.114  0.00  0.00     0.030 A 
ATOM     21  C   UNL d   1      26.776 -14.434  -2.733  0.00  0.00     0.011 A 
ATOM     22 BR   UNL d   1      26.389 -14.569  -4.575  0.00  0.00    -0.051 Br
ATOM     23  C   UNL d   1      26.422 -13.320  -1.992  0.00  0.00     0.022 A 
ATOM     24  C   UNL d   1      26.701 -13.269  -0.611  0.00  0.00     0.039 A 
ATOM     25  C   UNL d   1      27.324 -14.335   0.081  0.00  0.00     0.077 A 
BRANCH  25  26
ATOM     26  O   UNL d   1      27.373 -14.057   1.452  0.00  0.00    -0.346 OA
BRANCH  26  27
ATOM     27  C   UNL d   1      28.440 -14.358   2.380  0.00  0.00     0.216 C 
BRANCH  27  28
ATOM     28  C   UNL d   1      28.679 -13.841   3.769  0.00  0.00    -0.012 C 
ATOM     29  C   UNL d   1      29.181 -14.803   4.602  0.00  0.00     0.013 C 
ATOM     30  C   UNL d   1      29.206 -14.541   5.949  0.00  0.00     0.024 C 
ATOM     31  C   UNL d   1      28.525 -13.445   6.485  0.00  0.00     0.035 C 
ATOM     32 CL   UNL d   1      28.576 -13.140   8.166  0.00  0.00    -0.084 Cl
ATOM     33  C   UNL d   1      27.969 -12.486   5.673  0.00  0.00     0.048 C 
ATOM     34  C   UNL d   1      28.212 -12.592   4.319  0.00  0.00     0.044 C 
ATOM     35 CL   UNL d   1      28.058 -11.064   3.441  0.00  0.00    -0.084 Cl
ENDBRANCH  27  28
ENDBRANCH  26  27
ENDBRANCH  25  26
ENDBRANCH   1  19
TORSDOF 10
ENDMDL
MODEL 2
REMARK VINA RESULT:   -33.356      4.923      7.503
REMARK INTER + INTRA:         -37.796
REMARK INTER:                 -36.339
REMARK INTRA:                  -1.457
REMARK CONF_INDEPENDENT:        2.983
REMARK UNBOUND:                -1.457
REMARK  10 active torsions:
REMARK  status: ('A' for Active; 'I' for Inactive)
REMARK    1  A    between atoms: N_1  and  C_2 
REMARK    2  A    between atoms: C_6  and  C_7 
REMARK       I    between atoms: C_7  and  N_9 
REMARK    3  A    between atoms: N_9  and  C_10 
REMARK    4  A    between atoms: C_10  and  C_11 
REMARK    5  A    between atoms: C_11  and  N_12 
REMARK    6  A    between atoms: N_12  and  C_13 
REMARK    7  A    between atoms: C_13  and  C_14 
REMARK    8  A    between atoms: C_20  and  O_21 
REMARK    9  A    between atoms: O_21  and  C_22 
REMARK   10  A    between atoms: C_22  and  C_23 
ROOT
ATOM      1  C   UNL d   1      28.509 -16.402  -0.383  0.00  0.00     0.273 C 
ENDROOT
BRANCH   1   2
ATOM      2  N   UNL d   1      28.065 -17.749  -0.219  0.00  0.00    -0.070 N 
ATOM      3  H   UNL d   1      28.536 -18.253  -0.988  0.00  0.00     0.277 HD
ATOM      4  H   UNL d   1      28.565 -17.795   0.656  0.00  0.00     0.277 HD
BRANCH   2   5
ATOM      5  C   UNL d   1      26.694 -18.216   0.060  0.00  0.00     0.252 C 
BRANCH   5   6
ATOM      6  C   UNL d   1      25.582 -17.338  -0.606  0.00  0.00     0.150 C 
BRANCH   6   7
ATOM      7  N   UNL d   1      24.293 -17.987  -0.883  0.00  0.00    -0.354 N 
ATOM      8  C   UNL d   1      23.319 -18.494  -0.008  0.00  0.00     0.276 C 
ATOM      9  O   UNL d   1      23.525 -18.577   1.223  0.00  0.00    -0.266 OA
ATOM     10  H   UNL d   1      23.893 -17.697  -1.745  0.00  0.00     0.162 HD
BRANCH   8  11
ATOM     11  C   UNL d   1      22.043 -18.960  -0.577  0.00  0.00     0.201 A 
ATOM     12  N   UNL d   1      21.904 -19.239  -1.885  0.00  0.00    -0.096 NA
ATOM     13  O   UNL d   1      20.541 -19.416  -2.091  0.00  0.00    -0.104 OA
ATOM     14  N   UNL d   1      19.846 -19.325  -0.896  0.00  0.00    -0.085 NA
ATOM     15  C   UNL d   1      20.769 -19.092   0.034  0.00  0.00     0.188 A 
BRANCH  15  16
ATOM     16  N   UNL d   1      20.476 -18.949   1.338  0.00  0.00    -0.380 N 
ATOM     17  H   UNL d   1      21.190 -19.173   2.021  0.00  0.00     0.158 HD
ATOM     18  H   UNL d   1      19.687 -18.495   1.747  0.00  0.00     0.158 HD
ENDBRANCH  15  16
ENDBRANCH   8  11
ENDBRANCH   6   7
ENDBRANCH   5   6
ENDBRANCH   2   5
ENDBRANCH   1   2
BRANCH   1  19
ATOM     19  C   UNL d   1      28.426 -16.069  -1.863  0.00  0.00     0.002 A 
ATOM     20  C   UNL d   1      27.219 -15.369  -2.121  0.00  0.00     0.030 A 
ATOM     21  C   UNL d   1      26.846 -15.013  -3.403  0.00  0.00     0.011 A 
ATOM     22 BR   UNL d   1      25.229 -14.073  -3.650  0.00  0.00    -0.051 Br
ATOM     23  C   UNL d   1      27.658 -15.362  -4.468  0.00  0.00     0.022 A 
ATOM     24  C   UNL d   1      28.875 -16.037  -4.239  0.00  0.00     0.039 A 
ATOM     25  C   UNL d   1      29.331 -16.369  -2.941  0.00  0.00     0.077 A 
BRANCH  25  26
ATOM     26  O   UNL d   1      30.612 -16.930  -3.009  0.00  0.00    -0.346 OA
BRANCH  26  27
ATOM     27  C   UNL d   1      31.060 -18.015  -3.852  0.00  0.00     0.216 C 
BRANCH  27  28
ATOM     28  C   UNL d   1      30.807 -18.266  -5.311  0.00  0.00    -0.012 C 
ATOM     29  C   UNL d   1      30.447 -19.561  -5.560  0.00  0.00     0.013 C 
ATOM     30  C   UNL d   1      30.435 -19.987  -6.865  0.00  0.00     0.024 C 
ATOM     31  C   UNL d   1      31.000 -19.216  -7.883  0.00  0.00     0.035 C 
ATOM     32 CL   UNL d   1      30.967 -19.768  -9.500  0.00  0.00    -0.084 Cl
ATOM     33  C   UNL d   1      31.413 -17.926  -7.652  0.00  0.00     0.048 C 
ATOM     34  C   UNL d   1      31.142 -17.393  -6.408  0.00  0.00     0.044 C 
ATOM     35 CL   UNL d   1      31.088 -15.625  -6.382  0.00  0.00    -0.084 Cl
ENDBRANCH  27  28
ENDBRANCH  26  27
ENDBRANCH  25  26
ENDBRANCH   1  19
TORSDOF 10
ENDMDL
MODEL 3
REMARK VINA RESULT:   -32.353      3.976      6.003
REMARK INTER + INTRA:         -37.263
REMARK INTER:                 -35.336
REMARK INTRA:                  -1.927
REMARK CONF_INDEPENDENT:        2.983
REMARK UNBOUND:                -1.927
REMARK  10 active torsions:
REMARK  status: ('A' for Active; 'I' for Inactive)
REMARK    1  A    between atoms: N_1  and  C_2 
REMARK    2  A    between atoms: C_6  and  C_7 
REMARK       I    between atoms: C_7  and  N_9 
REMARK    3  A    between atoms: N_9  and  C_10 
REMARK    4  A    between atoms: C_10  and  C_11 
REMARK    5  A    between atoms: C_11  and  N_12 
REMARK    6  A    between atoms: N_12  and  C_13 
REMARK    7  A    between atoms: C_13  and  C_14 
REMARK    8  A    between atoms: C_20  and  O_21 
REMARK    9  A    between atoms: O_21  and  C_22 
REMARK   10  A    between atoms: C_22  and  C_23 
ROOT
ATOM      1  C   UNL d   1      27.047 -16.689   0.326  0.00  0.00     0.273 C 
ENDROOT
BRANCH   1   2
ATOM      2  N   UNL d   1      26.177 -16.723  -0.806  0.00  0.00    -0.070 N 
ATOM      3  H   UNL d   1      26.327 -15.804  -1.252  0.00  0.00     0.277 HD
ATOM      4  H   UNL d   1      26.742 -17.459  -1.203  0.00  0.00     0.277 HD
BRANCH   2   5
ATOM      5  C   UNL d   1      24.781 -17.198  -0.853  0.00  0.00     0.252 C 
BRANCH   5   6
ATOM      6  C   UNL d   1      24.406 -18.166   0.318  0.00  0.00     0.150 C 
BRANCH   6   7
ATOM      7  N   UNL d   1      23.028 -18.679   0.348  0.00  0.00    -0.354 N 
ATOM      8  C   UNL d   1      21.868 -18.219  -0.295  0.00  0.00     0.276 C 
ATOM      9  O   UNL d   1      21.854 -17.136  -0.920  0.00  0.00    -0.266 OA
ATOM     10  H   UNL d   1      22.985 -19.656   0.524  0.00  0.00     0.162 HD
BRANCH   8  11
ATOM     11  C   UNL d   1      20.645 -19.033  -0.196  0.00  0.00     0.201 A 
ATOM     12  N   UNL d   1      19.886 -19.314  -1.270  0.00  0.00    -0.096 NA
ATOM     13  O   UNL d   1      18.723 -19.887  -0.770  0.00  0.00    -0.104 OA
ATOM     14  N   UNL d   1      18.796 -20.032   0.606  0.00  0.00    -0.085 NA
ATOM     15  C   UNL d   1      19.989 -19.552   0.949  0.00  0.00     0.188 A 
BRANCH  15  16
ATOM     16  N   UNL d   1      20.432 -19.530   2.218  0.00  0.00    -0.380 N 
ATOM     17  H   UNL d   1      21.100 -20.234   2.509  0.00  0.00     0.158 HD
ATOM     18  H   UNL d   1      20.317 -18.809   2.900  0.00  0.00     0.158 HD
ENDBRANCH  15  16
ENDBRANCH   8  11
ENDBRANCH   6   7
ENDBRANCH   5   6
ENDBRANCH   2   5
ENDBRANCH   1   2
BRANCH   1  19
ATOM     19  C   UNL d   1      27.153 -15.243   0.778  0.00  0.00     0.002 A 
ATOM     20  C   UNL d   1      27.750 -15.195   2.065  0.00  0.00     0.030 A 
ATOM     21  C   UNL d   1      27.896 -14.006   2.755  0.00  0.00     0.011 A 
ATOM     22 BR   UNL d   1      28.711 -14.037   4.455  0.00  0.00    -0.051 Br
ATOM     23  C   UNL d   1      27.432 -12.832   2.187  0.00  0.00     0.022 A 
ATOM     24  C   UNL d   1      26.856 -12.845   0.901  0.00  0.00     0.039 A 
ATOM     25  C   UNL d   1      26.741 -14.027   0.129  0.00  0.00     0.077 A 
BRANCH  25  26
ATOM     26  O   UNL d   1      26.237 -13.725  -1.142  0.00  0.00    -0.346 OA
BRANCH  26  27
ATOM     27  C   UNL d   1      26.976 -13.581  -2.376  0.00  0.00     0.216 C 
BRANCH  27  28
ATOM     28  C   UNL d   1      27.790 -14.593  -3.132  0.00  0.00    -0.012 C 
ATOM     29  C   UNL d   1      29.039 -14.755  -2.601  0.00  0.00     0.013 C 
ATOM     30  C   UNL d   1      29.966 -15.451  -3.336  0.00  0.00     0.024 C 
ATOM     31  C   UNL d   1      29.734 -15.773  -4.675  0.00  0.00     0.035 C 
ATOM     32 CL   UNL d   1      30.904 -16.645  -5.566  0.00  0.00    -0.084 Cl
ATOM     33  C   UNL d   1      28.501 -15.578  -5.250  0.00  0.00     0.048 C 
ATOM     34  C   UNL d   1      27.481 -15.161  -4.420  0.00  0.00     0.044 C 
ATOM     35 CL   UNL d   1      25.864 -15.550  -5.023  0.00  0.00    -0.084 Cl
ENDBRANCH  27  28
ENDBRANCH  26  27
ENDBRANCH  25  26
ENDBRANCH   1  19
TORSDOF 10
ENDMDL
MODEL 4
REMARK VINA RESULT:   -32.197      1.884      2.345
REMARK INTER + INTRA:         -37.559
REMARK INTER:                 -35.180
REMARK INTRA:                  -2.379
REMARK CONF_INDEPENDENT:        2.983
REMARK UNBOUND:                -2.379
REMARK  10 active torsions:
REMARK  status: ('A' for Active; 'I' for Inactive)
REMARK    1  A    between atoms: N_1  and  C_2 
REMARK    2  A    between atoms: C_6  and  C_7 
REMARK       I    between atoms: C_7  and  N_9 
REMARK    3  A    between atoms: N_9  and  C_10 
REMARK    4  A    between atoms: C_10  and  C_11 
REMARK    5  A    between atoms: C_11  and  N_12 
REMARK    6  A    between atoms: N_12  and  C_13 
REMARK    7  A    between atoms: C_13  and  C_14 
REMARK    8  A    between atoms: C_20  and  O_21 
REMARK    9  A    between atoms: O_21  and  C_22 
REMARK   10  A    between atoms: C_22  and  C_23 
ROOT
ATOM      1  C   UNL d   1      24.672 -15.197  -2.015  0.00  0.00     0.273 C 
ENDROOT
BRANCH   1   2
ATOM      2  N   UNL d   1      24.177 -16.389  -1.404  0.00  0.00    -0.070 N 
ATOM      3  H   UNL d   1      23.719 -16.046  -0.544  0.00  0.00     0.277 HD
ATOM      4  H   UNL d   1      23.539 -16.506  -2.178  0.00  0.00     0.277 HD
BRANCH   2   5
ATOM      5  C   UNL d   1      24.879 -17.676  -1.245  0.00  0.00     0.252 C 
BRANCH   5   6
ATOM      6  C   UNL d   1      24.471 -18.459   0.048  0.00  0.00     0.150 C 
BRANCH   6   7
ATOM      7  N   UNL d   1      23.074 -18.904   0.149  0.00  0.00    -0.354 N 
ATOM      8  C   UNL d   1      21.893 -18.325  -0.342  0.00  0.00     0.276 C 
ATOM      9  O   UNL d   1      21.889 -17.185  -0.855  0.00  0.00    -0.266 OA
ATOM     10  H   UNL d   1      22.989 -19.891   0.232  0.00  0.00     0.162 HD
BRANCH   8  11
ATOM     11  C   UNL d   1      20.638 -19.084  -0.215  0.00  0.00     0.201 A 
ATOM     12  N   UNL d   1      19.838 -19.323  -1.270  0.00  0.00    -0.096 NA
ATOM     13  O   UNL d   1      18.664 -19.847  -0.743  0.00  0.00    -0.104 OA
ATOM     14  N   UNL d   1      18.767 -20.006   0.630  0.00  0.00    -0.085 NA
ATOM     15  C   UNL d   1      19.989 -19.583   0.944  0.00  0.00     0.188 A 
BRANCH  15  16
ATOM     16  N   UNL d   1      20.466 -19.591   2.200  0.00  0.00    -0.380 N 
ATOM     17  H   UNL d   1      20.178 -18.852   2.831  0.00  0.00     0.158 HD
ATOM     18  H   UNL d   1      20.958 -20.322   2.670  0.00  0.00     0.158 HD
ENDBRANCH  15  16
ENDBRANCH   8  11
ENDBRANCH   6   7
ENDBRANCH   5   6
ENDBRANCH   2   5
ENDBRANCH   1   2
BRANCH   1  19
ATOM     19  C   UNL d   1      26.172 -15.151  -1.778  0.00  0.00     0.002 A 
ATOM     20  C   UNL d   1      26.850 -15.371  -3.005  0.00  0.00     0.030 A 
ATOM     21  C   UNL d   1      28.227 -15.462  -3.068  0.00  0.00     0.011 A 
ATOM     22 BR   UNL d   1      29.043 -15.744  -4.746  0.00  0.00    -0.051 Br
ATOM     23  C   UNL d   1      28.968 -15.356  -1.904  0.00  0.00     0.022 A 
ATOM     24  C   UNL d   1      28.324 -15.113  -0.674  0.00  0.00     0.039 A 
ATOM     25  C   UNL d   1      26.922 -14.951  -0.566  0.00  0.00     0.077 A 
BRANCH  25  26
ATOM     26  O   UNL d   1      26.576 -14.612   0.748  0.00  0.00    -0.346 OA
BRANCH  26  27
ATOM     27  C   UNL d   1      27.262 -13.704   1.639  0.00  0.00     0.216 C 
BRANCH  27  28
ATOM     28  C   UNL d   1      28.012 -13.987   2.908  0.00  0.00    -0.012 C 
ATOM     29  C   UNL d   1      27.184 -14.076   3.993  0.00  0.00     0.013 C 
ATOM     30  C   UNL d   1      27.755 -14.077   5.241  0.00  0.00     0.024 C 
ATOM     31  C   UNL d   1      29.101 -13.754   5.421  0.00  0.00     0.035 C 
ATOM     32 CL   UNL d   1      29.787 -13.768   6.987  0.00  0.00    -0.084 Cl
ATOM     33  C   UNL d   1      29.949 -13.612   4.348  0.00  0.00     0.048 C 
ATOM     34  C   UNL d   1      29.439 -13.915   3.102  0.00  0.00     0.044 C 
ATOM     35 CL   UNL d   1      30.673 -14.343   1.909  0.00  0.00    -0.084 Cl
ENDBRANCH  27  28
ENDBRANCH  26  27
ENDBRANCH  25  26
ENDBRANCH   1  19
TORSDOF 10
ENDMDL
MODEL 5
REMARK VINA RESULT:   -32.189      2.067      3.045
REMARK INTER + INTRA:         -37.468
REMARK INTER:                 -35.172
REMARK INTRA:                  -2.295
REMARK CONF_INDEPENDENT:        2.983
REMARK UNBOUND:                -2.295
REMARK  10 active torsions:
REMARK  status: ('A' for Active; 'I' for Inactive)
REMARK    1  A    between atoms: N_1  and  C_2 
REMARK    2  A    between atoms: C_6  and  C_7 
REMARK       I    between atoms: C_7  and  N_9 
REMARK    3  A    between atoms: N_9  and  C_10 
REMARK    4  A    between atoms: C_10  and  C_11 
REMARK    5  A    between atoms: C_11  and  N_12 
REMARK    6  A    between atoms: N_12  and  C_13 
REMARK    7  A    between atoms: C_13  and  C_14 
REMARK    8  A    between atoms: C_20  and  O_21 
REMARK    9  A    between atoms: O_21  and  C_22 
REMARK   10  A    between atoms: C_22  and  C_23 
ROOT
ATOM      1  C   UNL d   1      24.792 -15.189  -1.922  0.00  0.00     0.273 C 
ENDROOT
BRANCH   1   2
ATOM      2  N   UNL d   1      24.276 -16.374  -1.314  0.00  0.00    -0.070 N 
ATOM      3  H   UNL d   1      23.921 -16.041  -0.403  0.00  0.00     0.277 HD
ATOM      4  H   UNL d   1      23.566 -16.417  -2.030  0.00  0.00     0.277 HD
BRANCH   2   5
ATOM      5  C   UNL d   1      24.904 -17.708  -1.269  0.00  0.00     0.252 C 
BRANCH   5   6
ATOM      6  C   UNL d   1      24.532 -18.535   0.007  0.00  0.00     0.150 C 
BRANCH   6   7
ATOM      7  N   UNL d   1      23.131 -18.958   0.146  0.00  0.00    -0.354 N 
ATOM      8  C   UNL d   1      21.948 -18.369  -0.327  0.00  0.00     0.276 C 
ATOM      9  O   UNL d   1      21.948 -17.237  -0.858  0.00  0.00    -0.266 OA
ATOM     10  H   UNL d   1      23.034 -19.942   0.246  0.00  0.00     0.162 HD
BRANCH   8  11
ATOM     11  C   UNL d   1      20.685 -19.108  -0.161  0.00  0.00     0.201 A 
ATOM     12  N   UNL d   1      19.842 -19.322  -1.187  0.00  0.00    -0.096 NA
ATOM     13  O   UNL d   1      18.680 -19.831  -0.621  0.00  0.00    -0.104 OA
ATOM     14  N   UNL d   1      18.831 -20.007   0.745  0.00  0.00    -0.085 NA
ATOM     15  C   UNL d   1      20.072 -19.608   1.017  0.00  0.00     0.188 A 
BRANCH  15  16
ATOM     16  N   UNL d   1      20.596 -19.637   2.254  0.00  0.00    -0.380 N 
ATOM     17  H   UNL d   1      20.962 -18.777   2.645  0.00  0.00     0.158 HD
ATOM     18  H   UNL d   1      20.539 -20.369   2.932  0.00  0.00     0.158 HD
ENDBRANCH  15  16
ENDBRANCH   8  11
ENDBRANCH   6   7
ENDBRANCH   5   6
ENDBRANCH   2   5
ENDBRANCH   1   2
BRANCH   1  19
ATOM     19  C   UNL d   1      26.290 -15.378  -2.094  0.00  0.00     0.002 A 
ATOM     20  C   UNL d   1      26.661 -15.016  -3.415  0.00  0.00     0.030 A 
ATOM     21  C   UNL d   1      27.956 -15.167  -3.873  0.00  0.00     0.011 A 
ATOM     22 BR   UNL d   1      28.361 -14.647  -5.641  0.00  0.00    -0.051 Br
ATOM     23  C   UNL d   1      28.915 -15.704  -3.032  0.00  0.00     0.022 A 
ATOM     24  C   UNL d   1      28.581 -16.051  -1.707  0.00  0.00     0.039 A 
ATOM     25  C   UNL d   1      27.284 -15.858  -1.171  0.00  0.00     0.077 A 
BRANCH  25  26
ATOM     26  O   UNL d   1      27.271 -16.185   0.190  0.00  0.00    -0.346 OA
BRANCH  26  27
ATOM     27  C   UNL d   1      27.850 -15.441   1.285  0.00  0.00     0.216 C 
BRANCH  27  28
ATOM     28  C   UNL d   1      27.404 -14.151   1.912  0.00  0.00    -0.012 C 
ATOM     29  C   UNL d   1      26.652 -13.391   1.059  0.00  0.00     0.013 C 
ATOM     30  C   UNL d   1      26.397 -12.089   1.410  0.00  0.00     0.024 C 
ATOM     31  C   UNL d   1      27.074 -11.480   2.469  0.00  0.00     0.035 C 
ATOM     32 CL   UNL d   1      26.732  -9.858   2.888  0.00  0.00    -0.084 Cl
ATOM     33  C   UNL d   1      27.873 -12.209   3.316  0.00  0.00     0.048 C 
ATOM     34  C   UNL d   1      27.885 -13.578   3.145  0.00  0.00     0.044 C 
ATOM     35 CL   UNL d   1      28.366 -14.477   4.590  0.00  0.00    -0.084 Cl
ENDBRANCH  27  28
ENDBRANCH  26  27
ENDBRANCH  25  26
ENDBRANCH   1  19
TORSDOF 10
ENDMDL
MODEL 6
REMARK VINA RESULT:   -31.925      1.862      2.240
REMARK INTER + INTRA:         -37.613
REMARK INTER:                 -34.908
REMARK INTRA:                  -2.705
REMARK CONF_INDEPENDENT:        2.983
REMARK UNBOUND:                -2.705
REMARK  10 active torsions:
REMARK  status: ('A' for Active; 'I' for Inactive)
REMARK    1  A    between atoms: N_1  and  C_2 
REMARK    2  A    between atoms: C_6  and  C_7 
REMARK       I    between atoms: C_7  and  N_9 
REMARK    3  A    between atoms: N_9  and  C_10 
REMARK    4  A    between atoms: C_10  and  C_11 
REMARK    5  A    between atoms: C_11  and  N_12 
REMARK    6  A    between atoms: N_12  and  C_13 
REMARK    7  A    between atoms: C_13  and  C_14 
REMARK    8  A    between atoms: C_20  and  O_21 
REMARK    9  A    between atoms: O_21  and  C_22 
REMARK   10  A    between atoms: C_22  and  C_23 
ROOT
ATOM      1  C   UNL d   1      26.642 -17.924   0.634  0.00  0.00     0.273 C 
ENDROOT
BRANCH   1   2
ATOM      2  N   UNL d   1      25.336 -17.621   0.141  0.00  0.00    -0.070 N 
ATOM      3  H   UNL d   1      24.713 -18.165   0.760  0.00  0.00     0.277 HD
ATOM      4  H   UNL d   1      25.460 -16.664   0.438  0.00  0.00     0.277 HD
BRANCH   2   5
ATOM      5  C   UNL d   1      24.896 -17.568  -1.265  0.00  0.00     0.252 C 
BRANCH   5   6
ATOM      6  C   UNL d   1      23.463 -16.966  -1.454  0.00  0.00     0.150 C 
BRANCH   6   7
ATOM      7  N   UNL d   1      22.324 -17.872  -1.249  0.00  0.00    -0.354 N 
ATOM      8  C   UNL d   1      21.897 -18.557  -0.100  0.00  0.00     0.276 C 
ATOM      9  O   UNL d   1      22.587 -18.577   0.943  0.00  0.00    -0.266 OA
ATOM     10  H   UNL d   1      21.566 -17.683  -1.863  0.00  0.00     0.162 HD
BRANCH   8  11
ATOM     11  C   UNL d   1      20.618 -19.284  -0.155  0.00  0.00     0.201 A 
ATOM     12  N   UNL d   1      19.866 -19.322  -1.270  0.00  0.00    -0.096 NA
ATOM     13  O   UNL d   1      18.654 -19.885  -0.889  0.00  0.00    -0.104 OA
ATOM     14  N   UNL d   1      18.684 -20.268   0.443  0.00  0.00    -0.085 NA
ATOM     15  C   UNL d   1      19.900 -19.942   0.877  0.00  0.00     0.188 A 
BRANCH  15  16
ATOM     16  N   UNL d   1      20.314 -20.169   2.135  0.00  0.00    -0.380 N 
ATOM     17  H   UNL d   1      19.717 -20.709   2.750  0.00  0.00     0.158 HD
ATOM     18  H   UNL d   1      21.220 -20.012   2.525  0.00  0.00     0.158 HD
ENDBRANCH  15  16
ENDBRANCH   8  11
ENDBRANCH   6   7
ENDBRANCH   5   6
ENDBRANCH   2   5
ENDBRANCH   1   2
BRANCH   1  19
ATOM     19  C   UNL d   1      27.584 -16.845   0.128  0.00  0.00     0.002 A 
ATOM     20  C   UNL d   1      28.599 -17.440  -0.665  0.00  0.00     0.030 A 
ATOM     21  C   UNL d   1      29.641 -16.698  -1.189  0.00  0.00     0.011 A 
ATOM     22 BR   UNL d   1      30.939 -17.573  -2.242  0.00  0.00    -0.051 Br
ATOM     23  C   UNL d   1      29.711 -15.343  -0.919  0.00  0.00     0.022 A 
ATOM     24  C   UNL d   1      28.704 -14.720  -0.153  0.00  0.00     0.039 A 
ATOM     25  C   UNL d   1      27.585 -15.423   0.353  0.00  0.00     0.077 A 
BRANCH  25  26
ATOM     26  O   UNL d   1      26.698 -14.536   0.975  0.00  0.00    -0.346 OA
BRANCH  26  27
ATOM     27  C   UNL d   1      27.021 -13.415   1.828  0.00  0.00     0.216 C 
BRANCH  27  28
ATOM     28  C   UNL d   1      27.748 -13.385   3.141  0.00  0.00    -0.012 C 
ATOM     29  C   UNL d   1      28.255 -14.608   3.482  0.00  0.00     0.013 C 
ATOM     30  C   UNL d   1      28.716 -14.781   4.763  0.00  0.00     0.024 C 
ATOM     31  C   UNL d   1      28.460 -13.834   5.758  0.00  0.00     0.035 C 
ATOM     32 CL   UNL d   1      29.051 -14.072   7.344  0.00  0.00    -0.084 Cl
ATOM     33  C   UNL d   1      27.908 -12.613   5.452  0.00  0.00     0.048 C 
ATOM     34  C   UNL d   1      27.728 -12.322   4.116  0.00  0.00     0.044 C 
ATOM     35 CL   UNL d   1      27.652 -10.591   3.763  0.00  0.00    -0.084 Cl
ENDBRANCH  27  28
ENDBRANCH  26  27
ENDBRANCH  25  26
ENDBRANCH   1  19
TORSDOF 10
ENDMDL
MODEL 7
REMARK VINA RESULT:   -31.763      4.214      6.319
REMARK INTER + INTRA:         -37.120
REMARK INTER:                 -34.746
REMARK INTRA:                  -2.374
REMARK CONF_INDEPENDENT:        2.983
REMARK UNBOUND:                -2.374
REMARK  10 active torsions:
REMARK  status: ('A' for Active; 'I' for Inactive)
REMARK    1  A    between atoms: N_1  and  C_2 
REMARK    2  A    between atoms: C_6  and  C_7 
REMARK       I    between atoms: C_7  and  N_9 
REMARK    3  A    between atoms: N_9  and  C_10 
REMARK    4  A    between atoms: C_10  and  C_11 
REMARK    5  A    between atoms: C_11  and  N_12 
REMARK    6  A    between atoms: N_12  and  C_13 
REMARK    7  A    between atoms: C_13  and  C_14 
REMARK    8  A    between atoms: C_20  and  O_21 
REMARK    9  A    between atoms: O_21  and  C_22 
REMARK   10  A    between atoms: C_22  and  C_23 
ROOT
ATOM      1  C   UNL d   1      26.358 -17.908   0.239  0.00  0.00     0.273 C 
ENDROOT
BRANCH   1   2
ATOM      2  N   UNL d   1      25.075 -17.878  -0.387  0.00  0.00    -0.070 N 
ATOM      3  H   UNL d   1      24.927 -18.857  -0.681  0.00  0.00     0.277 HD
ATOM      4  H   UNL d   1      24.658 -17.660   0.506  0.00  0.00     0.277 HD
BRANCH   2   5
ATOM      5  C   UNL d   1      24.564 -16.875  -1.340  0.00  0.00     0.252 C 
BRANCH   5   6
ATOM      6  C   UNL d   1      23.128 -16.354  -0.996  0.00  0.00     0.150 C 
BRANCH   6   7
ATOM      7  N   UNL d   1      22.053 -17.353  -0.919  0.00  0.00    -0.354 N 
ATOM      8  C   UNL d   1      21.947 -18.523  -0.150  0.00  0.00     0.276 C 
ATOM      9  O   UNL d   1      22.910 -18.954   0.521  0.00  0.00    -0.266 OA
ATOM     10  H   UNL d   1      21.160 -16.975  -1.132  0.00  0.00     0.162 HD
BRANCH   8  11
ATOM     11  C   UNL d   1      20.671 -19.258  -0.170  0.00  0.00     0.201 A 
ATOM     12  N   UNL d   1      19.900 -19.321  -1.270  0.00  0.00    -0.096 NA
ATOM     13  O   UNL d   1      18.698 -19.883  -0.857  0.00  0.00    -0.104 OA
ATOM     14  N   UNL d   1      18.755 -20.242   0.480  0.00  0.00    -0.085 NA
ATOM     15  C   UNL d   1      19.976 -19.901   0.886  0.00  0.00     0.188 A 
BRANCH  15  16
ATOM     16  N   UNL d   1      20.413 -20.104   2.141  0.00  0.00    -0.380 N 
ATOM     17  H   UNL d   1      19.889 -19.697   2.907  0.00  0.00     0.158 HD
ATOM     18  H   UNL d   1      21.113 -20.743   2.455  0.00  0.00     0.158 HD
ENDBRANCH  15  16
ENDBRANCH   8  11
ENDBRANCH   6   7
ENDBRANCH   5   6
ENDBRANCH   2   5
ENDBRANCH   1   2
BRANCH   1  19
ATOM     19  C   UNL d   1      27.038 -16.580  -0.046  0.00  0.00     0.002 A 
ATOM     20  C   UNL d   1      27.413 -15.971   1.180  0.00  0.00     0.030 A 
ATOM     21  C   UNL d   1      27.981 -14.711   1.222  0.00  0.00     0.011 A 
ATOM     22 BR   UNL d   1      28.457 -13.985   2.896  0.00  0.00    -0.051 Br
ATOM     23  C   UNL d   1      28.172 -14.015   0.041  0.00  0.00     0.022 A 
ATOM     24  C   UNL d   1      27.832 -14.604  -1.193  0.00  0.00     0.039 A 
ATOM     25  C   UNL d   1      27.306 -15.915  -1.293  0.00  0.00     0.077 A 
BRANCH  25  26
ATOM     26  O   UNL d   1      27.168 -16.277  -2.639  0.00  0.00    -0.346 OA
BRANCH  26  27
ATOM     27  C   UNL d   1      26.469 -15.561  -3.681  0.00  0.00     0.216 C 
BRANCH  27  28
ATOM     28  C   UNL d   1      26.670 -14.161  -4.186  0.00  0.00    -0.012 C 
ATOM     29  C   UNL d   1      25.845 -13.262  -3.567  0.00  0.00     0.013 C 
ATOM     30  C   UNL d   1      25.744 -12.004  -4.106  0.00  0.00     0.024 C 
ATOM     31  C   UNL d   1      26.262 -11.714  -5.370  0.00  0.00     0.035 C 
ATOM     32 CL   UNL d   1      26.126 -10.136  -6.014  0.00  0.00    -0.084 Cl
ATOM     33  C   UNL d   1      27.057 -12.615  -6.037  0.00  0.00     0.048 C 
ATOM     34  C   UNL d   1      27.410 -13.763  -5.358  0.00  0.00     0.044 C 
ATOM     35 CL   UNL d   1      28.887 -14.527  -5.962  0.00  0.00    -0.084 Cl
ENDBRANCH  27  28
ENDBRANCH  26  27
ENDBRANCH  25  26
ENDBRANCH   1  19
TORSDOF 10
ENDMDL
MODEL 8
REMARK VINA RESULT:   -31.617      4.324      6.924
REMARK INTER + INTRA:         -37.035
REMARK INTER:                 -34.600
REMARK INTRA:                  -2.436
REMARK CONF_INDEPENDENT:        2.983
REMARK UNBOUND:                -2.436
REMARK  10 active torsions:
REMARK  status: ('A' for Active; 'I' for Inactive)
REMARK    1  A    between atoms: N_1  and  C_2 
REMARK    2  A    between atoms: C_6  and  C_7 
REMARK       I    between atoms: C_7  and  N_9 
REMARK    3  A    between atoms: N_9  and  C_10 
REMARK    4  A    between atoms: C_10  and  C_11 
REMARK    5  A    between atoms: C_11  and  N_12 
REMARK    6  A    between atoms: N_12  and  C_13 
REMARK    7  A    between atoms: C_13  and  C_14 
REMARK    8  A    between atoms: C_20  and  O_21 
REMARK    9  A    between atoms: O_21  and  C_22 
REMARK   10  A    between atoms: C_22  and  C_23 
ROOT
ATOM      1  C   UNL d   1      24.494 -15.544  -2.328  0.00  0.00     0.273 C 
ENDROOT
BRANCH   1   2
ATOM      2  N   UNL d   1      24.156 -16.601  -1.429  0.00  0.00    -0.070 N 
ATOM      3  H   UNL d   1      23.768 -16.105  -0.610  0.00  0.00     0.277 HD
ATOM      4  H   UNL d   1      23.452 -16.913  -2.080  0.00  0.00     0.277 HD
BRANCH   2   5
ATOM      5  C   UNL d   1      24.966 -17.786  -1.090  0.00  0.00     0.252 C 
BRANCH   5   6
ATOM      6  C   UNL d   1      24.494 -18.520   0.210  0.00  0.00     0.150 C 
BRANCH   6   7
ATOM      7  N   UNL d   1      23.106 -19.003   0.240  0.00  0.00    -0.354 N 
ATOM      8  C   UNL d   1      21.919 -18.401  -0.208  0.00  0.00     0.276 C 
ATOM      9  O   UNL d   1      21.896 -17.213  -0.598  0.00  0.00    -0.266 OA
ATOM     10  H   UNL d   1      23.043 -19.994   0.217  0.00  0.00     0.162 HD
BRANCH   8  11
ATOM     11  C   UNL d   1      20.680 -19.196  -0.183  0.00  0.00     0.201 A 
ATOM     12  N   UNL d   1      19.892 -19.325  -1.265  0.00  0.00    -0.096 NA
ATOM     13  O   UNL d   1      18.727 -19.932  -0.815  0.00  0.00    -0.104 OA
ATOM     14  N   UNL d   1      18.825 -20.250   0.531  0.00  0.00    -0.085 NA
ATOM     15  C   UNL d   1      20.036 -19.841   0.904  0.00  0.00     0.188 A 
BRANCH  15  16
ATOM     16  N   UNL d   1      20.505 -19.988   2.154  0.00  0.00    -0.380 N 
ATOM     17  H   UNL d   1      21.190 -19.323   2.494  0.00  0.00     0.158 HD
ATOM     18  H   UNL d   1      20.157 -20.581   2.879  0.00  0.00     0.158 HD
ENDBRANCH  15  16
ENDBRANCH   8  11
ENDBRANCH   6   7
ENDBRANCH   5   6
ENDBRANCH   2   5
ENDBRANCH   1   2
BRANCH   1  19
ATOM     19  C   UNL d   1      25.916 -15.112  -2.013  0.00  0.00     0.002 A 
ATOM     20  C   UNL d   1      26.003 -14.739  -0.646  0.00  0.00     0.030 A 
ATOM     21  C   UNL d   1      27.167 -14.227  -0.105  0.00  0.00     0.011 A 
ATOM     22 BR   UNL d   1      27.193 -13.769   1.725  0.00  0.00    -0.051 Br
ATOM     23  C   UNL d   1      28.273 -14.053  -0.918  0.00  0.00     0.022 A 
ATOM     24  C   UNL d   1      28.224 -14.436  -2.274  0.00  0.00     0.039 A 
ATOM     25  C   UNL d   1      27.077 -15.023  -2.860  0.00  0.00     0.077 A 
BRANCH  25  26
ATOM     26  O   UNL d   1      27.349 -15.402  -4.179  0.00  0.00    -0.346 OA
BRANCH  26  27
ATOM     27  C   UNL d   1      28.598 -15.278  -4.896  0.00  0.00     0.216 C 
BRANCH  27  28
ATOM     28  C   UNL d   1      29.650 -16.312  -5.180  0.00  0.00    -0.012 C 
ATOM     29  C   UNL d   1      29.990 -16.356  -6.504  0.00  0.00     0.013 C 
ATOM     30  C   UNL d   1      30.744 -17.418  -6.940  0.00  0.00     0.024 C 
ATOM     31  C   UNL d   1      30.953 -18.537  -6.131  0.00  0.00     0.035 C 
ATOM     32 CL   UNL d   1      31.901 -19.842  -6.698  0.00  0.00    -0.084 Cl
ATOM     33  C   UNL d   1      30.581 -18.539  -4.809  0.00  0.00     0.048 C 
ATOM     34  C   UNL d   1      30.099 -17.354  -4.291  0.00  0.00     0.044 C 
ATOM     35 CL   UNL d   1      30.257 -17.223  -2.534  0.00  0.00    -0.084 Cl
ENDBRANCH  27  28
ENDBRANCH  26  27
ENDBRANCH  25  26
ENDBRANCH   1  19
TORSDOF 10
ENDMDL
MODEL 9
REMARK VINA RESULT:   -31.087      4.282      6.059
REMARK INTER + INTRA:         -37.374
REMARK INTER:                 -34.070
REMARK INTRA:                  -3.305
REMARK CONF_INDEPENDENT:        2.983
REMARK UNBOUND:                -3.305
REMARK  10 active torsions:
REMARK  status: ('A' for Active; 'I' for Inactive)
REMARK    1  A    between atoms: N_1  and  C_2 
REMARK    2  A    between atoms: C_6  and  C_7 
REMARK       I    between atoms: C_7  and  N_9 
REMARK    3  A    between atoms: N_9  and  C_10 
REMARK    4  A    between atoms: C_10  and  C_11 
REMARK    5  A    between atoms: C_11  and  N_12 
REMARK    6  A    between atoms: N_12  and  C_13 
REMARK    7  A    between atoms: C_13  and  C_14 
REMARK    8  A    between atoms: C_20  and  O_21 
REMARK    9  A    between atoms: O_21  and  C_22 
REMARK   10  A    between atoms: C_22  and  C_23 
ROOT
ATOM      1  C   UNL d   1      26.735 -17.625   0.687  0.00  0.00     0.273 C 
ENDROOT
BRANCH   1   2
ATOM      2  N   UNL d   1      25.436 -17.424   0.131  0.00  0.00    -0.070 N 
ATOM      3  H   UNL d   1      24.801 -17.718   0.891  0.00  0.00     0.277 HD
ATOM      4  H   UNL d   1      25.609 -16.430   0.115  0.00  0.00     0.277 HD
BRANCH   2   5
ATOM      5  C   UNL d   1      24.970 -17.787  -1.221  0.00  0.00     0.252 C 
BRANCH   5   6
ATOM      6  C   UNL d   1      23.571 -17.187  -1.586  0.00  0.00     0.150 C 
BRANCH   6   7
ATOM      7  N   UNL d   1      22.393 -18.027  -1.324  0.00  0.00    -0.354 N 
ATOM      8  C   UNL d   1      21.931 -18.605  -0.131  0.00  0.00     0.276 C 
ATOM      9  O   UNL d   1      22.612 -18.574   0.917  0.00  0.00    -0.266 OA
ATOM     10  H   UNL d   1      21.648 -17.854  -1.959  0.00  0.00     0.162 HD
BRANCH   8  11
ATOM     11  C   UNL d   1      20.622 -19.281  -0.144  0.00  0.00     0.201 A 
ATOM     12  N   UNL d   1      19.852 -19.324  -1.246  0.00  0.00    -0.096 NA
ATOM     13  O   UNL d   1      18.625 -19.825  -0.829  0.00  0.00    -0.104 OA
ATOM     14  N   UNL d   1      18.661 -20.165   0.514  0.00  0.00    -0.085 NA
ATOM     15  C   UNL d   1      19.895 -19.874   0.919  0.00  0.00     0.188 A 
BRANCH  15  16
ATOM     16  N   UNL d   1      20.319 -20.077   2.178  0.00  0.00    -0.380 N 
ATOM     17  H   UNL d   1      21.316 -20.059   2.361  0.00  0.00     0.158 HD
ATOM     18  H   UNL d   1      19.778 -20.090   3.018  0.00  0.00     0.158 HD
ENDBRANCH  15  16
ENDBRANCH   8  11
ENDBRANCH   6   7
ENDBRANCH   5   6
ENDBRANCH   2   5
ENDBRANCH   1   2
BRANCH   1  19
ATOM     19  C   UNL d   1      27.704 -16.743  -0.083  0.00  0.00     0.002 A 
ATOM     20  C   UNL d   1      28.969 -17.381  -0.150  0.00  0.00     0.030 A 
ATOM     21  C   UNL d   1      30.065 -16.765  -0.726  0.00  0.00     0.011 A 
ATOM     22 BR   UNL d   1      31.705 -17.694  -0.781  0.00  0.00    -0.051 Br
ATOM     23  C   UNL d   1      29.932 -15.485  -1.234  0.00  0.00     0.022 A 
ATOM     24  C   UNL d   1      28.682 -14.835  -1.203  0.00  0.00     0.039 A 
ATOM     25  C   UNL d   1      27.517 -15.447  -0.681  0.00  0.00     0.077 A 
BRANCH  25  26
ATOM     26  O   UNL d   1      26.406 -14.619  -0.880  0.00  0.00    -0.346 OA
BRANCH  26  27
ATOM     27  C   UNL d   1      25.667 -14.408  -2.105  0.00  0.00     0.216 C 
BRANCH  27  28
ATOM     28  C   UNL d   1      26.169 -14.154  -3.498  0.00  0.00    -0.012 C 
ATOM     29  C   UNL d   1      26.548 -15.305  -4.131  0.00  0.00     0.013 C 
ATOM     30  C   UNL d   1      27.256 -15.194  -5.301  0.00  0.00     0.024 C 
ATOM     31  C   UNL d   1      27.787 -13.969  -5.711  0.00  0.00     0.035 C 
ATOM     32 CL   UNL d   1      28.661 -13.857  -7.176  0.00  0.00    -0.084 Cl
ATOM     33  C   UNL d   1      27.461 -12.800  -5.066  0.00  0.00     0.048 C 
ATOM     34  C   UNL d   1      26.503 -12.876  -4.076  0.00  0.00     0.044 C 
ATOM     35 CL   UNL d   1      25.677 -11.345  -3.758  0.00  0.00    -0.084 Cl
ENDBRANCH  27  28
ENDBRANCH  26  27
ENDBRANCH  25  26
ENDBRANCH   1  19
TORSDOF 10
ENDMDL
