MODEL 1
REMARK VINA RESULT:   -15.323      0.000      0.000
REMARK INTER + INTRA:         -17.031
REMARK INTER:                 -16.814
REMARK INTRA:                  -0.217
REMARK CONF_INDEPENDENT:        1.492
REMARK UNBOUND:                -0.217
REMARK  5 active torsions:
REMARK  status: ('A' for Active; 'I' for Inactive)
REMARK       I    between atoms: C_2  and  N_3 
REMARK    1  A    between atoms: C_2  and  C_14 
REMARK    2  A    between atoms: N_3  and  N_4 
REMARK    3  A    between atoms: C_5  and  C_6 
REMARK    4  A    between atoms: C_17  and  O_18 
REMARK    5  A    between atoms: C_20  and  O_21 
ROOT
ATOM      1  O   UNL d   1      22.461 -18.548   0.184  0.00  0.00    -0.266 OA
ATOM      2  C   UNL d   1      22.189 -17.869  -0.812  0.00  0.00     0.274 C 
ATOM      3  N   UNL d   1      20.941 -17.843  -1.438  0.00  0.00    -0.243 N 
ATOM      4  H   UNL d   1      20.789 -17.270  -2.262  0.00  0.00     0.192 HD
ENDROOT
BRANCH   2   5
ATOM      5  C   UNL d   1      23.294 -17.055  -1.405  0.00  0.00     0.067 A 
ATOM      6  C   UNL d   1      24.542 -17.678  -1.618  0.00  0.00     0.022 A 
ATOM      7  C   UNL d   1      25.647 -16.950  -2.089  0.00  0.00     0.037 A 
ATOM      8  C   UNL d   1      25.511 -15.587  -2.324  0.00  0.00     0.068 A 
ATOM      9  C   UNL d   1      24.293 -14.948  -2.097  0.00  0.00     0.074 A 
ATOM     10  C   UNL d   1      23.185 -15.683  -1.651  0.00  0.00     0.084 A 
BRANCH   8  11
ATOM     11  O   UNL d   1      26.549 -14.828  -2.779  0.00  0.00    -0.361 OA
ATOM     12  H   UNL d   1      27.365 -15.077  -2.311  0.00  0.00     0.217 HD
ENDBRANCH   8  11
BRANCH  10  13
ATOM     13  O   UNL d   1      21.995 -15.044  -1.439  0.00  0.00    -0.360 OA
ATOM     14  H   UNL d   1      21.722 -14.607  -2.265  0.00  0.00     0.217 HD
ENDBRANCH  10  13
ENDBRANCH   2   5
BRANCH   3  15
ATOM     15  N   UNL d   1      19.905 -18.575  -0.895  0.00  0.00    -0.183 NA
ATOM     16  C   UNL d   1      20.192 -19.598  -0.153  0.00  0.00     0.155 C 
BRANCH  16  17
ATOM     17  C   UNL d   1      19.115 -20.395   0.493  0.00  0.00     0.043 A 
ATOM     18  C   UNL d   1      18.056 -20.896  -0.269  0.00  0.00     0.129 A 
ATOM     19  F   UNL d   1      18.059 -20.793  -1.605  0.00  0.00    -0.205 F 
ATOM     20  C   UNL d   1      16.983 -21.565   0.329  0.00  0.00     0.043 A 
ATOM     21  C   UNL d   1      16.953 -21.747   1.709  0.00  0.00     0.005 A 
ATOM     22  C   UNL d   1      18.023 -21.289   2.480  0.00  0.00     0.025 A 
ATOM     23  C   UNL d   1      19.104 -20.625   1.875  0.00  0.00     0.048 A 
ATOM     24 CL   UNL d   1      20.377 -20.084   2.911  0.00  0.00    -0.083 Cl
ENDBRANCH  16  17
ENDBRANCH   3  15
TORSDOF 5
ENDMDL
