MODEL 1
REMARK VINA RESULT:    -9.226      0.000      0.000
REMARK INTER + INTRA:         -13.512
REMARK INTER:                 -11.612
REMARK INTRA:                  -1.900
REMARK CONF_INDEPENDENT:        2.386
REMARK UNBOUND:                -1.900
REMARK  8 active torsions:
REMARK  status: ('A' for Active; 'I' for Inactive)
REMARK    1  A    between atoms: C_2  and  C_3 
REMARK    2  A    between atoms: C_3  and  N_4 
REMARK       I    between atoms: N_4  and  C_5 
REMARK    3  A    between atoms: C_5  and  C_7 
REMARK    4  A    between atoms: C_7  and  N_9 
REMARK       I    between atoms: N_9  and  C_10 
REMARK    5  A    between atoms: C_10  and  C_12 
REMARK    6  A    between atoms: C_16  and  C_17 
REMARK    7  A    between atoms: C_17  and  S_18 
REMARK    8  A    between atoms: S_18  and  C_19 
ROOT
ATOM      1  C   UNL d   1      26.240 -15.489  -2.379  0.00  0.00     0.081 A 
ATOM      2  S   UNL d   1      27.731 -16.273  -2.698  0.00  0.00    -0.063 SA
ATOM      3  C   UNL d   1      27.981 -15.361  -4.105  0.00  0.00     0.116 A 
ATOM      4  N   UNL d   1      29.055 -15.586  -4.901  0.00  0.00    -0.226 NA
ATOM      5  C   UNL d   1      29.120 -14.812  -5.940  0.00  0.00     0.117 A 
ATOM      6  N   UNL d   1      28.211 -13.823  -6.215  0.00  0.00    -0.310 N 
ATOM      7  C   UNL d   1      27.111 -13.562  -5.455  0.00  0.00     0.260 A 
ATOM      8  O   UNL d   1      26.318 -12.673  -5.770  0.00  0.00    -0.267 OA
ATOM      9  C   UNL d   1      26.985 -14.423  -4.299  0.00  0.00     0.075 A 
ATOM     10  C   UNL d   1      25.961 -14.482  -3.293  0.00  0.00    -0.021 A 
ATOM     11  C   UNL d   1      24.780 -13.571  -3.220  0.00  0.00     0.051 C 
ATOM     12  H   UNL d   1      28.352 -13.245  -7.034  0.00  0.00     0.170 HD
ENDROOT
BRANCH   1  13
ATOM     13  C   UNL d   1      25.510 -15.928  -1.207  0.00  0.00     0.259 C 
ATOM     14  N   UNL d   1      24.464 -16.797  -1.445  0.00  0.00    -0.344 N 
ATOM     15  H   UNL d   1      24.243 -17.099  -2.389  0.00  0.00     0.163 HD
ATOM     16  O   UNL d   1      25.822 -15.592  -0.067  0.00  0.00    -0.267 OA
BRANCH  14  17
ATOM     17  C   UNL d   1      23.727 -17.434  -0.348  0.00  0.00     0.172 C 
ATOM     18  C   UNL d   1      24.676 -18.200   0.573  0.00  0.00     0.042 C 
BRANCH  17  19
ATOM     19  C   UNL d   1      22.648 -18.395  -0.917  0.00  0.00     0.240 C 
ATOM     20  N   UNL d   1      21.518 -18.578  -0.136  0.00  0.00    -0.359 N 
ATOM     21  H   UNL d   1      21.425 -18.092   0.748  0.00  0.00     0.162 HD
ATOM     22  O   UNL d   1      22.794 -18.956  -2.004  0.00  0.00    -0.271 OA
BRANCH  20  23
ATOM     23  C   UNL d   1      20.453 -19.475  -0.558  0.00  0.00     0.122 C 
BRANCH  23  24
ATOM     24  C   UNL d   1      19.339 -19.616   0.480  0.00  0.00     0.015 C 
ATOM     25  C   UNL d   1      19.892 -20.072   1.823  0.00  0.00     0.006 C 
ENDBRANCH  23  24
ENDBRANCH  20  23
ENDBRANCH  17  19
ENDBRANCH  14  17
ENDBRANCH   1  13
BRANCH   5  26
ATOM     26  C   UNL d   1      30.285 -14.936  -6.885  0.00  0.00     0.158 C 
BRANCH  26  27
ATOM     27  S   UNL d   1      31.672 -15.894  -6.147  0.00  0.00    -0.122 SA
BRANCH  27  28
ATOM     28  C   UNL d   1      31.239 -17.599  -6.457  0.00  0.00     0.007 C 
ATOM     29  C   UNL d   1      31.424 -18.055  -7.775  0.00  0.00     0.025 C 
ATOM     30  C   UNL d   1      30.977 -19.323  -8.169  0.00  0.00    -0.061 C 
ATOM     31  C   UNL d   1      31.158 -19.813  -9.573  0.00  0.00     0.048 C 
ATOM     32  C   UNL d   1      30.401 -20.159  -7.216  0.00  0.00     0.007 C 
ATOM     33  C   UNL d   1      30.455 -19.813  -5.873  0.00  0.00     0.009 C 
ATOM     34  C   UNL d   1      30.807 -18.514  -5.484  0.00  0.00    -0.045 C 
ATOM     35  C   UNL d   1      30.610 -18.156  -4.046  0.00  0.00     0.049 C 
ENDBRANCH  27  28
ENDBRANCH  26  27
ENDBRANCH   5  26
TORSDOF 8
ENDMDL
MODEL 2
REMARK VINA RESULT:    -8.975      0.889      1.887
REMARK INTER + INTRA:         -13.345
REMARK INTER:                 -11.362
REMARK INTRA:                  -1.983
REMARK CONF_INDEPENDENT:        2.386
REMARK UNBOUND:                -1.983
REMARK  8 active torsions:
REMARK  status: ('A' for Active; 'I' for Inactive)
REMARK    1  A    between atoms: C_2  and  C_3 
REMARK    2  A    between atoms: C_3  and  N_4 
REMARK       I    between atoms: N_4  and  C_5 
REMARK    3  A    between atoms: C_5  and  C_7 
REMARK    4  A    between atoms: C_7  and  N_9 
REMARK       I    between atoms: N_9  and  C_10 
REMARK    5  A    between atoms: C_10  and  C_12 
REMARK    6  A    between atoms: C_16  and  C_17 
REMARK    7  A    between atoms: C_17  and  S_18 
REMARK    8  A    between atoms: S_18  and  C_19 
ROOT
ATOM      1  C   UNL d   1      26.463 -15.688  -2.312  0.00  0.00     0.081 A 
ATOM      2  S   UNL d   1      28.027 -16.381  -2.202  0.00  0.00    -0.063 SA
ATOM      3  C   UNL d   1      28.488 -15.731  -3.697  0.00  0.00     0.116 A 
ATOM      4  N   UNL d   1      29.704 -16.004  -4.232  0.00  0.00    -0.226 NA
ATOM      5  C   UNL d   1      29.923 -15.436  -5.377  0.00  0.00     0.117 A 
ATOM      6  N   UNL d   1      29.030 -14.602  -6.000  0.00  0.00    -0.310 N 
ATOM      7  C   UNL d   1      27.794 -14.303  -5.512  0.00  0.00     0.260 A 
ATOM      8  O   UNL d   1      27.028 -13.563  -6.133  0.00  0.00    -0.267 OA
ATOM      9  C   UNL d   1      27.498 -14.939  -4.246  0.00  0.00     0.075 A 
ATOM     10  C   UNL d   1      26.307 -14.900  -3.444  0.00  0.00    -0.021 A 
ATOM     11  C   UNL d   1      25.087 -14.101  -3.762  0.00  0.00     0.051 C 
ATOM     12  H   UNL d   1      29.292 -14.177  -6.881  0.00  0.00     0.170 HD
ENDROOT
BRANCH   1  13
ATOM     13  C   UNL d   1      25.549 -15.963  -1.221  0.00  0.00     0.259 C 
ATOM     14  N   UNL d   1      24.643 -16.981  -1.442  0.00  0.00    -0.344 N 
ATOM     15  H   UNL d   1      24.641 -17.494  -2.319  0.00  0.00     0.163 HD
ATOM     16  O   UNL d   1      25.599 -15.366  -0.149  0.00  0.00    -0.267 OA
BRANCH  14  17
ATOM     17  C   UNL d   1      23.754 -17.465  -0.381  0.00  0.00     0.172 C 
ATOM     18  C   UNL d   1      24.545 -18.200   0.700  0.00  0.00     0.042 C 
BRANCH  17  19
ATOM     19  C   UNL d   1      22.670 -18.403  -0.979  0.00  0.00     0.240 C 
ATOM     20  N   UNL d   1      21.515 -18.560  -0.228  0.00  0.00    -0.359 N 
ATOM     21  H   UNL d   1      21.409 -18.071   0.652  0.00  0.00     0.162 HD
ATOM     22  O   UNL d   1      22.834 -18.969  -2.061  0.00  0.00    -0.271 OA
BRANCH  20  23
ATOM     23  C   UNL d   1      20.444 -19.435  -0.678  0.00  0.00     0.122 C 
BRANCH  23  24
ATOM     24  C   UNL d   1      19.985 -20.425   0.393  0.00  0.00     0.015 C 
ATOM     25  C   UNL d   1      19.627 -19.708   1.688  0.00  0.00     0.006 C 
ENDBRANCH  23  24
ENDBRANCH  20  23
ENDBRANCH  17  19
ENDBRANCH  14  17
ENDBRANCH   1  13
BRANCH   5  26
ATOM     26  C   UNL d   1      31.250 -15.630  -6.060  0.00  0.00     0.158 C 
BRANCH  26  27
ATOM     27  S   UNL d   1      31.128 -16.789  -7.484  0.00  0.00    -0.122 SA
BRANCH  27  28
ATOM     28  C   UNL d   1      31.031 -18.404  -6.727  0.00  0.00     0.007 C 
ATOM     29  C   UNL d   1      31.045 -18.432  -5.322  0.00  0.00     0.025 C 
ATOM     30  C   UNL d   1      31.128 -19.643  -4.624  0.00  0.00    -0.061 C 
ATOM     31  C   UNL d   1      31.156 -19.683  -3.127  0.00  0.00     0.048 C 
ATOM     32  C   UNL d   1      31.133 -20.835  -5.344  0.00  0.00     0.007 C 
ATOM     33  C   UNL d   1      30.859 -20.818  -6.705  0.00  0.00     0.009 C 
ATOM     34  C   UNL d   1      30.873 -19.614  -7.421  0.00  0.00    -0.045 C 
ATOM     35  C   UNL d   1      30.808 -19.708  -8.912  0.00  0.00     0.049 C 
ENDBRANCH  27  28
ENDBRANCH  26  27
ENDBRANCH   5  26
TORSDOF 8
ENDMDL
MODEL 3
REMARK VINA RESULT:    -8.513      2.877      5.164
REMARK INTER + INTRA:         -13.402
REMARK INTER:                 -10.899
REMARK INTRA:                  -2.503
REMARK CONF_INDEPENDENT:        2.386
REMARK UNBOUND:                -2.503
REMARK  8 active torsions:
REMARK  status: ('A' for Active; 'I' for Inactive)
REMARK    1  A    between atoms: C_2  and  C_3 
REMARK    2  A    between atoms: C_3  and  N_4 
REMARK       I    between atoms: N_4  and  C_5 
REMARK    3  A    between atoms: C_5  and  C_7 
REMARK    4  A    between atoms: C_7  and  N_9 
REMARK       I    between atoms: N_9  and  C_10 
REMARK    5  A    between atoms: C_10  and  C_12 
REMARK    6  A    between atoms: C_16  and  C_17 
REMARK    7  A    between atoms: C_17  and  S_18 
REMARK    8  A    between atoms: S_18  and  C_19 
ROOT
ATOM      1  C   UNL d   1      26.318 -15.827  -2.265  0.00  0.00     0.081 A 
ATOM      2  S   UNL d   1      25.611 -15.334  -3.746  0.00  0.00    -0.063 SA
ATOM      3  C   UNL d   1      27.124 -15.199  -4.496  0.00  0.00     0.116 A 
ATOM      4  N   UNL d   1      27.234 -14.748  -5.770  0.00  0.00    -0.226 NA
ATOM      5  C   UNL d   1      28.451 -14.701  -6.216  0.00  0.00     0.117 A 
ATOM      6  N   UNL d   1      29.547 -15.095  -5.492  0.00  0.00    -0.310 N 
ATOM      7  C   UNL d   1      29.493 -15.546  -4.208  0.00  0.00     0.260 A 
ATOM      8  O   UNL d   1      30.519 -15.864  -3.603  0.00  0.00    -0.267 OA
ATOM      9  C   UNL d   1      28.154 -15.588  -3.661  0.00  0.00     0.075 A 
ATOM     10  C   UNL d   1      27.697 -15.965  -2.352  0.00  0.00    -0.021 A 
ATOM     11  C   UNL d   1      28.573 -16.463  -1.251  0.00  0.00     0.051 C 
ATOM     12  H   UNL d   1      30.460 -15.052  -5.927  0.00  0.00     0.170 HD
ENDROOT
BRANCH   1  13
ATOM     13  C   UNL d   1      25.414 -16.078  -1.161  0.00  0.00     0.259 C 
ATOM     14  N   UNL d   1      24.435 -17.025  -1.393  0.00  0.00    -0.344 N 
ATOM     15  H   UNL d   1      24.377 -17.505  -2.286  0.00  0.00     0.163 HD
ATOM     16  O   UNL d   1      25.529 -15.525  -0.070  0.00  0.00    -0.267 OA
BRANCH  14  17
ATOM     17  C   UNL d   1      23.540 -17.484  -0.326  0.00  0.00     0.172 C 
ATOM     18  C   UNL d   1      24.325 -18.199   0.774  0.00  0.00     0.042 C 
BRANCH  17  19
ATOM     19  C   UNL d   1      22.457 -18.432  -0.909  0.00  0.00     0.240 C 
ATOM     20  N   UNL d   1      21.344 -18.653  -0.112  0.00  0.00    -0.359 N 
ATOM     21  H   UNL d   1      21.266 -18.202   0.791  0.00  0.00     0.162 HD
ATOM     22  O   UNL d   1      22.585 -18.951  -2.019  0.00  0.00    -0.271 OA
BRANCH  20  23
ATOM     23  C   UNL d   1      20.279 -19.543  -0.547  0.00  0.00     0.122 C 
BRANCH  23  24
ATOM     24  C   UNL d   1      19.163 -19.695   0.488  0.00  0.00     0.015 C 
ATOM     25  C   UNL d   1      18.760 -21.155   0.652  0.00  0.00     0.006 C 
ENDBRANCH  23  24
ENDBRANCH  20  23
ENDBRANCH  17  19
ENDBRANCH  14  17
ENDBRANCH   1  13
BRANCH   5  26
ATOM     26  C   UNL d   1      28.706 -14.252  -7.630  0.00  0.00     0.158 C 
BRANCH  26  27
ATOM     27  S   UNL d   1      29.153 -12.469  -7.716  0.00  0.00    -0.122 SA
BRANCH  27  28
ATOM     28  C   UNL d   1      27.865 -11.650  -6.790  0.00  0.00     0.007 C 
ATOM     29  C   UNL d   1      27.954 -11.739  -5.390  0.00  0.00     0.025 C 
ATOM     30  C   UNL d   1      26.923 -11.268  -4.569  0.00  0.00    -0.061 C 
ATOM     31  C   UNL d   1      27.003 -11.371  -3.076  0.00  0.00     0.048 C 
ATOM     32  C   UNL d   1      25.825 -10.646  -5.157  0.00  0.00     0.007 C 
ATOM     33  C   UNL d   1      25.857 -10.328  -6.508  0.00  0.00     0.009 C 
ATOM     34  C   UNL d   1      26.833 -10.879  -7.348  0.00  0.00    -0.045 C 
ATOM     35  C   UNL d   1      26.656 -10.680  -8.819  0.00  0.00     0.049 C 
ENDBRANCH  27  28
ENDBRANCH  26  27
ENDBRANCH   5  26
TORSDOF 8
ENDMDL
MODEL 4
REMARK VINA RESULT:    -8.411      3.272      4.546
REMARK INTER + INTRA:         -13.199
REMARK INTER:                 -10.797
REMARK INTRA:                  -2.402
REMARK CONF_INDEPENDENT:        2.386
REMARK UNBOUND:                -2.402
REMARK  8 active torsions:
REMARK  status: ('A' for Active; 'I' for Inactive)
REMARK    1  A    between atoms: C_2  and  C_3 
REMARK    2  A    between atoms: C_3  and  N_4 
REMARK       I    between atoms: N_4  and  C_5 
REMARK    3  A    between atoms: C_5  and  C_7 
REMARK    4  A    between atoms: C_7  and  N_9 
REMARK       I    between atoms: N_9  and  C_10 
REMARK    5  A    between atoms: C_10  and  C_12 
REMARK    6  A    between atoms: C_16  and  C_17 
REMARK    7  A    between atoms: C_17  and  S_18 
REMARK    8  A    between atoms: S_18  and  C_19 
ROOT
ATOM      1  C   UNL d   1      25.278 -15.751  -0.921  0.00  0.00     0.081 A 
ATOM      2  S   UNL d   1      24.539 -15.342  -2.413  0.00  0.00    -0.063 SA
ATOM      3  C   UNL d   1      25.426 -13.902  -2.528  0.00  0.00     0.116 A 
ATOM      4  N   UNL d   1      25.221 -13.036  -3.550  0.00  0.00    -0.226 NA
ATOM      5  C   UNL d   1      25.972 -11.980  -3.514  0.00  0.00     0.117 A 
ATOM      6  N   UNL d   1      26.922 -11.750  -2.552  0.00  0.00    -0.310 N 
ATOM      7  C   UNL d   1      27.162 -12.582  -1.500  0.00  0.00     0.260 A 
ATOM      8  O   UNL d   1      28.016 -12.306  -0.655  0.00  0.00    -0.267 OA
ATOM      9  C   UNL d   1      26.324 -13.761  -1.488  0.00  0.00     0.075 A 
ATOM     10  C   UNL d   1      26.253 -14.839  -0.540  0.00  0.00    -0.021 A 
ATOM     11  C   UNL d   1      27.124 -14.978   0.664  0.00  0.00     0.051 C 
ATOM     12  H   UNL d   1      27.486 -10.911  -2.614  0.00  0.00     0.170 HD
ENDROOT
BRANCH   1  13
ATOM     13  C   UNL d   1      24.841 -16.982  -0.292  0.00  0.00     0.259 C 
ATOM     14  N   UNL d   1      23.486 -17.240  -0.362  0.00  0.00    -0.344 N 
ATOM     15  H   UNL d   1      22.857 -16.597  -0.833  0.00  0.00     0.163 HD
ATOM     16  O   UNL d   1      25.622 -17.773   0.231  0.00  0.00    -0.267 OA
BRANCH  14  17
ATOM     17  C   UNL d   1      22.920 -18.511   0.104  0.00  0.00     0.172 C 
ATOM     18  C   UNL d   1      23.655 -19.696  -0.521  0.00  0.00     0.042 C 
BRANCH  17  19
ATOM     19  C   UNL d   1      21.408 -18.580  -0.242  0.00  0.00     0.240 C 
ATOM     20  N   UNL d   1      20.715 -19.673   0.255  0.00  0.00    -0.359 N 
ATOM     21  H   UNL d   1      21.194 -20.367   0.816  0.00  0.00     0.162 HD
ATOM     22  O   UNL d   1      20.861 -17.707  -0.918  0.00  0.00    -0.271 OA
BRANCH  20  23
ATOM     23  C   UNL d   1      19.300 -19.854  -0.028  0.00  0.00     0.122 C 
BRANCH  23  24
ATOM     24  C   UNL d   1      18.494 -20.293   1.195  0.00  0.00     0.015 C 
ATOM     25  C   UNL d   1      17.871 -21.666   0.980  0.00  0.00     0.006 C 
ENDBRANCH  23  24
ENDBRANCH  20  23
ENDBRANCH  17  19
ENDBRANCH  14  17
ENDBRANCH   1  13
BRANCH   5  26
ATOM     26  C   UNL d   1      25.867 -10.956  -4.612  0.00  0.00     0.158 C 
BRANCH  26  27
ATOM     27  S   UNL d   1      27.506 -10.576  -5.357  0.00  0.00    -0.122 SA
BRANCH  27  28
ATOM     28  C   UNL d   1      28.090 -12.154  -5.957  0.00  0.00     0.007 C 
ATOM     29  C   UNL d   1      28.310 -13.145  -4.983  0.00  0.00     0.025 C 
ATOM     30  C   UNL d   1      28.910 -14.365  -5.317  0.00  0.00    -0.061 C 
ATOM     31  C   UNL d   1      29.160 -15.422  -4.285  0.00  0.00     0.048 C 
ATOM     32  C   UNL d   1      29.232 -14.614  -6.649  0.00  0.00     0.007 C 
ATOM     33  C   UNL d   1      28.782 -13.751  -7.639  0.00  0.00     0.009 C 
ATOM     34  C   UNL d   1      28.272 -12.489  -7.308  0.00  0.00    -0.045 C 
ATOM     35  C   UNL d   1      28.036 -11.534  -8.433  0.00  0.00     0.049 C 
ENDBRANCH  27  28
ENDBRANCH  26  27
ENDBRANCH   5  26
TORSDOF 8
ENDMDL
MODEL 5
REMARK VINA RESULT:    -8.138      4.832      7.072
REMARK INTER + INTRA:         -12.776
REMARK INTER:                 -10.525
REMARK INTRA:                  -2.251
REMARK CONF_INDEPENDENT:        2.386
REMARK UNBOUND:                -2.251
REMARK  8 active torsions:
REMARK  status: ('A' for Active; 'I' for Inactive)
REMARK    1  A    between atoms: C_2  and  C_3 
REMARK    2  A    between atoms: C_3  and  N_4 
REMARK       I    between atoms: N_4  and  C_5 
REMARK    3  A    between atoms: C_5  and  C_7 
REMARK    4  A    between atoms: C_7  and  N_9 
REMARK       I    between atoms: N_9  and  C_10 
REMARK    5  A    between atoms: C_10  and  C_12 
REMARK    6  A    between atoms: C_16  and  C_17 
REMARK    7  A    between atoms: C_17  and  S_18 
REMARK    8  A    between atoms: S_18  and  C_19 
ROOT
ATOM      1  C   UNL d   1      25.463 -15.111  -1.504  0.00  0.00     0.081 A 
ATOM      2  S   UNL d   1      24.907 -15.166  -3.124  0.00  0.00    -0.063 SA
ATOM      3  C   UNL d   1      25.650 -13.689  -3.495  0.00  0.00     0.116 A 
ATOM      4  N   UNL d   1      25.505 -13.122  -4.718  0.00  0.00    -0.226 NA
ATOM      5  C   UNL d   1      26.132 -11.996  -4.862  0.00  0.00     0.117 A 
ATOM      6  N   UNL d   1      26.905 -11.421  -3.886  0.00  0.00    -0.310 N 
ATOM      7  C   UNL d   1      27.076 -11.943  -2.639  0.00  0.00     0.260 A 
ATOM      8  O   UNL d   1      27.768 -11.365  -1.799  0.00  0.00    -0.267 OA
ATOM      9  C   UNL d   1      26.370 -13.188  -2.428  0.00  0.00     0.075 A 
ATOM     10  C   UNL d   1      26.275 -14.013  -1.255  0.00  0.00    -0.021 A 
ATOM     11  C   UNL d   1      26.974 -13.747   0.037  0.00  0.00     0.051 C 
ATOM     12  H   UNL d   1      27.384 -10.553  -4.091  0.00  0.00     0.170 HD
ENDROOT
BRANCH   1  13
ATOM     13  C   UNL d   1      25.068 -16.207  -0.641  0.00  0.00     0.259 C 
ATOM     14  N   UNL d   1      23.754 -16.614  -0.755  0.00  0.00    -0.344 N 
ATOM     15  H   UNL d   1      23.124 -16.163  -1.412  0.00  0.00     0.163 HD
ATOM     16  O   UNL d   1      25.855 -16.774   0.112  0.00  0.00    -0.267 OA
BRANCH  14  17
ATOM     17  C   UNL d   1      23.251 -17.799  -0.051  0.00  0.00     0.172 C 
ATOM     18  C   UNL d   1      24.158 -19.004  -0.297  0.00  0.00     0.042 C 
BRANCH  17  19
ATOM     19  C   UNL d   1      21.803 -18.119  -0.513  0.00  0.00     0.240 C 
ATOM     20  N   UNL d   1      21.250 -19.292  -0.022  0.00  0.00    -0.359 N 
ATOM     21  H   UNL d   1      21.782 -19.882   0.606  0.00  0.00     0.162 HD
ATOM     22  O   UNL d   1      21.187 -17.367  -1.269  0.00  0.00    -0.271 OA
BRANCH  20  23
ATOM     23  C   UNL d   1      19.910 -19.706  -0.408  0.00  0.00     0.122 C 
BRANCH  23  24
ATOM     24  C   UNL d   1      19.297 -20.727   0.550  0.00  0.00     0.015 C 
ATOM     25  C   UNL d   1      19.230 -20.180   1.970  0.00  0.00     0.006 C 
ENDBRANCH  23  24
ENDBRANCH  20  23
ENDBRANCH  17  19
ENDBRANCH  14  17
ENDBRANCH   1  13
BRANCH   5  26
ATOM     26  C   UNL d   1      26.081 -11.282  -6.186  0.00  0.00     0.158 C 
BRANCH  26  27
ATOM     27  S   UNL d   1      27.076  -9.734  -6.171  0.00  0.00    -0.122 SA
BRANCH  27  28
ATOM     28  C   UNL d   1      26.044  -8.559  -5.308  0.00  0.00     0.007 C 
ATOM     29  C   UNL d   1      24.797  -8.278  -5.897  0.00  0.00     0.025 C 
ATOM     30  C   UNL d   1      23.974  -7.264  -5.394  0.00  0.00    -0.061 C 
ATOM     31  C   UNL d   1      22.650  -6.949  -6.022  0.00  0.00     0.048 C 
ATOM     32  C   UNL d   1      24.377  -6.572  -4.254  0.00  0.00     0.007 C 
ATOM     33  C   UNL d   1      25.472  -7.021  -3.529  0.00  0.00     0.009 C 
ATOM     34  C   UNL d   1      26.352  -7.964  -4.074  0.00  0.00    -0.045 C 
ATOM     35  C   UNL d   1      27.627  -8.213  -3.335  0.00  0.00     0.049 C 
ENDBRANCH  27  28
ENDBRANCH  26  27
ENDBRANCH   5  26
TORSDOF 8
ENDMDL
MODEL 6
REMARK VINA RESULT:    -7.863      7.055      9.723
REMARK INTER + INTRA:         -12.945
REMARK INTER:                 -10.249
REMARK INTRA:                  -2.696
REMARK CONF_INDEPENDENT:        2.386
REMARK UNBOUND:                -2.696
REMARK  8 active torsions:
REMARK  status: ('A' for Active; 'I' for Inactive)
REMARK    1  A    between atoms: C_2  and  C_3 
REMARK    2  A    between atoms: C_3  and  N_4 
REMARK       I    between atoms: N_4  and  C_5 
REMARK    3  A    between atoms: C_5  and  C_7 
REMARK    4  A    between atoms: C_7  and  N_9 
REMARK       I    between atoms: N_9  and  C_10 
REMARK    5  A    between atoms: C_10  and  C_12 
REMARK    6  A    between atoms: C_16  and  C_17 
REMARK    7  A    between atoms: C_17  and  S_18 
REMARK    8  A    between atoms: S_18  and  C_19 
ROOT
ATOM      1  C   UNL d   1      28.576 -13.988   4.338  0.00  0.00     0.081 A 
ATOM      2  S   UNL d   1      27.011 -13.700   3.703  0.00  0.00    -0.063 SA
ATOM      3  C   UNL d   1      27.562 -13.849   2.108  0.00  0.00     0.116 A 
ATOM      4  N   UNL d   1      26.727 -13.646   1.059  0.00  0.00    -0.226 NA
ATOM      5  C   UNL d   1      27.283 -13.798  -0.103  0.00  0.00     0.117 A 
ATOM      6  N   UNL d   1      28.592 -14.162  -0.282  0.00  0.00    -0.310 N 
ATOM      7  C   UNL d   1      29.475 -14.370   0.735  0.00  0.00     0.260 A 
ATOM      8  O   UNL d   1      30.647 -14.674   0.506  0.00  0.00    -0.267 OA
ATOM      9  C   UNL d   1      28.901 -14.183   2.050  0.00  0.00     0.075 A 
ATOM     10  C   UNL d   1      29.509 -14.274   3.349  0.00  0.00    -0.021 A 
ATOM     11  C   UNL d   1      30.930 -14.651   3.604  0.00  0.00     0.051 C 
ATOM     12  H   UNL d   1      28.939 -14.287  -1.225  0.00  0.00     0.170 HD
ENDROOT
BRANCH   1  13
ATOM     13  C   UNL d   1      28.714 -13.949   5.780  0.00  0.00     0.259 C 
ATOM     14  N   UNL d   1      28.981 -12.707   6.321  0.00  0.00    -0.344 N 
ATOM     15  H   UNL d   1      29.065 -11.888   5.727  0.00  0.00     0.163 HD
ATOM     16  O   UNL d   1      28.559 -14.941   6.488  0.00  0.00    -0.267 OA
BRANCH  14  17
ATOM     17  C   UNL d   1      29.005 -12.489   7.772  0.00  0.00     0.172 C 
ATOM     18  C   UNL d   1      28.906 -10.999   8.100  0.00  0.00     0.042 C 
BRANCH  17  19
ATOM     19  C   UNL d   1      30.306 -13.081   8.379  0.00  0.00     0.240 C 
ATOM     20  N   UNL d   1      30.300 -14.445   8.626  0.00  0.00    -0.359 N 
ATOM     21  H   UNL d   1      29.481 -14.999   8.405  0.00  0.00     0.162 HD
ATOM     22  O   UNL d   1      31.285 -12.373   8.620  0.00  0.00    -0.271 OA
BRANCH  20  23
ATOM     23  C   UNL d   1      31.454 -15.104   9.216  0.00  0.00     0.122 C 
BRANCH  23  24
ATOM     24  C   UNL d   1      31.115 -15.897  10.479  0.00  0.00     0.015 C 
ATOM     25  C   UNL d   1      30.031 -15.200  11.292  0.00  0.00     0.006 C 
ENDBRANCH  23  24
ENDBRANCH  20  23
ENDBRANCH  17  19
ENDBRANCH  14  17
ENDBRANCH   1  13
BRANCH   5  26
ATOM     26  C   UNL d   1      26.455 -13.635  -1.349  0.00  0.00     0.158 C 
BRANCH  26  27
ATOM     27  S   UNL d   1      26.481 -15.149  -2.395  0.00  0.00    -0.122 SA
BRANCH  27  28
ATOM     28  C   UNL d   1      25.816 -16.424  -1.336  0.00  0.00     0.007 C 
ATOM     29  C   UNL d   1      24.424 -16.614  -1.392  0.00  0.00     0.025 C 
ATOM     30  C   UNL d   1      23.776 -17.476  -0.499  0.00  0.00    -0.061 C 
ATOM     31  C   UNL d   1      22.291 -17.675  -0.543  0.00  0.00     0.048 C 
ATOM     32  C   UNL d   1      24.540 -18.199   0.413  0.00  0.00     0.007 C 
ATOM     33  C   UNL d   1      25.924 -18.209   0.296  0.00  0.00     0.009 C 
ATOM     34  C   UNL d   1      26.577 -17.280  -0.524  0.00  0.00    -0.045 C 
ATOM     35  C   UNL d   1      28.066 -17.200  -0.409  0.00  0.00     0.049 C 
ENDBRANCH  27  28
ENDBRANCH  26  27
ENDBRANCH   5  26
TORSDOF 8
ENDMDL
MODEL 7
REMARK VINA RESULT:    -7.811      1.455      2.499
REMARK INTER + INTRA:         -12.632
REMARK INTER:                 -10.197
REMARK INTRA:                  -2.435
REMARK CONF_INDEPENDENT:        2.386
REMARK UNBOUND:                -2.435
REMARK  8 active torsions:
REMARK  status: ('A' for Active; 'I' for Inactive)
REMARK    1  A    between atoms: C_2  and  C_3 
REMARK    2  A    between atoms: C_3  and  N_4 
REMARK       I    between atoms: N_4  and  C_5 
REMARK    3  A    between atoms: C_5  and  C_7 
REMARK    4  A    between atoms: C_7  and  N_9 
REMARK       I    between atoms: N_9  and  C_10 
REMARK    5  A    between atoms: C_10  and  C_12 
REMARK    6  A    between atoms: C_16  and  C_17 
REMARK    7  A    between atoms: C_17  and  S_18 
REMARK    8  A    between atoms: S_18  and  C_19 
ROOT
ATOM      1  C   UNL d   1      27.197 -15.404  -3.447  0.00  0.00     0.081 A 
ATOM      2  S   UNL d   1      28.640 -16.325  -3.532  0.00  0.00    -0.063 SA
ATOM      3  C   UNL d   1      29.074 -15.624  -5.013  0.00  0.00     0.116 A 
ATOM      4  N   UNL d   1      30.186 -16.026  -5.676  0.00  0.00    -0.226 NA
ATOM      5  C   UNL d   1      30.397 -15.401  -6.792  0.00  0.00     0.117 A 
ATOM      6  N   UNL d   1      29.595 -14.395  -7.268  0.00  0.00    -0.310 N 
ATOM      7  C   UNL d   1      28.463 -13.960  -6.647  0.00  0.00     0.260 A 
ATOM      8  O   UNL d   1      27.773 -13.066  -7.140  0.00  0.00    -0.267 OA
ATOM      9  C   UNL d   1      28.176 -14.652  -5.410  0.00  0.00     0.075 A 
ATOM     10  C   UNL d   1      27.073 -14.507  -4.500  0.00  0.00    -0.021 A 
ATOM     11  C   UNL d   1      25.969 -13.514  -4.646  0.00  0.00     0.051 C 
ATOM     12  H   UNL d   1      29.848 -13.939  -8.136  0.00  0.00     0.170 HD
ENDROOT
BRANCH   1  13
ATOM     13  C   UNL d   1      26.342 -15.634  -2.299  0.00  0.00     0.259 C 
ATOM     14  N   UNL d   1      26.773 -16.607  -1.419  0.00  0.00    -0.344 N 
ATOM     15  H   UNL d   1      27.639 -17.111  -1.583  0.00  0.00     0.163 HD
ATOM     16  O   UNL d   1      25.323 -14.981  -2.090  0.00  0.00    -0.267 OA
BRANCH  14  17
ATOM     17  C   UNL d   1      26.088 -16.850  -0.145  0.00  0.00     0.172 C 
ATOM     18  C   UNL d   1      27.032 -17.499   0.866  0.00  0.00     0.042 C 
BRANCH  17  19
ATOM     19  C   UNL d   1      24.846 -17.756  -0.371  0.00  0.00     0.240 C 
ATOM     20  N   UNL d   1      23.739 -17.145  -0.940  0.00  0.00    -0.359 N 
ATOM     21  H   UNL d   1      23.771 -16.165  -1.192  0.00  0.00     0.162 HD
ATOM     22  O   UNL d   1      24.854 -18.948  -0.062  0.00  0.00    -0.271 OA
BRANCH  20  23
ATOM     23  C   UNL d   1      22.512 -17.890  -1.175  0.00  0.00     0.122 C 
BRANCH  23  24
ATOM     24  C   UNL d   1      21.974 -18.574   0.082  0.00  0.00     0.015 C 
ATOM     25  C   UNL d   1      20.687 -19.333  -0.212  0.00  0.00     0.006 C 
ENDBRANCH  23  24
ENDBRANCH  20  23
ENDBRANCH  17  19
ENDBRANCH  14  17
ENDBRANCH   1  13
BRANCH   5  26
ATOM     26  C   UNL d   1      31.619 -15.728  -7.607  0.00  0.00     0.158 C 
BRANCH  26  27
ATOM     27  S   UNL d   1      32.821 -16.753  -6.663  0.00  0.00    -0.122 SA
BRANCH  27  28
ATOM     28  C   UNL d   1      31.886 -18.200  -6.191  0.00  0.00     0.007 C 
ATOM     29  C   UNL d   1      31.810 -18.467  -4.813  0.00  0.00     0.025 C 
ATOM     30  C   UNL d   1      31.236 -19.652  -4.337  0.00  0.00    -0.061 C 
ATOM     31  C   UNL d   1      31.162 -19.951  -2.871  0.00  0.00     0.048 C 
ATOM     32  C   UNL d   1      30.678 -20.543  -5.250  0.00  0.00     0.007 C 
ATOM     33  C   UNL d   1      30.522 -20.161  -6.576  0.00  0.00     0.009 C 
ATOM     34  C   UNL d   1      31.177 -19.029  -7.075  0.00  0.00    -0.045 C 
ATOM     35  C   UNL d   1      31.152 -18.825  -8.556  0.00  0.00     0.049 C 
ENDBRANCH  27  28
ENDBRANCH  26  27
ENDBRANCH   5  26
TORSDOF 8
ENDMDL
MODEL 8
REMARK VINA RESULT:    -7.688      1.525      1.961
REMARK INTER + INTRA:         -12.546
REMARK INTER:                 -10.074
REMARK INTRA:                  -2.472
REMARK CONF_INDEPENDENT:        2.386
REMARK UNBOUND:                -2.472
REMARK  8 active torsions:
REMARK  status: ('A' for Active; 'I' for Inactive)
REMARK    1  A    between atoms: C_2  and  C_3 
REMARK    2  A    between atoms: C_3  and  N_4 
REMARK       I    between atoms: N_4  and  C_5 
REMARK    3  A    between atoms: C_5  and  C_7 
REMARK    4  A    between atoms: C_7  and  N_9 
REMARK       I    between atoms: N_9  and  C_10 
REMARK    5  A    between atoms: C_10  and  C_12 
REMARK    6  A    between atoms: C_16  and  C_17 
REMARK    7  A    between atoms: C_17  and  S_18 
REMARK    8  A    between atoms: S_18  and  C_19 
ROOT
ATOM      1  C   UNL d   1      26.143 -15.365  -1.955  0.00  0.00     0.081 A 
ATOM      2  S   UNL d   1      25.862 -15.951  -3.541  0.00  0.00    -0.063 SA
ATOM      3  C   UNL d   1      27.177 -15.081  -4.162  0.00  0.00     0.116 A 
ATOM      4  N   UNL d   1      27.455 -15.090  -5.489  0.00  0.00    -0.226 NA
ATOM      5  C   UNL d   1      28.491 -14.384  -5.821  0.00  0.00     0.117 A 
ATOM      6  N   UNL d   1      29.273 -13.703  -4.924  0.00  0.00    -0.310 N 
ATOM      7  C   UNL d   1      29.033 -13.655  -3.583  0.00  0.00     0.260 A 
ATOM      8  O   UNL d   1      29.762 -13.005  -2.831  0.00  0.00    -0.267 OA
ATOM      9  C   UNL d   1      27.867 -14.408  -3.173  0.00  0.00     0.075 A 
ATOM     10  C   UNL d   1      27.277 -14.569  -1.873  0.00  0.00    -0.021 A 
ATOM     11  C   UNL d   1      27.820 -13.990  -0.609  0.00  0.00     0.051 C 
ATOM     12  H   UNL d   1      30.081 -13.199  -5.265  0.00  0.00     0.170 HD
ENDROOT
BRANCH   1  13
ATOM     13  C   UNL d   1      25.221 -15.801  -0.925  0.00  0.00     0.259 C 
ATOM     14  N   UNL d   1      24.444 -16.898  -1.244  0.00  0.00    -0.344 N 
ATOM     15  H   UNL d   1      24.535 -17.356  -2.145  0.00  0.00     0.163 HD
ATOM     16  O   UNL d   1      25.159 -15.267   0.179  0.00  0.00    -0.267 OA
BRANCH  14  17
ATOM     17  C   UNL d   1      23.571 -17.536  -0.253  0.00  0.00     0.172 C 
ATOM     18  C   UNL d   1      24.385 -18.379   0.728  0.00  0.00     0.042 C 
BRANCH  17  19
ATOM     19  C   UNL d   1      22.514 -18.423  -0.966  0.00  0.00     0.240 C 
ATOM     20  N   UNL d   1      21.305 -18.584  -0.307  0.00  0.00    -0.359 N 
ATOM     21  H   UNL d   1      21.146 -18.130   0.584  0.00  0.00     0.162 HD
ATOM     22  O   UNL d   1      22.743 -18.947  -2.058  0.00  0.00    -0.271 OA
BRANCH  20  23
ATOM     23  C   UNL d   1      20.251 -19.414  -0.870  0.00  0.00     0.122 C 
BRANCH  23  24
ATOM     24  C   UNL d   1      19.323 -20.008   0.190  0.00  0.00     0.015 C 
ATOM     25  C   UNL d   1      19.911 -19.854   1.587  0.00  0.00     0.006 C 
ENDBRANCH  23  24
ENDBRANCH  20  23
ENDBRANCH  17  19
ENDBRANCH  14  17
ENDBRANCH   1  13
BRANCH   5  26
ATOM     26  C   UNL d   1      28.928 -14.339  -7.261  0.00  0.00     0.158 C 
BRANCH  26  27
ATOM     27  S   UNL d   1      30.727 -14.680  -7.445  0.00  0.00    -0.122 SA
BRANCH  27  28
ATOM     28  C   UNL d   1      31.004 -16.124  -6.431  0.00  0.00     0.007 C 
ATOM     29  C   UNL d   1      30.696 -17.364  -7.020  0.00  0.00     0.025 C 
ATOM     30  C   UNL d   1      30.728 -18.546  -6.271  0.00  0.00    -0.061 C 
ATOM     31  C   UNL d   1      30.389 -19.870  -6.885  0.00  0.00     0.048 C 
ATOM     32  C   UNL d   1      31.135 -18.490  -4.940  0.00  0.00     0.007 C 
ATOM     33  C   UNL d   1      31.684 -17.317  -4.438  0.00  0.00     0.009 C 
ATOM     34  C   UNL d   1      31.565 -16.114  -5.144  0.00  0.00    -0.045 C 
ATOM     35  C   UNL d   1      31.966 -14.863  -4.430  0.00  0.00     0.049 C 
ENDBRANCH  27  28
ENDBRANCH  26  27
ENDBRANCH   5  26
TORSDOF 8
ENDMDL
MODEL 9
REMARK VINA RESULT:    -7.444      6.758      9.646
REMARK INTER + INTRA:         -12.458
REMARK INTER:                  -9.831
REMARK INTRA:                  -2.628
REMARK CONF_INDEPENDENT:        2.386
REMARK UNBOUND:                -2.628
REMARK  8 active torsions:
REMARK  status: ('A' for Active; 'I' for Inactive)
REMARK    1  A    between atoms: C_2  and  C_3 
REMARK    2  A    between atoms: C_3  and  N_4 
REMARK       I    between atoms: N_4  and  C_5 
REMARK    3  A    between atoms: C_5  and  C_7 
REMARK    4  A    between atoms: C_7  and  N_9 
REMARK       I    between atoms: N_9  and  C_10 
REMARK    5  A    between atoms: C_10  and  C_12 
REMARK    6  A    between atoms: C_16  and  C_17 
REMARK    7  A    between atoms: C_17  and  S_18 
REMARK    8  A    between atoms: S_18  and  C_19 
ROOT
ATOM      1  C   UNL d   1      28.642 -13.751   4.108  0.00  0.00     0.081 A 
ATOM      2  S   UNL d   1      27.035 -13.700   3.515  0.00  0.00    -0.063 SA
ATOM      3  C   UNL d   1      27.558 -13.832   1.908  0.00  0.00     0.116 A 
ATOM      4  N   UNL d   1      26.675 -13.781   0.881  0.00  0.00    -0.226 NA
ATOM      5  C   UNL d   1      27.215 -13.899  -0.293  0.00  0.00     0.117 A 
ATOM      6  N   UNL d   1      28.556 -14.090  -0.502  0.00  0.00    -0.310 N 
ATOM      7  C   UNL d   1      29.486 -14.140   0.493  0.00  0.00     0.260 A 
ATOM      8  O   UNL d   1      30.682 -14.291   0.237  0.00  0.00    -0.267 OA
ATOM      9  C   UNL d   1      28.928 -13.984   1.819  0.00  0.00     0.075 A 
ATOM     10  C   UNL d   1      29.577 -13.944   3.101  0.00  0.00    -0.021 A 
ATOM     11  C   UNL d   1      31.043 -14.117   3.322  0.00  0.00     0.051 C 
ATOM     12  H   UNL d   1      28.892 -14.201  -1.450  0.00  0.00     0.170 HD
ENDROOT
BRANCH   1  13
ATOM     13  C   UNL d   1      28.812 -13.641   5.543  0.00  0.00     0.259 C 
ATOM     14  N   UNL d   1      30.037 -14.049   6.034  0.00  0.00    -0.344 N 
ATOM     15  H   UNL d   1      30.758 -14.394   5.409  0.00  0.00     0.163 HD
ATOM     16  O   UNL d   1      27.946 -13.174   6.279  0.00  0.00    -0.267 OA
BRANCH  14  17
ATOM     17  C   UNL d   1      30.403 -13.863   7.442  0.00  0.00     0.172 C 
ATOM     18  C   UNL d   1      29.319 -14.421   8.364  0.00  0.00     0.042 C 
BRANCH  17  19
ATOM     19  C   UNL d   1      30.631 -12.356   7.740  0.00  0.00     0.240 C 
ATOM     20  N   UNL d   1      29.510 -11.543   7.672  0.00  0.00    -0.359 N 
ATOM     21  H   UNL d   1      28.606 -11.939   7.448  0.00  0.00     0.162 HD
ATOM     22  O   UNL d   1      31.747 -11.917   8.023  0.00  0.00    -0.271 OA
BRANCH  20  23
ATOM     23  C   UNL d   1      29.610 -10.111   7.908  0.00  0.00     0.122 C 
BRANCH  23  24
ATOM     24  C   UNL d   1      29.273  -9.273   6.674  0.00  0.00     0.015 C 
ATOM     25  C   UNL d   1      29.511 -10.061   5.392  0.00  0.00     0.006 C 
ENDBRANCH  23  24
ENDBRANCH  20  23
ENDBRANCH  17  19
ENDBRANCH  14  17
ENDBRANCH   1  13
BRANCH   5  26
ATOM     26  C   UNL d   1      26.339 -13.895  -1.516  0.00  0.00     0.158 C 
BRANCH  26  27
ATOM     27  S   UNL d   1      26.401 -15.502  -2.412  0.00  0.00    -0.122 SA
BRANCH  27  28
ATOM     28  C   UNL d   1      25.641 -16.660  -1.285  0.00  0.00     0.007 C 
ATOM     29  C   UNL d   1      24.280 -16.939  -1.505  0.00  0.00     0.025 C 
ATOM     30  C   UNL d   1      23.545 -17.710  -0.597  0.00  0.00    -0.061 C 
ATOM     31  C   UNL d   1      22.092 -18.002  -0.816  0.00  0.00     0.048 C 
ATOM     32  C   UNL d   1      24.198 -18.257   0.505  0.00  0.00     0.007 C 
ATOM     33  C   UNL d   1      25.583 -18.199   0.582  0.00  0.00     0.009 C 
ATOM     34  C   UNL d   1      26.310 -17.352  -0.263  0.00  0.00    -0.045 C 
ATOM     35  C   UNL d   1      27.762 -17.168   0.043  0.00  0.00     0.049 C 
ENDBRANCH  27  28
ENDBRANCH  26  27
ENDBRANCH   5  26
TORSDOF 8
ENDMDL
