MODEL 1
REMARK VINA RESULT:    -8.074      0.000      0.000
REMARK INTER + INTRA:         -12.044
REMARK INTER:                  -9.864
REMARK INTRA:                  -2.180
REMARK CONF_INDEPENDENT:        1.790
REMARK UNBOUND:                -2.180
REMARK  6 active torsions:
REMARK  status: ('A' for Active; 'I' for Inactive)
REMARK    1  A    between atoms: C_5  and  N_6 
REMARK       I    between atoms: N_6  and  C_7 
REMARK    2  A    between atoms: C_7  and  C_9 
REMARK       I    between atoms: C_9  and  N_11 
REMARK    3  A    between atoms: N_11  and  C_12 
REMARK    4  A    between atoms: C_12  and  C_13 
REMARK    5  A    between atoms: C_20  and  C_21 
REMARK       I    between atoms: C_21  and  N_23 
REMARK    6  A    between atoms: N_23  and  C_24 
ROOT
ATOM      1  N   UNL d   1      24.829 -17.524  -0.949  0.00  0.00    -0.319 N 
ATOM      2  C   UNL d   1      23.467 -17.303  -0.759  0.00  0.00     0.313 C 
ATOM      3  O   UNL d   1      22.901 -16.237  -0.534  0.00  0.00    -0.262 OA
ATOM      4  H   UNL d   1      25.098 -18.488  -1.130  0.00  0.00     0.169 HD
ENDROOT
BRANCH   1   5
ATOM      5  C   UNL d   1      25.850 -16.526  -0.926  0.00  0.00     0.036 A 
ATOM      6  C   UNL d   1      26.561 -16.231  -2.092  0.00  0.00     0.030 A 
ATOM      7  C   UNL d   1      27.557 -15.238  -2.087  0.00  0.00     0.010 A 
ATOM      8  C   UNL d   1      27.871 -14.507  -0.926  0.00  0.00    -0.046 A 
ATOM      9  C   UNL d   1      28.938 -13.461  -1.035  0.00  0.00     0.049 C 
ATOM     10  C   UNL d   1      27.170 -14.787   0.261  0.00  0.00     0.040 A 
ATOM     11  C   UNL d   1      26.181 -15.802   0.230  0.00  0.00     0.047 A 
BRANCH  10  12
ATOM     12  C   UNL d   1      27.345 -14.096   1.602  0.00  0.00     0.252 C 
ATOM     13  O   UNL d   1      26.596 -13.171   1.905  0.00  0.00    -0.268 OA
ATOM     14  N   UNL d   1      28.335 -14.520   2.465  0.00  0.00    -0.353 N 
ATOM     15  H   UNL d   1      28.960 -15.255   2.230  0.00  0.00     0.163 HD
BRANCH  14  16
ATOM     16  C   UNL d   1      28.575 -13.988   3.792  0.00  0.00     0.076 C 
ATOM     17  C   UNL d   1      27.410 -14.324   4.711  0.00  0.00     0.032 C 
ATOM     18  C   UNL d   1      29.864 -14.601   4.362  0.00  0.00     0.032 C 
ENDBRANCH  14  16
ENDBRANCH  10  12
ENDBRANCH   1   5
BRANCH   2  19
ATOM     19  C   UNL d   1      22.539 -18.557  -0.839  0.00  0.00     0.309 C 
ATOM     20  O   UNL d   1      22.996 -19.691  -0.862  0.00  0.00    -0.262 OA
ATOM     21  N   UNL d   1      21.211 -18.205  -0.876  0.00  0.00    -0.348 N 
ATOM     22  H   UNL d   1      21.092 -17.205  -0.846  0.00  0.00     0.163 HD
BRANCH  21  23
ATOM     23  C   UNL d   1      20.057 -19.081  -0.948  0.00  0.00     0.169 C 
BRANCH  23  24
ATOM     24  C   UNL d   1      19.687 -19.725   0.387  0.00  0.00     0.006 A 
ATOM     25  S   UNL d   1      20.653 -19.321   1.772  0.00  0.00    -0.104 SA
ATOM     26  C   UNL d   1      19.745 -20.324   2.816  0.00  0.00     0.051 A 
ATOM     27  C   UNL d   1      18.726 -20.953   2.147  0.00  0.00     0.015 A 
ATOM     28  C   UNL d   1      18.681 -20.618   0.753  0.00  0.00    -0.047 A 
ATOM     29  C   UNL d   1      17.647 -21.198  -0.145  0.00  0.00     0.049 C 
ENDBRANCH  23  24
ENDBRANCH  21  23
ENDBRANCH   2  19
TORSDOF 6
ENDMDL
MODEL 2
REMARK VINA RESULT:    -7.491      2.514      4.426
REMARK INTER + INTRA:         -11.255
REMARK INTER:                  -9.281
REMARK INTRA:                  -1.974
REMARK CONF_INDEPENDENT:        1.790
REMARK UNBOUND:                -1.974
REMARK  6 active torsions:
REMARK  status: ('A' for Active; 'I' for Inactive)
REMARK    1  A    between atoms: C_5  and  N_6 
REMARK       I    between atoms: N_6  and  C_7 
REMARK    2  A    between atoms: C_7  and  C_9 
REMARK       I    between atoms: C_9  and  N_11 
REMARK    3  A    between atoms: N_11  and  C_12 
REMARK    4  A    between atoms: C_12  and  C_13 
REMARK    5  A    between atoms: C_20  and  C_21 
REMARK       I    between atoms: C_21  and  N_23 
REMARK    6  A    between atoms: N_23  and  C_24 
ROOT
ATOM      1  N   UNL d   1      24.309 -17.433  -1.039  0.00  0.00    -0.319 N 
ATOM      2  C   UNL d   1      22.930 -17.271  -0.927  0.00  0.00     0.313 C 
ATOM      3  O   UNL d   1      22.289 -16.225  -0.978  0.00  0.00    -0.262 OA
ATOM      4  H   UNL d   1      24.647 -18.390  -0.974  0.00  0.00     0.169 HD
ENDROOT
BRANCH   1   5
ATOM      5  C   UNL d   1      25.261 -16.390  -1.249  0.00  0.00     0.036 A 
ATOM      6  C   UNL d   1      25.975 -15.870  -0.166  0.00  0.00     0.030 A 
ATOM      7  C   UNL d   1      26.928 -14.855  -0.362  0.00  0.00     0.010 A 
ATOM      8  C   UNL d   1      27.205 -14.332  -1.639  0.00  0.00    -0.046 A 
ATOM      9  C   UNL d   1      28.251 -13.264  -1.739  0.00  0.00     0.049 C 
ATOM     10  C   UNL d   1      26.499 -14.839  -2.746  0.00  0.00     0.040 A 
ATOM     11  C   UNL d   1      25.534 -15.852  -2.516  0.00  0.00     0.047 A 
BRANCH  10  12
ATOM     12  C   UNL d   1      26.669 -14.425  -4.197  0.00  0.00     0.252 C 
ATOM     13  O   UNL d   1      25.729 -14.562  -4.976  0.00  0.00    -0.268 OA
ATOM     14  N   UNL d   1      27.871 -13.894  -4.620  0.00  0.00    -0.353 N 
ATOM     15  H   UNL d   1      28.646 -13.792  -4.009  0.00  0.00     0.163 HD
BRANCH  14  16
ATOM     16  C   UNL d   1      28.149 -13.410  -5.958  0.00  0.00     0.076 C 
ATOM     17  C   UNL d   1      29.302 -12.418  -5.928  0.00  0.00     0.032 C 
ATOM     18  C   UNL d   1      28.522 -14.594  -6.862  0.00  0.00     0.032 C 
ENDBRANCH  14  16
ENDBRANCH  10  12
ENDBRANCH   1   5
BRANCH   2  19
ATOM     19  C   UNL d   1      22.091 -18.569  -0.708  0.00  0.00     0.309 C 
ATOM     20  O   UNL d   1      22.610 -19.613  -0.339  0.00  0.00    -0.262 OA
ATOM     21  N   UNL d   1      20.758 -18.364  -0.980  0.00  0.00    -0.348 N 
ATOM     22  H   UNL d   1      20.581 -17.416  -1.269  0.00  0.00     0.163 HD
BRANCH  21  23
ATOM     23  C   UNL d   1      19.672 -19.321  -0.890  0.00  0.00     0.169 C 
BRANCH  23  24
ATOM     24  C   UNL d   1      19.474 -19.901   0.509  0.00  0.00     0.006 A 
ATOM     25  S   UNL d   1      20.514 -19.325   1.775  0.00  0.00    -0.104 SA
ATOM     26  C   UNL d   1      19.789 -20.327   2.954  0.00  0.00     0.051 A 
ATOM     27  C   UNL d   1      18.777 -21.082   2.419  0.00  0.00     0.015 A 
ATOM     28  C   UNL d   1      18.585 -20.848   1.017  0.00  0.00    -0.047 A 
ATOM     29  C   UNL d   1      17.535 -21.571   0.252  0.00  0.00     0.049 C 
ENDBRANCH  23  24
ENDBRANCH  21  23
ENDBRANCH   2  19
TORSDOF 6
ENDMDL
MODEL 3
REMARK VINA RESULT:    -7.372      3.818      7.299
REMARK INTER + INTRA:         -11.187
REMARK INTER:                  -9.162
REMARK INTRA:                  -2.024
REMARK CONF_INDEPENDENT:        1.790
REMARK UNBOUND:                -2.024
REMARK  6 active torsions:
REMARK  status: ('A' for Active; 'I' for Inactive)
REMARK    1  A    between atoms: C_5  and  N_6 
REMARK       I    between atoms: N_6  and  C_7 
REMARK    2  A    between atoms: C_7  and  C_9 
REMARK       I    between atoms: C_9  and  N_11 
REMARK    3  A    between atoms: N_11  and  C_12 
REMARK    4  A    between atoms: C_12  and  C_13 
REMARK    5  A    between atoms: C_20  and  C_21 
REMARK       I    between atoms: C_21  and  N_23 
REMARK    6  A    between atoms: N_23  and  C_24 
ROOT
ATOM      1  N   UNL d   1      28.361 -14.337   3.711  0.00  0.00    -0.319 N 
ATOM      2  C   UNL d   1      27.614 -13.946   2.602  0.00  0.00     0.313 C 
ATOM      3  O   UNL d   1      26.892 -12.960   2.492  0.00  0.00    -0.262 OA
ATOM      4  H   UNL d   1      28.903 -15.191   3.598  0.00  0.00     0.169 HD
ENDROOT
BRANCH   1   5
ATOM      5  C   UNL d   1      28.439 -13.644   4.957  0.00  0.00     0.036 A 
ATOM      6  C   UNL d   1      28.071 -12.297   5.027  0.00  0.00     0.030 A 
ATOM      7  C   UNL d   1      28.126 -11.607   6.252  0.00  0.00     0.010 A 
ATOM      8  C   UNL d   1      28.540 -12.237   7.441  0.00  0.00    -0.046 A 
ATOM      9  C   UNL d   1      28.546 -11.415   8.693  0.00  0.00     0.049 C 
ATOM     10  C   UNL d   1      28.915 -13.592   7.395  0.00  0.00     0.040 A 
ATOM     11  C   UNL d   1      28.864 -14.258   6.144  0.00  0.00     0.047 A 
BRANCH  10  12
ATOM     12  C   UNL d   1      29.365 -14.449   8.565  0.00  0.00     0.252 C 
ATOM     13  O   UNL d   1      28.524 -15.041   9.236  0.00  0.00    -0.268 OA
ATOM     14  N   UNL d   1      30.710 -14.559   8.855  0.00  0.00    -0.353 N 
ATOM     15  H   UNL d   1      31.403 -14.075   8.333  0.00  0.00     0.163 HD
BRANCH  14  16
ATOM     16  C   UNL d   1      31.278 -15.383   9.903  0.00  0.00     0.076 C 
ATOM     17  C   UNL d   1      32.784 -15.178   9.976  0.00  0.00     0.032 C 
ATOM     18  C   UNL d   1      30.649 -14.998  11.251  0.00  0.00     0.032 C 
ENDBRANCH  14  16
ENDBRANCH  10  12
ENDBRANCH   1   5
BRANCH   2  19
ATOM     19  C   UNL d   1      27.697 -14.867   1.344  0.00  0.00     0.309 C 
ATOM     20  O   UNL d   1      28.652 -15.608   1.155  0.00  0.00    -0.262 OA
ATOM     21  N   UNL d   1      26.596 -14.723   0.535  0.00  0.00    -0.348 N 
ATOM     22  H   UNL d   1      25.948 -14.049   0.909  0.00  0.00     0.163 HD
BRANCH  21  23
ATOM     23  C   UNL d   1      26.309 -15.405  -0.713  0.00  0.00     0.169 C 
BRANCH  23  24
ATOM     24  C   UNL d   1      25.314 -16.556  -0.572  0.00  0.00     0.006 A 
ATOM     25  S   UNL d   1      23.711 -16.316  -1.195  0.00  0.00    -0.104 SA
ATOM     26  C   UNL d   1      23.194 -17.875  -0.725  0.00  0.00     0.051 A 
ATOM     27  C   UNL d   1      24.202 -18.576  -0.115  0.00  0.00     0.015 A 
ATOM     28  C   UNL d   1      25.424 -17.831  -0.021  0.00  0.00    -0.047 A 
ATOM     29  C   UNL d   1      26.637 -18.418   0.610  0.00  0.00     0.049 C 
ENDBRANCH  23  24
ENDBRANCH  21  23
ENDBRANCH   2  19
TORSDOF 6
ENDMDL
MODEL 4
REMARK VINA RESULT:    -7.179      5.116      9.504
REMARK INTER + INTRA:         -11.061
REMARK INTER:                  -8.968
REMARK INTRA:                  -2.093
REMARK CONF_INDEPENDENT:        1.790
REMARK UNBOUND:                -2.093
REMARK  6 active torsions:
REMARK  status: ('A' for Active; 'I' for Inactive)
REMARK    1  A    between atoms: C_5  and  N_6 
REMARK       I    between atoms: N_6  and  C_7 
REMARK    2  A    between atoms: C_7  and  C_9 
REMARK       I    between atoms: C_9  and  N_11 
REMARK    3  A    between atoms: N_11  and  C_12 
REMARK    4  A    between atoms: C_12  and  C_13 
REMARK    5  A    between atoms: C_20  and  C_21 
REMARK       I    between atoms: C_21  and  N_23 
REMARK    6  A    between atoms: N_23  and  C_24 
ROOT
ATOM      1  N   UNL d   1      26.657 -14.264  -2.983  0.00  0.00    -0.319 N 
ATOM      2  C   UNL d   1      25.844 -13.696  -3.960  0.00  0.00     0.313 C 
ATOM      3  O   UNL d   1      24.693 -14.005  -4.255  0.00  0.00    -0.262 OA
ATOM      4  H   UNL d   1      27.585 -13.858  -2.891  0.00  0.00     0.169 HD
ENDROOT
BRANCH   1   5
ATOM      5  C   UNL d   1      26.295 -15.335  -2.110  0.00  0.00     0.036 A 
ATOM      6  C   UNL d   1      27.289 -16.055  -1.443  0.00  0.00     0.030 A 
ATOM      7  C   UNL d   1      26.946 -17.100  -0.567  0.00  0.00     0.010 A 
ATOM      8  C   UNL d   1      25.605 -17.455  -0.324  0.00  0.00    -0.046 A 
ATOM      9  C   UNL d   1      25.349 -18.572   0.640  0.00  0.00     0.049 C 
ATOM     10  C   UNL d   1      24.586 -16.744  -0.985  0.00  0.00     0.040 A 
ATOM     11  C   UNL d   1      24.963 -15.706  -1.873  0.00  0.00     0.047 A 
BRANCH  10  12
ATOM     12  C   UNL d   1      23.090 -16.959  -0.839  0.00  0.00     0.252 C 
ATOM     13  O   UNL d   1      22.327 -16.013  -1.014  0.00  0.00    -0.268 OA
ATOM     14  N   UNL d   1      22.607 -18.213  -0.521  0.00  0.00    -0.353 N 
ATOM     15  H   UNL d   1      23.210 -18.985  -0.360  0.00  0.00     0.163 HD
BRANCH  14  16
ATOM     16  C   UNL d   1      21.206 -18.568  -0.407  0.00  0.00     0.076 C 
ATOM     17  C   UNL d   1      20.753 -19.326  -1.645  0.00  0.00     0.032 C 
ATOM     18  C   UNL d   1      21.004 -19.454   0.832  0.00  0.00     0.032 C 
ENDBRANCH  14  16
ENDBRANCH  10  12
ENDBRANCH   1   5
BRANCH   2  19
ATOM     19  C   UNL d   1      26.461 -12.524  -4.787  0.00  0.00     0.309 C 
ATOM     20  O   UNL d   1      27.665 -12.307  -4.790  0.00  0.00    -0.262 OA
ATOM     21  N   UNL d   1      25.497 -11.820  -5.470  0.00  0.00    -0.348 N 
ATOM     22  H   UNL d   1      24.578 -12.195  -5.303  0.00  0.00     0.163 HD
BRANCH  21  23
ATOM     23  C   UNL d   1      25.678 -10.675  -6.341  0.00  0.00     0.169 C 
BRANCH  23  24
ATOM     24  C   UNL d   1      25.579  -9.330  -5.622  0.00  0.00     0.006 A 
ATOM     25  S   UNL d   1      24.467  -8.157  -6.257  0.00  0.00    -0.104 SA
ATOM     26  C   UNL d   1      24.859  -7.000  -5.062  0.00  0.00     0.051 A 
ATOM     27  C   UNL d   1      25.804  -7.479  -4.191  0.00  0.00     0.015 A 
ATOM     28  C   UNL d   1      26.225  -8.814  -4.500  0.00  0.00    -0.047 A 
ATOM     29  C   UNL d   1      27.246  -9.511  -3.672  0.00  0.00     0.049 C 
ENDBRANCH  23  24
ENDBRANCH  21  23
ENDBRANCH   2  19
TORSDOF 6
ENDMDL
MODEL 5
REMARK VINA RESULT:    -7.094      5.608      8.053
REMARK INTER + INTRA:         -10.963
REMARK INTER:                  -8.884
REMARK INTRA:                  -2.078
REMARK CONF_INDEPENDENT:        1.790
REMARK UNBOUND:                -2.078
REMARK  6 active torsions:
REMARK  status: ('A' for Active; 'I' for Inactive)
REMARK    1  A    between atoms: C_5  and  N_6 
REMARK       I    between atoms: N_6  and  C_7 
REMARK    2  A    between atoms: C_7  and  C_9 
REMARK       I    between atoms: C_9  and  N_11 
REMARK    3  A    between atoms: N_11  and  C_12 
REMARK    4  A    between atoms: C_12  and  C_13 
REMARK    5  A    between atoms: C_20  and  C_21 
REMARK       I    between atoms: C_21  and  N_23 
REMARK    6  A    between atoms: N_23  and  C_24 
ROOT
ATOM      1  N   UNL d   1      27.397 -14.259  -5.685  0.00  0.00    -0.319 N 
ATOM      2  C   UNL d   1      27.010 -15.031  -4.592  0.00  0.00     0.313 C 
ATOM      3  O   UNL d   1      27.663 -15.893  -4.011  0.00  0.00    -0.262 OA
ATOM      4  H   UNL d   1      26.707 -13.591  -6.020  0.00  0.00     0.169 HD
ENDROOT
BRANCH   1   5
ATOM      5  C   UNL d   1      28.661 -14.319  -6.348  0.00  0.00     0.036 A 
ATOM      6  C   UNL d   1      29.259 -13.145  -6.814  0.00  0.00     0.030 A 
ATOM      7  C   UNL d   1      30.511 -13.188  -7.452  0.00  0.00     0.010 A 
ATOM      8  C   UNL d   1      31.208 -14.397  -7.640  0.00  0.00    -0.046 A 
ATOM      9  C   UNL d   1      32.543 -14.329  -8.317  0.00  0.00     0.049 C 
ATOM     10  C   UNL d   1      30.626 -15.592  -7.180  0.00  0.00     0.040 A 
ATOM     11  C   UNL d   1      29.357 -15.520  -6.553  0.00  0.00     0.047 A 
BRANCH  10  12
ATOM     12  C   UNL d   1      31.226 -16.985  -7.266  0.00  0.00     0.252 C 
ATOM     13  O   UNL d   1      32.242 -17.162  -7.932  0.00  0.00    -0.268 OA
ATOM     14  N   UNL d   1      30.628 -18.030  -6.591  0.00  0.00    -0.353 N 
ATOM     15  H   UNL d   1      29.796 -17.909  -6.062  0.00  0.00     0.163 HD
BRANCH  14  16
ATOM     16  C   UNL d   1      31.124 -19.391  -6.544  0.00  0.00     0.076 C 
ATOM     17  C   UNL d   1      30.434 -20.164  -5.430  0.00  0.00     0.032 C 
ATOM     18  C   UNL d   1      30.847 -20.083  -7.888  0.00  0.00     0.032 C 
ENDBRANCH  14  16
ENDBRANCH  10  12
ENDBRANCH   1   5
BRANCH   2  19
ATOM     19  C   UNL d   1      25.575 -14.777  -4.033  0.00  0.00     0.309 C 
ATOM     20  O   UNL d   1      24.770 -14.075  -4.629  0.00  0.00    -0.262 OA
ATOM     21  N   UNL d   1      25.372 -15.429  -2.839  0.00  0.00    -0.348 N 
ATOM     22  H   UNL d   1      26.190 -15.943  -2.555  0.00  0.00     0.163 HD
BRANCH  21  23
ATOM     23  C   UNL d   1      24.175 -15.439  -2.020  0.00  0.00     0.169 C 
BRANCH  23  24
ATOM     24  C   UNL d   1      24.031 -16.689  -1.153  0.00  0.00     0.006 A 
ATOM     25  S   UNL d   1      22.429 -17.304  -0.884  0.00  0.00    -0.104 SA
ATOM     26  C   UNL d   1      22.986 -18.592   0.090  0.00  0.00     0.051 A 
ATOM     27  C   UNL d   1      24.352 -18.575   0.214  0.00  0.00     0.015 A 
ATOM     28  C   UNL d   1      24.964 -17.489  -0.495  0.00  0.00    -0.047 A 
ATOM     29  C   UNL d   1      26.439 -17.297  -0.484  0.00  0.00     0.049 C 
ENDBRANCH  23  24
ENDBRANCH  21  23
ENDBRANCH   2  19
TORSDOF 6
ENDMDL
MODEL 6
REMARK VINA RESULT:    -7.088      2.604      2.970
REMARK INTER + INTRA:         -10.948
REMARK INTER:                  -8.878
REMARK INTRA:                  -2.070
REMARK CONF_INDEPENDENT:        1.790
REMARK UNBOUND:                -2.070
REMARK  6 active torsions:
REMARK  status: ('A' for Active; 'I' for Inactive)
REMARK    1  A    between atoms: C_5  and  N_6 
REMARK       I    between atoms: N_6  and  C_7 
REMARK    2  A    between atoms: C_7  and  C_9 
REMARK       I    between atoms: C_9  and  N_11 
REMARK    3  A    between atoms: N_11  and  C_12 
REMARK    4  A    between atoms: C_12  and  C_13 
REMARK    5  A    between atoms: C_20  and  C_21 
REMARK       I    between atoms: C_21  and  N_23 
REMARK    6  A    between atoms: N_23  and  C_24 
ROOT
ATOM      1  N   UNL d   1      24.981 -17.821  -0.727  0.00  0.00    -0.319 N 
ATOM      2  C   UNL d   1      23.644 -17.451  -0.853  0.00  0.00     0.313 C 
ATOM      3  O   UNL d   1      23.166 -16.322  -0.787  0.00  0.00    -0.262 OA
ATOM      4  H   UNL d   1      25.173 -18.815  -0.819  0.00  0.00     0.169 HD
ENDROOT
BRANCH   1   5
ATOM      5  C   UNL d   1      26.077 -16.935  -0.501  0.00  0.00     0.036 A 
ATOM      6  C   UNL d   1      25.836 -15.605  -0.146  0.00  0.00     0.030 A 
ATOM      7  C   UNL d   1      26.908 -14.727   0.097  0.00  0.00     0.010 A 
ATOM      8  C   UNL d   1      28.248 -15.146   0.002  0.00  0.00    -0.046 A 
ATOM      9  C   UNL d   1      29.312 -14.135   0.298  0.00  0.00     0.049 C 
ATOM     10  C   UNL d   1      28.516 -16.481  -0.354  0.00  0.00     0.040 A 
ATOM     11  C   UNL d   1      27.417 -17.339  -0.608  0.00  0.00     0.047 A 
BRANCH  10  12
ATOM     12  C   UNL d   1      29.884 -17.127  -0.486  0.00  0.00     0.252 C 
ATOM     13  O   UNL d   1      30.121 -17.841  -1.456  0.00  0.00    -0.268 OA
ATOM     14  N   UNL d   1      30.844 -16.897   0.479  0.00  0.00    -0.353 N 
ATOM     15  H   UNL d   1      30.665 -16.336   1.278  0.00  0.00     0.163 HD
BRANCH  14  16
ATOM     16  C   UNL d   1      32.202 -17.404   0.448  0.00  0.00     0.076 C 
ATOM     17  C   UNL d   1      32.944 -16.996   1.712  0.00  0.00     0.032 C 
ATOM     18  C   UNL d   1      32.172 -18.937   0.350  0.00  0.00     0.032 C 
ENDBRANCH  14  16
ENDBRANCH  10  12
ENDBRANCH   1   5
BRANCH   2  19
ATOM     19  C   UNL d   1      22.622 -18.604  -1.108  0.00  0.00     0.309 C 
ATOM     20  O   UNL d   1      22.979 -19.694  -1.532  0.00  0.00    -0.262 OA
ATOM     21  N   UNL d   1      21.338 -18.223  -0.798  0.00  0.00    -0.348 N 
ATOM     22  H   UNL d   1      21.304 -17.272  -0.467  0.00  0.00     0.163 HD
BRANCH  21  23
ATOM     23  C   UNL d   1      20.124 -19.011  -0.897  0.00  0.00     0.169 C 
BRANCH  23  24
ATOM     24  C   UNL d   1      19.716 -19.683   0.413  0.00  0.00     0.006 A 
ATOM     25  S   UNL d   1      20.654 -19.324   1.830  0.00  0.00    -0.104 SA
ATOM     26  C   UNL d   1      19.711 -20.342   2.826  0.00  0.00     0.051 A 
ATOM     27  C   UNL d   1      18.701 -20.943   2.119  0.00  0.00     0.015 A 
ATOM     28  C   UNL d   1      18.693 -20.574   0.733  0.00  0.00    -0.047 A 
ATOM     29  C   UNL d   1      17.674 -21.120  -0.203  0.00  0.00     0.049 C 
ENDBRANCH  23  24
ENDBRANCH  21  23
ENDBRANCH   2  19
TORSDOF 6
ENDMDL
MODEL 7
REMARK VINA RESULT:    -6.908      5.840      8.127
REMARK INTER + INTRA:         -10.773
REMARK INTER:                  -8.698
REMARK INTRA:                  -2.075
REMARK CONF_INDEPENDENT:        1.790
REMARK UNBOUND:                -2.075
REMARK  6 active torsions:
REMARK  status: ('A' for Active; 'I' for Inactive)
REMARK    1  A    between atoms: C_5  and  N_6 
REMARK       I    between atoms: N_6  and  C_7 
REMARK    2  A    between atoms: C_7  and  C_9 
REMARK       I    between atoms: C_9  and  N_11 
REMARK    3  A    between atoms: N_11  and  C_12 
REMARK    4  A    between atoms: C_12  and  C_13 
REMARK    5  A    between atoms: C_20  and  C_21 
REMARK       I    between atoms: C_21  and  N_23 
REMARK    6  A    between atoms: N_23  and  C_24 
ROOT
ATOM      1  N   UNL d   1      27.373 -13.823  -5.681  0.00  0.00    -0.319 N 
ATOM      2  C   UNL d   1      26.954 -14.890  -4.889  0.00  0.00     0.313 C 
ATOM      3  O   UNL d   1      27.540 -15.949  -4.683  0.00  0.00    -0.262 OA
ATOM      4  H   UNL d   1      26.740 -13.027  -5.718  0.00  0.00     0.169 HD
ENDROOT
BRANCH   1   5
ATOM      5  C   UNL d   1      28.597 -13.753  -6.414  0.00  0.00     0.036 A 
ATOM      6  C   UNL d   1      28.984 -12.549  -7.008  0.00  0.00     0.030 A 
ATOM      7  C   UNL d   1      30.195 -12.462  -7.718  0.00  0.00     0.010 A 
ATOM      8  C   UNL d   1      31.059 -13.565  -7.850  0.00  0.00    -0.046 A 
ATOM      9  C   UNL d   1      32.332 -13.359  -8.612  0.00  0.00     0.049 C 
ATOM     10  C   UNL d   1      30.691 -14.788  -7.260  0.00  0.00     0.040 A 
ATOM     11  C   UNL d   1      29.458 -14.851  -6.564  0.00  0.00     0.047 A 
BRANCH  10  12
ATOM     12  C   UNL d   1      31.492 -16.078  -7.272  0.00  0.00     0.252 C 
ATOM     13  O   UNL d   1      32.711 -16.028  -7.413  0.00  0.00    -0.268 OA
ATOM     14  N   UNL d   1      30.844 -17.287  -7.116  0.00  0.00    -0.353 N 
ATOM     15  H   UNL d   1      29.858 -17.348  -7.017  0.00  0.00     0.163 HD
BRANCH  14  16
ATOM     16  C   UNL d   1      31.491 -18.583  -7.052  0.00  0.00     0.076 C 
ATOM     17  C   UNL d   1      30.669 -19.539  -6.202  0.00  0.00     0.032 C 
ATOM     18  C   UNL d   1      31.627 -19.156  -8.472  0.00  0.00     0.032 C 
ENDBRANCH  14  16
ENDBRANCH  10  12
ENDBRANCH   1   5
BRANCH   2  19
ATOM     19  C   UNL d   1      25.575 -14.730  -4.176  0.00  0.00     0.309 C 
ATOM     20  O   UNL d   1      24.694 -14.017  -4.636  0.00  0.00    -0.262 OA
ATOM     21  N   UNL d   1      25.511 -15.472  -3.020  0.00  0.00    -0.348 N 
ATOM     22  H   UNL d   1      26.368 -15.975  -2.856  0.00  0.00     0.163 HD
BRANCH  21  23
ATOM     23  C   UNL d   1      24.403 -15.584  -2.091  0.00  0.00     0.169 C 
BRANCH  23  24
ATOM     24  C   UNL d   1      24.594 -16.667  -1.030  0.00  0.00     0.006 A 
ATOM     25  S   UNL d   1      26.207 -16.960  -0.459  0.00  0.00    -0.104 SA
ATOM     26  C   UNL d   1      25.705 -18.194   0.611  0.00  0.00     0.051 A 
ATOM     27  C   UNL d   1      24.348 -18.387   0.554  0.00  0.00     0.015 A 
ATOM     28  C   UNL d   1      23.699 -17.518  -0.383  0.00  0.00    -0.047 A 
ATOM     29  C   UNL d   1      22.227 -17.573  -0.592  0.00  0.00     0.049 C 
ENDBRANCH  23  24
ENDBRANCH  21  23
ENDBRANCH   2  19
TORSDOF 6
ENDMDL
MODEL 8
REMARK VINA RESULT:    -6.907      2.639      3.918
REMARK INTER + INTRA:         -10.733
REMARK INTER:                  -8.697
REMARK INTRA:                  -2.036
REMARK CONF_INDEPENDENT:        1.790
REMARK UNBOUND:                -2.036
REMARK  6 active torsions:
REMARK  status: ('A' for Active; 'I' for Inactive)
REMARK    1  A    between atoms: C_5  and  N_6 
REMARK       I    between atoms: N_6  and  C_7 
REMARK    2  A    between atoms: C_7  and  C_9 
REMARK       I    between atoms: C_9  and  N_11 
REMARK    3  A    between atoms: N_11  and  C_12 
REMARK    4  A    between atoms: C_12  and  C_13 
REMARK    5  A    between atoms: C_20  and  C_21 
REMARK       I    between atoms: C_21  and  N_23 
REMARK    6  A    between atoms: N_23  and  C_24 
ROOT
ATOM      1  N   UNL d   1      24.035 -16.951  -0.816  0.00  0.00    -0.319 N 
ATOM      2  C   UNL d   1      23.350 -18.161  -0.731  0.00  0.00     0.313 C 
ATOM      3  O   UNL d   1      23.819 -19.280  -0.540  0.00  0.00    -0.262 OA
ATOM      4  H   UNL d   1      23.459 -16.128  -0.974  0.00  0.00     0.169 HD
ENDROOT
BRANCH   1   5
ATOM      5  C   UNL d   1      25.447 -16.777  -0.685  0.00  0.00     0.036 A 
ATOM      6  C   UNL d   1      26.201 -17.712   0.028  0.00  0.00     0.030 A 
ATOM      7  C   UNL d   1      27.594 -17.561   0.149  0.00  0.00     0.010 A 
ATOM      8  C   UNL d   1      28.278 -16.480  -0.440  0.00  0.00    -0.046 A 
ATOM      9  C   UNL d   1      29.764 -16.424  -0.264  0.00  0.00     0.049 C 
ATOM     10  C   UNL d   1      27.540 -15.526  -1.163  0.00  0.00     0.040 A 
ATOM     11  C   UNL d   1      26.136 -15.696  -1.256  0.00  0.00     0.047 A 
BRANCH  10  12
ATOM     12  C   UNL d   1      28.093 -14.311  -1.887  0.00  0.00     0.252 C 
ATOM     13  O   UNL d   1      29.299 -14.085  -1.849  0.00  0.00    -0.268 OA
ATOM     14  N   UNL d   1      27.236 -13.481  -2.584  0.00  0.00    -0.353 N 
ATOM     15  H   UNL d   1      26.256 -13.638  -2.611  0.00  0.00     0.163 HD
BRANCH  14  16
ATOM     16  C   UNL d   1      27.637 -12.325  -3.361  0.00  0.00     0.076 C 
ATOM     17  C   UNL d   1      28.398 -12.764  -4.603  0.00  0.00     0.032 C 
ATOM     18  C   UNL d   1      26.387 -11.537  -3.784  0.00  0.00     0.032 C 
ENDBRANCH  14  16
ENDBRANCH  10  12
ENDBRANCH   1   5
BRANCH   2  19
ATOM     19  C   UNL d   1      21.799 -18.098  -0.898  0.00  0.00     0.309 C 
ATOM     20  O   UNL d   1      21.198 -17.033  -0.895  0.00  0.00    -0.262 OA
ATOM     21  N   UNL d   1      21.252 -19.351  -1.041  0.00  0.00    -0.348 N 
ATOM     22  H   UNL d   1      21.957 -20.069  -1.008  0.00  0.00     0.163 HD
BRANCH  21  23
ATOM     23  C   UNL d   1      19.855 -19.699  -1.221  0.00  0.00     0.169 C 
BRANCH  23  24
ATOM     24  C   UNL d   1      19.181 -20.225   0.046  0.00  0.00     0.006 A 
ATOM     25  S   UNL d   1      17.757 -21.199  -0.144  0.00  0.00    -0.104 SA
ATOM     26  C   UNL d   1      17.561 -21.407   1.540  0.00  0.00     0.051 A 
ATOM     27  C   UNL d   1      18.547 -20.764   2.244  0.00  0.00     0.015 A 
ATOM     28  C   UNL d   1      19.484 -20.082   1.399  0.00  0.00    -0.047 A 
ATOM     29  C   UNL d   1      20.628 -19.325   1.972  0.00  0.00     0.049 C 
ENDBRANCH  23  24
ENDBRANCH  21  23
ENDBRANCH   2  19
TORSDOF 6
ENDMDL
MODEL 9
REMARK VINA RESULT:    -6.814      4.228      7.675
REMARK INTER + INTRA:         -10.784
REMARK INTER:                  -8.604
REMARK INTRA:                  -2.180
REMARK CONF_INDEPENDENT:        1.790
REMARK UNBOUND:                -2.180
REMARK  6 active torsions:
REMARK  status: ('A' for Active; 'I' for Inactive)
REMARK    1  A    between atoms: C_5  and  N_6 
REMARK       I    between atoms: N_6  and  C_7 
REMARK    2  A    between atoms: C_7  and  C_9 
REMARK       I    between atoms: C_9  and  N_11 
REMARK    3  A    between atoms: N_11  and  C_12 
REMARK    4  A    between atoms: C_12  and  C_13 
REMARK    5  A    between atoms: C_20  and  C_21 
REMARK       I    between atoms: C_21  and  N_23 
REMARK    6  A    between atoms: N_23  and  C_24 
ROOT
ATOM      1  N   UNL d   1      27.712 -12.667   3.403  0.00  0.00    -0.319 N 
ATOM      2  C   UNL d   1      28.271 -13.850   2.927  0.00  0.00     0.313 C 
ATOM      3  O   UNL d   1      29.206 -14.486   3.405  0.00  0.00    -0.262 OA
ATOM      4  H   UNL d   1      26.934 -12.297   2.861  0.00  0.00     0.169 HD
ENDROOT
BRANCH   1   5
ATOM      5  C   UNL d   1      28.122 -11.957   4.573  0.00  0.00     0.036 A 
ATOM      6  C   UNL d   1      28.462 -10.604   4.482  0.00  0.00     0.030 A 
ATOM      7  C   UNL d   1      28.851  -9.890   5.630  0.00  0.00     0.010 A 
ATOM      8  C   UNL d   1      28.906 -10.496   6.899  0.00  0.00    -0.046 A 
ATOM      9  C   UNL d   1      29.317  -9.639   8.057  0.00  0.00     0.049 C 
ATOM     10  C   UNL d   1      28.568 -11.856   7.015  0.00  0.00     0.040 A 
ATOM     11  C   UNL d   1      28.194 -12.555   5.840  0.00  0.00     0.047 A 
BRANCH  10  12
ATOM     12  C   UNL d   1      28.542 -12.679   8.292  0.00  0.00     0.252 C 
ATOM     13  O   UNL d   1      28.792 -13.880   8.239  0.00  0.00    -0.268 OA
ATOM     14  N   UNL d   1      28.248 -12.066   9.493  0.00  0.00    -0.353 N 
ATOM     15  H   UNL d   1      28.027 -11.100   9.553  0.00  0.00     0.163 HD
BRANCH  14  16
ATOM     16  C   UNL d   1      28.243 -12.718  10.788  0.00  0.00     0.076 C 
ATOM     17  C   UNL d   1      27.418 -13.995  10.730  0.00  0.00     0.032 C 
ATOM     18  C   UNL d   1      29.685 -13.065  11.190  0.00  0.00     0.032 C 
ENDBRANCH  14  16
ENDBRANCH  10  12
ENDBRANCH   1   5
BRANCH   2  19
ATOM     19  C   UNL d   1      27.643 -14.445   1.627  0.00  0.00     0.309 C 
ATOM     20  O   UNL d   1      26.614 -13.990   1.148  0.00  0.00    -0.262 OA
ATOM     21  N   UNL d   1      28.384 -15.494   1.139  0.00  0.00    -0.348 N 
ATOM     22  H   UNL d   1      29.190 -15.678   1.715  0.00  0.00     0.163 HD
BRANCH  21  23
ATOM     23  C   UNL d   1      28.127 -16.295  -0.043  0.00  0.00     0.169 C 
BRANCH  23  24
ATOM     24  C   UNL d   1      26.689 -16.804  -0.143  0.00  0.00     0.006 A 
ATOM     25  S   UNL d   1      26.261 -18.200   0.796  0.00  0.00    -0.104 SA
ATOM     26  C   UNL d   1      24.648 -18.201   0.232  0.00  0.00     0.051 A 
ATOM     27  C   UNL d   1      24.421 -17.169  -0.643  0.00  0.00     0.015 A 
ATOM     28  C   UNL d   1      25.584 -16.360  -0.867  0.00  0.00    -0.047 A 
ATOM     29  C   UNL d   1      25.542 -15.191  -1.785  0.00  0.00     0.049 C 
ENDBRANCH  23  24
ENDBRANCH  21  23
ENDBRANCH   2  19
TORSDOF 6
ENDMDL
