MODEL 1
REMARK VINA RESULT:    -8.867      0.000      0.000
REMARK INTER + INTRA:         -12.121
REMARK INTER:                 -11.253
REMARK INTRA:                  -0.868
REMARK CONF_INDEPENDENT:        2.386
REMARK UNBOUND:                -0.868
REMARK  8 active torsions:
REMARK  status: ('A' for Active; 'I' for Inactive)
REMARK    1  A    between atoms: C_2  and  C_3 
REMARK       I    between atoms: C_2  and  N_21 
REMARK    2  A    between atoms: C_3  and  S_4 
REMARK    3  A    between atoms: S_4  and  C_5 
REMARK    4  A    between atoms: C_8  and  N_9 
REMARK    5  A    between atoms: N_9  and  N_10 
REMARK    6  A    between atoms: C_11  and  C_12 
REMARK    7  A    between atoms: N_21  and  C_22 
REMARK    8  A    between atoms: C_25  and  C_26 
ROOT
ATOM      1  C   UNL d   1      28.527 -13.325   5.436  0.00  0.00     0.226 A 
ATOM      2  N   UNL d   1      28.835 -14.548   5.886  0.00  0.00    -0.132 NA
ATOM      3  N   UNL d   1      29.003 -15.222   4.719  0.00  0.00    -0.103 N 
ATOM      4  C   UNL d   1      28.847 -14.403   3.626  0.00  0.00     0.739 A 
ATOM      5  N   UNL d   1      28.548 -13.203   4.073  0.00  0.00    -0.034 NA
ATOM      6  H   UNL d   1      29.208 -16.214   4.748  0.00  0.00     0.208 HD
ENDROOT
BRANCH   1   7
ATOM      7  S   UNL d   1      27.907 -12.024   6.428  0.00  0.00    -0.079 SA
BRANCH   7   8
ATOM      8  C   UNL d   1      29.181 -10.740   6.364  0.00  0.00     0.185 C 
BRANCH   8   9
ATOM      9  C   UNL d   1      29.134  -9.801   7.590  0.00  0.00     0.231 C 
ATOM     10  O   UNL d   1      28.956  -8.576   7.515  0.00  0.00    -0.272 OA
ATOM     11  N   UNL d   1      29.207 -10.339   8.861  0.00  0.00    -0.327 N 
ATOM     12  H   UNL d   1      28.971  -9.682   9.598  0.00  0.00     0.169 HD
BRANCH  11  13
ATOM     13  C   UNL d   1      29.552 -11.643   9.237  0.00  0.00     0.034 A 
ATOM     14  C   UNL d   1      30.773 -12.188   8.832  0.00  0.00     0.030 A 
ATOM     15  C   UNL d   1      31.112 -13.494   9.213  0.00  0.00     0.018 A 
ATOM     16  C   UNL d   1      30.256 -14.241  10.038  0.00  0.00     0.048 A 
ATOM     17  C   UNL d   1      29.014 -13.705  10.382  0.00  0.00     0.018 A 
ATOM     18  C   UNL d   1      28.658 -12.433   9.953  0.00  0.00     0.030 A 
BRANCH  16  19
ATOM     19  C   UNL d   1      30.671 -15.585  10.579  0.00  0.00     0.417 C 
ATOM     20  F   UNL d   1      32.000 -15.828  10.431  0.00  0.00    -0.166 F 
ATOM     21  F   UNL d   1      30.405 -15.704  11.908  0.00  0.00    -0.166 F 
ATOM     22  F   UNL d   1      30.028 -16.627   9.979  0.00  0.00    -0.166 F 
ENDBRANCH  16  19
ENDBRANCH  11  13
ENDBRANCH   8   9
ENDBRANCH   7   8
ENDBRANCH   1   7
BRANCH   4  23
ATOM     23  N   UNL d   1      28.984 -14.825   2.334  0.00  0.00    -0.106 N 
ATOM     24  H   UNL d   1      29.875 -15.173   1.983  0.00  0.00     0.208 HD
BRANCH  23  25
ATOM     25  N   UNL d   1      27.893 -14.817   1.494  0.00  0.00    -0.172 NA
ATOM     26  C   UNL d   1      27.789 -15.756   0.608  0.00  0.00     0.152 C 
BRANCH  26  27
ATOM     27  C   UNL d   1      26.609 -15.833  -0.299  0.00  0.00     0.006 A 
ATOM     28  C   UNL d   1      26.378 -14.791  -1.214  0.00  0.00     0.015 A 
ATOM     29  C   UNL d   1      25.282 -14.839  -2.082  0.00  0.00     0.003 A 
ATOM     30  C   UNL d   1      24.408 -15.925  -2.044  0.00  0.00     0.026 A 
ATOM     31  C   UNL d   1      24.632 -16.968  -1.139  0.00  0.00     0.056 A 
ATOM     32 CL   UNL d   1      23.511 -18.289  -1.171  0.00  0.00    -0.083 Cl
ATOM     33  C   UNL d   1      25.730 -16.929  -0.259  0.00  0.00     0.067 A 
ATOM     34 CL   UNL d   1      25.968 -18.201   0.899  0.00  0.00    -0.082 Cl
ENDBRANCH  26  27
ENDBRANCH  23  25
ENDBRANCH   4  23
TORSDOF 8
ENDMDL
MODEL 2
REMARK VINA RESULT:    -8.644      5.777     10.444
REMARK INTER + INTRA:         -11.997
REMARK INTER:                 -11.030
REMARK INTRA:                  -0.967
REMARK CONF_INDEPENDENT:        2.386
REMARK UNBOUND:                -0.967
REMARK  8 active torsions:
REMARK  status: ('A' for Active; 'I' for Inactive)
REMARK    1  A    between atoms: C_2  and  C_3 
REMARK       I    between atoms: C_2  and  N_21 
REMARK    2  A    between atoms: C_3  and  S_4 
REMARK    3  A    between atoms: S_4  and  C_5 
REMARK    4  A    between atoms: C_8  and  N_9 
REMARK    5  A    between atoms: N_9  and  N_10 
REMARK    6  A    between atoms: C_11  and  C_12 
REMARK    7  A    between atoms: N_21  and  C_22 
REMARK    8  A    between atoms: C_25  and  C_26 
ROOT
ATOM      1  C   UNL d   1      30.052 -13.662   1.568  0.00  0.00     0.226 A 
ATOM      2  N   UNL d   1      31.253 -13.353   2.072  0.00  0.00    -0.132 NA
ATOM      3  N   UNL d   1      31.139 -13.836   3.336  0.00  0.00    -0.103 N 
ATOM      4  C   UNL d   1      29.927 -14.450   3.544  0.00  0.00     0.739 A 
ATOM      5  N   UNL d   1      29.236 -14.344   2.430  0.00  0.00    -0.034 NA
ATOM      6  H   UNL d   1      31.905 -13.703   3.985  0.00  0.00     0.208 HD
ENDROOT
BRANCH   1   7
ATOM      7  S   UNL d   1      29.424 -13.065   0.047  0.00  0.00    -0.079 SA
BRANCH   7   8
ATOM      8  C   UNL d   1      28.638 -14.500  -0.728  0.00  0.00     0.185 C 
BRANCH   8   9
ATOM      9  C   UNL d   1      29.399 -15.814  -0.440  0.00  0.00     0.231 C 
ATOM     10  O   UNL d   1      30.636 -15.898  -0.389  0.00  0.00    -0.272 OA
ATOM     11  N   UNL d   1      28.688 -16.958  -0.135  0.00  0.00    -0.327 N 
ATOM     12  H   UNL d   1      29.262 -17.713   0.230  0.00  0.00     0.169 HD
BRANCH  11  13
ATOM     13  C   UNL d   1      27.313 -17.190  -0.263  0.00  0.00     0.034 A 
ATOM     14  C   UNL d   1      26.644 -17.973   0.681  0.00  0.00     0.030 A 
ATOM     15  C   UNL d   1      25.268 -18.200   0.547  0.00  0.00     0.018 A 
ATOM     16  C   UNL d   1      24.546 -17.608  -0.502  0.00  0.00     0.048 A 
ATOM     17  C   UNL d   1      25.240 -16.880  -1.471  0.00  0.00     0.018 A 
ATOM     18  C   UNL d   1      26.613 -16.707  -1.365  0.00  0.00     0.030 A 
BRANCH  16  19
ATOM     19  C   UNL d   1      23.045 -17.718  -0.577  0.00  0.00     0.417 C 
ATOM     20  F   UNL d   1      22.443 -16.541  -0.894  0.00  0.00    -0.166 F 
ATOM     21  F   UNL d   1      22.646 -18.618  -1.517  0.00  0.00    -0.166 F 
ATOM     22  F   UNL d   1      22.478 -18.129   0.592  0.00  0.00    -0.166 F 
ENDBRANCH  16  19
ENDBRANCH  11  13
ENDBRANCH   8   9
ENDBRANCH   7   8
ENDBRANCH   1   7
BRANCH   4  23
ATOM     23  N   UNL d   1      29.565 -15.038   4.722  0.00  0.00    -0.106 N 
ATOM     24  H   UNL d   1      29.151 -15.969   4.744  0.00  0.00     0.208 HD
BRANCH  23  25
ATOM     25  N   UNL d   1      29.792 -14.381   5.911  0.00  0.00    -0.172 NA
ATOM     26  C   UNL d   1      28.775 -14.068   6.649  0.00  0.00     0.152 C 
BRANCH  26  27
ATOM     27  C   UNL d   1      28.956 -13.400   7.970  0.00  0.00     0.006 A 
ATOM     28  C   UNL d   1      28.565 -14.075   9.139  0.00  0.00     0.015 A 
ATOM     29  C   UNL d   1      28.730 -13.476  10.392  0.00  0.00     0.003 A 
ATOM     30  C   UNL d   1      29.285 -12.201  10.489  0.00  0.00     0.026 A 
ATOM     31  C   UNL d   1      29.681 -11.523   9.331  0.00  0.00     0.056 A 
ATOM     32 CL   UNL d   1      30.379  -9.951   9.541  0.00  0.00    -0.083 Cl
ATOM     33  C   UNL d   1      29.516 -12.115   8.064  0.00  0.00     0.067 A 
ATOM     34 CL   UNL d   1      29.958 -11.244   6.628  0.00  0.00    -0.082 Cl
ENDBRANCH  26  27
ENDBRANCH  23  25
ENDBRANCH   4  23
TORSDOF 8
ENDMDL
MODEL 3
REMARK VINA RESULT:    -8.562      5.863     10.488
REMARK INTER + INTRA:         -11.993
REMARK INTER:                 -10.948
REMARK INTRA:                  -1.044
REMARK CONF_INDEPENDENT:        2.386
REMARK UNBOUND:                -1.044
REMARK  8 active torsions:
REMARK  status: ('A' for Active; 'I' for Inactive)
REMARK    1  A    between atoms: C_2  and  C_3 
REMARK       I    between atoms: C_2  and  N_21 
REMARK    2  A    between atoms: C_3  and  S_4 
REMARK    3  A    between atoms: S_4  and  C_5 
REMARK    4  A    between atoms: C_8  and  N_9 
REMARK    5  A    between atoms: N_9  and  N_10 
REMARK    6  A    between atoms: C_11  and  C_12 
REMARK    7  A    between atoms: N_21  and  C_22 
REMARK    8  A    between atoms: C_25  and  C_26 
ROOT
ATOM      1  C   UNL d   1      28.714 -14.182   2.560  0.00  0.00     0.226 A 
ATOM      2  N   UNL d   1      30.041 -14.039   2.663  0.00  0.00    -0.132 NA
ATOM      3  N   UNL d   1      30.243 -14.394   3.959  0.00  0.00    -0.103 N 
ATOM      4  C   UNL d   1      29.076 -14.780   4.573  0.00  0.00     0.739 A 
ATOM      5  N   UNL d   1      28.107 -14.649   3.694  0.00  0.00    -0.034 NA
ATOM      6  H   UNL d   1      31.179 -14.340   4.344  0.00  0.00     0.208 HD
ENDROOT
BRANCH   1   7
ATOM      7  S   UNL d   1      27.750 -13.612   1.215  0.00  0.00    -0.079 SA
BRANCH   7   8
ATOM      8  C   UNL d   1      28.567 -14.276  -0.258  0.00  0.00     0.185 C 
BRANCH   8   9
ATOM      9  C   UNL d   1      29.394 -15.544   0.049  0.00  0.00     0.231 C 
ATOM     10  O   UNL d   1      30.623 -15.542   0.217  0.00  0.00    -0.272 OA
ATOM     11  N   UNL d   1      28.746 -16.749   0.238  0.00  0.00    -0.327 N 
ATOM     12  H   UNL d   1      29.337 -17.477   0.626  0.00  0.00     0.169 HD
BRANCH  11  13
ATOM     13  C   UNL d   1      27.410 -17.072  -0.033  0.00  0.00     0.034 A 
ATOM     14  C   UNL d   1      26.789 -16.577  -1.182  0.00  0.00     0.030 A 
ATOM     15  C   UNL d   1      25.452 -16.905  -1.446  0.00  0.00     0.018 A 
ATOM     16  C   UNL d   1      24.746 -17.765  -0.589  0.00  0.00     0.048 A 
ATOM     17  C   UNL d   1      25.361 -18.201   0.586  0.00  0.00     0.018 A 
ATOM     18  C   UNL d   1      26.667 -17.826   0.871  0.00  0.00     0.030 A 
BRANCH  16  19
ATOM     19  C   UNL d   1      23.361 -18.247  -0.935  0.00  0.00     0.417 C 
ATOM     20  F   UNL d   1      22.947 -19.277  -0.151  0.00  0.00    -0.166 F 
ATOM     21  F   UNL d   1      22.430 -17.263  -0.799  0.00  0.00    -0.166 F 
ATOM     22  F   UNL d   1      23.249 -18.684  -2.222  0.00  0.00    -0.166 F 
ENDBRANCH  16  19
ENDBRANCH  11  13
ENDBRANCH   8   9
ENDBRANCH   7   8
ENDBRANCH   1   7
BRANCH   4  23
ATOM     23  N   UNL d   1      29.004 -15.204   5.870  0.00  0.00    -0.106 N 
ATOM     24  H   UNL d   1      28.608 -16.112   6.108  0.00  0.00     0.208 HD
BRANCH  23  25
ATOM     25  N   UNL d   1      29.507 -14.411   6.877  0.00  0.00    -0.172 NA
ATOM     26  C   UNL d   1      28.963 -13.253   7.082  0.00  0.00     0.152 C 
BRANCH  26  27
ATOM     27  C   UNL d   1      29.428 -12.367   8.187  0.00  0.00     0.006 A 
ATOM     28  C   UNL d   1      30.097 -11.172   7.873  0.00  0.00     0.015 A 
ATOM     29  C   UNL d   1      30.539 -10.318   8.889  0.00  0.00     0.003 A 
ATOM     30  C   UNL d   1      30.318 -10.650  10.225  0.00  0.00     0.026 A 
ATOM     31  C   UNL d   1      29.650 -11.836  10.547  0.00  0.00     0.056 A 
ATOM     32 CL   UNL d   1      29.399 -12.163  12.230  0.00  0.00    -0.083 Cl
ATOM     33  C   UNL d   1      29.204 -12.705   9.532  0.00  0.00     0.067 A 
ATOM     34 CL   UNL d   1      28.425 -14.201   9.943  0.00  0.00    -0.082 Cl
ENDBRANCH  26  27
ENDBRANCH  23  25
ENDBRANCH   4  23
TORSDOF 8
ENDMDL
MODEL 4
REMARK VINA RESULT:    -8.296      9.750     11.757
REMARK INTER + INTRA:         -11.939
REMARK INTER:                 -10.682
REMARK INTRA:                  -1.256
REMARK CONF_INDEPENDENT:        2.386
REMARK UNBOUND:                -1.256
REMARK  8 active torsions:
REMARK  status: ('A' for Active; 'I' for Inactive)
REMARK    1  A    between atoms: C_2  and  C_3 
REMARK       I    between atoms: C_2  and  N_21 
REMARK    2  A    between atoms: C_3  and  S_4 
REMARK    3  A    between atoms: S_4  and  C_5 
REMARK    4  A    between atoms: C_8  and  N_9 
REMARK    5  A    between atoms: N_9  and  N_10 
REMARK    6  A    between atoms: C_11  and  C_12 
REMARK    7  A    between atoms: N_21  and  C_22 
REMARK    8  A    between atoms: C_25  and  C_26 
ROOT
ATOM      1  C   UNL d   1      27.695 -11.794  -4.352  0.00  0.00     0.226 A 
ATOM      2  N   UNL d   1      26.825 -10.777  -4.314  0.00  0.00    -0.132 NA
ATOM      3  N   UNL d   1      25.645 -11.436  -4.442  0.00  0.00    -0.103 N 
ATOM      4  C   UNL d   1      25.821 -12.798  -4.504  0.00  0.00     0.739 A 
ATOM      5  N   UNL d   1      27.114 -13.029  -4.446  0.00  0.00    -0.034 NA
ATOM      6  H   UNL d   1      24.785 -10.902  -4.490  0.00  0.00     0.208 HD
ENDROOT
BRANCH   1   7
ATOM      7  S   UNL d   1      29.428 -11.619  -4.521  0.00  0.00    -0.079 SA
BRANCH   7   8
ATOM      8  C   UNL d   1      29.979 -13.164  -5.288  0.00  0.00     0.185 C 
BRANCH   8   9
ATOM      9  C   UNL d   1      29.202 -13.487  -6.583  0.00  0.00     0.231 C 
ATOM     10  O   UNL d   1      28.544 -12.651  -7.220  0.00  0.00    -0.272 OA
ATOM     11  N   UNL d   1      29.295 -14.750  -7.134  0.00  0.00    -0.327 N 
ATOM     12  H   UNL d   1      28.921 -14.816  -8.076  0.00  0.00     0.169 HD
BRANCH  11  13
ATOM     13  C   UNL d   1      29.832 -15.912  -6.565  0.00  0.00     0.034 A 
ATOM     14  C   UNL d   1      29.489 -16.276  -5.261  0.00  0.00     0.030 A 
ATOM     15  C   UNL d   1      30.030 -17.440  -4.699  0.00  0.00     0.018 A 
ATOM     16  C   UNL d   1      30.876 -18.269  -5.452  0.00  0.00     0.048 A 
ATOM     17  C   UNL d   1      31.258 -17.860  -6.731  0.00  0.00     0.018 A 
ATOM     18  C   UNL d   1      30.765 -16.676  -7.262  0.00  0.00     0.030 A 
BRANCH  16  19
ATOM     19  C   UNL d   1      31.346 -19.598  -4.917  0.00  0.00     0.417 C 
ATOM     20  F   UNL d   1      32.148 -20.265  -5.788  0.00  0.00    -0.166 F 
ATOM     21  F   UNL d   1      32.061 -19.460  -3.767  0.00  0.00    -0.166 F 
ATOM     22  F   UNL d   1      30.324 -20.448  -4.618  0.00  0.00    -0.166 F 
ENDBRANCH  16  19
ENDBRANCH  11  13
ENDBRANCH   8   9
ENDBRANCH   7   8
ENDBRANCH   1   7
BRANCH   4  23
ATOM     23  N   UNL d   1      24.795 -13.693  -4.613  0.00  0.00    -0.106 N 
ATOM     24  H   UNL d   1      24.043 -13.556  -5.287  0.00  0.00     0.208 HD
BRANCH  23  25
ATOM     25  N   UNL d   1      24.789 -14.824  -3.828  0.00  0.00    -0.172 NA
ATOM     26  C   UNL d   1      24.608 -14.689  -2.552  0.00  0.00     0.152 C 
BRANCH  26  27
ATOM     27  C   UNL d   1      24.542 -15.877  -1.654  0.00  0.00     0.006 A 
ATOM     28  C   UNL d   1      23.286 -16.372  -1.262  0.00  0.00     0.015 A 
ATOM     29  C   UNL d   1      23.194 -17.489  -0.425  0.00  0.00     0.003 A 
ATOM     30  C   UNL d   1      24.351 -18.120   0.028  0.00  0.00     0.026 A 
ATOM     31  C   UNL d   1      25.606 -17.637  -0.360  0.00  0.00     0.056 A 
ATOM     32 CL   UNL d   1      26.993 -18.491   0.231  0.00  0.00    -0.083 Cl
ATOM     33  C   UNL d   1      25.711 -16.511  -1.199  0.00  0.00     0.067 A 
ATOM     34 CL   UNL d   1      27.272 -15.884  -1.629  0.00  0.00    -0.082 Cl
ENDBRANCH  26  27
ENDBRANCH  23  25
ENDBRANCH   4  23
TORSDOF 8
ENDMDL
MODEL 5
REMARK VINA RESULT:    -8.174      5.519     10.306
REMARK INTER + INTRA:         -11.730
REMARK INTER:                 -10.561
REMARK INTRA:                  -1.169
REMARK CONF_INDEPENDENT:        2.386
REMARK UNBOUND:                -1.169
REMARK  8 active torsions:
REMARK  status: ('A' for Active; 'I' for Inactive)
REMARK    1  A    between atoms: C_2  and  C_3 
REMARK       I    between atoms: C_2  and  N_21 
REMARK    2  A    between atoms: C_3  and  S_4 
REMARK    3  A    between atoms: S_4  and  C_5 
REMARK    4  A    between atoms: C_8  and  N_9 
REMARK    5  A    between atoms: N_9  and  N_10 
REMARK    6  A    between atoms: C_11  and  C_12 
REMARK    7  A    between atoms: N_21  and  C_22 
REMARK    8  A    between atoms: C_25  and  C_26 
ROOT
ATOM      1  C   UNL d   1      27.786 -13.604   1.140  0.00  0.00     0.226 A 
ATOM      2  N   UNL d   1      28.975 -14.163   0.885  0.00  0.00    -0.132 NA
ATOM      3  N   UNL d   1      29.208 -14.825   2.048  0.00  0.00    -0.103 N 
ATOM      4  C   UNL d   1      28.163 -14.695   2.931  0.00  0.00     0.739 A 
ATOM      5  N   UNL d   1      27.261 -13.926   2.362  0.00  0.00    -0.034 NA
ATOM      6  H   UNL d   1      30.083 -15.321   2.165  0.00  0.00     0.208 HD
ENDROOT
BRANCH   1   7
ATOM      7  S   UNL d   1      27.030 -12.372   0.152  0.00  0.00    -0.079 SA
BRANCH   7   8
ATOM      8  C   UNL d   1      26.712 -13.179  -1.437  0.00  0.00     0.185 C 
BRANCH   8   9
ATOM      9  C   UNL d   1      27.890 -14.072  -1.890  0.00  0.00     0.231 C 
ATOM     10  O   UNL d   1      28.964 -13.628  -2.322  0.00  0.00    -0.272 OA
ATOM     11  N   UNL d   1      27.802 -15.442  -1.737  0.00  0.00    -0.327 N 
ATOM     12  H   UNL d   1      28.684 -15.927  -1.872  0.00  0.00     0.169 HD
BRANCH  11  13
ATOM     13  C   UNL d   1      26.676 -16.214  -1.424  0.00  0.00     0.034 A 
ATOM     14  C   UNL d   1      26.705 -17.081  -0.329  0.00  0.00     0.030 A 
ATOM     15  C   UNL d   1      25.574 -17.850  -0.022  0.00  0.00     0.018 A 
ATOM     16  C   UNL d   1      24.397 -17.720  -0.776  0.00  0.00     0.048 A 
ATOM     17  C   UNL d   1      24.405 -16.896  -1.903  0.00  0.00     0.018 A 
ATOM     18  C   UNL d   1      25.547 -16.180  -2.236  0.00  0.00     0.030 A 
BRANCH  16  19
ATOM     19  C   UNL d   1      23.128 -18.426  -0.370  0.00  0.00     0.417 C 
ATOM     20  F   UNL d   1      23.026 -19.675  -0.896  0.00  0.00    -0.166 F 
ATOM     21  F   UNL d   1      23.035 -18.570   0.980  0.00  0.00    -0.166 F 
ATOM     22  F   UNL d   1      22.000 -17.763  -0.750  0.00  0.00    -0.166 F 
ENDBRANCH  16  19
ENDBRANCH  11  13
ENDBRANCH   8   9
ENDBRANCH   7   8
ENDBRANCH   1   7
BRANCH   4  23
ATOM     23  N   UNL d   1      28.134 -15.279   4.166  0.00  0.00    -0.106 N 
ATOM     24  H   UNL d   1      28.213 -16.289   4.275  0.00  0.00     0.208 HD
BRANCH  23  25
ATOM     25  N   UNL d   1      28.032 -14.492   5.291  0.00  0.00    -0.172 NA
ATOM     26  C   UNL d   1      29.072 -14.365   6.052  0.00  0.00     0.152 C 
BRANCH  26  27
ATOM     27  C   UNL d   1      29.043 -13.489   7.258  0.00  0.00     0.006 A 
ATOM     28  C   UNL d   1      28.905 -14.074   8.528  0.00  0.00     0.015 A 
ATOM     29  C   UNL d   1      28.882 -13.278   9.678  0.00  0.00     0.003 A 
ATOM     30  C   UNL d   1      28.994 -11.893   9.570  0.00  0.00     0.026 A 
ATOM     31  C   UNL d   1      29.134 -11.301   8.310  0.00  0.00     0.056 A 
ATOM     32 CL   UNL d   1      29.288  -9.576   8.266  0.00  0.00    -0.083 Cl
ATOM     33  C   UNL d   1      29.156 -12.093   7.146  0.00  0.00     0.067 A 
ATOM     34 CL   UNL d   1      29.275 -11.346   5.583  0.00  0.00    -0.082 Cl
ENDBRANCH  26  27
ENDBRANCH  23  25
ENDBRANCH   4  23
TORSDOF 8
ENDMDL
MODEL 6
REMARK VINA RESULT:    -8.157      9.391     11.231
REMARK INTER + INTRA:         -11.629
REMARK INTER:                 -10.544
REMARK INTRA:                  -1.085
REMARK CONF_INDEPENDENT:        2.386
REMARK UNBOUND:                -1.085
REMARK  8 active torsions:
REMARK  status: ('A' for Active; 'I' for Inactive)
REMARK    1  A    between atoms: C_2  and  C_3 
REMARK       I    between atoms: C_2  and  N_21 
REMARK    2  A    between atoms: C_3  and  S_4 
REMARK    3  A    between atoms: S_4  and  C_5 
REMARK    4  A    between atoms: C_8  and  N_9 
REMARK    5  A    between atoms: N_9  and  N_10 
REMARK    6  A    between atoms: C_11  and  C_12 
REMARK    7  A    between atoms: N_21  and  C_22 
REMARK    8  A    between atoms: C_25  and  C_26 
ROOT
ATOM      1  C   UNL d   1      26.618 -13.908  -4.907  0.00  0.00     0.226 A 
ATOM      2  N   UNL d   1      27.186 -12.708  -5.082  0.00  0.00    -0.132 NA
ATOM      3  N   UNL d   1      28.195 -13.017  -5.936  0.00  0.00    -0.103 N 
ATOM      4  C   UNL d   1      28.182 -14.346  -6.286  0.00  0.00     0.739 A 
ATOM      5  N   UNL d   1      27.187 -14.913  -5.640  0.00  0.00    -0.034 NA
ATOM      6  H   UNL d   1      28.840 -12.289  -6.221  0.00  0.00     0.208 HD
ENDROOT
BRANCH   1   7
ATOM      7  S   UNL d   1      25.417 -14.276  -3.688  0.00  0.00    -0.079 SA
BRANCH   7   8
ATOM      8  C   UNL d   1      25.816 -15.953  -3.134  0.00  0.00     0.185 C 
BRANCH   8   9
ATOM      9  C   UNL d   1      26.434 -15.973  -1.717  0.00  0.00     0.231 C 
ATOM     10  O   UNL d   1      27.570 -15.549  -1.454  0.00  0.00    -0.272 OA
ATOM     11  N   UNL d   1      25.672 -16.404  -0.649  0.00  0.00    -0.327 N 
ATOM     12  H   UNL d   1      26.082 -16.199   0.257  0.00  0.00     0.169 HD
BRANCH  11  13
ATOM     13  C   UNL d   1      24.438 -17.066  -0.670  0.00  0.00     0.034 A 
ATOM     14  C   UNL d   1      24.383 -18.452  -0.500  0.00  0.00     0.030 A 
ATOM     15  C   UNL d   1      23.145 -19.106  -0.521  0.00  0.00     0.018 A 
ATOM     16  C   UNL d   1      21.954 -18.376  -0.664  0.00  0.00     0.048 A 
ATOM     17  C   UNL d   1      22.030 -17.001  -0.894  0.00  0.00     0.018 A 
ATOM     18  C   UNL d   1      23.264 -16.365  -0.930  0.00  0.00     0.030 A 
BRANCH  16  19
ATOM     19  C   UNL d   1      20.609 -19.044  -0.539  0.00  0.00     0.417 C 
ATOM     20  F   UNL d   1      19.573 -18.198  -0.784  0.00  0.00    -0.166 F 
ATOM     21  F   UNL d   1      20.471 -20.080  -1.411  0.00  0.00    -0.166 F 
ATOM     22  F   UNL d   1      20.382 -19.569   0.698  0.00  0.00    -0.166 F 
ENDBRANCH  16  19
ENDBRANCH  11  13
ENDBRANCH   8   9
ENDBRANCH   7   8
ENDBRANCH   1   7
BRANCH   4  23
ATOM     23  N   UNL d   1      29.076 -14.914  -7.149  0.00  0.00    -0.106 N 
ATOM     24  H   UNL d   1      29.337 -14.453  -8.020  0.00  0.00     0.208 HD
BRANCH  23  25
ATOM     25  N   UNL d   1      29.670 -16.114  -6.825  0.00  0.00    -0.172 NA
ATOM     26  C   UNL d   1      29.661 -16.493  -5.587  0.00  0.00     0.152 C 
BRANCH  26  27
ATOM     27  C   UNL d   1      30.243 -17.804  -5.179  0.00  0.00     0.006 A 
ATOM     28  C   UNL d   1      30.441 -18.799  -6.151  0.00  0.00     0.015 A 
ATOM     29  C   UNL d   1      30.992 -20.036  -5.798  0.00  0.00     0.003 A 
ATOM     30  C   UNL d   1      31.348 -20.289  -4.474  0.00  0.00     0.026 A 
ATOM     31  C   UNL d   1      31.158 -19.303  -3.500  0.00  0.00     0.056 A 
ATOM     32 CL   UNL d   1      31.645 -19.692  -1.883  0.00  0.00    -0.083 Cl
ATOM     33  C   UNL d   1      30.601 -18.056  -3.843  0.00  0.00     0.067 A 
ATOM     34 CL   UNL d   1      30.317 -16.859  -2.618  0.00  0.00    -0.082 Cl
ENDBRANCH  26  27
ENDBRANCH  23  25
ENDBRANCH   4  23
TORSDOF 8
ENDMDL
MODEL 7
REMARK VINA RESULT:    -7.797      3.094      4.311
REMARK INTER + INTRA:         -11.711
REMARK INTER:                 -10.184
REMARK INTRA:                  -1.527
REMARK CONF_INDEPENDENT:        2.386
REMARK UNBOUND:                -1.527
REMARK  8 active torsions:
REMARK  status: ('A' for Active; 'I' for Inactive)
REMARK    1  A    between atoms: C_2  and  C_3 
REMARK       I    between atoms: C_2  and  N_21 
REMARK    2  A    between atoms: C_3  and  S_4 
REMARK    3  A    between atoms: S_4  and  C_5 
REMARK    4  A    between atoms: C_8  and  N_9 
REMARK    5  A    between atoms: N_9  and  N_10 
REMARK    6  A    between atoms: C_11  and  C_12 
REMARK    7  A    between atoms: N_21  and  C_22 
REMARK    8  A    between atoms: C_25  and  C_26 
ROOT
ATOM      1  C   UNL d   1      31.740 -14.970   1.598  0.00  0.00     0.226 A 
ATOM      2  N   UNL d   1      31.914 -16.137   2.231  0.00  0.00    -0.132 NA
ATOM      3  N   UNL d   1      31.533 -17.016   1.268  0.00  0.00    -0.103 N 
ATOM      4  C   UNL d   1      31.195 -16.381   0.097  0.00  0.00     0.739 A 
ATOM      5  N   UNL d   1      31.326 -15.088   0.299  0.00  0.00    -0.034 NA
ATOM      6  H   UNL d   1      31.520 -18.006   1.483  0.00  0.00     0.208 HD
ENDROOT
BRANCH   1   7
ATOM      7  S   UNL d   1      31.780 -13.400   2.371  0.00  0.00    -0.079 SA
BRANCH   7   8
ATOM      8  C   UNL d   1      30.043 -12.923   2.548  0.00  0.00     0.185 C 
BRANCH   8   9
ATOM      9  C   UNL d   1      29.091 -14.139   2.494  0.00  0.00     0.231 C 
ATOM     10  O   UNL d   1      28.783 -14.728   1.447  0.00  0.00    -0.272 OA
ATOM     11  N   UNL d   1      28.606 -14.675   3.671  0.00  0.00    -0.327 N 
ATOM     12  H   UNL d   1      28.157 -15.579   3.556  0.00  0.00     0.169 HD
BRANCH  11  13
ATOM     13  C   UNL d   1      28.665 -14.138   4.963  0.00  0.00     0.034 A 
ATOM     14  C   UNL d   1      27.780 -13.125   5.341  0.00  0.00     0.030 A 
ATOM     15  C   UNL d   1      27.844 -12.592   6.635  0.00  0.00     0.018 A 
ATOM     16  C   UNL d   1      28.759 -13.102   7.571  0.00  0.00     0.048 A 
ATOM     17  C   UNL d   1      29.676 -14.070   7.160  0.00  0.00     0.018 A 
ATOM     18  C   UNL d   1      29.646 -14.553   5.859  0.00  0.00     0.030 A 
BRANCH  16  19
ATOM     19  C   UNL d   1      28.740 -12.646   9.008  0.00  0.00     0.417 C 
ATOM     20  F   UNL d   1      28.447 -11.326   9.140  0.00  0.00    -0.166 F 
ATOM     21  F   UNL d   1      27.816 -13.320   9.745  0.00  0.00    -0.166 F 
ATOM     22  F   UNL d   1      29.930 -12.834   9.647  0.00  0.00    -0.166 F 
ENDBRANCH  16  19
ENDBRANCH  11  13
ENDBRANCH   8   9
ENDBRANCH   7   8
ENDBRANCH   1   7
BRANCH   4  23
ATOM     23  N   UNL d   1      30.797 -17.034  -1.034  0.00  0.00    -0.106 N 
ATOM     24  H   UNL d   1      31.440 -17.628  -1.557  0.00  0.00     0.208 HD
BRANCH  23  25
ATOM     25  N   UNL d   1      29.493 -16.924  -1.463  0.00  0.00    -0.172 NA
ATOM     26  C   UNL d   1      28.548 -16.939  -0.577  0.00  0.00     0.152 C 
BRANCH  26  27
ATOM     27  C   UNL d   1      27.120 -16.774  -0.972  0.00  0.00     0.006 A 
ATOM     28  C   UNL d   1      26.791 -15.879  -2.004  0.00  0.00     0.015 A 
ATOM     29  C   UNL d   1      25.460 -15.710  -2.399  0.00  0.00     0.003 A 
ATOM     30  C   UNL d   1      24.447 -16.431  -1.769  0.00  0.00     0.026 A 
ATOM     31  C   UNL d   1      24.765 -17.327  -0.742  0.00  0.00     0.056 A 
ATOM     32 CL   UNL d   1      23.449 -18.197  -0.025  0.00  0.00    -0.083 Cl
ATOM     33  C   UNL d   1      26.101 -17.502  -0.334  0.00  0.00     0.067 A 
ATOM     34 CL   UNL d   1      26.479 -18.575   0.978  0.00  0.00    -0.082 Cl
ENDBRANCH  26  27
ENDBRANCH  23  25
ENDBRANCH   4  23
TORSDOF 8
ENDMDL
MODEL 8
REMARK VINA RESULT:    -7.736      2.896      3.683
REMARK INTER + INTRA:         -11.672
REMARK INTER:                 -10.122
REMARK INTRA:                  -1.550
REMARK CONF_INDEPENDENT:        2.386
REMARK UNBOUND:                -1.550
REMARK  8 active torsions:
REMARK  status: ('A' for Active; 'I' for Inactive)
REMARK    1  A    between atoms: C_2  and  C_3 
REMARK       I    between atoms: C_2  and  N_21 
REMARK    2  A    between atoms: C_3  and  S_4 
REMARK    3  A    between atoms: S_4  and  C_5 
REMARK    4  A    between atoms: C_8  and  N_9 
REMARK    5  A    between atoms: N_9  and  N_10 
REMARK    6  A    between atoms: C_11  and  C_12 
REMARK    7  A    between atoms: N_21  and  C_22 
REMARK    8  A    between atoms: C_25  and  C_26 
ROOT
ATOM      1  C   UNL d   1      30.302 -11.499   2.526  0.00  0.00     0.226 A 
ATOM      2  N   UNL d   1      31.176 -12.041   3.384  0.00  0.00    -0.132 NA
ATOM      3  N   UNL d   1      30.905 -13.363   3.233  0.00  0.00    -0.103 N 
ATOM      4  C   UNL d   1      29.940 -13.585   2.281  0.00  0.00     0.739 A 
ATOM      5  N   UNL d   1      29.556 -12.410   1.829  0.00  0.00    -0.034 NA
ATOM      6  H   UNL d   1      31.401 -14.035   3.807  0.00  0.00     0.208 HD
ENDROOT
BRANCH   1   7
ATOM      7  S   UNL d   1      29.923  -9.793   2.432  0.00  0.00    -0.079 SA
BRANCH   7   8
ATOM      8  C   UNL d   1      28.169  -9.730   1.987  0.00  0.00     0.185 C 
BRANCH   8   9
ATOM      9  C   UNL d   1      27.311  -9.039   3.071  0.00  0.00     0.231 C 
ATOM     10  O   UNL d   1      26.776  -7.930   2.924  0.00  0.00    -0.272 OA
ATOM     11  N   UNL d   1      27.037  -9.707   4.249  0.00  0.00    -0.327 N 
ATOM     12  H   UNL d   1      26.314  -9.268   4.811  0.00  0.00     0.169 HD
BRANCH  11  13
ATOM     13  C   UNL d   1      27.620 -10.882   4.740  0.00  0.00     0.034 A 
ATOM     14  C   UNL d   1      28.481 -10.831   5.839  0.00  0.00     0.030 A 
ATOM     15  C   UNL d   1      29.059 -12.011   6.325  0.00  0.00     0.018 A 
ATOM     16  C   UNL d   1      28.742 -13.251   5.747  0.00  0.00     0.048 A 
ATOM     17  C   UNL d   1      27.929 -13.278   4.612  0.00  0.00     0.018 A 
ATOM     18  C   UNL d   1      27.405 -12.099   4.099  0.00  0.00     0.030 A 
BRANCH  16  19
ATOM     19  C   UNL d   1      29.235 -14.542   6.349  0.00  0.00     0.417 C 
ATOM     20  F   UNL d   1      29.457 -14.451   7.687  0.00  0.00    -0.166 F 
ATOM     21  F   UNL d   1      28.346 -15.557   6.177  0.00  0.00    -0.166 F 
ATOM     22  F   UNL d   1      30.405 -14.978   5.801  0.00  0.00    -0.166 F 
ENDBRANCH  16  19
ENDBRANCH  11  13
ENDBRANCH   8   9
ENDBRANCH   7   8
ENDBRANCH   1   7
BRANCH   4  23
ATOM     23  N   UNL d   1      29.498 -14.826   1.921  0.00  0.00    -0.106 N 
ATOM     24  H   UNL d   1      30.054 -15.660   2.105  0.00  0.00     0.208 HD
BRANCH  23  25
ATOM     25  N   UNL d   1      28.262 -14.966   1.330  0.00  0.00    -0.172 NA
ATOM     26  C   UNL d   1      28.183 -15.609   0.208  0.00  0.00     0.152 C 
BRANCH  26  27
ATOM     27  C   UNL d   1      26.869 -15.837  -0.458  0.00  0.00     0.006 A 
ATOM     28  C   UNL d   1      26.391 -14.887  -1.376  0.00  0.00     0.015 A 
ATOM     29  C   UNL d   1      25.165 -15.078  -2.022  0.00  0.00     0.003 A 
ATOM     30  C   UNL d   1      24.406 -16.218  -1.757  0.00  0.00     0.026 A 
ATOM     31  C   UNL d   1      24.876 -17.171  -0.847  0.00  0.00     0.056 A 
ATOM     32 CL   UNL d   1      23.882 -18.567  -0.590  0.00  0.00    -0.083 Cl
ATOM     33  C   UNL d   1      26.107 -16.987  -0.189  0.00  0.00     0.067 A 
ATOM     34 CL   UNL d   1      26.655 -18.148   0.980  0.00  0.00    -0.082 Cl
ENDBRANCH  26  27
ENDBRANCH  23  25
ENDBRANCH   4  23
TORSDOF 8
ENDMDL
MODEL 9
REMARK VINA RESULT:    -7.471      9.525     11.513
REMARK INTER + INTRA:         -11.579
REMARK INTER:                  -9.857
REMARK INTRA:                  -1.721
REMARK CONF_INDEPENDENT:        2.386
REMARK UNBOUND:                -1.721
REMARK  8 active torsions:
REMARK  status: ('A' for Active; 'I' for Inactive)
REMARK    1  A    between atoms: C_2  and  C_3 
REMARK       I    between atoms: C_2  and  N_21 
REMARK    2  A    between atoms: C_3  and  S_4 
REMARK    3  A    between atoms: S_4  and  C_5 
REMARK    4  A    between atoms: C_8  and  N_9 
REMARK    5  A    between atoms: N_9  and  N_10 
REMARK    6  A    between atoms: C_11  and  C_12 
REMARK    7  A    between atoms: N_21  and  C_22 
REMARK    8  A    between atoms: C_25  and  C_26 
ROOT
ATOM      1  C   UNL d   1      27.053 -11.355  -5.129  0.00  0.00     0.226 A 
ATOM      2  N   UNL d   1      27.058 -11.209  -3.798  0.00  0.00    -0.132 NA
ATOM      3  N   UNL d   1      26.080 -12.078  -3.435  0.00  0.00    -0.103 N 
ATOM      4  C   UNL d   1      25.557 -12.745  -4.518  0.00  0.00     0.739 A 
ATOM      5  N   UNL d   1      26.170 -12.292  -5.590  0.00  0.00    -0.034 NA
ATOM      6  H   UNL d   1      25.824 -12.152  -2.457  0.00  0.00     0.208 HD
ENDROOT
BRANCH   1   7
ATOM      7  S   UNL d   1      27.892 -10.305  -6.251  0.00  0.00    -0.079 SA
BRANCH   7   8
ATOM      8  C   UNL d   1      29.114 -11.369  -7.058  0.00  0.00     0.185 C 
BRANCH   8   9
ATOM      9  C   UNL d   1      28.484 -12.271  -8.143  0.00  0.00     0.231 C 
ATOM     10  O   UNL d   1      27.974 -11.839  -9.188  0.00  0.00    -0.272 OA
ATOM     11  N   UNL d   1      28.554 -13.644  -8.010  0.00  0.00    -0.327 N 
ATOM     12  H   UNL d   1      28.297 -14.151  -8.852  0.00  0.00     0.169 HD
BRANCH  11  13
ATOM     13  C   UNL d   1      28.930 -14.393  -6.888  0.00  0.00     0.034 A 
ATOM     14  C   UNL d   1      30.094 -15.166  -6.920  0.00  0.00     0.030 A 
ATOM     15  C   UNL d   1      30.464 -15.913  -5.793  0.00  0.00     0.018 A 
ATOM     16  C   UNL d   1      29.701 -15.852  -4.616  0.00  0.00     0.048 A 
ATOM     17  C   UNL d   1      28.509 -15.124  -4.621  0.00  0.00     0.018 A 
ATOM     18  C   UNL d   1      28.118 -14.433  -5.759  0.00  0.00     0.030 A 
BRANCH  16  19
ATOM     19  C   UNL d   1      30.164 -16.527  -3.351  0.00  0.00     0.417 C 
ATOM     20  F   UNL d   1      29.274 -17.442  -2.883  0.00  0.00    -0.166 F 
ATOM     21  F   UNL d   1      31.338 -17.192  -3.528  0.00  0.00    -0.166 F 
ATOM     22  F   UNL d   1      30.383 -15.656  -2.325  0.00  0.00    -0.166 F 
ENDBRANCH  16  19
ENDBRANCH  11  13
ENDBRANCH   8   9
ENDBRANCH   7   8
ENDBRANCH   1   7
BRANCH   4  23
ATOM     23  N   UNL d   1      24.575 -13.689  -4.428  0.00  0.00    -0.106 N 
ATOM     24  H   UNL d   1      23.697 -13.589  -4.935  0.00  0.00     0.208 HD
BRANCH  23  25
ATOM     25  N   UNL d   1      24.781 -14.819  -3.668  0.00  0.00    -0.172 NA
ATOM     26  C   UNL d   1      24.363 -14.823  -2.442  0.00  0.00     0.152 C 
BRANCH  26  27
ATOM     27  C   UNL d   1      24.511 -16.032  -1.582  0.00  0.00     0.006 A 
ATOM     28  C   UNL d   1      23.365 -16.757  -1.213  0.00  0.00     0.015 A 
ATOM     29  C   UNL d   1      23.474 -17.899  -0.413  0.00  0.00     0.003 A 
ATOM     30  C   UNL d   1      24.727 -18.326   0.026  0.00  0.00     0.026 A 
ATOM     31  C   UNL d   1      25.874 -17.613  -0.339  0.00  0.00     0.056 A 
ATOM     32 CL   UNL d   1      27.391 -18.223   0.233  0.00  0.00    -0.083 Cl
ATOM     33  C   UNL d   1      25.775 -16.460  -1.141  0.00  0.00     0.067 A 
ATOM     34 CL   UNL d   1      27.198 -15.550  -1.542  0.00  0.00    -0.082 Cl
ENDBRANCH  26  27
ENDBRANCH  23  25
ENDBRANCH   4  23
TORSDOF 8
ENDMDL
