MODEL 1
REMARK VINA RESULT:    -7.236      0.000      0.000
REMARK INTER + INTRA:         -10.027
REMARK INTER:                  -9.026
REMARK INTRA:                  -1.001
REMARK CONF_INDEPENDENT:        1.790
REMARK UNBOUND:                -1.001
REMARK  6 active torsions:
REMARK  status: ('A' for Active; 'I' for Inactive)
REMARK       I    between atoms: C_2  and  N_3 
REMARK    1  A    between atoms: C_2  and  C_13 
REMARK    2  A    between atoms: N_3  and  C_4 
REMARK    3  A    between atoms: C_4  and  C_5 
REMARK    4  A    between atoms: C_10  and  C_11 
REMARK    5  A    between atoms: C_11  and  O_12 
REMARK    6  A    between atoms: C_19  and  O_20 
ROOT
ATOM      1  O   UNL d   1      24.061 -13.990  -4.263  0.00  0.00    -0.268 OA
ATOM      2  C   UNL d   1      25.226 -14.285  -4.001  0.00  0.00     0.254 C 
ATOM      3  N   UNL d   1      25.578 -15.040  -2.898  0.00  0.00    -0.353 N 
ATOM      4  H   UNL d   1      26.546 -15.255  -2.697  0.00  0.00     0.163 HD
ENDROOT
BRANCH   3   5
ATOM      5  C   UNL d   1      24.540 -15.595  -2.059  0.00  0.00     0.162 C 
BRANCH   5   6
ATOM      6  C   UNL d   1      25.081 -16.526  -1.001  0.00  0.00    -0.032 C 
ATOM      7  C   UNL d   1      26.402 -16.302  -0.554  0.00  0.00     0.009 C 
ATOM      8  C   UNL d   1      27.072 -17.238   0.231  0.00  0.00     0.001 C 
ATOM      9  C   UNL d   1      26.409 -18.378   0.660  0.00  0.00     0.001 C 
ATOM     10  C   UNL d   1      25.076 -18.575   0.298  0.00  0.00     0.010 C 
ATOM     11  C   UNL d   1      24.379 -17.645  -0.511  0.00  0.00    -0.027 C 
BRANCH  11  12
ATOM     12  C   UNL d   1      22.925 -17.977  -0.796  0.00  0.00     0.203 C 
BRANCH  12  13
ATOM     13  O   UNL d   1      22.146 -18.482   0.273  0.00  0.00    -0.396 OA
ATOM     14  H   UNL d   1      22.534 -19.322   0.569  0.00  0.00     0.209 HD
ENDBRANCH  12  13
ENDBRANCH  11  12
ENDBRANCH   5   6
ENDBRANCH   3   5
BRANCH   2  15
ATOM     15  C   UNL d   1      26.333 -13.870  -4.899  0.00  0.00     0.066 A 
ATOM     16  C   UNL d   1      27.270 -14.826  -5.313  0.00  0.00     0.043 A 
ATOM     17  C   UNL d   1      28.336 -14.438  -6.123  0.00  0.00     0.035 A 
ATOM     18 CL   UNL d   1      29.595 -15.560  -6.465  0.00  0.00    -0.084 Cl
ATOM     19  C   UNL d   1      28.424 -13.135  -6.608  0.00  0.00     0.026 A 
ATOM     20  C   UNL d   1      27.476 -12.185  -6.225  0.00  0.00     0.039 A 
ATOM     21  C   UNL d   1      26.440 -12.550  -5.360  0.00  0.00     0.081 A 
BRANCH  21  22
ATOM     22  O   UNL d   1      25.554 -11.600  -4.938  0.00  0.00    -0.360 OA
ATOM     23  H   UNL d   1      24.736 -12.014  -4.619  0.00  0.00     0.217 HD
ENDBRANCH  21  22
ENDBRANCH   2  15
TORSDOF 6
ENDMDL
MODEL 2
REMARK VINA RESULT:    -6.557      5.252      7.308
REMARK INTER + INTRA:         -10.950
REMARK INTER:                  -8.347
REMARK INTRA:                  -2.603
REMARK CONF_INDEPENDENT:        1.790
REMARK UNBOUND:                -2.603
REMARK  6 active torsions:
REMARK  status: ('A' for Active; 'I' for Inactive)
REMARK       I    between atoms: C_2  and  N_3 
REMARK    1  A    between atoms: C_2  and  C_13 
REMARK    2  A    between atoms: N_3  and  C_4 
REMARK    3  A    between atoms: C_4  and  C_5 
REMARK    4  A    between atoms: C_10  and  C_11 
REMARK    5  A    between atoms: C_11  and  O_12 
REMARK    6  A    between atoms: C_19  and  O_20 
ROOT
ATOM      1  O   UNL d   1      26.268 -12.936   1.528  0.00  0.00    -0.268 OA
ATOM      2  C   UNL d   1      27.030 -13.879   1.734  0.00  0.00     0.254 C 
ATOM      3  N   UNL d   1      27.120 -14.968   0.889  0.00  0.00    -0.353 N 
ATOM      4  H   UNL d   1      27.745 -15.739   1.089  0.00  0.00     0.163 HD
ENDROOT
BRANCH   3   5
ATOM      5  C   UNL d   1      26.363 -14.974  -0.343  0.00  0.00     0.162 C 
BRANCH   5   6
ATOM      6  C   UNL d   1      25.581 -16.249  -0.542  0.00  0.00    -0.032 C 
ATOM      7  C   UNL d   1      24.336 -16.149  -1.202  0.00  0.00     0.009 C 
ATOM      8  C   UNL d   1      23.437 -17.214  -1.220  0.00  0.00     0.001 C 
ATOM      9  C   UNL d   1      23.796 -18.429  -0.655  0.00  0.00     0.001 C 
ATOM     10  C   UNL d   1      25.057 -18.571  -0.075  0.00  0.00     0.010 C 
ATOM     11  C   UNL d   1      25.981 -17.500  -0.031  0.00  0.00    -0.027 C 
BRANCH  11  12
ATOM     12  C   UNL d   1      27.324 -17.813   0.604  0.00  0.00     0.203 C 
BRANCH  12  13
ATOM     13  O   UNL d   1      28.432 -17.020   0.218  0.00  0.00    -0.396 OA
ATOM     14  H   UNL d   1      29.028 -16.929   0.980  0.00  0.00     0.209 HD
ENDBRANCH  12  13
ENDBRANCH  11  12
ENDBRANCH   5   6
ENDBRANCH   3   5
BRANCH   2  15
ATOM     15  C   UNL d   1      27.944 -13.874   2.905  0.00  0.00     0.066 A 
ATOM     16  C   UNL d   1      27.503 -13.314   4.111  0.00  0.00     0.043 A 
ATOM     17  C   UNL d   1      28.368 -13.267   5.203  0.00  0.00     0.035 A 
ATOM     18 CL   UNL d   1      27.904 -12.401   6.617  0.00  0.00    -0.084 Cl
ATOM     19  C   UNL d   1      29.626 -13.862   5.142  0.00  0.00     0.026 A 
ATOM     20  C   UNL d   1      30.059 -14.450   3.952  0.00  0.00     0.039 A 
ATOM     21  C   UNL d   1      29.224 -14.443   2.832  0.00  0.00     0.081 A 
BRANCH  21  22
ATOM     22  O   UNL d   1      29.679 -14.962   1.654  0.00  0.00    -0.360 OA
ATOM     23  H   UNL d   1      29.663 -15.932   1.678  0.00  0.00     0.217 HD
ENDBRANCH  21  22
ENDBRANCH   2  15
TORSDOF 6
ENDMDL
MODEL 3
REMARK VINA RESULT:    -5.830      2.206      3.082
REMARK INTER + INTRA:         -10.437
REMARK INTER:                  -7.620
REMARK INTRA:                  -2.817
REMARK CONF_INDEPENDENT:        1.790
REMARK UNBOUND:                -2.817
REMARK  6 active torsions:
REMARK  status: ('A' for Active; 'I' for Inactive)
REMARK       I    between atoms: C_2  and  N_3 
REMARK    1  A    between atoms: C_2  and  C_13 
REMARK    2  A    between atoms: N_3  and  C_4 
REMARK    3  A    between atoms: C_4  and  C_5 
REMARK    4  A    between atoms: C_10  and  C_11 
REMARK    5  A    between atoms: C_11  and  O_12 
REMARK    6  A    between atoms: C_19  and  O_20 
ROOT
ATOM      1  O   UNL d   1      24.030 -13.700  -4.167  0.00  0.00    -0.268 OA
ATOM      2  C   UNL d   1      25.214 -14.013  -4.059  0.00  0.00     0.254 C 
ATOM      3  N   UNL d   1      25.672 -14.888  -3.092  0.00  0.00    -0.353 N 
ATOM      4  H   UNL d   1      26.655 -15.117  -3.015  0.00  0.00     0.163 HD
ENDROOT
BRANCH   3   5
ATOM      5  C   UNL d   1      24.722 -15.546  -2.223  0.00  0.00     0.162 C 
BRANCH   5   6
ATOM      6  C   UNL d   1      25.363 -16.590  -1.343  0.00  0.00    -0.032 C 
ATOM      7  C   UNL d   1      24.566 -17.691  -0.958  0.00  0.00     0.009 C 
ATOM      8  C   UNL d   1      24.980 -18.575   0.037  0.00  0.00     0.001 C 
ATOM      9  C   UNL d   1      26.235 -18.430   0.609  0.00  0.00     0.001 C 
ATOM     10  C   UNL d   1      27.070 -17.398   0.180  0.00  0.00     0.010 C 
ATOM     11  C   UNL d   1      26.667 -16.480  -0.819  0.00  0.00    -0.027 C 
BRANCH  11  12
ATOM     12  C   UNL d   1      27.693 -15.430  -1.205  0.00  0.00     0.203 C 
BRANCH  12  13
ATOM     13  O   UNL d   1      28.279 -15.528  -2.490  0.00  0.00    -0.396 OA
ATOM     14  H   UNL d   1      27.811 -16.216  -2.992  0.00  0.00     0.209 HD
ENDBRANCH  12  13
ENDBRANCH  11  12
ENDBRANCH   5   6
ENDBRANCH   3   5
BRANCH   2  15
ATOM     15  C   UNL d   1      26.227 -13.488  -5.009  0.00  0.00     0.066 A 
ATOM     16  C   UNL d   1      26.113 -12.169  -5.468  0.00  0.00     0.043 A 
ATOM     17  C   UNL d   1      27.034 -11.681  -6.392  0.00  0.00     0.035 A 
ATOM     18 CL   UNL d   1      26.781 -10.137  -7.109  0.00  0.00    -0.084 Cl
ATOM     19  C   UNL d   1      28.126 -12.452  -6.786  0.00  0.00     0.026 A 
ATOM     20  C   UNL d   1      28.263 -13.757  -6.308  0.00  0.00     0.039 A 
ATOM     21  C   UNL d   1      27.307 -14.278  -5.432  0.00  0.00     0.081 A 
BRANCH  21  22
ATOM     22  O   UNL d   1      27.412 -15.575  -5.020  0.00  0.00    -0.360 OA
ATOM     23  H   UNL d   1      28.285 -15.740  -4.631  0.00  0.00     0.217 HD
ENDBRANCH  21  22
ENDBRANCH   2  15
TORSDOF 6
ENDMDL
MODEL 4
REMARK VINA RESULT:    -5.722      5.776      7.525
REMARK INTER + INTRA:         -10.179
REMARK INTER:                  -7.512
REMARK INTRA:                  -2.667
REMARK CONF_INDEPENDENT:        1.790
REMARK UNBOUND:                -2.667
REMARK  6 active torsions:
REMARK  status: ('A' for Active; 'I' for Inactive)
REMARK       I    between atoms: C_2  and  N_3 
REMARK    1  A    between atoms: C_2  and  C_13 
REMARK    2  A    between atoms: N_3  and  C_4 
REMARK    3  A    between atoms: C_4  and  C_5 
REMARK    4  A    between atoms: C_10  and  C_11 
REMARK    5  A    between atoms: C_11  and  O_12 
REMARK    6  A    between atoms: C_19  and  O_20 
ROOT
ATOM      1  O   UNL d   1      26.725 -13.118   0.854  0.00  0.00    -0.268 OA
ATOM      2  C   UNL d   1      27.322 -14.149   1.156  0.00  0.00     0.254 C 
ATOM      3  N   UNL d   1      28.254 -14.205   2.175  0.00  0.00    -0.353 N 
ATOM      4  H   UNL d   1      28.743 -15.064   2.393  0.00  0.00     0.163 HD
ENDROOT
BRANCH   3   5
ATOM      5  C   UNL d   1      28.480 -13.035   2.994  0.00  0.00     0.162 C 
BRANCH   5   6
ATOM      6  C   UNL d   1      28.705 -13.374   4.447  0.00  0.00    -0.032 C 
ATOM      7  C   UNL d   1      27.819 -12.807   5.389  0.00  0.00     0.009 C 
ATOM      8  C   UNL d   1      28.082 -12.860   6.757  0.00  0.00     0.001 C 
ATOM      9  C   UNL d   1      29.190 -13.555   7.219  0.00  0.00     0.001 C 
ATOM     10  C   UNL d   1      30.030 -14.194   6.306  0.00  0.00     0.010 C 
ATOM     11  C   UNL d   1      29.791 -14.143   4.912  0.00  0.00    -0.027 C 
BRANCH  11  12
ATOM     12  C   UNL d   1      30.771 -14.912   4.045  0.00  0.00     0.203 C 
BRANCH  12  13
ATOM     13  O   UNL d   1      30.709 -14.708   2.646  0.00  0.00    -0.396 OA
ATOM     14  H   UNL d   1      30.657 -15.575   2.209  0.00  0.00     0.209 HD
ENDBRANCH  12  13
ENDBRANCH  11  12
ENDBRANCH   5   6
ENDBRANCH   3   5
BRANCH   2  15
ATOM     15  C   UNL d   1      27.035 -15.425   0.452  0.00  0.00     0.066 A 
ATOM     16  C   UNL d   1      25.723 -15.699   0.044  0.00  0.00     0.043 A 
ATOM     17  C   UNL d   1      25.436 -16.911  -0.579  0.00  0.00     0.035 A 
ATOM     18 CL   UNL d   1      23.798 -17.336  -0.897  0.00  0.00    -0.084 Cl
ATOM     19  C   UNL d   1      26.453 -17.809  -0.894  0.00  0.00     0.026 A 
ATOM     20  C   UNL d   1      27.768 -17.528  -0.519  0.00  0.00     0.039 A 
ATOM     21  C   UNL d   1      28.055 -16.344   0.166  0.00  0.00     0.081 A 
BRANCH  21  22
ATOM     22  O   UNL d   1      29.332 -16.107   0.588  0.00  0.00    -0.360 OA
ATOM     23  H   UNL d   1      29.365 -16.039   1.556  0.00  0.00     0.217 HD
ENDBRANCH  21  22
ENDBRANCH   2  15
TORSDOF 6
ENDMDL
MODEL 5
REMARK VINA RESULT:    -5.698      3.545      4.653
REMARK INTER + INTRA:         -10.311
REMARK INTER:                  -7.487
REMARK INTRA:                  -2.824
REMARK CONF_INDEPENDENT:        1.790
REMARK UNBOUND:                -2.824
REMARK  6 active torsions:
REMARK  status: ('A' for Active; 'I' for Inactive)
REMARK       I    between atoms: C_2  and  N_3 
REMARK    1  A    between atoms: C_2  and  C_13 
REMARK    2  A    between atoms: N_3  and  C_4 
REMARK    3  A    between atoms: C_4  and  C_5 
REMARK    4  A    between atoms: C_10  and  C_11 
REMARK    5  A    between atoms: C_11  and  O_12 
REMARK    6  A    between atoms: C_19  and  O_20 
ROOT
ATOM      1  O   UNL d   1      27.499 -15.466  -3.256  0.00  0.00    -0.268 OA
ATOM      2  C   UNL d   1      28.069 -16.074  -2.352  0.00  0.00     0.254 C 
ATOM      3  N   UNL d   1      27.570 -16.142  -1.065  0.00  0.00    -0.353 N 
ATOM      4  H   UNL d   1      28.068 -16.636  -0.335  0.00  0.00     0.163 HD
ENDROOT
BRANCH   3   5
ATOM      5  C   UNL d   1      26.278 -15.563  -0.773  0.00  0.00     0.162 C 
BRANCH   5   6
ATOM      6  C   UNL d   1      25.199 -16.602  -0.598  0.00  0.00    -0.032 C 
ATOM      7  C   UNL d   1      23.946 -16.343  -1.196  0.00  0.00     0.009 C 
ATOM      8  C   UNL d   1      22.823 -17.113  -0.894  0.00  0.00     0.001 C 
ATOM      9  C   UNL d   1      22.946 -18.211  -0.056  0.00  0.00     0.001 C 
ATOM     10  C   UNL d   1      24.195 -18.532   0.477  0.00  0.00     0.010 C 
ATOM     11  C   UNL d   1      25.346 -17.758   0.196  0.00  0.00    -0.027 C 
BRANCH  11  12
ATOM     12  C   UNL d   1      26.640 -18.247   0.820  0.00  0.00     0.203 C 
BRANCH  12  13
ATOM     13  O   UNL d   1      27.713 -18.556  -0.050  0.00  0.00    -0.396 OA
ATOM     14  H   UNL d   1      28.528 -18.624   0.474  0.00  0.00     0.209 HD
ENDBRANCH  12  13
ENDBRANCH  11  12
ENDBRANCH   5   6
ENDBRANCH   3   5
BRANCH   2  15
ATOM     15  C   UNL d   1      29.329 -16.815  -2.613  0.00  0.00     0.066 A 
ATOM     16  C   UNL d   1      29.708 -17.070  -3.938  0.00  0.00     0.043 A 
ATOM     17  C   UNL d   1      30.867 -17.801  -4.192  0.00  0.00     0.035 A 
ATOM     18 CL   UNL d   1      31.226 -18.290  -5.803  0.00  0.00    -0.084 Cl
ATOM     19  C   UNL d   1      31.706 -18.192  -3.151  0.00  0.00     0.026 A 
ATOM     20  C   UNL d   1      31.350 -17.913  -1.830  0.00  0.00     0.039 A 
ATOM     21  C   UNL d   1      30.156 -17.238  -1.562  0.00  0.00     0.081 A 
BRANCH  21  22
ATOM     22  O   UNL d   1      29.782 -17.026  -0.266  0.00  0.00    -0.360 OA
ATOM     23  H   UNL d   1      29.765 -17.863   0.226  0.00  0.00     0.217 HD
ENDBRANCH  21  22
ENDBRANCH   2  15
TORSDOF 6
ENDMDL
MODEL 6
REMARK VINA RESULT:    -5.600      2.154      3.061
REMARK INTER + INTRA:         -10.507
REMARK INTER:                  -7.390
REMARK INTRA:                  -3.117
REMARK CONF_INDEPENDENT:        1.790
REMARK UNBOUND:                -3.117
REMARK  6 active torsions:
REMARK  status: ('A' for Active; 'I' for Inactive)
REMARK       I    between atoms: C_2  and  N_3 
REMARK    1  A    between atoms: C_2  and  C_13 
REMARK    2  A    between atoms: N_3  and  C_4 
REMARK    3  A    between atoms: C_4  and  C_5 
REMARK    4  A    between atoms: C_10  and  C_11 
REMARK    5  A    between atoms: C_11  and  O_12 
REMARK    6  A    between atoms: C_19  and  O_20 
ROOT
ATOM      1  O   UNL d   1      25.163 -14.450  -4.352  0.00  0.00    -0.268 OA
ATOM      2  C   UNL d   1      26.297 -14.603  -3.902  0.00  0.00     0.254 C 
ATOM      3  N   UNL d   1      26.550 -14.788  -2.556  0.00  0.00    -0.353 N 
ATOM      4  H   UNL d   1      27.495 -14.896  -2.210  0.00  0.00     0.163 HD
ENDROOT
BRANCH   3   5
ATOM      5  C   UNL d   1      25.442 -14.906  -1.635  0.00  0.00     0.162 C 
BRANCH   5   6
ATOM      6  C   UNL d   1      25.200 -16.327  -1.192  0.00  0.00    -0.032 C 
ATOM      7  C   UNL d   1      23.992 -16.936  -1.599  0.00  0.00     0.009 C 
ATOM      8  C   UNL d   1      23.566 -18.144  -1.049  0.00  0.00     0.001 C 
ATOM      9  C   UNL d   1      24.378 -18.814  -0.145  0.00  0.00     0.001 C 
ATOM     10  C   UNL d   1      25.614 -18.268   0.203  0.00  0.00     0.010 C 
ATOM     11  C   UNL d   1      26.061 -17.036  -0.331  0.00  0.00    -0.027 C 
BRANCH  11  12
ATOM     12  C   UNL d   1      27.440 -16.585   0.116  0.00  0.00     0.203 C 
BRANCH  12  13
ATOM     13  O   UNL d   1      28.385 -16.271  -0.890  0.00  0.00    -0.396 OA
ATOM     14  H   UNL d   1      28.321 -16.937  -1.594  0.00  0.00     0.209 HD
ENDBRANCH  12  13
ENDBRANCH  11  12
ENDBRANCH   5   6
ENDBRANCH   3   5
BRANCH   2  15
ATOM     15  C   UNL d   1      27.473 -14.638  -4.807  0.00  0.00     0.066 A 
ATOM     16  C   UNL d   1      27.504 -13.787  -5.920  0.00  0.00     0.043 A 
ATOM     17  C   UNL d   1      28.584 -13.842  -6.798  0.00  0.00     0.035 A 
ATOM     18 CL   UNL d   1      28.530 -12.949  -8.268  0.00  0.00    -0.084 Cl
ATOM     19  C   UNL d   1      29.680 -14.658  -6.529  0.00  0.00     0.026 A 
ATOM     20  C   UNL d   1      29.671 -15.486  -5.404  0.00  0.00     0.039 A 
ATOM     21  C   UNL d   1      28.562 -15.485  -4.553  0.00  0.00     0.081 A 
BRANCH  21  22
ATOM     22  O   UNL d   1      28.531 -16.344  -3.492  0.00  0.00    -0.360 OA
ATOM     23  H   UNL d   1      29.015 -15.973  -2.738  0.00  0.00     0.217 HD
ENDBRANCH  21  22
ENDBRANCH   2  15
TORSDOF 6
ENDMDL
MODEL 7
REMARK VINA RESULT:    -5.578      3.381      6.792
REMARK INTER + INTRA:         -10.293
REMARK INTER:                  -7.367
REMARK INTRA:                  -2.926
REMARK CONF_INDEPENDENT:        1.790
REMARK UNBOUND:                -2.926
REMARK  6 active torsions:
REMARK  status: ('A' for Active; 'I' for Inactive)
REMARK       I    between atoms: C_2  and  N_3 
REMARK    1  A    between atoms: C_2  and  C_13 
REMARK    2  A    between atoms: N_3  and  C_4 
REMARK    3  A    between atoms: C_4  and  C_5 
REMARK    4  A    between atoms: C_10  and  C_11 
REMARK    5  A    between atoms: C_11  and  O_12 
REMARK    6  A    between atoms: C_19  and  O_20 
ROOT
ATOM      1  O   UNL d   1      24.749 -14.838  -3.031  0.00  0.00    -0.268 OA
ATOM      2  C   UNL d   1      25.560 -15.605  -2.515  0.00  0.00     0.254 C 
ATOM      3  N   UNL d   1      26.916 -15.548  -2.774  0.00  0.00    -0.353 N 
ATOM      4  H   UNL d   1      27.559 -16.202  -2.347  0.00  0.00     0.163 HD
ENDROOT
BRANCH   3   5
ATOM      5  C   UNL d   1      27.434 -14.488  -3.609  0.00  0.00     0.162 C 
BRANCH   5   6
ATOM      6  C   UNL d   1      28.513 -14.963  -4.551  0.00  0.00    -0.032 C 
ATOM      7  C   UNL d   1      28.385 -14.611  -5.913  0.00  0.00     0.009 C 
ATOM      8  C   UNL d   1      29.187 -15.195  -6.893  0.00  0.00     0.001 C 
ATOM      9  C   UNL d   1      30.191 -16.078  -6.524  0.00  0.00     0.001 C 
ATOM     10  C   UNL d   1      30.387 -16.372  -5.174  0.00  0.00     0.010 C 
ATOM     11  C   UNL d   1      29.577 -15.802  -4.163  0.00  0.00    -0.027 C 
BRANCH  11  12
ATOM     12  C   UNL d   1      29.929 -16.190  -2.739  0.00  0.00     0.203 C 
BRANCH  12  13
ATOM     13  O   UNL d   1      29.063 -17.090  -2.072  0.00  0.00    -0.396 OA
ATOM     14  H   UNL d   1      29.180 -16.980  -1.114  0.00  0.00     0.209 HD
ENDBRANCH  12  13
ENDBRANCH  11  12
ENDBRANCH   5   6
ENDBRANCH   3   5
BRANCH   2  15
ATOM     15  C   UNL d   1      25.116 -16.628  -1.534  0.00  0.00     0.066 A 
ATOM     16  C   UNL d   1      23.829 -17.170  -1.647  0.00  0.00     0.043 A 
ATOM     17  C   UNL d   1      23.389 -18.099  -0.707  0.00  0.00     0.035 A 
ATOM     18 CL   UNL d   1      21.746 -18.612  -0.724  0.00  0.00    -0.084 Cl
ATOM     19  C   UNL d   1      24.248 -18.571   0.284  0.00  0.00     0.026 A 
ATOM     20  C   UNL d   1      25.543 -18.059   0.383  0.00  0.00     0.039 A 
ATOM     21  C   UNL d   1      25.970 -17.078  -0.516  0.00  0.00     0.081 A 
BRANCH  21  22
ATOM     22  O   UNL d   1      27.214 -16.534  -0.372  0.00  0.00    -0.360 OA
ATOM     23  H   UNL d   1      27.882 -17.230  -0.269  0.00  0.00     0.217 HD
ENDBRANCH  21  22
ENDBRANCH   2  15
TORSDOF 6
ENDMDL
MODEL 8
REMARK VINA RESULT:    -5.532      5.094      7.086
REMARK INTER + INTRA:         -10.252
REMARK INTER:                  -7.321
REMARK INTRA:                  -2.930
REMARK CONF_INDEPENDENT:        1.790
REMARK UNBOUND:                -2.930
REMARK  6 active torsions:
REMARK  status: ('A' for Active; 'I' for Inactive)
REMARK       I    between atoms: C_2  and  N_3 
REMARK    1  A    between atoms: C_2  and  C_13 
REMARK    2  A    between atoms: N_3  and  C_4 
REMARK    3  A    between atoms: C_4  and  C_5 
REMARK    4  A    between atoms: C_10  and  C_11 
REMARK    5  A    between atoms: C_11  and  O_12 
REMARK    6  A    between atoms: C_19  and  O_20 
ROOT
ATOM      1  O   UNL d   1      25.944 -13.754  -1.350  0.00  0.00    -0.268 OA
ATOM      2  C   UNL d   1      26.411 -14.418  -0.428  0.00  0.00     0.254 C 
ATOM      3  N   UNL d   1      27.223 -13.876   0.550  0.00  0.00    -0.353 N 
ATOM      4  H   UNL d   1      27.607 -14.449   1.291  0.00  0.00     0.163 HD
ENDROOT
BRANCH   3   5
ATOM      5  C   UNL d   1      27.467 -12.451   0.560  0.00  0.00     0.162 C 
BRANCH   5   6
ATOM      6  C   UNL d   1      27.379 -11.854   1.943  0.00  0.00    -0.032 C 
ATOM      7  C   UNL d   1      26.586 -10.695   2.099  0.00  0.00     0.009 C 
ATOM      8  C   UNL d   1      26.633  -9.935   3.267  0.00  0.00     0.001 C 
ATOM      9  C   UNL d   1      27.406 -10.362   4.336  0.00  0.00     0.001 C 
ATOM     10  C   UNL d   1      28.130 -11.551   4.230  0.00  0.00     0.010 C 
ATOM     11  C   UNL d   1      28.109 -12.332   3.050  0.00  0.00    -0.027 C 
BRANCH  11  12
ATOM     12  C   UNL d   1      28.920 -13.614   3.092  0.00  0.00     0.203 C 
BRANCH  12  13
ATOM     13  O   UNL d   1      28.248 -14.825   2.797  0.00  0.00    -0.396 OA
ATOM     14  H   UNL d   1      28.900 -15.473   2.483  0.00  0.00     0.209 HD
ENDBRANCH  12  13
ENDBRANCH  11  12
ENDBRANCH   5   6
ENDBRANCH   3   5
BRANCH   2  15
ATOM     15  C   UNL d   1      26.086 -15.861  -0.292  0.00  0.00     0.066 A 
ATOM     16  C   UNL d   1      24.818 -16.314  -0.680  0.00  0.00     0.043 A 
ATOM     17  C   UNL d   1      24.489 -17.658  -0.518  0.00  0.00     0.035 A 
ATOM     18 CL   UNL d   1      22.872 -18.177  -0.802  0.00  0.00    -0.084 Cl
ATOM     19  C   UNL d   1      25.437 -18.575  -0.071  0.00  0.00     0.026 A 
ATOM     20  C   UNL d   1      26.713 -18.136   0.288  0.00  0.00     0.039 A 
ATOM     21  C   UNL d   1      27.031 -16.778   0.191  0.00  0.00     0.081 A 
BRANCH  21  22
ATOM     22  O   UNL d   1      28.258 -16.346   0.605  0.00  0.00    -0.360 OA
ATOM     23  H   UNL d   1      28.407 -16.581   1.535  0.00  0.00     0.217 HD
ENDBRANCH  21  22
ENDBRANCH   2  15
TORSDOF 6
ENDMDL
MODEL 9
REMARK VINA RESULT:    -5.512      6.555      8.879
REMARK INTER + INTRA:         -10.100
REMARK INTER:                  -7.301
REMARK INTRA:                  -2.799
REMARK CONF_INDEPENDENT:        1.790
REMARK UNBOUND:                -2.799
REMARK  6 active torsions:
REMARK  status: ('A' for Active; 'I' for Inactive)
REMARK       I    between atoms: C_2  and  N_3 
REMARK    1  A    between atoms: C_2  and  C_13 
REMARK    2  A    between atoms: N_3  and  C_4 
REMARK    3  A    between atoms: C_4  and  C_5 
REMARK    4  A    between atoms: C_10  and  C_11 
REMARK    5  A    between atoms: C_11  and  O_12 
REMARK    6  A    between atoms: C_19  and  O_20 
ROOT
ATOM      1  O   UNL d   1      27.007 -11.530   3.084  0.00  0.00    -0.268 OA
ATOM      2  C   UNL d   1      27.396 -12.652   3.401  0.00  0.00     0.254 C 
ATOM      3  N   UNL d   1      27.357 -13.731   2.539  0.00  0.00    -0.353 N 
ATOM      4  H   UNL d   1      27.669 -14.648   2.831  0.00  0.00     0.163 HD
ENDROOT
BRANCH   3   5
ATOM      5  C   UNL d   1      26.933 -13.530   1.171  0.00  0.00     0.162 C 
BRANCH   5   6
ATOM      6  C   UNL d   1      27.010 -14.791   0.345  0.00  0.00    -0.032 C 
ATOM      7  C   UNL d   1      25.819 -15.240  -0.265  0.00  0.00     0.009 C 
ATOM      8  C   UNL d   1      25.730 -16.507  -0.840  0.00  0.00     0.001 C 
ATOM      9  C   UNL d   1      26.854 -17.318  -0.895  0.00  0.00     0.001 C 
ATOM     10  C   UNL d   1      28.062 -16.856  -0.373  0.00  0.00     0.010 C 
ATOM     11  C   UNL d   1      28.173 -15.579   0.228  0.00  0.00    -0.027 C 
BRANCH  11  12
ATOM     12  C   UNL d   1      29.557 -15.200   0.723  0.00  0.00     0.203 C 
BRANCH  12  13
ATOM     13  O   UNL d   1      29.680 -14.786   2.071  0.00  0.00    -0.396 OA
ATOM     14  H   UNL d   1      29.706 -15.575   2.637  0.00  0.00     0.209 HD
ENDBRANCH  12  13
ENDBRANCH  11  12
ENDBRANCH   5   6
ENDBRANCH   3   5
BRANCH   2  15
ATOM     15  C   UNL d   1      27.979 -12.900   4.744  0.00  0.00     0.066 A 
ATOM     16  C   UNL d   1      28.100 -11.832   5.643  0.00  0.00     0.043 A 
ATOM     17  C   UNL d   1      28.684 -12.047   6.890  0.00  0.00     0.035 A 
ATOM     18 CL   UNL d   1      29.018 -10.704   7.914  0.00  0.00    -0.084 Cl
ATOM     19  C   UNL d   1      29.055 -13.328   7.293  0.00  0.00     0.026 A 
ATOM     20  C   UNL d   1      28.908 -14.402   6.413  0.00  0.00     0.039 A 
ATOM     21  C   UNL d   1      28.384 -14.185   5.136  0.00  0.00     0.081 A 
BRANCH  21  22
ATOM     22  O   UNL d   1      28.305 -15.228   4.258  0.00  0.00    -0.360 OA
ATOM     23  H   UNL d   1      29.190 -15.559   4.039  0.00  0.00     0.217 HD
ENDBRANCH  21  22
ENDBRANCH   2  15
TORSDOF 6
ENDMDL
