MODEL 1
REMARK VINA RESULT:   -10.132      0.000      0.000
REMARK INTER + INTRA:         -14.194
REMARK INTER:                 -13.115
REMARK INTRA:                  -1.079
REMARK CONF_INDEPENDENT:        2.983
REMARK UNBOUND:                -1.079
REMARK  10 active torsions:
REMARK  status: ('A' for Active; 'I' for Inactive)
REMARK    1  A    between atoms: O_2  and  C_3 
REMARK    2  A    between atoms: C_3  and  C_4 
REMARK    3  A    between atoms: C_4  and  N_5 
REMARK       I    between atoms: N_5  and  C_6 
REMARK    4  A    between atoms: C_6  and  C_8 
REMARK    5  A    between atoms: C_11  and  N_12 
REMARK       I    between atoms: N_12  and  C_13 
REMARK    6  A    between atoms: C_13  and  C_15 
REMARK    7  A    between atoms: C_15  and  N_16 
REMARK    8  A    between atoms: N_16  and  C_17 
REMARK    9  A    between atoms: C_22  and  C_23 
REMARK       I    between atoms: C_23  and  N_25 
REMARK   10  A    between atoms: N_25  and  C_26 
ROOT
ATOM      1  C   UNL d   1      29.216 -14.907   0.299  0.00  0.00     0.223 C 
ENDROOT
BRANCH   1   2
ATOM      2  C   UNL d   1      27.758 -15.376   0.452  0.00  0.00     0.239 C 
ATOM      3  N   UNL d   1      27.303 -16.341  -0.448  0.00  0.00    -0.326 N 
ATOM      4  H   UNL d   1      27.932 -16.670  -1.171  0.00  0.00     0.169 HD
ATOM      5  O   UNL d   1      27.080 -14.847   1.338  0.00  0.00    -0.271 OA
BRANCH   3   6
ATOM      6  C   UNL d   1      25.964 -16.840  -0.480  0.00  0.00     0.034 A 
ATOM      7  C   UNL d   1      25.616 -18.005   0.218  0.00  0.00     0.030 A 
ATOM      8  C   UNL d   1      24.309 -18.537   0.113  0.00  0.00     0.019 A 
ATOM      9  C   UNL d   1      23.316 -17.875  -0.627  0.00  0.00     0.032 A 
ATOM     10  C   UNL d   1      23.655 -16.715  -1.308  0.00  0.00     0.019 A 
ATOM     11  C   UNL d   1      24.955 -16.210  -1.218  0.00  0.00     0.030 A 
BRANCH   9  12
ATOM     12  C   UNL d   1      21.891 -18.290  -0.507  0.00  0.00     0.251 C 
ATOM     13  N   UNL d   1      21.626 -19.547   0.003  0.00  0.00    -0.355 N 
ATOM     14  H   UNL d   1      22.377 -20.117   0.369  0.00  0.00     0.162 HD
ATOM     15  O   UNL d   1      21.016 -17.523  -0.893  0.00  0.00    -0.268 OA
BRANCH  13  16
ATOM     16  C   UNL d   1      20.252 -20.032   0.101  0.00  0.00     0.149 C 
BRANCH  16  17
ATOM     17  C   UNL d   1      19.733 -20.063   1.538  0.00  0.00     0.186 C 
BRANCH  17  18
ATOM     18  O   UNL d   1      18.326 -20.308   1.560  0.00  0.00    -0.394 OA
ATOM     19  C   UNL d   1      18.019 -21.565   0.964  0.00  0.00     0.201 C 
ENDBRANCH  17  18
ENDBRANCH  16  17
ENDBRANCH  13  16
ENDBRANCH   9  12
ENDBRANCH   3   6
ENDBRANCH   1   2
BRANCH   1  20
ATOM     20  N   UNL d   1      29.815 -14.836   1.637  0.00  0.00    -0.381 N 
ATOM     21  H   UNL d   1      30.259 -15.713   1.934  0.00  0.00     0.160 HD
BRANCH  20  22
ATOM     22  C   UNL d   1      29.439 -13.989   2.652  0.00  0.00     0.029 A 
ATOM     23  C   UNL d   1      29.265 -12.634   2.358  0.00  0.00     0.031 A 
ATOM     24  C   UNL d   1      28.926 -11.717   3.348  0.00  0.00     0.027 A 
ATOM     25  C   UNL d   1      28.683 -12.150   4.647  0.00  0.00     0.049 A 
ATOM     26 CL   UNL d   1      28.157 -10.894   5.725  0.00  0.00    -0.083 Cl
ATOM     27  C   UNL d   1      28.842 -13.515   4.970  0.00  0.00     0.055 A 
ATOM     28  C   UNL d   1      29.206 -14.417   3.956  0.00  0.00     0.048 A 
BRANCH  27  29
ATOM     29  C   UNL d   1      28.686 -13.992   6.364  0.00  0.00     0.253 C 
ATOM     30  O   UNL d   1      28.509 -15.198   6.531  0.00  0.00    -0.268 OA
ATOM     31  N   UNL d   1      28.695 -13.096   7.427  0.00  0.00    -0.352 N 
ATOM     32  H   UNL d   1      28.976 -12.137   7.291  0.00  0.00     0.163 HD
BRANCH  31  33
ATOM     33  C   UNL d   1      28.525 -13.523   8.825  0.00  0.00     0.084 C 
ATOM     34  C   UNL d   1      29.679 -14.458   9.236  0.00  0.00     0.025 C 
ATOM     35  C   UNL d   1      29.631 -14.822  10.723  0.00  0.00     0.002 C 
ATOM     36  C   UNL d   1      29.580 -13.585  11.614  0.00  0.00     0.000 C 
ATOM     37  C   UNL d   1      28.396 -12.719  11.247  0.00  0.00     0.002 C 
ATOM     38  C   UNL d   1      28.450 -12.334   9.790  0.00  0.00     0.025 C 
ENDBRANCH  31  33
ENDBRANCH  27  29
ENDBRANCH  20  22
ENDBRANCH   1  20
TORSDOF 10
ENDMDL
MODEL 2
REMARK VINA RESULT:    -9.837      1.301      1.676
REMARK INTER + INTRA:         -14.429
REMARK INTER:                 -12.820
REMARK INTRA:                  -1.608
REMARK CONF_INDEPENDENT:        2.983
REMARK UNBOUND:                -1.608
REMARK  10 active torsions:
REMARK  status: ('A' for Active; 'I' for Inactive)
REMARK    1  A    between atoms: O_2  and  C_3 
REMARK    2  A    between atoms: C_3  and  C_4 
REMARK    3  A    between atoms: C_4  and  N_5 
REMARK       I    between atoms: N_5  and  C_6 
REMARK    4  A    between atoms: C_6  and  C_8 
REMARK    5  A    between atoms: C_11  and  N_12 
REMARK       I    between atoms: N_12  and  C_13 
REMARK    6  A    between atoms: C_13  and  C_15 
REMARK    7  A    between atoms: C_15  and  N_16 
REMARK    8  A    between atoms: N_16  and  C_17 
REMARK    9  A    between atoms: C_22  and  C_23 
REMARK       I    between atoms: C_23  and  N_25 
REMARK   10  A    between atoms: N_25  and  C_26 
ROOT
ATOM      1  C   UNL d   1      29.483 -15.644  -0.542  0.00  0.00     0.223 C 
ENDROOT
BRANCH   1   2
ATOM      2  C   UNL d   1      28.178 -16.413  -0.816  0.00  0.00     0.239 C 
ATOM      3  N   UNL d   1      27.006 -15.896  -0.261  0.00  0.00    -0.326 N 
ATOM      4  H   UNL d   1      27.064 -15.063   0.314  0.00  0.00     0.169 HD
ATOM      5  O   UNL d   1      28.257 -17.450  -1.482  0.00  0.00    -0.271 OA
BRANCH   3   6
ATOM      6  C   UNL d   1      25.723 -16.516  -0.371  0.00  0.00     0.034 A 
ATOM      7  C   UNL d   1      25.473 -17.758   0.229  0.00  0.00     0.030 A 
ATOM      8  C   UNL d   1      24.227 -18.402   0.044  0.00  0.00     0.019 A 
ATOM      9  C   UNL d   1      23.192 -17.782  -0.676  0.00  0.00     0.032 A 
ATOM     10  C   UNL d   1      23.433 -16.547  -1.259  0.00  0.00     0.019 A 
ATOM     11  C   UNL d   1      24.676 -15.930  -1.093  0.00  0.00     0.030 A 
BRANCH   9  12
ATOM     12  C   UNL d   1      21.812 -18.339  -0.631  0.00  0.00     0.251 C 
ATOM     13  N   UNL d   1      21.612 -19.515   0.067  0.00  0.00    -0.355 N 
ATOM     14  H   UNL d   1      22.365 -19.923   0.604  0.00  0.00     0.162 HD
ATOM     15  O   UNL d   1      20.918 -17.756  -1.236  0.00  0.00    -0.268 OA
BRANCH  13  16
ATOM     16  C   UNL d   1      20.292 -20.137   0.107  0.00  0.00     0.149 C 
BRANCH  16  17
ATOM     17  C   UNL d   1      19.668 -20.118   1.502  0.00  0.00     0.186 C 
BRANCH  17  18
ATOM     18  O   UNL d   1      18.257 -20.328   1.426  0.00  0.00    -0.394 OA
ATOM     19  C   UNL d   1      17.930 -21.203   0.351  0.00  0.00     0.201 C 
ENDBRANCH  17  18
ENDBRANCH  16  17
ENDBRANCH  13  16
ENDBRANCH   9  12
ENDBRANCH   3   6
ENDBRANCH   1   2
BRANCH   1  20
ATOM     20  N   UNL d   1      29.594 -15.437   0.908  0.00  0.00    -0.381 N 
ATOM     21  H   UNL d   1      29.707 -16.309   1.438  0.00  0.00     0.160 HD
BRANCH  20  22
ATOM     22  C   UNL d   1      29.093 -14.372   1.617  0.00  0.00     0.029 A 
ATOM     23  C   UNL d   1      28.642 -13.254   0.911  0.00  0.00     0.031 A 
ATOM     24  C   UNL d   1      28.162 -12.128   1.571  0.00  0.00     0.027 A 
ATOM     25  C   UNL d   1      28.058 -12.122   2.958  0.00  0.00     0.049 A 
ATOM     26 CL   UNL d   1      27.330 -10.684   3.607  0.00  0.00    -0.083 Cl
ATOM     27  C   UNL d   1      28.497 -13.242   3.697  0.00  0.00     0.055 A 
ATOM     28  C   UNL d   1      28.997 -14.359   3.007  0.00  0.00     0.048 A 
BRANCH  27  29
ATOM     29  C   UNL d   1      28.489 -13.229   5.178  0.00  0.00     0.253 C 
ATOM     30  O   UNL d   1      27.395 -13.139   5.734  0.00  0.00    -0.268 OA
ATOM     31  N   UNL d   1      29.678 -13.271   5.895  0.00  0.00    -0.352 N 
ATOM     32  H   UNL d   1      30.551 -13.483   5.437  0.00  0.00     0.163 HD
BRANCH  31  33
ATOM     33  C   UNL d   1      29.718 -13.242   7.367  0.00  0.00     0.084 C 
ATOM     34  C   UNL d   1      29.084 -11.937   7.887  0.00  0.00     0.025 C 
ATOM     35  C   UNL d   1      28.970 -11.914   9.413  0.00  0.00     0.002 C 
ATOM     36  C   UNL d   1      28.234 -13.137   9.951  0.00  0.00     0.000 C 
ATOM     37  C   UNL d   1      28.916 -14.407   9.494  0.00  0.00     0.002 C 
ATOM     38  C   UNL d   1      29.008 -14.450   7.991  0.00  0.00     0.025 C 
ENDBRANCH  31  33
ENDBRANCH  27  29
ENDBRANCH  20  22
ENDBRANCH   1  20
TORSDOF 10
ENDMDL
MODEL 3
REMARK VINA RESULT:    -9.545      1.298      1.697
REMARK INTER + INTRA:         -14.873
REMARK INTER:                 -12.528
REMARK INTRA:                  -2.345
REMARK CONF_INDEPENDENT:        2.983
REMARK UNBOUND:                -2.345
REMARK  10 active torsions:
REMARK  status: ('A' for Active; 'I' for Inactive)
REMARK    1  A    between atoms: O_2  and  C_3 
REMARK    2  A    between atoms: C_3  and  C_4 
REMARK    3  A    between atoms: C_4  and  N_5 
REMARK       I    between atoms: N_5  and  C_6 
REMARK    4  A    between atoms: C_6  and  C_8 
REMARK    5  A    between atoms: C_11  and  N_12 
REMARK       I    between atoms: N_12  and  C_13 
REMARK    6  A    between atoms: C_13  and  C_15 
REMARK    7  A    between atoms: C_15  and  N_16 
REMARK    8  A    between atoms: N_16  and  C_17 
REMARK    9  A    between atoms: C_22  and  C_23 
REMARK       I    between atoms: C_23  and  N_25 
REMARK   10  A    between atoms: N_25  and  C_26 
ROOT
ATOM      1  C   UNL d   1      28.120 -15.340  -0.160  0.00  0.00     0.223 C 
ENDROOT
BRANCH   1   2
ATOM      2  C   UNL d   1      26.961 -16.344  -0.027  0.00  0.00     0.239 C 
ATOM      3  N   UNL d   1      25.821 -16.105  -0.797  0.00  0.00    -0.326 N 
ATOM      4  H   UNL d   1      25.792 -15.279  -1.384  0.00  0.00     0.169 HD
ATOM      5  O   UNL d   1      27.102 -17.275   0.772  0.00  0.00    -0.271 OA
BRANCH   3   6
ATOM      6  C   UNL d   1      24.638 -16.905  -0.749  0.00  0.00     0.034 A 
ATOM      7  C   UNL d   1      23.372 -16.323  -0.903  0.00  0.00     0.030 A 
ATOM      8  C   UNL d   1      22.204 -17.110  -0.771  0.00  0.00     0.019 A 
ATOM      9  C   UNL d   1      22.285 -18.496  -0.560  0.00  0.00     0.032 A 
ATOM     10  C   UNL d   1      23.537 -19.076  -0.420  0.00  0.00     0.019 A 
ATOM     11  C   UNL d   1      24.685 -18.287  -0.527  0.00  0.00     0.030 A 
BRANCH   9  12
ATOM     12  C   UNL d   1      21.070 -19.346  -0.697  0.00  0.00     0.251 C 
ATOM     13  N   UNL d   1      20.608 -19.999   0.431  0.00  0.00    -0.355 N 
ATOM     14  H   UNL d   1      21.031 -19.820   1.332  0.00  0.00     0.162 HD
ATOM     15  O   UNL d   1      20.550 -19.462  -1.802  0.00  0.00    -0.268 OA
BRANCH  13  16
ATOM     16  C   UNL d   1      19.451 -20.885   0.352  0.00  0.00     0.149 C 
BRANCH  16  17
ATOM     17  C   UNL d   1      18.483 -20.706   1.520  0.00  0.00     0.186 C 
BRANCH  17  18
ATOM     18  O   UNL d   1      19.014 -19.792   2.480  0.00  0.00    -0.394 OA
ATOM     19  C   UNL d   1      19.913 -20.450   3.367  0.00  0.00     0.201 C 
ENDBRANCH  17  18
ENDBRANCH  16  17
ENDBRANCH  13  16
ENDBRANCH   9  12
ENDBRANCH   3   6
ENDBRANCH   1   2
BRANCH   1  20
ATOM     20  N   UNL d   1      28.763 -15.208   1.153  0.00  0.00    -0.381 N 
ATOM     21  H   UNL d   1      28.894 -16.105   1.636  0.00  0.00     0.160 HD
BRANCH  20  22
ATOM     22  C   UNL d   1      28.740 -14.097   1.962  0.00  0.00     0.029 A 
ATOM     23  C   UNL d   1      29.071 -12.860   1.402  0.00  0.00     0.031 A 
ATOM     24  C   UNL d   1      29.106 -11.704   2.176  0.00  0.00     0.027 A 
ATOM     25  C   UNL d   1      28.742 -11.748   3.517  0.00  0.00     0.049 A 
ATOM     26 CL   UNL d   1      28.730 -10.198   4.300  0.00  0.00    -0.083 Cl
ATOM     27  C   UNL d   1      28.394 -12.984   4.106  0.00  0.00     0.055 A 
ATOM     28  C   UNL d   1      28.385 -14.140   3.308  0.00  0.00     0.048 A 
BRANCH  27  29
ATOM     29  C   UNL d   1      28.095 -13.081   5.554  0.00  0.00     0.253 C 
ATOM     30  O   UNL d   1      27.009 -13.563   5.873  0.00  0.00    -0.268 OA
ATOM     31  N   UNL d   1      28.994 -12.601   6.498  0.00  0.00    -0.352 N 
ATOM     32  H   UNL d   1      29.930 -12.338   6.233  0.00  0.00     0.163 HD
BRANCH  31  33
ATOM     33  C   UNL d   1      28.730 -12.661   7.945  0.00  0.00     0.084 C 
ATOM     34  C   UNL d   1      28.906 -14.104   8.456  0.00  0.00     0.025 C 
ATOM     35  C   UNL d   1      28.781 -14.202   9.979  0.00  0.00     0.002 C 
ATOM     36  C   UNL d   1      29.730 -13.244  10.694  0.00  0.00     0.000 C 
ATOM     37  C   UNL d   1      29.489 -11.823  10.236  0.00  0.00     0.002 C 
ATOM     38  C   UNL d   1      29.636 -11.713   8.741  0.00  0.00     0.025 C 
ENDBRANCH  31  33
ENDBRANCH  27  29
ENDBRANCH  20  22
ENDBRANCH   1  20
TORSDOF 10
ENDMDL
MODEL 4
REMARK VINA RESULT:    -9.484      6.877     10.640
REMARK INTER + INTRA:         -14.607
REMARK INTER:                 -12.467
REMARK INTRA:                  -2.140
REMARK CONF_INDEPENDENT:        2.983
REMARK UNBOUND:                -2.140
REMARK  10 active torsions:
REMARK  status: ('A' for Active; 'I' for Inactive)
REMARK    1  A    between atoms: O_2  and  C_3 
REMARK    2  A    between atoms: C_3  and  C_4 
REMARK    3  A    between atoms: C_4  and  N_5 
REMARK       I    between atoms: N_5  and  C_6 
REMARK    4  A    between atoms: C_6  and  C_8 
REMARK    5  A    between atoms: C_11  and  N_12 
REMARK       I    between atoms: N_12  and  C_13 
REMARK    6  A    between atoms: C_13  and  C_15 
REMARK    7  A    between atoms: C_15  and  N_16 
REMARK    8  A    between atoms: N_16  and  C_17 
REMARK    9  A    between atoms: C_22  and  C_23 
REMARK       I    between atoms: C_23  and  N_25 
REMARK   10  A    between atoms: N_25  and  C_26 
ROOT
ATOM      1  C   UNL d   1      25.077 -13.614  -3.769  0.00  0.00     0.223 C 
ENDROOT
BRANCH   1   2
ATOM      2  C   UNL d   1      26.039 -14.611  -4.440  0.00  0.00     0.239 C 
ATOM      3  N   UNL d   1      27.392 -14.271  -4.464  0.00  0.00    -0.326 N 
ATOM      4  H   UNL d   1      27.680 -13.383  -4.070  0.00  0.00     0.169 HD
ATOM      5  O   UNL d   1      25.548 -15.629  -4.937  0.00  0.00    -0.271 OA
BRANCH   3   6
ATOM      6  C   UNL d   1      28.406 -15.056  -5.096  0.00  0.00     0.034 A 
ATOM      7  C   UNL d   1      29.103 -16.039  -4.380  0.00  0.00     0.030 A 
ATOM      8  C   UNL d   1      30.161 -16.752  -4.991  0.00  0.00     0.019 A 
ATOM      9  C   UNL d   1      30.486 -16.548  -6.342  0.00  0.00     0.032 A 
ATOM     10  C   UNL d   1      29.789 -15.585  -7.056  0.00  0.00     0.019 A 
ATOM     11  C   UNL d   1      28.762 -14.868  -6.437  0.00  0.00     0.030 A 
BRANCH   9  12
ATOM     12  C   UNL d   1      31.405 -17.488  -7.041  0.00  0.00     0.251 C 
ATOM     13  N   UNL d   1      31.432 -18.802  -6.614  0.00  0.00    -0.355 N 
ATOM     14  H   UNL d   1      30.776 -19.124  -5.915  0.00  0.00     0.162 HD
ATOM     15  O   UNL d   1      32.121 -17.058  -7.940  0.00  0.00    -0.268 OA
BRANCH  13  16
ATOM     16  C   UNL d   1      32.347 -19.761  -7.226  0.00  0.00     0.149 C 
BRANCH  16  17
ATOM     17  C   UNL d   1      32.172 -21.180  -6.685  0.00  0.00     0.186 C 
BRANCH  17  18
ATOM     18  O   UNL d   1      31.111 -21.228  -5.730  0.00  0.00    -0.394 OA
ATOM     19  C   UNL d   1      31.433 -22.106  -4.657  0.00  0.00     0.201 C 
ENDBRANCH  17  18
ENDBRANCH  16  17
ENDBRANCH  13  16
ENDBRANCH   9  12
ENDBRANCH   3   6
ENDBRANCH   1   2
BRANCH   1  20
ATOM     20  N   UNL d   1      24.209 -14.363  -2.852  0.00  0.00    -0.381 N 
ATOM     21  H   UNL d   1      23.382 -13.836  -2.550  0.00  0.00     0.160 HD
BRANCH  20  22
ATOM     22  C   UNL d   1      24.597 -15.386  -2.021  0.00  0.00     0.029 A 
ATOM     23  C   UNL d   1      25.904 -15.383  -1.525  0.00  0.00     0.031 A 
ATOM     24  C   UNL d   1      26.371 -16.412  -0.713  0.00  0.00     0.027 A 
ATOM     25  C   UNL d   1      25.515 -17.436  -0.320  0.00  0.00     0.049 A 
ATOM     26 CL   UNL d   1      26.228 -18.569   0.786  0.00  0.00    -0.083 Cl
ATOM     27  C   UNL d   1      24.187 -17.458  -0.799  0.00  0.00     0.055 A 
ATOM     28  C   UNL d   1      23.746 -16.418  -1.634  0.00  0.00     0.048 A 
BRANCH  27  29
ATOM     29  C   UNL d   1      23.280 -18.585  -0.477  0.00  0.00     0.253 C 
ATOM     30  O   UNL d   1      23.639 -19.712  -0.815  0.00  0.00    -0.268 OA
ATOM     31  N   UNL d   1      22.056 -18.358   0.141  0.00  0.00    -0.352 N 
ATOM     32  H   UNL d   1      21.836 -17.456   0.534  0.00  0.00     0.163 HD
BRANCH  31  33
ATOM     33  C   UNL d   1      21.117 -19.444   0.463  0.00  0.00     0.084 C 
ATOM     34  C   UNL d   1      20.653 -19.326   1.928  0.00  0.00     0.025 C 
ATOM     35  C   UNL d   1      19.567 -20.347   2.278  0.00  0.00     0.002 C 
ATOM     36  C   UNL d   1      18.384 -20.277   1.318  0.00  0.00     0.000 C 
ATOM     37  C   UNL d   1      18.848 -20.472  -0.107  0.00  0.00     0.002 C 
ATOM     38  C   UNL d   1      19.899 -19.454  -0.469  0.00  0.00     0.025 C 
ENDBRANCH  31  33
ENDBRANCH  27  29
ENDBRANCH  20  22
ENDBRANCH   1  20
TORSDOF 10
ENDMDL
MODEL 5
REMARK VINA RESULT:    -9.303      6.746     10.985
REMARK INTER + INTRA:         -13.989
REMARK INTER:                 -12.286
REMARK INTRA:                  -1.704
REMARK CONF_INDEPENDENT:        2.983
REMARK UNBOUND:                -1.704
REMARK  10 active torsions:
REMARK  status: ('A' for Active; 'I' for Inactive)
REMARK    1  A    between atoms: O_2  and  C_3 
REMARK    2  A    between atoms: C_3  and  C_4 
REMARK    3  A    between atoms: C_4  and  N_5 
REMARK       I    between atoms: N_5  and  C_6 
REMARK    4  A    between atoms: C_6  and  C_8 
REMARK    5  A    between atoms: C_11  and  N_12 
REMARK       I    between atoms: N_12  and  C_13 
REMARK    6  A    between atoms: C_13  and  C_15 
REMARK    7  A    between atoms: C_15  and  N_16 
REMARK    8  A    between atoms: N_16  and  C_17 
REMARK    9  A    between atoms: C_22  and  C_23 
REMARK       I    between atoms: C_23  and  N_25 
REMARK   10  A    between atoms: N_25  and  C_26 
ROOT
ATOM      1  C   UNL d   1      25.559 -13.606  -4.296  0.00  0.00     0.223 C 
ENDROOT
BRANCH   1   2
ATOM      2  C   UNL d   1      26.441 -14.747  -4.834  0.00  0.00     0.239 C 
ATOM      3  N   UNL d   1      27.820 -14.619  -4.662  0.00  0.00    -0.326 N 
ATOM      4  H   UNL d   1      28.182 -13.780  -4.221  0.00  0.00     0.169 HD
ATOM      5  O   UNL d   1      25.876 -15.683  -5.407  0.00  0.00    -0.271 OA
BRANCH   3   6
ATOM      6  C   UNL d   1      28.781 -15.556  -5.152  0.00  0.00     0.034 A 
ATOM      7  C   UNL d   1      29.278 -16.574  -4.325  0.00  0.00     0.030 A 
ATOM      8  C   UNL d   1      30.289 -17.445  -4.793  0.00  0.00     0.019 A 
ATOM      9  C   UNL d   1      30.762 -17.361  -6.112  0.00  0.00     0.032 A 
ATOM     10  C   UNL d   1      30.264 -16.364  -6.937  0.00  0.00     0.019 A 
ATOM     11  C   UNL d   1      29.282 -15.491  -6.458  0.00  0.00     0.030 A 
BRANCH   9  12
ATOM     12  C   UNL d   1      31.616 -18.445  -6.671  0.00  0.00     0.251 C 
ATOM     13  N   UNL d   1      31.013 -19.390  -7.480  0.00  0.00    -0.355 N 
ATOM     14  H   UNL d   1      30.045 -19.283  -7.753  0.00  0.00     0.162 HD
ATOM     15  O   UNL d   1      32.805 -18.478  -6.370  0.00  0.00    -0.268 OA
BRANCH  13  16
ATOM     16  C   UNL d   1      31.786 -20.505  -8.019  0.00  0.00     0.149 C 
BRANCH  16  17
ATOM     17  C   UNL d   1      31.942 -20.441  -9.538  0.00  0.00     0.186 C 
BRANCH  17  18
ATOM     18  O   UNL d   1      32.238 -19.109  -9.959  0.00  0.00    -0.394 OA
ATOM     19  C   UNL d   1      33.637 -18.852  -9.888  0.00  0.00     0.201 C 
ENDBRANCH  17  18
ENDBRANCH  16  17
ENDBRANCH  13  16
ENDBRANCH   9  12
ENDBRANCH   3   6
ENDBRANCH   1   2
BRANCH   1  20
ATOM     20  N   UNL d   1      24.704 -14.152  -3.234  0.00  0.00    -0.381 N 
ATOM     21  H   UNL d   1      23.951 -13.516  -2.947  0.00  0.00     0.160 HD
BRANCH  20  22
ATOM     22  C   UNL d   1      25.067 -15.099  -2.306  0.00  0.00     0.029 A 
ATOM     23  C   UNL d   1      26.344 -15.027  -1.745  0.00  0.00     0.031 A 
ATOM     24  C   UNL d   1      26.787 -15.979  -0.832  0.00  0.00     0.027 A 
ATOM     25  C   UNL d   1      25.932 -16.989  -0.405  0.00  0.00     0.049 A 
ATOM     26 CL   UNL d   1      26.607 -18.016   0.822  0.00  0.00    -0.083 Cl
ATOM     27  C   UNL d   1      24.632 -17.080  -0.949  0.00  0.00     0.055 A 
ATOM     28  C   UNL d   1      24.216 -16.118  -1.885  0.00  0.00     0.048 A 
BRANCH  27  29
ATOM     29  C   UNL d   1      23.732 -18.200  -0.588  0.00  0.00     0.253 C 
ATOM     30  O   UNL d   1      24.222 -19.328  -0.552  0.00  0.00    -0.268 OA
ATOM     31  N   UNL d   1      22.381 -17.976  -0.347  0.00  0.00    -0.352 N 
ATOM     32  H   UNL d   1      22.023 -17.040  -0.245  0.00  0.00     0.163 HD
BRANCH  31  33
ATOM     33  C   UNL d   1      21.447 -19.061  -0.003  0.00  0.00     0.084 C 
ATOM     34  C   UNL d   1      21.030 -18.950   1.476  0.00  0.00     0.025 C 
ATOM     35  C   UNL d   1      19.951 -19.968   1.854  0.00  0.00     0.002 C 
ATOM     36  C   UNL d   1      18.738 -19.887   0.932  0.00  0.00     0.000 C 
ATOM     37  C   UNL d   1      19.158 -20.076  -0.509  0.00  0.00     0.002 C 
ATOM     38  C   UNL d   1      20.201 -19.059  -0.897  0.00  0.00     0.025 C 
ENDBRANCH  31  33
ENDBRANCH  27  29
ENDBRANCH  20  22
ENDBRANCH   1  20
TORSDOF 10
ENDMDL
MODEL 6
REMARK VINA RESULT:    -9.255      6.857     11.450
REMARK INTER + INTRA:         -14.196
REMARK INTER:                 -12.238
REMARK INTRA:                  -1.957
REMARK CONF_INDEPENDENT:        2.983
REMARK UNBOUND:                -1.957
REMARK  10 active torsions:
REMARK  status: ('A' for Active; 'I' for Inactive)
REMARK    1  A    between atoms: O_2  and  C_3 
REMARK    2  A    between atoms: C_3  and  C_4 
REMARK    3  A    between atoms: C_4  and  N_5 
REMARK       I    between atoms: N_5  and  C_6 
REMARK    4  A    between atoms: C_6  and  C_8 
REMARK    5  A    between atoms: C_11  and  N_12 
REMARK       I    between atoms: N_12  and  C_13 
REMARK    6  A    between atoms: C_13  and  C_15 
REMARK    7  A    between atoms: C_15  and  N_16 
REMARK    8  A    between atoms: N_16  and  C_17 
REMARK    9  A    between atoms: C_22  and  C_23 
REMARK       I    between atoms: C_23  and  N_25 
REMARK   10  A    between atoms: N_25  and  C_26 
ROOT
ATOM      1  C   UNL d   1      25.108 -13.571  -3.671  0.00  0.00     0.223 C 
ENDROOT
BRANCH   1   2
ATOM      2  C   UNL d   1      26.042 -14.499  -4.469  0.00  0.00     0.239 C 
ATOM      3  N   UNL d   1      27.395 -14.160  -4.506  0.00  0.00    -0.326 N 
ATOM      4  H   UNL d   1      27.701 -13.315  -4.036  0.00  0.00     0.169 HD
ATOM      5  O   UNL d   1      25.530 -15.463  -5.047  0.00  0.00    -0.271 OA
BRANCH   3   6
ATOM      6  C   UNL d   1      28.384 -14.880  -5.246  0.00  0.00     0.034 A 
ATOM      7  C   UNL d   1      28.976 -16.036  -4.718  0.00  0.00     0.030 A 
ATOM      8  C   UNL d   1      30.011 -16.693  -5.421  0.00  0.00     0.019 A 
ATOM      9  C   UNL d   1      30.416 -16.252  -6.691  0.00  0.00     0.032 A 
ATOM     10  C   UNL d   1      29.823 -15.116  -7.222  0.00  0.00     0.019 A 
ATOM     11  C   UNL d   1      28.818 -14.458  -6.509  0.00  0.00     0.030 A 
BRANCH   9  12
ATOM     12  C   UNL d   1      31.303 -17.103  -7.532  0.00  0.00     0.251 C 
ATOM     13  N   UNL d   1      32.348 -16.488  -8.197  0.00  0.00    -0.355 N 
ATOM     14  H   UNL d   1      32.550 -15.511  -8.033  0.00  0.00     0.162 HD
ATOM     15  O   UNL d   1      31.056 -18.301  -7.629  0.00  0.00    -0.268 OA
BRANCH  13  16
ATOM     16  C   UNL d   1      33.223 -17.259  -9.075  0.00  0.00     0.149 C 
BRANCH  16  17
ATOM     17  C   UNL d   1      34.690 -16.845  -8.966  0.00  0.00     0.186 C 
BRANCH  17  18
ATOM     18  O   UNL d   1      34.869 -15.898  -7.912  0.00  0.00    -0.394 OA
ATOM     19  C   UNL d   1      35.395 -14.673  -8.412  0.00  0.00     0.201 C 
ENDBRANCH  17  18
ENDBRANCH  16  17
ENDBRANCH  13  16
ENDBRANCH   9  12
ENDBRANCH   3   6
ENDBRANCH   1   2
BRANCH   1  20
ATOM     20  N   UNL d   1      24.217 -14.409  -2.860  0.00  0.00    -0.381 N 
ATOM     21  H   UNL d   1      23.323 -13.957  -2.636  0.00  0.00     0.160 HD
BRANCH  20  22
ATOM     22  C   UNL d   1      24.601 -15.418  -2.010  0.00  0.00     0.029 A 
ATOM     23  C   UNL d   1      25.905 -15.405  -1.507  0.00  0.00     0.031 A 
ATOM     24  C   UNL d   1      26.369 -16.419  -0.675  0.00  0.00     0.027 A 
ATOM     25  C   UNL d   1      25.513 -17.438  -0.271  0.00  0.00     0.049 A 
ATOM     26 CL   UNL d   1      26.221 -18.552   0.857  0.00  0.00    -0.083 Cl
ATOM     27  C   UNL d   1      24.187 -17.471  -0.757  0.00  0.00     0.055 A 
ATOM     28  C   UNL d   1      23.750 -16.446  -1.612  0.00  0.00     0.048 A 
BRANCH  27  29
ATOM     29  C   UNL d   1      23.281 -18.594  -0.423  0.00  0.00     0.253 C 
ATOM     30  O   UNL d   1      23.642 -19.725  -0.745  0.00  0.00    -0.268 OA
ATOM     31  N   UNL d   1      22.055 -18.360   0.189  0.00  0.00    -0.352 N 
ATOM     32  H   UNL d   1      21.833 -17.454   0.569  0.00  0.00     0.163 HD
BRANCH  31  33
ATOM     33  C   UNL d   1      21.116 -19.444   0.522  0.00  0.00     0.084 C 
ATOM     34  C   UNL d   1      20.652 -19.309   1.986  0.00  0.00     0.025 C 
ATOM     35  C   UNL d   1      19.567 -20.327   2.348  0.00  0.00     0.002 C 
ATOM     36  C   UNL d   1      18.383 -20.267   1.387  0.00  0.00     0.000 C 
ATOM     37  C   UNL d   1      18.848 -20.478  -0.037  0.00  0.00     0.002 C 
ATOM     38  C   UNL d   1      19.898 -19.464  -0.410  0.00  0.00     0.025 C 
ENDBRANCH  31  33
ENDBRANCH  27  29
ENDBRANCH  20  22
ENDBRANCH   1  20
TORSDOF 10
ENDMDL
MODEL 7
REMARK VINA RESULT:    -8.928      5.890      9.421
REMARK INTER + INTRA:         -13.730
REMARK INTER:                 -11.911
REMARK INTRA:                  -1.820
REMARK CONF_INDEPENDENT:        2.983
REMARK UNBOUND:                -1.820
REMARK  10 active torsions:
REMARK  status: ('A' for Active; 'I' for Inactive)
REMARK    1  A    between atoms: O_2  and  C_3 
REMARK    2  A    between atoms: C_3  and  C_4 
REMARK    3  A    between atoms: C_4  and  N_5 
REMARK       I    between atoms: N_5  and  C_6 
REMARK    4  A    between atoms: C_6  and  C_8 
REMARK    5  A    between atoms: C_11  and  N_12 
REMARK       I    between atoms: N_12  and  C_13 
REMARK    6  A    between atoms: C_13  and  C_15 
REMARK    7  A    between atoms: C_15  and  N_16 
REMARK    8  A    between atoms: N_16  and  C_17 
REMARK    9  A    between atoms: C_22  and  C_23 
REMARK       I    between atoms: C_23  and  N_25 
REMARK   10  A    between atoms: N_25  and  C_26 
ROOT
ATOM      1  C   UNL d   1      28.525 -15.979  -0.206  0.00  0.00     0.223 C 
ENDROOT
BRANCH   1   2
ATOM      2  C   UNL d   1      27.203 -16.727   0.043  0.00  0.00     0.239 C 
ATOM      3  N   UNL d   1      26.153 -16.475  -0.842  0.00  0.00    -0.326 N 
ATOM      4  H   UNL d   1      26.293 -15.800  -1.586  0.00  0.00     0.169 HD
ATOM      5  O   UNL d   1      27.148 -17.477   1.022  0.00  0.00    -0.271 OA
BRANCH   3   6
ATOM      6  C   UNL d   1      24.847 -17.041  -0.721  0.00  0.00     0.034 A 
ATOM      7  C   UNL d   1      23.710 -16.311  -1.096  0.00  0.00     0.030 A 
ATOM      8  C   UNL d   1      22.418 -16.848  -0.894  0.00  0.00     0.019 A 
ATOM      9  C   UNL d   1      22.245 -18.146  -0.389  0.00  0.00     0.032 A 
ATOM     10  C   UNL d   1      23.368 -18.877  -0.029  0.00  0.00     0.019 A 
ATOM     11  C   UNL d   1      24.641 -18.328  -0.209  0.00  0.00     0.030 A 
BRANCH   9  12
ATOM     12  C   UNL d   1      20.906 -18.797  -0.439  0.00  0.00     0.251 C 
ATOM     13  N   UNL d   1      20.740 -19.986   0.247  0.00  0.00    -0.355 N 
ATOM     14  H   UNL d   1      21.480 -20.340   0.838  0.00  0.00     0.162 HD
ATOM     15  O   UNL d   1      20.020 -18.277  -1.108  0.00  0.00    -0.268 OA
BRANCH  13  16
ATOM     16  C   UNL d   1      19.467 -20.698   0.197  0.00  0.00     0.149 C 
BRANCH  16  17
ATOM     17  C   UNL d   1      18.821 -20.860   1.573  0.00  0.00     0.186 C 
BRANCH  17  18
ATOM     18  O   UNL d   1      19.557 -20.142   2.563  0.00  0.00    -0.394 OA
ATOM     19  C   UNL d   1      19.530 -20.825   3.813  0.00  0.00     0.201 C 
ENDBRANCH  17  18
ENDBRANCH  16  17
ENDBRANCH  13  16
ENDBRANCH   9  12
ENDBRANCH   3   6
ENDBRANCH   1   2
BRANCH   1  20
ATOM     20  N   UNL d   1      28.203 -14.593  -0.568  0.00  0.00    -0.381 N 
ATOM     21  H   UNL d   1      27.705 -14.082   0.171  0.00  0.00     0.160 HD
BRANCH  20  22
ATOM     22  C   UNL d   1      28.042 -14.102  -1.841  0.00  0.00     0.029 A 
ATOM     23  C   UNL d   1      27.433 -12.855  -2.002  0.00  0.00     0.031 A 
ATOM     24  C   UNL d   1      27.203 -12.321  -3.266  0.00  0.00     0.027 A 
ATOM     25  C   UNL d   1      27.641 -12.996  -4.401  0.00  0.00     0.049 A 
ATOM     26 CL   UNL d   1      27.377 -12.133  -5.884  0.00  0.00    -0.083 Cl
ATOM     27  C   UNL d   1      28.268 -14.254  -4.267  0.00  0.00     0.055 A 
ATOM     28  C   UNL d   1      28.470 -14.781  -2.980  0.00  0.00     0.048 A 
BRANCH  27  29
ATOM     29  C   UNL d   1      28.659 -15.042  -5.459  0.00  0.00     0.253 C 
ATOM     30  O   UNL d   1      27.781 -15.289  -6.284  0.00  0.00    -0.268 OA
ATOM     31  N   UNL d   1      29.958 -15.514  -5.603  0.00  0.00    -0.352 N 
ATOM     32  H   UNL d   1      30.695 -15.192  -4.996  0.00  0.00     0.163 HD
BRANCH  31  33
ATOM     33  C   UNL d   1      30.386 -16.315  -6.762  0.00  0.00     0.084 C 
ATOM     34  C   UNL d   1      31.714 -15.769  -7.321  0.00  0.00     0.025 C 
ATOM     35  C   UNL d   1      32.280 -16.648  -8.440  0.00  0.00     0.002 C 
ATOM     36  C   UNL d   1      32.421 -18.104  -8.008  0.00  0.00     0.000 C 
ATOM     37  C   UNL d   1      31.091 -18.646  -7.536  0.00  0.00     0.002 C 
ATOM     38  C   UNL d   1      30.539 -17.801  -6.416  0.00  0.00     0.025 C 
ENDBRANCH  31  33
ENDBRANCH  27  29
ENDBRANCH  20  22
ENDBRANCH   1  20
TORSDOF 10
ENDMDL
MODEL 8
REMARK VINA RESULT:    -8.673      5.888      9.428
REMARK INTER + INTRA:         -13.930
REMARK INTER:                 -11.656
REMARK INTRA:                  -2.275
REMARK CONF_INDEPENDENT:        2.983
REMARK UNBOUND:                -2.275
REMARK  10 active torsions:
REMARK  status: ('A' for Active; 'I' for Inactive)
REMARK    1  A    between atoms: O_2  and  C_3 
REMARK    2  A    between atoms: C_3  and  C_4 
REMARK    3  A    between atoms: C_4  and  N_5 
REMARK       I    between atoms: N_5  and  C_6 
REMARK    4  A    between atoms: C_6  and  C_8 
REMARK    5  A    between atoms: C_11  and  N_12 
REMARK       I    between atoms: N_12  and  C_13 
REMARK    6  A    between atoms: C_13  and  C_15 
REMARK    7  A    between atoms: C_15  and  N_16 
REMARK    8  A    between atoms: N_16  and  C_17 
REMARK    9  A    between atoms: C_22  and  C_23 
REMARK       I    between atoms: C_23  and  N_25 
REMARK   10  A    between atoms: N_25  and  C_26 
ROOT
ATOM      1  C   UNL d   1      29.533 -15.836   0.055  0.00  0.00     0.223 C 
ENDROOT
BRANCH   1   2
ATOM      2  C   UNL d   1      27.997 -15.907   0.111  0.00  0.00     0.239 C 
ATOM      3  N   UNL d   1      27.400 -17.104  -0.287  0.00  0.00    -0.326 N 
ATOM      4  H   UNL d   1      27.991 -17.859  -0.617  0.00  0.00     0.169 HD
ATOM      5  O   UNL d   1      27.392 -14.893   0.475  0.00  0.00    -0.271 OA
BRANCH   3   6
ATOM      6  C   UNL d   1      25.988 -17.317  -0.349  0.00  0.00     0.034 A 
ATOM      7  C   UNL d   1      25.161 -16.440  -1.066  0.00  0.00     0.030 A 
ATOM      8  C   UNL d   1      23.757 -16.611  -1.053  0.00  0.00     0.019 A 
ATOM      9  C   UNL d   1      23.168 -17.699  -0.389  0.00  0.00     0.032 A 
ATOM     10  C   UNL d   1      23.985 -18.576   0.310  0.00  0.00     0.019 A 
ATOM     11  C   UNL d   1      25.369 -18.384   0.312  0.00  0.00     0.030 A 
BRANCH   9  12
ATOM     12  C   UNL d   1      21.731 -18.021  -0.609  0.00  0.00     0.251 C 
ATOM     13  N   UNL d   1      21.246 -19.206  -0.086  0.00  0.00    -0.355 N 
ATOM     14  H   UNL d   1      21.833 -19.778   0.506  0.00  0.00     0.162 HD
ATOM     15  O   UNL d   1      21.045 -17.247  -1.269  0.00  0.00    -0.268 OA
BRANCH  13  16
ATOM     16  C   UNL d   1      19.859 -19.601  -0.310  0.00  0.00     0.149 C 
BRANCH  16  17
ATOM     17  C   UNL d   1      19.213 -20.229   0.925  0.00  0.00     0.186 C 
BRANCH  17  18
ATOM     18  O   UNL d   1      20.201 -20.536   1.910  0.00  0.00    -0.394 OA
ATOM     19  C   UNL d   1      19.655 -20.450   3.222  0.00  0.00     0.201 C 
ENDBRANCH  17  18
ENDBRANCH  16  17
ENDBRANCH  13  16
ENDBRANCH   9  12
ENDBRANCH   3   6
ENDBRANCH   1   2
BRANCH   1  20
ATOM     20  N   UNL d   1      30.007 -16.907  -0.832  0.00  0.00    -0.381 N 
ATOM     21  H   UNL d   1      30.690 -17.532  -0.388  0.00  0.00     0.160 HD
BRANCH  20  22
ATOM     22  C   UNL d   1      30.041 -16.869  -2.205  0.00  0.00     0.029 A 
ATOM     23  C   UNL d   1      30.976 -17.666  -2.870  0.00  0.00     0.031 A 
ATOM     24  C   UNL d   1      31.089 -17.643  -4.257  0.00  0.00     0.027 A 
ATOM     25  C   UNL d   1      30.217 -16.871  -5.016  0.00  0.00     0.049 A 
ATOM     26 CL   UNL d   1      30.422 -17.051  -6.731  0.00  0.00    -0.083 Cl
ATOM     27  C   UNL d   1      29.256 -16.063  -4.370  0.00  0.00     0.055 A 
ATOM     28  C   UNL d   1      29.176 -16.089  -2.968  0.00  0.00     0.048 A 
BRANCH  27  29
ATOM     29  C   UNL d   1      28.377 -15.156  -5.146  0.00  0.00     0.253 C 
ATOM     30  O   UNL d   1      27.261 -15.575  -5.447  0.00  0.00    -0.268 OA
ATOM     31  N   UNL d   1      28.827 -13.904  -5.548  0.00  0.00    -0.352 N 
ATOM     32  H   UNL d   1      29.684 -13.521  -5.181  0.00  0.00     0.163 HD
BRANCH  31  33
ATOM     33  C   UNL d   1      27.995 -12.979  -6.335  0.00  0.00     0.084 C 
ATOM     34  C   UNL d   1      27.905 -11.614  -5.623  0.00  0.00     0.025 C 
ATOM     35  C   UNL d   1      27.168 -10.568  -6.464  0.00  0.00     0.002 C 
ATOM     36  C   UNL d   1      27.773 -10.423  -7.857  0.00  0.00     0.000 C 
ATOM     37  C   UNL d   1      27.782 -11.758  -8.569  0.00  0.00     0.002 C 
ATOM     38  C   UNL d   1      28.528 -12.787  -7.760  0.00  0.00     0.025 C 
ENDBRANCH  31  33
ENDBRANCH  27  29
ENDBRANCH  20  22
ENDBRANCH   1  20
TORSDOF 10
ENDMDL
MODEL 9
REMARK VINA RESULT:    -8.614      7.244      9.056
REMARK INTER + INTRA:         -13.841
REMARK INTER:                 -11.597
REMARK INTRA:                  -2.245
REMARK CONF_INDEPENDENT:        2.983
REMARK UNBOUND:                -2.245
REMARK  10 active torsions:
REMARK  status: ('A' for Active; 'I' for Inactive)
REMARK    1  A    between atoms: O_2  and  C_3 
REMARK    2  A    between atoms: C_3  and  C_4 
REMARK    3  A    between atoms: C_4  and  N_5 
REMARK       I    between atoms: N_5  and  C_6 
REMARK    4  A    between atoms: C_6  and  C_8 
REMARK    5  A    between atoms: C_11  and  N_12 
REMARK       I    between atoms: N_12  and  C_13 
REMARK    6  A    between atoms: C_13  and  C_15 
REMARK    7  A    between atoms: C_15  and  N_16 
REMARK    8  A    between atoms: N_16  and  C_17 
REMARK    9  A    between atoms: C_22  and  C_23 
REMARK       I    between atoms: C_23  and  N_25 
REMARK   10  A    between atoms: N_25  and  C_26 
ROOT
ATOM      1  C   UNL d   1      26.928 -14.209  -2.115  0.00  0.00     0.223 C 
ENDROOT
BRANCH   1   2
ATOM      2  C   UNL d   1      25.615 -15.012  -2.126  0.00  0.00     0.239 C 
ATOM      3  N   UNL d   1      25.436 -15.953  -1.112  0.00  0.00    -0.326 N 
ATOM      4  H   UNL d   1      26.178 -16.088  -0.433  0.00  0.00     0.169 HD
ATOM      5  O   UNL d   1      24.821 -14.793  -3.047  0.00  0.00    -0.271 OA
BRANCH   3   6
ATOM      6  C   UNL d   1      24.304 -16.819  -1.010  0.00  0.00     0.034 A 
ATOM      7  C   UNL d   1      23.000 -16.308  -1.078  0.00  0.00     0.030 A 
ATOM      8  C   UNL d   1      21.887 -17.161  -0.894  0.00  0.00     0.019 A 
ATOM      9  C   UNL d   1      22.058 -18.543  -0.714  0.00  0.00     0.032 A 
ATOM     10  C   UNL d   1      23.346 -19.054  -0.659  0.00  0.00     0.019 A 
ATOM     11  C   UNL d   1      24.441 -18.200  -0.818  0.00  0.00     0.030 A 
BRANCH   9  12
ATOM     12  C   UNL d   1      20.887 -19.459  -0.796  0.00  0.00     0.251 C 
ATOM     13  N   UNL d   1      20.428 -20.027   0.378  0.00  0.00    -0.355 N 
ATOM     14  H   UNL d   1      20.821 -19.748   1.267  0.00  0.00     0.162 HD
ATOM     15  O   UNL d   1      20.398 -19.699  -1.895  0.00  0.00    -0.268 OA
BRANCH  13  16
ATOM     16  C   UNL d   1      19.314 -20.971   0.358  0.00  0.00     0.149 C 
BRANCH  16  17
ATOM     17  C   UNL d   1      18.355 -20.785   1.533  0.00  0.00     0.186 C 
BRANCH  17  18
ATOM     18  O   UNL d   1      18.890 -19.858   2.479  0.00  0.00    -0.394 OA
ATOM     19  C   UNL d   1      19.946 -20.450   3.230  0.00  0.00     0.201 C 
ENDBRANCH  17  18
ENDBRANCH  16  17
ENDBRANCH  13  16
ENDBRANCH   9  12
ENDBRANCH   3   6
ENDBRANCH   1   2
BRANCH   1  20
ATOM     20  N   UNL d   1      27.277 -13.885  -3.504  0.00  0.00    -0.381 N 
ATOM     21  H   UNL d   1      26.549 -13.353  -3.995  0.00  0.00     0.160 HD
BRANCH  20  22
ATOM     22  C   UNL d   1      28.145 -14.584  -4.308  0.00  0.00     0.029 A 
ATOM     23  C   UNL d   1      28.186 -14.275  -5.670  0.00  0.00     0.031 A 
ATOM     24  C   UNL d   1      29.012 -14.974  -6.545  0.00  0.00     0.027 A 
ATOM     25  C   UNL d   1      29.872 -15.955  -6.061  0.00  0.00     0.049 A 
ATOM     26 CL   UNL d   1      30.914 -16.641  -7.269  0.00  0.00    -0.083 Cl
ATOM     27  C   UNL d   1      29.858 -16.281  -4.687  0.00  0.00     0.055 A 
ATOM     28  C   UNL d   1      28.999 -15.574  -3.828  0.00  0.00     0.048 A 
BRANCH  27  29
ATOM     29  C   UNL d   1      30.690 -17.386  -4.158  0.00  0.00     0.253 C 
ATOM     30  O   UNL d   1      31.651 -17.079  -3.454  0.00  0.00    -0.268 OA
ATOM     31  N   UNL d   1      30.411 -18.706  -4.488  0.00  0.00    -0.352 N 
ATOM     32  H   UNL d   1      29.549 -18.952  -4.948  0.00  0.00     0.163 HD
BRANCH  31  33
ATOM     33  C   UNL d   1      31.222 -19.834  -4.000  0.00  0.00     0.084 C 
ATOM     34  C   UNL d   1      31.149 -19.910  -2.462  0.00  0.00     0.025 C 
ATOM     35  C   UNL d   1      31.860 -21.147  -1.906  0.00  0.00     0.002 C 
ATOM     36  C   UNL d   1      31.351 -22.435  -2.547  0.00  0.00     0.000 C 
ATOM     37  C   UNL d   1      31.503 -22.372  -4.050  0.00  0.00     0.002 C 
ATOM     38  C   UNL d   1      30.783 -21.171  -4.608  0.00  0.00     0.025 C 
ENDBRANCH  31  33
ENDBRANCH  27  29
ENDBRANCH  20  22
ENDBRANCH   1  20
TORSDOF 10
ENDMDL
