MODEL 1
REMARK VINA RESULT:   -10.117      0.000      0.000
REMARK INTER + INTRA:         -15.059
REMARK INTER:                 -13.398
REMARK INTRA:                  -1.660
REMARK CONF_INDEPENDENT:        3.281
REMARK UNBOUND:                -1.660
REMARK  11 active torsions:
REMARK  status: ('A' for Active; 'I' for Inactive)
REMARK    1  A    between atoms: C_2  and  C_3 
REMARK    2  A    between atoms: C_3  and  C_4 
REMARK    3  A    between atoms: C_4  and  C_5 
REMARK    4  A    between atoms: C_5  and  C_6 
REMARK       I    between atoms: C_6  and  N_8 
REMARK    5  A    between atoms: N_8  and  C_9 
REMARK    6  A    between atoms: C_13  and  N_14 
REMARK    7  A    between atoms: N_14  and  C_15 
REMARK    8  A    between atoms: C_15  and  C_16 
REMARK       I    between atoms: C_16  and  N_18 
REMARK    9  A    between atoms: N_18  and  C_19 
REMARK   10  A    between atoms: C_22  and  C_23 
REMARK       I    between atoms: C_23  and  N_25 
REMARK   11  A    between atoms: N_25  and  C_27 
ROOT
ATOM      1  C   UNL d   1      27.933 -13.679   1.203  0.00  0.00     0.239 C 
ATOM      2  O   UNL d   1      27.475 -12.616   1.634  0.00  0.00    -0.271 OA
ATOM      3  N   UNL d   1      28.684 -14.578   1.962  0.00  0.00    -0.326 N 
ATOM      4  H   UNL d   1      29.142 -15.375   1.536  0.00  0.00     0.169 HD
ENDROOT
BRANCH   1   5
ATOM      5  C   UNL d   1      27.730 -14.061  -0.256  0.00  0.00     0.223 C 
BRANCH   5   6
ATOM      6  N   UNL d   1      26.363 -14.554  -0.450  0.00  0.00    -0.381 N 
ATOM      7  H   UNL d   1      25.715 -13.908  -0.898  0.00  0.00     0.160 HD
BRANCH   6   8
ATOM      8  C   UNL d   1      26.018 -15.872  -0.249  0.00  0.00     0.030 A 
ATOM      9  C   UNL d   1      26.988 -16.856  -0.050  0.00  0.00     0.029 A 
ATOM     10  C   UNL d   1      26.617 -18.187   0.187  0.00  0.00     0.004 A 
ATOM     11  C   UNL d   1      25.266 -18.561   0.185  0.00  0.00     0.029 A 
ATOM     12  C   UNL d   1      24.290 -17.596  -0.041  0.00  0.00     0.036 A 
ATOM     13  C   UNL d   1      24.684 -16.275  -0.256  0.00  0.00     0.058 A 
BRANCH  12  14
ATOM     14  N   UNL d   1      22.911 -17.911  -0.005  0.00  0.00    -0.327 N 
ATOM     15  C   UNL d   1      22.298 -18.598  -1.047  0.00  0.00     0.222 C 
ATOM     16  O   UNL d   1      22.891 -19.052  -2.017  0.00  0.00    -0.273 OA
ATOM     17  H   UNL d   1      22.409 -17.732   0.853  0.00  0.00     0.169 HD
BRANCH  15  18
ATOM     18  C   UNL d   1      20.796 -18.790  -0.898  0.00  0.00     0.103 C 
BRANCH  18  19
ATOM     19  C   UNL d   1      20.536 -20.112  -0.163  0.00  0.00     0.009 C 
BRANCH  19  20
ATOM     20  C   UNL d   1      19.877 -19.914   1.193  0.00  0.00     0.000 C 
BRANCH  20  21
ATOM     21  C   UNL d   1      18.394 -20.283   1.135  0.00  0.00    -0.005 C 
ATOM     22  C   UNL d   1      18.221 -21.788   1.046  0.00  0.00     0.005 C 
ENDBRANCH  20  21
ENDBRANCH  19  20
ENDBRANCH  18  19
ENDBRANCH  15  18
ENDBRANCH  12  14
ENDBRANCH   6   8
ENDBRANCH   5   6
ENDBRANCH   1   5
BRANCH   3  23
ATOM     23  C   UNL d   1      28.811 -14.402   3.352  0.00  0.00     0.034 C 
ATOM     24  C   UNL d   1      30.017 -14.465   4.046  0.00  0.00     0.030 C 
ATOM     25  C   UNL d   1      30.031 -14.237   5.446  0.00  0.00     0.019 C 
ATOM     26  C   UNL d   1      28.843 -13.988   6.167  0.00  0.00     0.032 C 
ATOM     27  C   UNL d   1      27.668 -14.143   5.449  0.00  0.00     0.019 C 
ATOM     28  C   UNL d   1      27.644 -14.245   4.071  0.00  0.00     0.030 C 
BRANCH  26  29
ATOM     29  C   UNL d   1      28.915 -13.588   7.629  0.00  0.00     0.258 C 
ATOM     30  O   UNL d   1      28.746 -14.514   8.425  0.00  0.00    -0.267 OA
ATOM     31  N   UNL d   1      29.156 -12.256   8.068  0.00  0.00    -0.318 N 
ATOM     32  C   UNL d   1      29.492 -11.074   7.264  0.00  0.00     0.159 C 
BRANCH  31  33
ATOM     33  C   UNL d   1      29.260 -11.972   9.477  0.00  0.00     0.037 A 
ATOM     34  C   UNL d   1      30.198 -11.031   9.939  0.00  0.00     0.029 A 
ATOM     35  C   UNL d   1      30.422 -10.850  11.305  0.00  0.00     0.002 A 
ATOM     36  C   UNL d   1      29.679 -11.577  12.230  0.00  0.00     0.000 A 
ATOM     37  C   UNL d   1      28.749 -12.515  11.787  0.00  0.00     0.002 A 
ATOM     38  C   UNL d   1      28.545 -12.717  10.419  0.00  0.00     0.029 A 
ENDBRANCH  31  33
ENDBRANCH  26  29
ENDBRANCH   3  23
TORSDOF 11
ENDMDL
MODEL 2
REMARK VINA RESULT:    -9.940      1.669      2.543
REMARK INTER + INTRA:         -15.119
REMARK INTER:                 -13.221
REMARK INTRA:                  -1.898
REMARK CONF_INDEPENDENT:        3.281
REMARK UNBOUND:                -1.898
REMARK  11 active torsions:
REMARK  status: ('A' for Active; 'I' for Inactive)
REMARK    1  A    between atoms: C_2  and  C_3 
REMARK    2  A    between atoms: C_3  and  C_4 
REMARK    3  A    between atoms: C_4  and  C_5 
REMARK    4  A    between atoms: C_5  and  C_6 
REMARK       I    between atoms: C_6  and  N_8 
REMARK    5  A    between atoms: N_8  and  C_9 
REMARK    6  A    between atoms: C_13  and  N_14 
REMARK    7  A    between atoms: N_14  and  C_15 
REMARK    8  A    between atoms: C_15  and  C_16 
REMARK       I    between atoms: C_16  and  N_18 
REMARK    9  A    between atoms: N_18  and  C_19 
REMARK   10  A    between atoms: C_22  and  C_23 
REMARK       I    between atoms: C_23  and  N_25 
REMARK   11  A    between atoms: N_25  and  C_27 
ROOT
ATOM      1  C   UNL d   1      27.146 -13.873  -1.383  0.00  0.00     0.239 C 
ATOM      2  O   UNL d   1      28.305 -13.448  -1.399  0.00  0.00    -0.271 OA
ATOM      3  N   UNL d   1      26.405 -14.097  -0.221  0.00  0.00    -0.326 N 
ATOM      4  H   UNL d   1      25.505 -14.561  -0.251  0.00  0.00     0.169 HD
ENDROOT
BRANCH   1   5
ATOM      5  C   UNL d   1      26.448 -14.233  -2.686  0.00  0.00     0.223 C 
BRANCH   5   6
ATOM      6  N   UNL d   1      26.367 -15.691  -2.814  0.00  0.00    -0.381 N 
ATOM      7  H   UNL d   1      26.725 -16.084  -3.683  0.00  0.00     0.160 HD
BRANCH   6   8
ATOM      8  C   UNL d   1      26.037 -16.508  -1.755  0.00  0.00     0.030 A 
ATOM      9  C   UNL d   1      27.009 -16.994  -0.880  0.00  0.00     0.029 A 
ATOM     10  C   UNL d   1      26.650 -17.796   0.212  0.00  0.00     0.004 A 
ATOM     11  C   UNL d   1      25.312 -18.159   0.420  0.00  0.00     0.029 A 
ATOM     12  C   UNL d   1      24.336 -17.705  -0.461  0.00  0.00     0.036 A 
ATOM     13  C   UNL d   1      24.717 -16.894  -1.530  0.00  0.00     0.058 A 
BRANCH  12  14
ATOM     14  N   UNL d   1      22.966 -18.002  -0.269  0.00  0.00    -0.327 N 
ATOM     15  C   UNL d   1      22.256 -18.771  -1.186  0.00  0.00     0.222 C 
ATOM     16  O   UNL d   1      22.755 -19.312  -2.164  0.00  0.00    -0.273 OA
ATOM     17  H   UNL d   1      22.547 -17.745   0.613  0.00  0.00     0.169 HD
BRANCH  15  18
ATOM     18  C   UNL d   1      20.774 -18.934  -0.881  0.00  0.00     0.103 C 
BRANCH  18  19
ATOM     19  C   UNL d   1      20.618 -19.830   0.355  0.00  0.00     0.009 C 
BRANCH  19  20
ATOM     20  C   UNL d   1      19.221 -19.771   0.953  0.00  0.00     0.000 C 
BRANCH  20  21
ATOM     21  C   UNL d   1      18.318 -20.834   0.328  0.00  0.00    -0.005 C 
ATOM     22  C   UNL d   1      17.940 -21.886   1.355  0.00  0.00     0.005 C 
ENDBRANCH  20  21
ENDBRANCH  19  20
ENDBRANCH  18  19
ENDBRANCH  15  18
ENDBRANCH  12  14
ENDBRANCH   6   8
ENDBRANCH   5   6
ENDBRANCH   1   5
BRANCH   3  23
ATOM     23  C   UNL d   1      26.891 -13.666   1.026  0.00  0.00     0.034 C 
ATOM     24  C   UNL d   1      26.585 -12.438   1.608  0.00  0.00     0.030 C 
ATOM     25  C   UNL d   1      27.105 -12.122   2.889  0.00  0.00     0.019 C 
ATOM     26  C   UNL d   1      27.966 -13.006   3.577  0.00  0.00     0.032 C 
ATOM     27  C   UNL d   1      28.387 -14.109   2.853  0.00  0.00     0.019 C 
ATOM     28  C   UNL d   1      27.799 -14.488   1.661  0.00  0.00     0.030 C 
BRANCH  26  29
ATOM     29  C   UNL d   1      28.370 -12.706   5.009  0.00  0.00     0.258 C 
ATOM     30  O   UNL d   1      28.426 -11.507   5.288  0.00  0.00    -0.267 OA
ATOM     31  N   UNL d   1      28.666 -13.715   5.968  0.00  0.00    -0.318 N 
ATOM     32  C   UNL d   1      28.535 -15.172   5.835  0.00  0.00     0.159 C 
BRANCH  31  33
ATOM     33  C   UNL d   1      28.992 -13.345   7.322  0.00  0.00     0.037 A 
ATOM     34  C   UNL d   1      30.055 -13.980   7.990  0.00  0.00     0.029 A 
ATOM     35  C   UNL d   1      30.293 -13.748   9.346  0.00  0.00     0.002 A 
ATOM     36  C   UNL d   1      29.498 -12.844  10.043  0.00  0.00     0.000 A 
ATOM     37  C   UNL d   1      28.439 -12.211   9.396  0.00  0.00     0.002 A 
ATOM     38  C   UNL d   1      28.182 -12.463   8.045  0.00  0.00     0.029 A 
ENDBRANCH  31  33
ENDBRANCH  26  29
ENDBRANCH   3  23
TORSDOF 11
ENDMDL
MODEL 3
REMARK VINA RESULT:    -9.928      7.247     11.809
REMARK INTER + INTRA:         -14.676
REMARK INTER:                 -13.210
REMARK INTRA:                  -1.466
REMARK CONF_INDEPENDENT:        3.281
REMARK UNBOUND:                -1.466
REMARK  11 active torsions:
REMARK  status: ('A' for Active; 'I' for Inactive)
REMARK    1  A    between atoms: C_2  and  C_3 
REMARK    2  A    between atoms: C_3  and  C_4 
REMARK    3  A    between atoms: C_4  and  C_5 
REMARK    4  A    between atoms: C_5  and  C_6 
REMARK       I    between atoms: C_6  and  N_8 
REMARK    5  A    between atoms: N_8  and  C_9 
REMARK    6  A    between atoms: C_13  and  N_14 
REMARK    7  A    between atoms: N_14  and  C_15 
REMARK    8  A    between atoms: C_15  and  C_16 
REMARK       I    between atoms: C_16  and  N_18 
REMARK    9  A    between atoms: N_18  and  C_19 
REMARK   10  A    between atoms: C_22  and  C_23 
REMARK       I    between atoms: C_23  and  N_25 
REMARK   11  A    between atoms: N_25  and  C_27 
ROOT
ATOM      1  C   UNL d   1      26.085 -14.670  -3.953  0.00  0.00     0.239 C 
ATOM      2  O   UNL d   1      25.553 -15.318  -4.861  0.00  0.00    -0.271 OA
ATOM      3  N   UNL d   1      27.464 -14.555  -3.772  0.00  0.00    -0.326 N 
ATOM      4  H   UNL d   1      27.853 -14.117  -2.945  0.00  0.00     0.169 HD
ENDROOT
BRANCH   1   5
ATOM      5  C   UNL d   1      25.225 -13.970  -2.912  0.00  0.00     0.223 C 
BRANCH   5   6
ATOM      6  N   UNL d   1      24.211 -14.899  -2.404  0.00  0.00    -0.381 N 
ATOM      7  H   UNL d   1      23.281 -14.813  -2.812  0.00  0.00     0.160 HD
BRANCH   6   8
ATOM      8  C   UNL d   1      24.529 -15.967  -1.594  0.00  0.00     0.030 A 
ATOM      9  C   UNL d   1      25.755 -16.038  -0.931  0.00  0.00     0.029 A 
ATOM     10  C   UNL d   1      26.047 -17.116  -0.083  0.00  0.00     0.004 A 
ATOM     11  C   UNL d   1      25.129 -18.162   0.081  0.00  0.00     0.029 A 
ATOM     12  C   UNL d   1      23.915 -18.118  -0.597  0.00  0.00     0.036 A 
ATOM     13  C   UNL d   1      23.640 -17.026  -1.420  0.00  0.00     0.058 A 
BRANCH  12  14
ATOM     14  N   UNL d   1      22.934 -19.124  -0.428  0.00  0.00    -0.327 N 
ATOM     15  C   UNL d   1      21.585 -18.865  -0.651  0.00  0.00     0.222 C 
ATOM     16  O   UNL d   1      21.149 -17.805  -1.080  0.00  0.00    -0.273 OA
ATOM     17  H   UNL d   1      23.250 -20.068  -0.261  0.00  0.00     0.169 HD
BRANCH  15  18
ATOM     18  C   UNL d   1      20.647 -20.024  -0.350  0.00  0.00     0.103 C 
BRANCH  18  19
ATOM     19  C   UNL d   1      19.273 -19.462   0.040  0.00  0.00     0.009 C 
BRANCH  19  20
ATOM     20  C   UNL d   1      19.078 -19.372   1.545  0.00  0.00     0.000 C 
BRANCH  20  21
ATOM     21  C   UNL d   1      18.491 -20.672   2.095  0.00  0.00    -0.005 C 
ATOM     22  C   UNL d   1      17.884 -21.499   0.976  0.00  0.00     0.005 C 
ENDBRANCH  20  21
ENDBRANCH  19  20
ENDBRANCH  18  19
ENDBRANCH  15  18
ENDBRANCH  12  14
ENDBRANCH   6   8
ENDBRANCH   5   6
ENDBRANCH   1   5
BRANCH   3  23
ATOM     23  C   UNL d   1      28.353 -15.037  -4.750  0.00  0.00     0.034 C 
ATOM     24  C   UNL d   1      28.402 -14.575  -6.063  0.00  0.00     0.030 C 
ATOM     25  C   UNL d   1      29.365 -15.110  -6.957  0.00  0.00     0.019 C 
ATOM     26  C   UNL d   1      30.252 -16.135  -6.562  0.00  0.00     0.032 C 
ATOM     27  C   UNL d   1      30.009 -16.683  -5.313  0.00  0.00     0.019 C 
ATOM     28  C   UNL d   1      29.161 -16.096  -4.393  0.00  0.00     0.030 C 
BRANCH  26  29
ATOM     29  C   UNL d   1      31.372 -16.566  -7.491  0.00  0.00     0.258 C 
ATOM     30  O   UNL d   1      32.097 -15.650  -7.882  0.00  0.00    -0.267 OA
ATOM     31  N   UNL d   1      31.583 -17.915  -7.893  0.00  0.00    -0.318 N 
ATOM     32  C   UNL d   1      30.894 -19.126  -7.432  0.00  0.00     0.159 C 
BRANCH  31  33
ATOM     33  C   UNL d   1      32.703 -18.245  -8.739  0.00  0.00     0.037 A 
ATOM     34  C   UNL d   1      32.654 -19.387  -9.559  0.00  0.00     0.029 A 
ATOM     35  C   UNL d   1      33.778 -19.811 -10.269  0.00  0.00     0.002 A 
ATOM     36  C   UNL d   1      34.956 -19.072 -10.204  0.00  0.00     0.000 A 
ATOM     37  C   UNL d   1      35.020 -17.941  -9.393  0.00  0.00     0.002 A 
ATOM     38  C   UNL d   1      33.903 -17.532  -8.659  0.00  0.00     0.029 A 
ENDBRANCH  31  33
ENDBRANCH  26  29
ENDBRANCH   3  23
TORSDOF 11
ENDMDL
MODEL 4
REMARK VINA RESULT:    -9.755      1.859      2.428
REMARK INTER + INTRA:         -15.084
REMARK INTER:                 -13.037
REMARK INTRA:                  -2.047
REMARK CONF_INDEPENDENT:        3.281
REMARK UNBOUND:                -2.047
REMARK  11 active torsions:
REMARK  status: ('A' for Active; 'I' for Inactive)
REMARK    1  A    between atoms: C_2  and  C_3 
REMARK    2  A    between atoms: C_3  and  C_4 
REMARK    3  A    between atoms: C_4  and  C_5 
REMARK    4  A    between atoms: C_5  and  C_6 
REMARK       I    between atoms: C_6  and  N_8 
REMARK    5  A    between atoms: N_8  and  C_9 
REMARK    6  A    between atoms: C_13  and  N_14 
REMARK    7  A    between atoms: N_14  and  C_15 
REMARK    8  A    between atoms: C_15  and  C_16 
REMARK       I    between atoms: C_16  and  N_18 
REMARK    9  A    between atoms: N_18  and  C_19 
REMARK   10  A    between atoms: C_22  and  C_23 
REMARK       I    between atoms: C_23  and  N_25 
REMARK   11  A    between atoms: N_25  and  C_27 
ROOT
ATOM      1  C   UNL d   1      28.092 -14.277   2.814  0.00  0.00     0.239 C 
ATOM      2  O   UNL d   1      27.965 -13.060   2.643  0.00  0.00    -0.271 OA
ATOM      3  N   UNL d   1      28.564 -14.862   3.991  0.00  0.00    -0.326 N 
ATOM      4  H   UNL d   1      28.767 -15.853   4.043  0.00  0.00     0.169 HD
ENDROOT
BRANCH   1   5
ATOM      5  C   UNL d   1      27.768 -15.244   1.685  0.00  0.00     0.223 C 
BRANCH   5   6
ATOM      6  N   UNL d   1      27.018 -14.543   0.637  0.00  0.00    -0.381 N 
ATOM      7  H   UNL d   1      27.110 -13.529   0.624  0.00  0.00     0.160 HD
BRANCH   6   8
ATOM      8  C   UNL d   1      26.404 -15.209  -0.401  0.00  0.00     0.030 A 
ATOM      9  C   UNL d   1      26.655 -14.872  -1.732  0.00  0.00     0.029 A 
ATOM     10  C   UNL d   1      26.047 -15.583  -2.776  0.00  0.00     0.004 A 
ATOM     11  C   UNL d   1      25.144 -16.618  -2.500  0.00  0.00     0.029 A 
ATOM     12  C   UNL d   1      24.862 -16.946  -1.178  0.00  0.00     0.036 A 
ATOM     13  C   UNL d   1      25.494 -16.235  -0.158  0.00  0.00     0.058 A 
BRANCH  12  14
ATOM     14  N   UNL d   1      23.995 -18.014  -0.846  0.00  0.00    -0.327 N 
ATOM     15  C   UNL d   1      22.648 -17.796  -0.574  0.00  0.00     0.222 C 
ATOM     16  O   UNL d   1      22.092 -16.711  -0.677  0.00  0.00    -0.273 OA
ATOM     17  H   UNL d   1      24.352 -18.955  -0.932  0.00  0.00     0.169 HD
BRANCH  15  18
ATOM     18  C   UNL d   1      21.867 -19.032  -0.154  0.00  0.00     0.103 C 
BRANCH  18  19
ATOM     19  C   UNL d   1      20.757 -19.289  -1.182  0.00  0.00     0.009 C 
BRANCH  19  20
ATOM     20  C   UNL d   1      19.381 -19.417  -0.546  0.00  0.00     0.000 C 
BRANCH  20  21
ATOM     21  C   UNL d   1      19.467 -20.167   0.784  0.00  0.00    -0.005 C 
ATOM     22  C   UNL d   1      18.371 -21.213   0.879  0.00  0.00     0.005 C 
ENDBRANCH  20  21
ENDBRANCH  19  20
ENDBRANCH  18  19
ENDBRANCH  15  18
ENDBRANCH  12  14
ENDBRANCH   6   8
ENDBRANCH   5   6
ENDBRANCH   1   5
BRANCH   3  23
ATOM     23  C   UNL d   1      28.755 -14.082   5.145  0.00  0.00     0.034 C 
ATOM     24  C   UNL d   1      29.828 -14.223   6.022  0.00  0.00     0.030 C 
ATOM     25  C   UNL d   1      29.939 -13.355   7.138  0.00  0.00     0.019 C 
ATOM     26  C   UNL d   1      28.961 -12.374   7.412  0.00  0.00     0.032 C 
ATOM     27  C   UNL d   1      27.826 -12.428   6.620  0.00  0.00     0.019 C 
ATOM     28  C   UNL d   1      27.759 -13.181   5.463  0.00  0.00     0.030 C 
BRANCH  26  29
ATOM     29  C   UNL d   1      29.196 -11.361   8.518  0.00  0.00     0.258 C 
ATOM     30  O   UNL d   1      28.799 -11.713   9.630  0.00  0.00    -0.267 OA
ATOM     31  N   UNL d   1      29.820 -10.100   8.308  0.00  0.00    -0.318 N 
ATOM     32  C   UNL d   1      30.449  -9.582   7.086  0.00  0.00     0.159 C 
BRANCH  31  33
ATOM     33  C   UNL d   1      30.050  -9.217   9.423  0.00  0.00     0.037 A 
ATOM     34  C   UNL d   1      29.679  -7.863   9.340  0.00  0.00     0.029 A 
ATOM     35  C   UNL d   1      30.028  -6.958  10.344  0.00  0.00     0.002 A 
ATOM     36  C   UNL d   1      30.715  -7.404  11.468  0.00  0.00     0.000 A 
ATOM     37  C   UNL d   1      31.093  -8.742  11.563  0.00  0.00     0.002 A 
ATOM     38  C   UNL d   1      30.769  -9.643  10.545  0.00  0.00     0.029 A 
ENDBRANCH  31  33
ENDBRANCH  26  29
ENDBRANCH   3  23
TORSDOF 11
ENDMDL
MODEL 5
REMARK VINA RESULT:    -9.684      7.081     12.030
REMARK INTER + INTRA:         -14.672
REMARK INTER:                 -12.965
REMARK INTRA:                  -1.707
REMARK CONF_INDEPENDENT:        3.281
REMARK UNBOUND:                -1.707
REMARK  11 active torsions:
REMARK  status: ('A' for Active; 'I' for Inactive)
REMARK    1  A    between atoms: C_2  and  C_3 
REMARK    2  A    between atoms: C_3  and  C_4 
REMARK    3  A    between atoms: C_4  and  C_5 
REMARK    4  A    between atoms: C_5  and  C_6 
REMARK       I    between atoms: C_6  and  N_8 
REMARK    5  A    between atoms: N_8  and  C_9 
REMARK    6  A    between atoms: C_13  and  N_14 
REMARK    7  A    between atoms: N_14  and  C_15 
REMARK    8  A    between atoms: C_15  and  C_16 
REMARK       I    between atoms: C_16  and  N_18 
REMARK    9  A    between atoms: N_18  and  C_19 
REMARK   10  A    between atoms: C_22  and  C_23 
REMARK       I    between atoms: C_23  and  N_25 
REMARK   11  A    between atoms: N_25  and  C_27 
ROOT
ATOM      1  C   UNL d   1      26.830 -14.685  -4.740  0.00  0.00     0.239 C 
ATOM      2  O   UNL d   1      26.288 -15.436  -5.557  0.00  0.00    -0.271 OA
ATOM      3  N   UNL d   1      28.167 -14.781  -4.348  0.00  0.00    -0.326 N 
ATOM      4  H   UNL d   1      28.535 -14.224  -3.586  0.00  0.00     0.169 HD
ENDROOT
BRANCH   1   5
ATOM      5  C   UNL d   1      26.022 -13.594  -4.054  0.00  0.00     0.223 C 
BRANCH   5   6
ATOM      6  N   UNL d   1      25.051 -14.202  -3.139  0.00  0.00    -0.381 N 
ATOM      7  H   UNL d   1      24.072 -13.986  -3.319  0.00  0.00     0.160 HD
BRANCH   6   8
ATOM      8  C   UNL d   1      25.402 -15.176  -2.231  0.00  0.00     0.030 A 
ATOM      9  C   UNL d   1      26.616 -15.127  -1.544  0.00  0.00     0.029 A 
ATOM     10  C   UNL d   1      26.942 -16.110  -0.598  0.00  0.00     0.004 A 
ATOM     11  C   UNL d   1      26.072 -17.181  -0.356  0.00  0.00     0.029 A 
ATOM     12  C   UNL d   1      24.871 -17.258  -1.055  0.00  0.00     0.036 A 
ATOM     13  C   UNL d   1      24.562 -16.259  -1.977  0.00  0.00     0.058 A 
BRANCH  12  14
ATOM     14  N   UNL d   1      23.936 -18.292  -0.813  0.00  0.00    -0.327 N 
ATOM     15  C   UNL d   1      22.623 -18.011  -0.449  0.00  0.00     0.222 C 
ATOM     16  O   UNL d   1      22.151 -16.884  -0.391  0.00  0.00    -0.273 OA
ATOM     17  H   UNL d   1      24.213 -19.239  -1.030  0.00  0.00     0.169 HD
BRANCH  15  18
ATOM     18  C   UNL d   1      21.763 -19.229  -0.145  0.00  0.00     0.103 C 
BRANCH  18  19
ATOM     19  C   UNL d   1      20.608 -19.284  -1.154  0.00  0.00     0.009 C 
BRANCH  19  20
ATOM     20  C   UNL d   1      19.288 -19.692  -0.518  0.00  0.00     0.000 C 
BRANCH  20  21
ATOM     21  C   UNL d   1      19.514 -20.726   0.586  0.00  0.00    -0.005 C 
ATOM     22  C   UNL d   1      18.188 -21.200   1.154  0.00  0.00     0.005 C 
ENDBRANCH  20  21
ENDBRANCH  19  20
ENDBRANCH  18  19
ENDBRANCH  15  18
ENDBRANCH  12  14
ENDBRANCH   6   8
ENDBRANCH   5   6
ENDBRANCH   1   5
BRANCH   3  23
ATOM     23  C   UNL d   1      29.043 -15.653  -5.018  0.00  0.00     0.034 C 
ATOM     24  C   UNL d   1      29.658 -16.756  -4.431  0.00  0.00     0.030 C 
ATOM     25  C   UNL d   1      30.498 -17.589  -5.214  0.00  0.00     0.019 C 
ATOM     26  C   UNL d   1      30.764 -17.304  -6.571  0.00  0.00     0.032 C 
ATOM     27  C   UNL d   1      30.286 -16.087  -7.028  0.00  0.00     0.019 C 
ATOM     28  C   UNL d   1      29.373 -15.330  -6.319  0.00  0.00     0.030 C 
BRANCH  26  29
ATOM     29  C   UNL d   1      31.533 -18.303  -7.417  0.00  0.00     0.258 C 
ATOM     30  O   UNL d   1      32.247 -17.799  -8.286  0.00  0.00    -0.267 OA
ATOM     31  N   UNL d   1      31.447 -19.712  -7.239  0.00  0.00    -0.318 N 
ATOM     32  C   UNL d   1      30.745 -20.461  -6.190  0.00  0.00     0.159 C 
BRANCH  31  33
ATOM     33  C   UNL d   1      32.251 -20.589  -8.053  0.00  0.00     0.037 A 
ATOM     34  C   UNL d   1      32.309 -20.401  -9.446  0.00  0.00     0.029 A 
ATOM     35  C   UNL d   1      32.955 -21.324 -10.270  0.00  0.00     0.002 A 
ATOM     36  C   UNL d   1      33.591 -22.427  -9.707  0.00  0.00     0.000 A 
ATOM     37  C   UNL d   1      33.538 -22.628  -8.329  0.00  0.00     0.002 A 
ATOM     38  C   UNL d   1      32.867 -21.718  -7.507  0.00  0.00     0.029 A 
ENDBRANCH  31  33
ENDBRANCH  26  29
ENDBRANCH   3  23
TORSDOF 11
ENDMDL
MODEL 6
REMARK VINA RESULT:    -9.462      3.505      4.293
REMARK INTER + INTRA:         -14.345
REMARK INTER:                 -12.744
REMARK INTRA:                  -1.602
REMARK CONF_INDEPENDENT:        3.281
REMARK UNBOUND:                -1.602
REMARK  11 active torsions:
REMARK  status: ('A' for Active; 'I' for Inactive)
REMARK    1  A    between atoms: C_2  and  C_3 
REMARK    2  A    between atoms: C_3  and  C_4 
REMARK    3  A    between atoms: C_4  and  C_5 
REMARK    4  A    between atoms: C_5  and  C_6 
REMARK       I    between atoms: C_6  and  N_8 
REMARK    5  A    between atoms: N_8  and  C_9 
REMARK    6  A    between atoms: C_13  and  N_14 
REMARK    7  A    between atoms: N_14  and  C_15 
REMARK    8  A    between atoms: C_15  and  C_16 
REMARK       I    between atoms: C_16  and  N_18 
REMARK    9  A    between atoms: N_18  and  C_19 
REMARK   10  A    between atoms: C_22  and  C_23 
REMARK       I    between atoms: C_23  and  N_25 
REMARK   11  A    between atoms: N_25  and  C_27 
ROOT
ATOM      1  C   UNL d   1      28.584 -15.350   0.056  0.00  0.00     0.239 C 
ATOM      2  O   UNL d   1      29.323 -14.429  -0.308  0.00  0.00    -0.271 OA
ATOM      3  N   UNL d   1      27.733 -15.286   1.161  0.00  0.00    -0.326 N 
ATOM      4  H   UNL d   1      27.239 -16.106   1.493  0.00  0.00     0.169 HD
ENDROOT
BRANCH   1   5
ATOM      5  C   UNL d   1      28.597 -16.677  -0.688  0.00  0.00     0.223 C 
BRANCH   5   6
ATOM      6  N   UNL d   1      27.514 -17.531  -0.188  0.00  0.00    -0.381 N 
ATOM      7  H   UNL d   1      27.769 -18.194   0.542  0.00  0.00     0.160 HD
BRANCH   6   8
ATOM      8  C   UNL d   1      26.193 -17.315  -0.514  0.00  0.00     0.030 A 
ATOM      9  C   UNL d   1      25.793 -16.175  -1.212  0.00  0.00     0.029 A 
ATOM     10  C   UNL d   1      24.449 -15.989  -1.565  0.00  0.00     0.004 A 
ATOM     11  C   UNL d   1      23.477 -16.925  -1.186  0.00  0.00     0.029 A 
ATOM     12  C   UNL d   1      23.858 -18.051  -0.465  0.00  0.00     0.036 A 
ATOM     13  C   UNL d   1      25.204 -18.223  -0.142  0.00  0.00     0.058 A 
BRANCH  12  14
ATOM     14  N   UNL d   1      22.924 -19.050  -0.100  0.00  0.00    -0.327 N 
ATOM     15  C   UNL d   1      21.563 -18.893  -0.343  0.00  0.00     0.222 C 
ATOM     16  O   UNL d   1      21.077 -17.949  -0.951  0.00  0.00    -0.273 OA
ATOM     17  H   UNL d   1      23.284 -19.933   0.232  0.00  0.00     0.169 HD
BRANCH  15  18
ATOM     18  C   UNL d   1      20.681 -20.016   0.180  0.00  0.00     0.103 C 
BRANCH  18  19
ATOM     19  C   UNL d   1      19.423 -19.405   0.812  0.00  0.00     0.009 C 
BRANCH  19  20
ATOM     20  C   UNL d   1      18.847 -20.263   1.928  0.00  0.00     0.000 C 
BRANCH  20  21
ATOM     21  C   UNL d   1      18.113 -21.476   1.355  0.00  0.00    -0.005 C 
ATOM     22  C   UNL d   1      17.651 -21.200  -0.065  0.00  0.00     0.005 C 
ENDBRANCH  20  21
ENDBRANCH  19  20
ENDBRANCH  18  19
ENDBRANCH  15  18
ENDBRANCH  12  14
ENDBRANCH   6   8
ENDBRANCH   5   6
ENDBRANCH   1   5
BRANCH   3  23
ATOM     23  C   UNL d   1      27.531 -14.068   1.833  0.00  0.00     0.034 C 
ATOM     24  C   UNL d   1      27.759 -13.873   3.194  0.00  0.00     0.030 C 
ATOM     25  C   UNL d   1      27.555 -12.589   3.760  0.00  0.00     0.019 C 
ATOM     26  C   UNL d   1      27.080 -11.506   2.987  0.00  0.00     0.032 C 
ATOM     27  C   UNL d   1      26.682 -11.824   1.699  0.00  0.00     0.019 C 
ATOM     28  C   UNL d   1      26.987 -13.033   1.102  0.00  0.00     0.030 C 
BRANCH  26  29
ATOM     29  C   UNL d   1      27.029 -10.113   3.588  0.00  0.00     0.258 C 
ATOM     30  O   UNL d   1      25.913  -9.591   3.580  0.00  0.00    -0.267 OA
ATOM     31  N   UNL d   1      28.167  -9.446   4.120  0.00  0.00    -0.318 N 
ATOM     32  C   UNL d   1      29.527  -9.965   4.312  0.00  0.00     0.159 C 
BRANCH  31  33
ATOM     33  C   UNL d   1      28.021  -8.143   4.719  0.00  0.00     0.037 A 
ATOM     34  C   UNL d   1      27.482  -7.080   3.971  0.00  0.00     0.029 A 
ATOM     35  C   UNL d   1      27.471  -5.779   4.476  0.00  0.00     0.002 A 
ATOM     36  C   UNL d   1      27.959  -5.529   5.756  0.00  0.00     0.000 A 
ATOM     37  C   UNL d   1      28.499  -6.572   6.506  0.00  0.00     0.002 A 
ATOM     38  C   UNL d   1      28.536  -7.870   5.990  0.00  0.00     0.029 A 
ENDBRANCH  31  33
ENDBRANCH  26  29
ENDBRANCH   3  23
TORSDOF 11
ENDMDL
MODEL 7
REMARK VINA RESULT:    -8.649      4.656     10.338
REMARK INTER + INTRA:         -14.917
REMARK INTER:                 -11.930
REMARK INTRA:                  -2.987
REMARK CONF_INDEPENDENT:        3.281
REMARK UNBOUND:                -2.987
REMARK  11 active torsions:
REMARK  status: ('A' for Active; 'I' for Inactive)
REMARK    1  A    between atoms: C_2  and  C_3 
REMARK    2  A    between atoms: C_3  and  C_4 
REMARK    3  A    between atoms: C_4  and  C_5 
REMARK    4  A    between atoms: C_5  and  C_6 
REMARK       I    between atoms: C_6  and  N_8 
REMARK    5  A    between atoms: N_8  and  C_9 
REMARK    6  A    between atoms: C_13  and  N_14 
REMARK    7  A    between atoms: N_14  and  C_15 
REMARK    8  A    between atoms: C_15  and  C_16 
REMARK       I    between atoms: C_16  and  N_18 
REMARK    9  A    between atoms: N_18  and  C_19 
REMARK   10  A    between atoms: C_22  and  C_23 
REMARK       I    between atoms: C_23  and  N_25 
REMARK   11  A    between atoms: N_25  and  C_27 
ROOT
ATOM      1  C   UNL d   1      28.224 -15.300  -4.153  0.00  0.00     0.239 C 
ATOM      2  O   UNL d   1      27.411 -15.597  -5.034  0.00  0.00    -0.271 OA
ATOM      3  N   UNL d   1      27.901 -15.152  -2.803  0.00  0.00    -0.326 N 
ATOM      4  H   UNL d   1      28.573 -14.788  -2.137  0.00  0.00     0.169 HD
ENDROOT
BRANCH   1   5
ATOM      5  C   UNL d   1      29.675 -15.023  -4.516  0.00  0.00     0.223 C 
BRANCH   5   6
ATOM      6  N   UNL d   1      30.443 -16.271  -4.460  0.00  0.00    -0.381 N 
ATOM      7  H   UNL d   1      30.859 -16.579  -5.337  0.00  0.00     0.160 HD
BRANCH   6   8
ATOM      8  C   UNL d   1      30.774 -16.881  -3.270  0.00  0.00     0.030 A 
ATOM      9  C   UNL d   1      31.551 -18.039  -3.238  0.00  0.00     0.029 A 
ATOM     10  C   UNL d   1      31.907 -18.627  -2.015  0.00  0.00     0.004 A 
ATOM     11  C   UNL d   1      31.451 -18.085  -0.806  0.00  0.00     0.029 A 
ATOM     12  C   UNL d   1      30.651 -16.948  -0.825  0.00  0.00     0.036 A 
ATOM     13  C   UNL d   1      30.327 -16.371  -2.053  0.00  0.00     0.058 A 
BRANCH  12  14
ATOM     14  N   UNL d   1      30.206 -16.333   0.369  0.00  0.00    -0.327 N 
ATOM     15  C   UNL d   1      29.803 -15.002   0.392  0.00  0.00     0.222 C 
ATOM     16  O   UNL d   1      29.718 -14.291  -0.600  0.00  0.00    -0.273 OA
ATOM     17  H   UNL d   1      30.072 -16.920   1.180  0.00  0.00     0.169 HD
BRANCH  15  18
ATOM     18  C   UNL d   1      29.429 -14.464   1.765  0.00  0.00     0.103 C 
BRANCH  18  19
ATOM     19  C   UNL d   1      27.927 -14.683   1.991  0.00  0.00     0.009 C 
BRANCH  19  20
ATOM     20  C   UNL d   1      27.325 -13.683   2.966  0.00  0.00     0.000 C 
BRANCH  20  21
ATOM     21  C   UNL d   1      27.616 -12.249   2.521  0.00  0.00    -0.005 C 
ATOM     22  C   UNL d   1      27.025 -11.986   1.147  0.00  0.00     0.005 C 
ENDBRANCH  20  21
ENDBRANCH  19  20
ENDBRANCH  18  19
ENDBRANCH  15  18
ENDBRANCH  12  14
ENDBRANCH   6   8
ENDBRANCH   5   6
ENDBRANCH   1   5
BRANCH   3  23
ATOM     23  C   UNL d   1      26.630 -15.522  -2.330  0.00  0.00     0.034 C 
ATOM     24  C   UNL d   1      25.439 -14.905  -2.709  0.00  0.00     0.030 C 
ATOM     25  C   UNL d   1      24.208 -15.387  -2.195  0.00  0.00     0.019 C 
ATOM     26  C   UNL d   1      24.158 -16.453  -1.270  0.00  0.00     0.032 C 
ATOM     27  C   UNL d   1      25.384 -16.878  -0.787  0.00  0.00     0.019 C 
ATOM     28  C   UNL d   1      26.584 -16.505  -1.363  0.00  0.00     0.030 C 
BRANCH  26  29
ATOM     29  C   UNL d   1      22.819 -17.045  -0.869  0.00  0.00     0.258 C 
ATOM     30  O   UNL d   1      21.878 -16.250  -0.894  0.00  0.00    -0.267 OA
ATOM     31  N   UNL d   1      22.644 -18.405  -0.490  0.00  0.00    -0.318 N 
ATOM     32  C   UNL d   1      23.624 -19.497  -0.520  0.00  0.00     0.159 C 
BRANCH  31  33
ATOM     33  C   UNL d   1      21.328 -18.898  -0.173  0.00  0.00     0.037 A 
ATOM     34  C   UNL d   1      21.028 -19.318   1.136  0.00  0.00     0.029 A 
ATOM     35  C   UNL d   1      19.814 -19.939   1.432  0.00  0.00     0.002 A 
ATOM     36  C   UNL d   1      18.862 -20.108   0.431  0.00  0.00     0.000 A 
ATOM     37  C   UNL d   1      19.146 -19.700  -0.871  0.00  0.00     0.002 A 
ATOM     38  C   UNL d   1      20.373 -19.104  -1.174  0.00  0.00     0.029 A 
ENDBRANCH  31  33
ENDBRANCH  26  29
ENDBRANCH   3  23
TORSDOF 11
ENDMDL
MODEL 8
REMARK VINA RESULT:    -8.194      6.512     10.607
REMARK INTER + INTRA:         -14.559
REMARK INTER:                 -11.476
REMARK INTRA:                  -3.083
REMARK CONF_INDEPENDENT:        3.281
REMARK UNBOUND:                -3.083
REMARK  11 active torsions:
REMARK  status: ('A' for Active; 'I' for Inactive)
REMARK    1  A    between atoms: C_2  and  C_3 
REMARK    2  A    between atoms: C_3  and  C_4 
REMARK    3  A    between atoms: C_4  and  C_5 
REMARK    4  A    between atoms: C_5  and  C_6 
REMARK       I    between atoms: C_6  and  N_8 
REMARK    5  A    between atoms: N_8  and  C_9 
REMARK    6  A    between atoms: C_13  and  N_14 
REMARK    7  A    between atoms: N_14  and  C_15 
REMARK    8  A    between atoms: C_15  and  C_16 
REMARK       I    between atoms: C_16  and  N_18 
REMARK    9  A    between atoms: N_18  and  C_19 
REMARK   10  A    between atoms: C_22  and  C_23 
REMARK       I    between atoms: C_23  and  N_25 
REMARK   11  A    between atoms: N_25  and  C_27 
ROOT
ATOM      1  C   UNL d   1      28.309 -13.896  -0.999  0.00  0.00     0.239 C 
ATOM      2  O   UNL d   1      27.330 -13.404  -0.430  0.00  0.00    -0.271 OA
ATOM      3  N   UNL d   1      28.446 -15.254  -1.298  0.00  0.00    -0.326 N 
ATOM      4  H   UNL d   1      29.316 -15.630  -1.654  0.00  0.00     0.169 HD
ENDROOT
BRANCH   1   5
ATOM      5  C   UNL d   1      29.491 -13.018  -1.382  0.00  0.00     0.223 C 
BRANCH   5   6
ATOM      6  N   UNL d   1      29.271 -12.452  -2.717  0.00  0.00    -0.381 N 
ATOM      7  H   UNL d   1      29.562 -11.484  -2.845  0.00  0.00     0.160 HD
BRANCH   6   8
ATOM      8  C   UNL d   1      28.903 -13.226  -3.795  0.00  0.00     0.030 A 
ATOM      9  C   UNL d   1      27.915 -12.808  -4.687  0.00  0.00     0.029 A 
ATOM     10  C   UNL d   1      27.577 -13.594  -5.798  0.00  0.00     0.004 A 
ATOM     11  C   UNL d   1      28.196 -14.833  -6.009  0.00  0.00     0.029 A 
ATOM     12  C   UNL d   1      29.162 -15.276  -5.111  0.00  0.00     0.036 A 
ATOM     13  C   UNL d   1      29.494 -14.467  -4.024  0.00  0.00     0.058 A 
BRANCH  12  14
ATOM     14  N   UNL d   1      29.852 -16.496  -5.304  0.00  0.00    -0.327 N 
ATOM     15  C   UNL d   1      30.047 -17.392  -4.257  0.00  0.00     0.222 C 
ATOM     16  O   UNL d   1      29.581 -17.250  -3.134  0.00  0.00    -0.273 OA
ATOM     17  H   UNL d   1      30.094 -16.757  -6.249  0.00  0.00     0.169 HD
BRANCH  15  18
ATOM     18  C   UNL d   1      30.876 -18.619  -4.603  0.00  0.00     0.103 C 
BRANCH  18  19
ATOM     19  C   UNL d   1      30.375 -19.196  -5.934  0.00  0.00     0.009 C 
BRANCH  19  20
ATOM     20  C   UNL d   1      31.205 -18.740  -7.125  0.00  0.00     0.000 C 
BRANCH  20  21
ATOM     21  C   UNL d   1      31.568 -19.926  -8.019  0.00  0.00    -0.005 C 
ATOM     22  C   UNL d   1      30.791 -19.871  -9.321  0.00  0.00     0.005 C 
ENDBRANCH  20  21
ENDBRANCH  19  20
ENDBRANCH  18  19
ENDBRANCH  15  18
ENDBRANCH  12  14
ENDBRANCH   6   8
ENDBRANCH   5   6
ENDBRANCH   1   5
BRANCH   3  23
ATOM     23  C   UNL d   1      27.362 -16.132  -1.124  0.00  0.00     0.034 C 
ATOM     24  C   UNL d   1      27.361 -17.217  -0.250  0.00  0.00     0.030 C 
ATOM     25  C   UNL d   1      26.196 -18.018  -0.129  0.00  0.00     0.019 C 
ATOM     26  C   UNL d   1      25.045 -17.770  -0.909  0.00  0.00     0.032 C 
ATOM     27  C   UNL d   1      25.190 -16.809  -1.896  0.00  0.00     0.019 C 
ATOM     28  C   UNL d   1      26.268 -15.946  -1.944  0.00  0.00     0.030 C 
BRANCH  26  29
ATOM     29  C   UNL d   1      23.767 -18.543  -0.636  0.00  0.00     0.258 C 
ATOM     30  O   UNL d   1      23.917 -19.760  -0.519  0.00  0.00    -0.267 OA
ATOM     31  N   UNL d   1      22.488 -17.930  -0.524  0.00  0.00    -0.318 N 
ATOM     32  C   UNL d   1      22.155 -16.499  -0.520  0.00  0.00     0.159 C 
BRANCH  31  33
ATOM     33  C   UNL d   1      21.332 -18.732  -0.213  0.00  0.00     0.037 A 
ATOM     34  C   UNL d   1      20.405 -19.055  -1.221  0.00  0.00     0.029 A 
ATOM     35  C   UNL d   1      19.205 -19.699  -0.916  0.00  0.00     0.002 A 
ATOM     36  C   UNL d   1      18.934 -20.069   0.398  0.00  0.00     0.000 A 
ATOM     37  C   UNL d   1      19.841 -19.753   1.408  0.00  0.00     0.002 A 
ATOM     38  C   UNL d   1      21.030 -19.083   1.107  0.00  0.00     0.029 A 
ENDBRANCH  31  33
ENDBRANCH  26  29
ENDBRANCH   3  23
TORSDOF 11
ENDMDL
MODEL 9
REMARK VINA RESULT:    -7.775      5.201     10.629
REMARK INTER + INTRA:         -14.578
REMARK INTER:                 -11.056
REMARK INTRA:                  -3.523
REMARK CONF_INDEPENDENT:        3.281
REMARK UNBOUND:                -3.523
REMARK  11 active torsions:
REMARK  status: ('A' for Active; 'I' for Inactive)
REMARK    1  A    between atoms: C_2  and  C_3 
REMARK    2  A    between atoms: C_3  and  C_4 
REMARK    3  A    between atoms: C_4  and  C_5 
REMARK    4  A    between atoms: C_5  and  C_6 
REMARK       I    between atoms: C_6  and  N_8 
REMARK    5  A    between atoms: N_8  and  C_9 
REMARK    6  A    between atoms: C_13  and  N_14 
REMARK    7  A    between atoms: N_14  and  C_15 
REMARK    8  A    between atoms: C_15  and  C_16 
REMARK       I    between atoms: C_16  and  N_18 
REMARK    9  A    between atoms: N_18  and  C_19 
REMARK   10  A    between atoms: C_22  and  C_23 
REMARK       I    between atoms: C_23  and  N_25 
REMARK   11  A    between atoms: N_25  and  C_27 
ROOT
ATOM      1  C   UNL d   1      27.639 -15.151  -5.055  0.00  0.00     0.239 C 
ATOM      2  O   UNL d   1      26.712 -15.554  -5.764  0.00  0.00    -0.271 OA
ATOM      3  N   UNL d   1      27.534 -14.909  -3.684  0.00  0.00    -0.326 N 
ATOM      4  H   UNL d   1      28.283 -14.464  -3.168  0.00  0.00     0.169 HD
ENDROOT
BRANCH   1   5
ATOM      5  C   UNL d   1      28.993 -14.840  -5.674  0.00  0.00     0.223 C 
BRANCH   5   6
ATOM      6  N   UNL d   1      29.051 -13.421  -6.043  0.00  0.00    -0.381 N 
ATOM      7  H   UNL d   1      29.715 -13.177  -6.775  0.00  0.00     0.160 HD
BRANCH   6   8
ATOM      8  C   UNL d   1      28.124 -12.505  -5.598  0.00  0.00     0.030 A 
ATOM      9  C   UNL d   1      27.173 -11.954  -6.457  0.00  0.00     0.029 A 
ATOM     10  C   UNL d   1      26.216 -11.048  -5.979  0.00  0.00     0.004 A 
ATOM     11  C   UNL d   1      26.225 -10.647  -4.636  0.00  0.00     0.029 A 
ATOM     12  C   UNL d   1      27.185 -11.166  -3.773  0.00  0.00     0.036 A 
ATOM     13  C   UNL d   1      28.115 -12.080  -4.270  0.00  0.00     0.058 A 
BRANCH  12  14
ATOM     14  N   UNL d   1      27.207 -10.832  -2.399  0.00  0.00    -0.327 N 
ATOM     15  C   UNL d   1      27.513 -11.780  -1.427  0.00  0.00     0.222 C 
ATOM     16  O   UNL d   1      27.862 -12.927  -1.671  0.00  0.00    -0.273 OA
ATOM     17  H   UNL d   1      27.116  -9.857  -2.149  0.00  0.00     0.169 HD
BRANCH  15  18
ATOM     18  C   UNL d   1      27.416 -11.287   0.008  0.00  0.00     0.103 C 
BRANCH  18  19
ATOM     19  C   UNL d   1      28.466 -12.018   0.855  0.00  0.00     0.009 C 
BRANCH  19  20
ATOM     20  C   UNL d   1      27.893 -12.584   2.146  0.00  0.00     0.000 C 
BRANCH  20  21
ATOM     21  C   UNL d   1      27.030 -13.814   1.862  0.00  0.00    -0.005 C 
ATOM     22  C   UNL d   1      27.630 -14.641   0.739  0.00  0.00     0.005 C 
ENDBRANCH  20  21
ENDBRANCH  19  20
ENDBRANCH  18  19
ENDBRANCH  15  18
ENDBRANCH  12  14
ENDBRANCH   6   8
ENDBRANCH   5   6
ENDBRANCH   1   5
BRANCH   3  23
ATOM     23  C   UNL d   1      26.380 -15.297  -2.980  0.00  0.00     0.034 C 
ATOM     24  C   UNL d   1      25.136 -14.683  -3.109  0.00  0.00     0.030 C 
ATOM     25  C   UNL d   1      24.030 -15.182  -2.374  0.00  0.00     0.019 C 
ATOM     26  C   UNL d   1      24.165 -16.264  -1.476  0.00  0.00     0.032 C 
ATOM     27  C   UNL d   1      25.464 -16.688  -1.248  0.00  0.00     0.019 C 
ATOM     28  C   UNL d   1      26.527 -16.296  -2.040  0.00  0.00     0.030 C 
BRANCH  26  29
ATOM     29  C   UNL d   1      22.932 -16.872  -0.834  0.00  0.00     0.258 C 
ATOM     30  O   UNL d   1      22.218 -16.070  -0.229  0.00  0.00    -0.267 OA
ATOM     31  N   UNL d   1      22.609 -18.256  -0.909  0.00  0.00    -0.318 N 
ATOM     32  C   UNL d   1      23.280 -19.312  -1.678  0.00  0.00     0.159 C 
BRANCH  31  33
ATOM     33  C   UNL d   1      21.391 -18.743  -0.313  0.00  0.00     0.037 A 
ATOM     34  C   UNL d   1      21.319 -18.950   1.077  0.00  0.00     0.029 A 
ATOM     35  C   UNL d   1      20.207 -19.562   1.657  0.00  0.00     0.002 A 
ATOM     36  C   UNL d   1      19.129 -19.935   0.859  0.00  0.00     0.000 A 
ATOM     37  C   UNL d   1      19.187 -19.739  -0.519  0.00  0.00     0.002 A 
ATOM     38  C   UNL d   1      20.313 -19.152  -1.104  0.00  0.00     0.029 A 
ENDBRANCH  31  33
ENDBRANCH  26  29
ENDBRANCH   3  23
TORSDOF 11
ENDMDL
