MODEL 1
REMARK VINA RESULT:    -6.588      0.000      0.000
REMARK INTER + INTRA:          -9.336
REMARK INTER:                  -7.781
REMARK INTRA:                  -1.555
REMARK CONF_INDEPENDENT:        1.193
REMARK UNBOUND:                -1.555
REMARK  4 active torsions:
REMARK  status: ('A' for Active; 'I' for Inactive)
REMARK    1  A    between atoms: C_5  and  C_6 
REMARK       I    between atoms: C_6  and  N_8 
REMARK    2  A    between atoms: N_8  and  N_9 
REMARK       I    between atoms: N_9  and  C_10 
REMARK    3  A    between atoms: C_10  and  C_12 
REMARK    4  A    between atoms: C_18  and  O_19 
ROOT
ATOM      1  C   UNL d   1      31.915 -20.915   3.897  0.00  0.00     0.272 C 
ATOM      2  O   UNL d   1      31.530 -19.746   3.883  0.00  0.00    -0.266 OA
ATOM      3  N   UNL d   1      31.565 -21.836   2.906  0.00  0.00    -0.263 N 
ATOM      4  H   UNL d   1      31.985 -22.752   2.829  0.00  0.00     0.190 HD
ENDROOT
BRANCH   3   5
ATOM      5  N   UNL d   1      30.689 -21.436   1.850  0.00  0.00    -0.261 N 
ATOM      6  C   UNL d   1      30.822 -21.946   0.547  0.00  0.00     0.293 C 
ATOM      7  O   UNL d   1      30.779 -21.154  -0.399  0.00  0.00    -0.264 OA
ATOM      8  H   UNL d   1      30.430 -20.450   1.889  0.00  0.00     0.190 HD
BRANCH   6   9
ATOM      9  C   UNL d   1      30.901 -23.396   0.385  0.00  0.00     0.144 A 
ATOM     10  C   UNL d   1      30.236 -24.269  -0.458  0.00  0.00     0.045 A 
ATOM     11  C   UNL d   1      30.774 -25.557  -0.255  0.00  0.00     0.035 A 
ATOM     12  C   UNL d   1      31.764 -25.423   0.689  0.00  0.00     0.050 A 
ATOM     13  C   UNL d   1      32.690 -26.423   1.271  0.00  0.00     0.076 C 
ATOM     14  O   UNL d   1      31.846 -24.118   1.096  0.00  0.00    -0.310 OA
ENDBRANCH   6   9
ENDBRANCH   3   5
BRANCH   1  15
ATOM     15  C   UNL d   1      32.796 -21.384   5.028  0.00  0.00     0.066 A 
ATOM     16  C   UNL d   1      34.178 -21.575   4.862  0.00  0.00     0.020 A 
ATOM     17  C   UNL d   1      34.986 -22.023   5.920  0.00  0.00     0.008 A 
ATOM     18  C   UNL d   1      34.439 -22.281   7.178  0.00  0.00    -0.059 A 
ATOM     19  C   UNL d   1      35.280 -22.738   8.334  0.00  0.00     0.048 C 
ATOM     20  C   UNL d   1      33.064 -22.104   7.355  0.00  0.00     0.044 A 
ATOM     21  C   UNL d   1      32.253 -21.670   6.297  0.00  0.00     0.082 A 
BRANCH  21  22
ATOM     22  O   UNL d   1      30.921 -21.562   6.605  0.00  0.00    -0.360 OA
ATOM     23  H   UNL d   1      30.533 -22.462   6.640  0.00  0.00     0.217 HD
ENDBRANCH  21  22
ENDBRANCH   1  15
TORSDOF 4
ENDMDL
MODEL 2
REMARK VINA RESULT:    -6.313      7.927      8.899
REMARK INTER + INTRA:          -8.724
REMARK INTER:                  -7.506
REMARK INTRA:                  -1.218
REMARK CONF_INDEPENDENT:        1.193
REMARK UNBOUND:                -1.218
REMARK  4 active torsions:
REMARK  status: ('A' for Active; 'I' for Inactive)
REMARK    1  A    between atoms: C_5  and  C_6 
REMARK       I    between atoms: C_6  and  N_8 
REMARK    2  A    between atoms: N_8  and  N_9 
REMARK       I    between atoms: N_9  and  C_10 
REMARK    3  A    between atoms: C_10  and  C_12 
REMARK    4  A    between atoms: C_18  and  O_19 
ROOT
ATOM      1  C   UNL d   1      28.217 -14.118   1.715  0.00  0.00     0.272 C 
ATOM      2  O   UNL d   1      27.453 -13.301   1.198  0.00  0.00    -0.266 OA
ATOM      3  N   UNL d   1      28.918 -15.069   0.969  0.00  0.00    -0.263 N 
ATOM      4  H   UNL d   1      29.650 -15.648   1.358  0.00  0.00     0.190 HD
ENDROOT
BRANCH   3   5
ATOM      5  N   UNL d   1      28.719 -15.145  -0.444  0.00  0.00    -0.261 N 
ATOM      6  C   UNL d   1      28.320 -16.336  -1.072  0.00  0.00     0.293 C 
ATOM      7  O   UNL d   1      28.916 -16.688  -2.095  0.00  0.00    -0.264 OA
ATOM      8  H   UNL d   1      29.394 -14.596  -0.978  0.00  0.00     0.190 HD
BRANCH   6   9
ATOM      9  C   UNL d   1      27.156 -17.036  -0.534  0.00  0.00     0.144 A 
ATOM     10  C   UNL d   1      27.009 -17.890   0.547  0.00  0.00     0.045 A 
ATOM     11  C   UNL d   1      25.638 -18.200   0.665  0.00  0.00     0.035 A 
ATOM     12  C   UNL d   1      24.992 -17.509  -0.332  0.00  0.00     0.050 A 
ATOM     13  C   UNL d   1      23.553 -17.422  -0.675  0.00  0.00     0.076 C 
ATOM     14  O   UNL d   1      25.902 -16.806  -1.076  0.00  0.00    -0.310 OA
ENDBRANCH   6   9
ENDBRANCH   3   5
BRANCH   1  15
ATOM     15  C   UNL d   1      28.407 -14.101   3.211  0.00  0.00     0.066 A 
ATOM     16  C   UNL d   1      27.376 -13.717   4.084  0.00  0.00     0.020 A 
ATOM     17  C   UNL d   1      27.567 -13.694   5.475  0.00  0.00     0.008 A 
ATOM     18  C   UNL d   1      28.792 -14.065   6.034  0.00  0.00    -0.059 A 
ATOM     19  C   UNL d   1      29.021 -14.073   7.518  0.00  0.00     0.048 C 
ATOM     20  C   UNL d   1      29.829 -14.439   5.176  0.00  0.00     0.044 A 
ATOM     21  C   UNL d   1      29.645 -14.450   3.787  0.00  0.00     0.082 A 
BRANCH  21  22
ATOM     22  O   UNL d   1      30.752 -14.815   3.065  0.00  0.00    -0.360 OA
ATOM     23  H   UNL d   1      30.745 -15.789   2.953  0.00  0.00     0.217 HD
ENDBRANCH  21  22
ENDBRANCH   1  15
TORSDOF 4
ENDMDL
MODEL 3
REMARK VINA RESULT:    -6.308      9.506     12.625
REMARK INTER + INTRA:          -8.878
REMARK INTER:                  -7.502
REMARK INTRA:                  -1.376
REMARK CONF_INDEPENDENT:        1.193
REMARK UNBOUND:                -1.376
REMARK  4 active torsions:
REMARK  status: ('A' for Active; 'I' for Inactive)
REMARK    1  A    between atoms: C_5  and  C_6 
REMARK       I    between atoms: C_6  and  N_8 
REMARK    2  A    between atoms: N_8  and  N_9 
REMARK       I    between atoms: N_9  and  C_10 
REMARK    3  A    between atoms: C_10  and  C_12 
REMARK    4  A    between atoms: C_18  and  O_19 
ROOT
ATOM      1  C   UNL d   1      26.987 -15.650  -2.642  0.00  0.00     0.272 C 
ATOM      2  O   UNL d   1      28.060 -16.221  -2.843  0.00  0.00    -0.266 OA
ATOM      3  N   UNL d   1      26.013 -16.159  -1.779  0.00  0.00    -0.263 N 
ATOM      4  H   UNL d   1      25.195 -15.636  -1.497  0.00  0.00     0.190 HD
ENDROOT
BRANCH   3   5
ATOM      5  N   UNL d   1      26.231 -17.414  -1.130  0.00  0.00    -0.261 N 
ATOM      6  C   UNL d   1      25.411 -17.855  -0.078  0.00  0.00     0.293 C 
ATOM      7  O   UNL d   1      25.949 -18.317   0.932  0.00  0.00    -0.264 OA
ATOM      8  H   UNL d   1      27.219 -17.645  -1.015  0.00  0.00     0.190 HD
BRANCH   6   9
ATOM      9  C   UNL d   1      23.964 -17.833  -0.285  0.00  0.00     0.144 A 
ATOM     10  C   UNL d   1      23.132 -16.911  -0.898  0.00  0.00     0.045 A 
ATOM     11  C   UNL d   1      21.826 -17.444  -0.895  0.00  0.00     0.035 A 
ATOM     12  C   UNL d   1      21.907 -18.680  -0.300  0.00  0.00     0.050 A 
ATOM     13  C   UNL d   1      20.868 -19.706  -0.050  0.00  0.00     0.076 C 
ATOM     14  O   UNL d   1      23.198 -18.926   0.087  0.00  0.00    -0.310 OA
ENDBRANCH   6   9
ENDBRANCH   3   5
BRANCH   1  15
ATOM     15  C   UNL d   1      26.702 -14.352  -3.354  0.00  0.00     0.066 A 
ATOM     16  C   UNL d   1      26.185 -13.234  -2.679  0.00  0.00     0.020 A 
ATOM     17  C   UNL d   1      25.913 -12.033  -3.356  0.00  0.00     0.008 A 
ATOM     18  C   UNL d   1      26.161 -11.912  -4.724  0.00  0.00    -0.059 A 
ATOM     19  C   UNL d   1      25.903 -10.636  -5.471  0.00  0.00     0.048 C 
ATOM     20  C   UNL d   1      26.667 -13.020  -5.410  0.00  0.00     0.044 A 
ATOM     21  C   UNL d   1      26.926 -14.223  -4.740  0.00  0.00     0.082 A 
BRANCH  21  22
ATOM     22  O   UNL d   1      27.397 -15.233  -5.539  0.00  0.00    -0.360 OA
ATOM     23  H   UNL d   1      27.873 -15.881  -4.977  0.00  0.00     0.217 HD
ENDBRANCH  21  22
ENDBRANCH   1  15
TORSDOF 4
ENDMDL
MODEL 4
REMARK VINA RESULT:    -6.304      8.316     10.279
REMARK INTER + INTRA:          -8.657
REMARK INTER:                  -7.497
REMARK INTRA:                  -1.160
REMARK CONF_INDEPENDENT:        1.193
REMARK UNBOUND:                -1.160
REMARK  4 active torsions:
REMARK  status: ('A' for Active; 'I' for Inactive)
REMARK    1  A    between atoms: C_5  and  C_6 
REMARK       I    between atoms: C_6  and  N_8 
REMARK    2  A    between atoms: N_8  and  N_9 
REMARK       I    between atoms: N_9  and  C_10 
REMARK    3  A    between atoms: C_10  and  C_12 
REMARK    4  A    between atoms: C_18  and  O_19 
ROOT
ATOM      1  C   UNL d   1      27.594 -14.960   0.515  0.00  0.00     0.272 C 
ATOM      2  O   UNL d   1      27.553 -14.898  -0.714  0.00  0.00    -0.266 OA
ATOM      3  N   UNL d   1      27.769 -16.163   1.204  0.00  0.00    -0.263 N 
ATOM      4  H   UNL d   1      27.945 -16.212   2.198  0.00  0.00     0.190 HD
ENDROOT
BRANCH   3   5
ATOM      5  N   UNL d   1      27.861 -17.388   0.472  0.00  0.00    -0.261 N 
ATOM      6  C   UNL d   1      26.794 -18.300   0.422  0.00  0.00     0.293 C 
ATOM      7  O   UNL d   1      27.037 -19.497   0.605  0.00  0.00    -0.264 OA
ATOM      8  H   UNL d   1      28.782 -17.823   0.525  0.00  0.00     0.190 HD
BRANCH   6   9
ATOM      9  C   UNL d   1      25.475 -17.790   0.055  0.00  0.00     0.144 A 
ATOM     10  C   UNL d   1      25.076 -16.614  -0.558  0.00  0.00     0.045 A 
ATOM     11  C   UNL d   1      23.681 -16.685  -0.754  0.00  0.00     0.035 A 
ATOM     12  C   UNL d   1      23.278 -17.908  -0.275  0.00  0.00     0.050 A 
ATOM     13  C   UNL d   1      21.940 -18.545  -0.245  0.00  0.00     0.076 C 
ATOM     14  O   UNL d   1      24.354 -18.587   0.231  0.00  0.00    -0.310 OA
ENDBRANCH   6   9
ENDBRANCH   3   5
BRANCH   1  15
ATOM     15  C   UNL d   1      27.445 -13.692   1.318  0.00  0.00     0.066 A 
ATOM     16  C   UNL d   1      27.149 -12.461   0.711  0.00  0.00     0.020 A 
ATOM     17  C   UNL d   1      27.024 -11.284   1.469  0.00  0.00     0.008 A 
ATOM     18  C   UNL d   1      27.181 -11.307   2.856  0.00  0.00    -0.059 A 
ATOM     19  C   UNL d   1      27.030 -10.072   3.695  0.00  0.00     0.048 C 
ATOM     20  C   UNL d   1      27.484 -12.524   3.471  0.00  0.00     0.044 A 
ATOM     21  C   UNL d   1      27.623 -13.697   2.717  0.00  0.00     0.082 A 
BRANCH  21  22
ATOM     22  O   UNL d   1      27.945 -14.812   3.447  0.00  0.00    -0.360 OA
ATOM     23  H   UNL d   1      28.768 -15.200   3.080  0.00  0.00     0.217 HD
ENDBRANCH  21  22
ENDBRANCH   1  15
TORSDOF 4
ENDMDL
MODEL 5
REMARK VINA RESULT:    -6.136      9.347     12.686
REMARK INTER + INTRA:          -9.549
REMARK INTER:                  -7.330
REMARK INTRA:                  -2.219
REMARK CONF_INDEPENDENT:        1.193
REMARK UNBOUND:                -2.219
REMARK  4 active torsions:
REMARK  status: ('A' for Active; 'I' for Inactive)
REMARK    1  A    between atoms: C_5  and  C_6 
REMARK       I    between atoms: C_6  and  N_8 
REMARK    2  A    between atoms: N_8  and  N_9 
REMARK       I    between atoms: N_9  and  C_10 
REMARK    3  A    between atoms: C_10  and  C_12 
REMARK    4  A    between atoms: C_18  and  O_19 
ROOT
ATOM      1  C   UNL d   1      25.155 -14.448  -3.937  0.00  0.00     0.272 C 
ATOM      2  O   UNL d   1      24.054 -13.948  -4.171  0.00  0.00    -0.266 OA
ATOM      3  N   UNL d   1      25.381 -15.295  -2.849  0.00  0.00    -0.263 N 
ATOM      4  H   UNL d   1      26.236 -15.821  -2.726  0.00  0.00     0.190 HD
ENDROOT
BRANCH   3   5
ATOM      5  N   UNL d   1      24.317 -15.570  -1.935  0.00  0.00    -0.261 N 
ATOM      6  C   UNL d   1      24.213 -16.803  -1.271  0.00  0.00     0.293 C 
ATOM      7  O   UNL d   1      23.111 -17.360  -1.239  0.00  0.00    -0.264 OA
ATOM      8  H   UNL d   1      23.423 -15.172  -2.223  0.00  0.00     0.190 HD
BRANCH   6   9
ATOM      9  C   UNL d   1      25.393 -17.305  -0.571  0.00  0.00     0.144 A 
ATOM     10  C   UNL d   1      25.536 -18.201   0.476  0.00  0.00     0.045 A 
ATOM     11  C   UNL d   1      26.916 -18.392   0.691  0.00  0.00     0.035 A 
ATOM     12  C   UNL d   1      27.570 -17.625  -0.243  0.00  0.00     0.050 A 
ATOM     13  C   UNL d   1      29.016 -17.453  -0.516  0.00  0.00     0.076 C 
ATOM     14  O   UNL d   1      26.659 -16.949  -1.010  0.00  0.00    -0.310 OA
ENDBRANCH   6   9
ENDBRANCH   3   5
BRANCH   1  15
ATOM     15  C   UNL d   1      26.312 -14.135  -4.852  0.00  0.00     0.066 A 
ATOM     16  C   UNL d   1      27.244 -15.115  -5.231  0.00  0.00     0.020 A 
ATOM     17  C   UNL d   1      28.325 -14.809  -6.075  0.00  0.00     0.008 A 
ATOM     18  C   UNL d   1      28.499 -13.516  -6.572  0.00  0.00    -0.059 A 
ATOM     19  C   UNL d   1      29.630 -13.163  -7.494  0.00  0.00     0.048 C 
ATOM     20  C   UNL d   1      27.584 -12.529  -6.195  0.00  0.00     0.044 A 
ATOM     21  C   UNL d   1      26.513 -12.829  -5.343  0.00  0.00     0.082 A 
BRANCH  21  22
ATOM     22  O   UNL d   1      25.709 -11.761  -5.037  0.00  0.00    -0.360 OA
ATOM     23  H   UNL d   1      24.780 -12.073  -4.984  0.00  0.00     0.217 HD
ENDBRANCH  21  22
ENDBRANCH   1  15
TORSDOF 4
ENDMDL
MODEL 6
REMARK VINA RESULT:    -5.465      9.171     11.713
REMARK INTER + INTRA:          -8.782
REMARK INTER:                  -6.658
REMARK INTRA:                  -2.124
REMARK CONF_INDEPENDENT:        1.193
REMARK UNBOUND:                -2.124
REMARK  4 active torsions:
REMARK  status: ('A' for Active; 'I' for Inactive)
REMARK    1  A    between atoms: C_5  and  C_6 
REMARK       I    between atoms: C_6  and  N_8 
REMARK    2  A    between atoms: N_8  and  N_9 
REMARK       I    between atoms: N_9  and  C_10 
REMARK    3  A    between atoms: C_10  and  C_12 
REMARK    4  A    between atoms: C_18  and  O_19 
ROOT
ATOM      1  C   UNL d   1      28.524 -15.574  -5.397  0.00  0.00     0.272 C 
ATOM      2  O   UNL d   1      28.088 -15.059  -6.427  0.00  0.00    -0.266 OA
ATOM      3  N   UNL d   1      27.965 -15.334  -4.139  0.00  0.00    -0.263 N 
ATOM      4  H   UNL d   1      28.220 -15.855  -3.311  0.00  0.00     0.190 HD
ENDROOT
BRANCH   3   5
ATOM      5  N   UNL d   1      26.872 -14.421  -4.016  0.00  0.00    -0.261 N 
ATOM      6  C   UNL d   1      25.594 -14.849  -3.618  0.00  0.00     0.293 C 
ATOM      7  O   UNL d   1      24.616 -14.450  -4.258  0.00  0.00    -0.264 OA
ATOM      8  H   UNL d   1      26.866 -13.696  -4.733  0.00  0.00     0.190 HD
BRANCH   6   9
ATOM      9  C   UNL d   1      25.490 -15.661  -2.408  0.00  0.00     0.144 A 
ATOM     10  C   UNL d   1      24.401 -16.053  -1.648  0.00  0.00     0.045 A 
ATOM     11  C   UNL d   1      24.871 -16.914  -0.635  0.00  0.00     0.035 A 
ATOM     12  C   UNL d   1      26.227 -17.037  -0.823  0.00  0.00     0.050 A 
ATOM     13  C   UNL d   1      27.239 -17.833  -0.089  0.00  0.00     0.076 C 
ATOM     14  O   UNL d   1      26.621 -16.273  -1.889  0.00  0.00    -0.310 OA
ENDBRANCH   6   9
ENDBRANCH   3   5
BRANCH   1  15
ATOM     15  C   UNL d   1      29.712 -16.499  -5.486  0.00  0.00     0.066 A 
ATOM     16  C   UNL d   1      29.974 -17.466  -4.501  0.00  0.00     0.020 A 
ATOM     17  C   UNL d   1      31.091 -18.314  -4.589  0.00  0.00     0.008 A 
ATOM     18  C   UNL d   1      31.971 -18.227  -5.669  0.00  0.00    -0.059 A 
ATOM     19  C   UNL d   1      33.159 -19.135  -5.803  0.00  0.00     0.048 C 
ATOM     20  C   UNL d   1      31.727 -17.263  -6.651  0.00  0.00     0.044 A 
ATOM     21  C   UNL d   1      30.622 -16.407  -6.559  0.00  0.00     0.082 A 
BRANCH  21  22
ATOM     22  O   UNL d   1      30.518 -15.495  -7.578  0.00  0.00    -0.360 OA
ATOM     23  H   UNL d   1      29.591 -15.489  -7.899  0.00  0.00     0.217 HD
ENDBRANCH  21  22
ENDBRANCH   1  15
TORSDOF 4
ENDMDL
MODEL 7
REMARK VINA RESULT:    -5.459      9.894     12.612
REMARK INTER + INTRA:          -9.005
REMARK INTER:                  -6.652
REMARK INTRA:                  -2.353
REMARK CONF_INDEPENDENT:        1.193
REMARK UNBOUND:                -2.353
REMARK  4 active torsions:
REMARK  status: ('A' for Active; 'I' for Inactive)
REMARK    1  A    between atoms: C_5  and  C_6 
REMARK       I    between atoms: C_6  and  N_8 
REMARK    2  A    between atoms: N_8  and  N_9 
REMARK       I    between atoms: N_9  and  C_10 
REMARK    3  A    between atoms: C_10  and  C_12 
REMARK    4  A    between atoms: C_18  and  O_19 
ROOT
ATOM      1  C   UNL d   1      24.838 -14.373  -3.333  0.00  0.00     0.272 C 
ATOM      2  O   UNL d   1      23.657 -14.075  -3.521  0.00  0.00    -0.266 OA
ATOM      3  N   UNL d   1      25.888 -13.761  -4.021  0.00  0.00    -0.263 N 
ATOM      4  H   UNL d   1      26.860 -13.893  -3.779  0.00  0.00     0.190 HD
ENDROOT
BRANCH   3   5
ATOM      5  N   UNL d   1      25.600 -12.779  -5.019  0.00  0.00    -0.261 N 
ATOM      6  C   UNL d   1      26.621 -12.086  -5.691  0.00  0.00     0.293 C 
ATOM      7  O   UNL d   1      26.517 -10.862  -5.813  0.00  0.00    -0.264 OA
ATOM      8  H   UNL d   1      24.780 -12.211  -4.805  0.00  0.00     0.190 HD
BRANCH   6   9
ATOM      9  C   UNL d   1      27.697 -12.870  -6.293  0.00  0.00     0.144 A 
ATOM     10  C   UNL d   1      28.605 -12.575  -7.297  0.00  0.00     0.045 A 
ATOM     11  C   UNL d   1      29.486 -13.670  -7.413  0.00  0.00     0.035 A 
ATOM     12  C   UNL d   1      29.102 -14.586  -6.464  0.00  0.00     0.050 A 
ATOM     13  C   UNL d   1      29.674 -15.904  -6.100  0.00  0.00     0.076 C 
ATOM     14  O   UNL d   1      28.009 -14.120  -5.783  0.00  0.00    -0.310 OA
ENDBRANCH   6   9
ENDBRANCH   3   5
BRANCH   1  15
ATOM     15  C   UNL d   1      25.172 -15.445  -2.326  0.00  0.00     0.066 A 
ATOM     16  C   UNL d   1      24.202 -15.978  -1.461  0.00  0.00     0.020 A 
ATOM     17  C   UNL d   1      24.528 -16.968  -0.519  0.00  0.00     0.008 A 
ATOM     18  C   UNL d   1      25.830 -17.461  -0.422  0.00  0.00    -0.059 A 
ATOM     19  C   UNL d   1      26.205 -18.535   0.558  0.00  0.00     0.048 C 
ATOM     20  C   UNL d   1      26.807 -16.933  -1.270  0.00  0.00     0.044 A 
ATOM     21  C   UNL d   1      26.488 -15.935  -2.201  0.00  0.00     0.082 A 
BRANCH  21  22
ATOM     22  O   UNL d   1      27.547 -15.493  -2.951  0.00  0.00    -0.360 OA
ATOM     23  H   UNL d   1      27.247 -15.376  -3.878  0.00  0.00     0.217 HD
ENDBRANCH  21  22
ENDBRANCH   1  15
TORSDOF 4
ENDMDL
MODEL 8
REMARK VINA RESULT:    -5.404      8.938     11.589
REMARK INTER + INTRA:          -8.890
REMARK INTER:                  -6.597
REMARK INTRA:                  -2.293
REMARK CONF_INDEPENDENT:        1.193
REMARK UNBOUND:                -2.293
REMARK  4 active torsions:
REMARK  status: ('A' for Active; 'I' for Inactive)
REMARK    1  A    between atoms: C_5  and  C_6 
REMARK       I    between atoms: C_6  and  N_8 
REMARK    2  A    between atoms: N_8  and  N_9 
REMARK       I    between atoms: N_9  and  C_10 
REMARK    3  A    between atoms: C_10  and  C_12 
REMARK    4  A    between atoms: C_18  and  O_19 
ROOT
ATOM      1  C   UNL d   1      25.551 -15.079  -3.275  0.00  0.00     0.272 C 
ATOM      2  O   UNL d   1      24.480 -14.476  -3.365  0.00  0.00    -0.266 OA
ATOM      3  N   UNL d   1      26.561 -14.968  -4.233  0.00  0.00    -0.263 N 
ATOM      4  H   UNL d   1      27.491 -15.342  -4.103  0.00  0.00     0.190 HD
ENDROOT
BRANCH   3   5
ATOM      5  N   UNL d   1      26.347 -14.162  -5.395  0.00  0.00    -0.261 N 
ATOM      6  C   UNL d   1      27.407 -13.512  -6.049  0.00  0.00     0.293 C 
ATOM      7  O   UNL d   1      27.262 -12.328  -6.367  0.00  0.00    -0.264 OA
ATOM      8  H   UNL d   1      25.482 -13.621  -5.359  0.00  0.00     0.190 HD
BRANCH   6   9
ATOM      9  C   UNL d   1      28.580 -14.307  -6.405  0.00  0.00     0.144 A 
ATOM     10  C   UNL d   1      29.702 -14.011  -7.161  0.00  0.00     0.045 A 
ATOM     11  C   UNL d   1      30.567 -15.123  -7.098  0.00  0.00     0.035 A 
ATOM     12  C   UNL d   1      29.956 -16.051  -6.290  0.00  0.00     0.050 A 
ATOM     13  C   UNL d   1      30.405 -17.389  -5.839  0.00  0.00     0.076 C 
ATOM     14  O   UNL d   1      28.743 -15.575  -5.870  0.00  0.00    -0.310 OA
ENDBRANCH   6   9
ENDBRANCH   3   5
BRANCH   1  15
ATOM     15  C   UNL d   1      25.786 -15.981  -2.089  0.00  0.00     0.066 A 
ATOM     16  C   UNL d   1      24.724 -16.519  -1.344  0.00  0.00     0.020 A 
ATOM     17  C   UNL d   1      24.956 -17.348  -0.234  0.00  0.00     0.008 A 
ATOM     18  C   UNL d   1      26.257 -17.672   0.155  0.00  0.00    -0.059 A 
ATOM     19  C   UNL d   1      26.537 -18.575   1.322  0.00  0.00     0.048 C 
ATOM     20  C   UNL d   1      27.323 -17.137  -0.572  0.00  0.00     0.044 A 
ATOM     21  C   UNL d   1      27.095 -16.298  -1.671  0.00  0.00     0.082 A 
BRANCH  21  22
ATOM     22  O   UNL d   1      28.231 -15.826  -2.277  0.00  0.00    -0.360 OA
ATOM     23  H   UNL d   1      28.970 -15.873  -1.635  0.00  0.00     0.217 HD
ENDBRANCH  21  22
ENDBRANCH   1  15
TORSDOF 4
ENDMDL
MODEL 9
REMARK VINA RESULT:    -5.329      9.527     11.903
REMARK INTER + INTRA:          -8.777
REMARK INTER:                  -6.522
REMARK INTRA:                  -2.255
REMARK CONF_INDEPENDENT:        1.193
REMARK UNBOUND:                -2.255
REMARK  4 active torsions:
REMARK  status: ('A' for Active; 'I' for Inactive)
REMARK    1  A    between atoms: C_5  and  C_6 
REMARK       I    between atoms: C_6  and  N_8 
REMARK    2  A    between atoms: N_8  and  N_9 
REMARK       I    between atoms: N_9  and  C_10 
REMARK    3  A    between atoms: C_10  and  C_12 
REMARK    4  A    between atoms: C_18  and  O_19 
ROOT
ATOM      1  C   UNL d   1      25.443 -17.856  -0.360  0.00  0.00     0.272 C 
ATOM      2  O   UNL d   1      26.155 -18.535   0.382  0.00  0.00    -0.266 OA
ATOM      3  N   UNL d   1      25.947 -16.810  -1.136  0.00  0.00    -0.263 N 
ATOM      4  H   UNL d   1      25.407 -16.340  -1.850  0.00  0.00     0.190 HD
ENDROOT
BRANCH   3   5
ATOM      5  N   UNL d   1      27.333 -16.468  -1.047  0.00  0.00    -0.261 N 
ATOM      6  C   UNL d   1      28.118 -16.261  -2.194  0.00  0.00     0.293 C 
ATOM      7  O   UNL d   1      29.230 -16.794  -2.247  0.00  0.00    -0.264 OA
ATOM      8  H   UNL d   1      27.820 -16.944  -0.287  0.00  0.00     0.190 HD
BRANCH   6   9
ATOM      9  C   UNL d   1      27.612 -15.343  -3.212  0.00  0.00     0.144 A 
ATOM     10  C   UNL d   1      28.135 -14.930  -4.426  0.00  0.00     0.045 A 
ATOM     11  C   UNL d   1      27.176 -14.103  -5.047  0.00  0.00     0.035 A 
ATOM     12  C   UNL d   1      26.093 -14.056  -4.204  0.00  0.00     0.050 A 
ATOM     13  C   UNL d   1      24.784 -13.375  -4.343  0.00  0.00     0.076 C 
ATOM     14  O   UNL d   1      26.346 -14.795  -3.079  0.00  0.00    -0.310 OA
ENDBRANCH   6   9
ENDBRANCH   3   5
BRANCH   1  15
ATOM     15  C   UNL d   1      23.967 -18.155  -0.435  0.00  0.00     0.066 A 
ATOM     16  C   UNL d   1      23.453 -19.430  -0.145  0.00  0.00     0.020 A 
ATOM     17  C   UNL d   1      22.077 -19.699  -0.230  0.00  0.00     0.008 A 
ATOM     18  C   UNL d   1      21.175 -18.699  -0.596  0.00  0.00    -0.059 A 
ATOM     19  C   UNL d   1      19.696 -18.950  -0.672  0.00  0.00     0.048 C 
ATOM     20  C   UNL d   1      21.673 -17.429  -0.895  0.00  0.00     0.044 A 
ATOM     21  C   UNL d   1      23.047 -17.161  -0.825  0.00  0.00     0.082 A 
BRANCH  21  22
ATOM     22  O   UNL d   1      23.398 -15.880  -1.168  0.00  0.00    -0.360 OA
ATOM     23  H   UNL d   1      22.647 -15.467  -1.644  0.00  0.00     0.217 HD
ENDBRANCH  21  22
ENDBRANCH   1  15
TORSDOF 4
ENDMDL
