MODEL 1
REMARK VINA RESULT:   -10.623      0.000      0.000
REMARK INTER + INTRA:         -15.299
REMARK INTER:                 -13.308
REMARK INTRA:                  -1.990
REMARK CONF_INDEPENDENT:        2.685
REMARK UNBOUND:                -1.990
REMARK  9 active torsions:
REMARK  status: ('A' for Active; 'I' for Inactive)
REMARK    1  A    between atoms: O_2  and  C_3 
REMARK    2  A    between atoms: C_3  and  C_5 
REMARK    3  A    between atoms: C_8  and  O_9 
REMARK    4  A    between atoms: O_9  and  C_10 
REMARK    5  A    between atoms: C_10  and  C_11 
REMARK    6  A    between atoms: C_14  and  C_15 
REMARK       I    between atoms: C_15  and  N_17 
REMARK    7  A    between atoms: N_17  and  C_18 
REMARK    8  A    between atoms: C_18  and  C_19 
REMARK    9  A    between atoms: C_19  and  C_20 
ROOT
ATOM      1  C   UNL d   1      27.403 -15.740   1.130  0.00  0.00     0.345 C 
ATOM      2  N   UNL d   1      26.813 -14.408   0.935  0.00  0.00    -0.168 NA
ATOM      3  O   UNL d   1      27.815 -13.467   1.461  0.00  0.00    -0.258 OA
ATOM      4  C   UNL d   1      29.006 -14.220   1.680  0.00  0.00     0.471 C 
ATOM      5  N   UNL d   1      28.836 -15.512   1.019  0.00  0.00     0.145 N 
ATOM      6  H   UNL d   1      26.046 -14.284   1.597  0.00  0.00     0.156 HD
ATOM      7  H   UNL d   1      29.330 -16.241   1.533  0.00  0.00     0.322 HD
ENDROOT
BRANCH   4   8
ATOM      8  C   UNL d   1      29.181 -14.381   3.219  0.00  0.00     0.279 C 
ATOM      9  O   UNL d   1      30.210 -14.823   3.736  0.00  0.00    -0.268 OA
ATOM     10  N   UNL d   1      28.112 -13.994   4.012  0.00  0.00    -0.357 N 
ATOM     11  H   UNL d   1      27.266 -13.634   3.579  0.00  0.00     0.162 HD
BRANCH  10  12
ATOM     12  C   UNL d   1      28.207 -14.190   5.445  0.00  0.00     0.127 C 
BRANCH  12  13
ATOM     13  C   UNL d   1      29.376 -13.453   6.056  0.00  0.00     0.056 C 
BRANCH  13  14
ATOM     14  C   UNL d   1      29.090 -12.625   7.269  0.00  0.00    -0.048 A 
ATOM     15  C   UNL d   1      29.241 -13.153   8.483  0.00  0.00    -0.003 A 
ATOM     16  C   UNL d   1      29.645 -14.452   8.883  0.00  0.00     0.056 A 
ATOM     17  C   UNL d   1      28.826 -12.123   9.442  0.00  0.00     0.039 A 
ATOM     18  C   UNL d   1      29.537 -14.767  10.174  0.00  0.00     0.117 A 
ATOM     19  F   UNL d   1      29.758 -16.036  10.564  0.00  0.00    -0.206 F 
ATOM     20  C   UNL d   1      29.159 -13.782  11.171  0.00  0.00     0.044 A 
ATOM     21  C   UNL d   1      28.818 -12.508  10.872  0.00  0.00     0.033 A 
ATOM     22  N   UNL d   1      28.519 -11.030   8.851  0.00  0.00    -0.385 N 
ATOM     23  C   UNL d   1      28.600 -11.206   7.364  0.00  0.00     0.155 A 
ATOM     24  H   UNL d   1      28.265 -10.182   9.358  0.00  0.00     0.160 HD
ENDBRANCH  13  14
ENDBRANCH  12  13
ENDBRANCH  10  12
ENDBRANCH   4   8
BRANCH   1  25
ATOM     25  C   UNL d   1      26.834 -16.769   0.120  0.00  0.00     0.229 C 
BRANCH  25  26
ATOM     26  O   UNL d   1      25.742 -16.221  -0.644  0.00  0.00    -0.348 OA
BRANCH  26  27
ATOM     27  C   UNL d   1      24.593 -16.979  -0.697  0.00  0.00     0.069 A 
ATOM     28  C   UNL d   1      23.399 -16.273  -0.881  0.00  0.00     0.038 A 
ATOM     29  C   UNL d   1      22.160 -16.940  -0.884  0.00  0.00     0.020 A 
ATOM     30  C   UNL d   1      22.107 -18.337  -0.776  0.00  0.00     0.039 A 
ATOM     31  C   UNL d   1      23.299 -19.048  -0.623  0.00  0.00     0.020 A 
ATOM     32  C   UNL d   1      24.532 -18.371  -0.586  0.00  0.00     0.038 A 
BRANCH  30  33
ATOM     33  C   UNL d   1      20.807 -19.036  -0.987  0.00  0.00     0.292 C 
ATOM     34  O   UNL d   1      20.588 -19.724  -1.965  0.00  0.00    -0.259 OA
BRANCH  33  35
ATOM     35  O   UNL d   1      19.940 -18.801   0.036  0.00  0.00    -0.323 OA
ATOM     36  C   UNL d   1      19.911 -19.844   1.024  0.00  0.00     0.213 C 
ENDBRANCH  33  35
ENDBRANCH  30  33
ENDBRANCH  26  27
ENDBRANCH  25  26
ENDBRANCH   1  25
TORSDOF 9
ENDMDL
MODEL 2
REMARK VINA RESULT:    -9.788      2.099      2.688
REMARK INTER + INTRA:         -14.506
REMARK INTER:                 -12.472
REMARK INTRA:                  -2.034
REMARK CONF_INDEPENDENT:        2.685
REMARK UNBOUND:                -2.034
REMARK  9 active torsions:
REMARK  status: ('A' for Active; 'I' for Inactive)
REMARK    1  A    between atoms: O_2  and  C_3 
REMARK    2  A    between atoms: C_3  and  C_5 
REMARK    3  A    between atoms: C_8  and  O_9 
REMARK    4  A    between atoms: O_9  and  C_10 
REMARK    5  A    between atoms: C_10  and  C_11 
REMARK    6  A    between atoms: C_14  and  C_15 
REMARK       I    between atoms: C_15  and  N_17 
REMARK    7  A    between atoms: N_17  and  C_18 
REMARK    8  A    between atoms: C_18  and  C_19 
REMARK    9  A    between atoms: C_19  and  C_20 
ROOT
ATOM      1  C   UNL d   1      28.212 -16.088   0.201  0.00  0.00     0.345 C 
ATOM      2  N   UNL d   1      28.278 -15.023  -0.809  0.00  0.00    -0.168 NA
ATOM      3  O   UNL d   1      29.663 -14.527  -0.749  0.00  0.00    -0.258 OA
ATOM      4  C   UNL d   1      30.393 -15.453   0.052  0.00  0.00     0.471 C 
ATOM      5  N   UNL d   1      29.558 -16.640   0.222  0.00  0.00     0.145 N 
ATOM      6  H   UNL d   1      27.756 -14.213  -0.473  0.00  0.00     0.156 HD
ATOM      7  H   UNL d   1      29.729 -17.066   1.132  0.00  0.00     0.322 HD
ENDROOT
BRANCH   4   8
ATOM      8  C   UNL d   1      30.688 -14.760   1.415  0.00  0.00     0.279 C 
ATOM      9  O   UNL d   1      31.489 -15.208   2.239  0.00  0.00    -0.268 OA
ATOM     10  N   UNL d   1      30.004 -13.582   1.677  0.00  0.00    -0.357 N 
ATOM     11  H   UNL d   1      29.342 -13.220   0.996  0.00  0.00     0.162 HD
BRANCH  10  12
ATOM     12  C   UNL d   1      30.198 -12.941   2.962  0.00  0.00     0.127 C 
BRANCH  12  13
ATOM     13  C   UNL d   1      28.903 -12.739   3.713  0.00  0.00     0.056 C 
BRANCH  13  14
ATOM     14  C   UNL d   1      28.809 -13.357   5.072  0.00  0.00    -0.048 A 
ATOM     15  C   UNL d   1      28.777 -12.579   6.154  0.00  0.00    -0.003 A 
ATOM     16  C   UNL d   1      28.827 -11.167   6.280  0.00  0.00     0.056 A 
ATOM     17  C   UNL d   1      28.750 -13.477   7.314  0.00  0.00     0.039 A 
ATOM     18  C   UNL d   1      28.961 -10.656   7.504  0.00  0.00     0.117 A 
ATOM     19  F   UNL d   1      29.171  -9.336   7.647  0.00  0.00    -0.206 F 
ATOM     20  C   UNL d   1      28.911 -11.492   8.689  0.00  0.00     0.044 A 
ATOM     21  C   UNL d   1      28.805 -12.840   8.651  0.00  0.00     0.033 A 
ATOM     22  N   UNL d   1      28.693 -14.704   6.955  0.00  0.00    -0.385 N 
ATOM     23  C   UNL d   1      28.768 -14.810   5.461  0.00  0.00     0.155 A 
ATOM     24  H   UNL d   1      28.604 -15.470   7.623  0.00  0.00     0.160 HD
ENDBRANCH  13  14
ENDBRANCH  12  13
ENDBRANCH  10  12
ENDBRANCH   4   8
BRANCH   1  25
ATOM     25  C   UNL d   1      27.099 -17.116  -0.127  0.00  0.00     0.229 C 
BRANCH  25  26
ATOM     26  O   UNL d   1      25.895 -16.472  -0.591  0.00  0.00    -0.348 OA
BRANCH  26  27
ATOM     27  C   UNL d   1      24.747 -17.230  -0.558  0.00  0.00     0.069 A 
ATOM     28  C   UNL d   1      23.570 -16.580  -0.950  0.00  0.00     0.038 A 
ATOM     29  C   UNL d   1      22.328 -17.240  -0.893  0.00  0.00     0.020 A 
ATOM     30  C   UNL d   1      22.259 -18.587  -0.510  0.00  0.00     0.039 A 
ATOM     31  C   UNL d   1      23.435 -19.247  -0.147  0.00  0.00     0.020 A 
ATOM     32  C   UNL d   1      24.668 -18.571  -0.174  0.00  0.00     0.038 A 
BRANCH  30  33
ATOM     33  C   UNL d   1      20.968 -19.320  -0.653  0.00  0.00     0.292 C 
ATOM     34  O   UNL d   1      20.394 -19.428  -1.718  0.00  0.00    -0.259 OA
BRANCH  33  35
ATOM     35  O   UNL d   1      20.547 -19.829   0.538  0.00  0.00    -0.323 OA
ATOM     36  C   UNL d   1      19.489 -20.794   0.416  0.00  0.00     0.213 C 
ENDBRANCH  33  35
ENDBRANCH  30  33
ENDBRANCH  26  27
ENDBRANCH  25  26
ENDBRANCH   1  25
TORSDOF 9
ENDMDL
MODEL 3
REMARK VINA RESULT:    -9.722      2.055      2.959
REMARK INTER + INTRA:         -14.505
REMARK INTER:                 -12.407
REMARK INTRA:                  -2.098
REMARK CONF_INDEPENDENT:        2.685
REMARK UNBOUND:                -2.098
REMARK  9 active torsions:
REMARK  status: ('A' for Active; 'I' for Inactive)
REMARK    1  A    between atoms: O_2  and  C_3 
REMARK    2  A    between atoms: C_3  and  C_5 
REMARK    3  A    between atoms: C_8  and  O_9 
REMARK    4  A    between atoms: O_9  and  C_10 
REMARK    5  A    between atoms: C_10  and  C_11 
REMARK    6  A    between atoms: C_14  and  C_15 
REMARK       I    between atoms: C_15  and  N_17 
REMARK    7  A    between atoms: N_17  and  C_18 
REMARK    8  A    between atoms: C_18  and  C_19 
REMARK    9  A    between atoms: C_19  and  C_20 
ROOT
ATOM      1  C   UNL d   1      27.715 -15.846   1.090  0.00  0.00     0.345 C 
ATOM      2  N   UNL d   1      27.095 -14.527   0.903  0.00  0.00    -0.168 NA
ATOM      3  O   UNL d   1      28.138 -13.559   1.277  0.00  0.00    -0.258 OA
ATOM      4  C   UNL d   1      29.353 -14.295   1.399  0.00  0.00     0.471 C 
ATOM      5  N   UNL d   1      29.126 -15.616   0.817  0.00  0.00     0.145 N 
ATOM      6  H   UNL d   1      26.402 -14.378   1.637  0.00  0.00     0.156 HD
ATOM      7  H   UNL d   1      29.679 -16.319   1.306  0.00  0.00     0.322 HD
ENDROOT
BRANCH   4   8
ATOM      8  C   UNL d   1      29.693 -14.388   2.916  0.00  0.00     0.279 C 
ATOM      9  O   UNL d   1      30.781 -14.787   3.338  0.00  0.00    -0.268 OA
ATOM     10  N   UNL d   1      28.704 -13.990   3.803  0.00  0.00    -0.357 N 
ATOM     11  H   UNL d   1      27.808 -13.666   3.448  0.00  0.00     0.162 HD
BRANCH  10  12
ATOM     12  C   UNL d   1      28.955 -14.124   5.224  0.00  0.00     0.127 C 
BRANCH  12  13
ATOM     13  C   UNL d   1      27.857 -13.517   6.067  0.00  0.00     0.056 C 
BRANCH  13  14
ATOM     14  C   UNL d   1      28.261 -12.441   7.025  0.00  0.00    -0.048 A 
ATOM     15  C   UNL d   1      28.507 -11.211   6.576  0.00  0.00    -0.003 A 
ATOM     16  C   UNL d   1      28.465 -10.680   5.261  0.00  0.00     0.056 A 
ATOM     17  C   UNL d   1      28.935 -10.420   7.736  0.00  0.00     0.039 A 
ATOM     18  C   UNL d   1      28.937  -9.448   5.073  0.00  0.00     0.117 A 
ATOM     19  F   UNL d   1      29.060  -8.974   3.820  0.00  0.00    -0.206 F 
ATOM     20  C   UNL d   1      29.346  -8.609   6.185  0.00  0.00     0.044 A 
ATOM     21  C   UNL d   1      29.357  -9.025   7.471  0.00  0.00     0.033 A 
ATOM     22  N   UNL d   1      28.879 -11.105   8.816  0.00  0.00    -0.385 N 
ATOM     23  C   UNL d   1      28.480 -12.518   8.512  0.00  0.00     0.155 A 
ATOM     24  H   UNL d   1      29.080 -10.705   9.733  0.00  0.00     0.160 HD
ENDBRANCH  13  14
ENDBRANCH  12  13
ENDBRANCH  10  12
ENDBRANCH   4   8
BRANCH   1  25
ATOM     25  C   UNL d   1      27.051 -16.922   0.193  0.00  0.00     0.229 C 
BRANCH  25  26
ATOM     26  O   UNL d   1      25.944 -16.384  -0.557  0.00  0.00    -0.348 OA
BRANCH  26  27
ATOM     27  C   UNL d   1      24.797 -17.144  -0.581  0.00  0.00     0.069 A 
ATOM     28  C   UNL d   1      23.592 -16.438  -0.680  0.00  0.00     0.038 A 
ATOM     29  C   UNL d   1      22.357 -17.111  -0.647  0.00  0.00     0.020 A 
ATOM     30  C   UNL d   1      22.314 -18.511  -0.588  0.00  0.00     0.039 A 
ATOM     31  C   UNL d   1      23.515 -19.221  -0.520  0.00  0.00     0.020 A 
ATOM     32  C   UNL d   1      24.745 -18.540  -0.519  0.00  0.00     0.038 A 
BRANCH  30  33
ATOM     33  C   UNL d   1      21.007 -19.209  -0.761  0.00  0.00     0.292 C 
ATOM     34  O   UNL d   1      20.583 -19.539  -1.851  0.00  0.00    -0.259 OA
BRANCH  33  35
ATOM     35  O   UNL d   1      20.387 -19.413   0.434  0.00  0.00    -0.323 OA
ATOM     36  C   UNL d   1      19.201 -20.220   0.343  0.00  0.00     0.213 C 
ENDBRANCH  33  35
ENDBRANCH  30  33
ENDBRANCH  26  27
ENDBRANCH  25  26
ENDBRANCH   1  25
TORSDOF 9
ENDMDL
MODEL 4
REMARK VINA RESULT:    -9.608      3.855      5.073
REMARK INTER + INTRA:         -14.431
REMARK INTER:                 -12.293
REMARK INTRA:                  -2.139
REMARK CONF_INDEPENDENT:        2.685
REMARK UNBOUND:                -2.139
REMARK  9 active torsions:
REMARK  status: ('A' for Active; 'I' for Inactive)
REMARK    1  A    between atoms: O_2  and  C_3 
REMARK    2  A    between atoms: C_3  and  C_5 
REMARK    3  A    between atoms: C_8  and  O_9 
REMARK    4  A    between atoms: O_9  and  C_10 
REMARK    5  A    between atoms: C_10  and  C_11 
REMARK    6  A    between atoms: C_14  and  C_15 
REMARK       I    between atoms: C_15  and  N_17 
REMARK    7  A    between atoms: N_17  and  C_18 
REMARK    8  A    between atoms: C_18  and  C_19 
REMARK    9  A    between atoms: C_19  and  C_20 
ROOT
ATOM      1  C   UNL d   1      28.222 -16.491  -0.020  0.00  0.00     0.345 C 
ATOM      2  N   UNL d   1      28.171 -15.810  -1.321  0.00  0.00    -0.168 NA
ATOM      3  O   UNL d   1      29.567 -15.781  -1.789  0.00  0.00    -0.258 OA
ATOM      4  C   UNL d   1      30.305 -16.642  -0.925  0.00  0.00     0.471 C 
ATOM      5  N   UNL d   1      29.340 -17.414  -0.145  0.00  0.00     0.145 N 
ATOM      6  H   UNL d   1      27.984 -14.818  -1.170  0.00  0.00     0.156 HD
ATOM      7  H   UNL d   1      29.713 -17.614   0.782  0.00  0.00     0.322 HD
ENDROOT
BRANCH   4   8
ATOM      8  C   UNL d   1      31.190 -15.741  -0.013  0.00  0.00     0.279 C 
ATOM      9  O   UNL d   1      31.784 -14.743  -0.427  0.00  0.00    -0.268 OA
ATOM     10  N   UNL d   1      31.286 -16.108   1.321  0.00  0.00    -0.357 N 
ATOM     11  H   UNL d   1      30.797 -16.934   1.654  0.00  0.00     0.162 HD
BRANCH  10  12
ATOM     12  C   UNL d   1      32.152 -15.336   2.189  0.00  0.00     0.127 C 
BRANCH  12  13
ATOM     13  C   UNL d   1      31.529 -14.029   2.620  0.00  0.00     0.056 C 
BRANCH  13  14
ATOM     14  C   UNL d   1      30.095 -14.073   3.043  0.00  0.00    -0.048 A 
ATOM     15  C   UNL d   1      29.141 -13.693   2.195  0.00  0.00    -0.003 A 
ATOM     16  C   UNL d   1      29.226 -13.208   0.864  0.00  0.00     0.056 A 
ATOM     17  C   UNL d   1      27.870 -13.790   2.922  0.00  0.00     0.039 A 
ATOM     18  C   UNL d   1      28.115 -12.727   0.305  0.00  0.00     0.117 A 
ATOM     19  F   UNL d   1      28.190 -12.115  -0.890  0.00  0.00    -0.206 F 
ATOM     20  C   UNL d   1      26.825 -12.823   0.965  0.00  0.00     0.044 A 
ATOM     21  C   UNL d   1      26.657 -13.328   2.208  0.00  0.00     0.033 A 
ATOM     22  N   UNL d   1      28.040 -14.266   4.098  0.00  0.00    -0.385 N 
ATOM     23  C   UNL d   1      29.500 -14.476   4.365  0.00  0.00     0.155 A 
ATOM     24  H   UNL d   1      27.263 -14.464   4.729  0.00  0.00     0.160 HD
ENDBRANCH  13  14
ENDBRANCH  12  13
ENDBRANCH  10  12
ENDBRANCH   4   8
BRANCH   1  25
ATOM     25  C   UNL d   1      26.867 -17.162   0.325  0.00  0.00     0.229 C 
BRANCH  25  26
ATOM     26  O   UNL d   1      25.758 -16.474  -0.286  0.00  0.00    -0.348 OA
BRANCH  26  27
ATOM     27  C   UNL d   1      24.590 -17.191  -0.412  0.00  0.00     0.069 A 
ATOM     28  C   UNL d   1      23.455 -16.458  -0.781  0.00  0.00     0.038 A 
ATOM     29  C   UNL d   1      22.195 -17.078  -0.874  0.00  0.00     0.020 A 
ATOM     30  C   UNL d   1      22.069 -18.459  -0.670  0.00  0.00     0.039 A 
ATOM     31  C   UNL d   1      23.204 -19.199  -0.330  0.00  0.00     0.020 A 
ATOM     32  C   UNL d   1      24.454 -18.567  -0.205  0.00  0.00     0.038 A 
BRANCH  30  33
ATOM     33  C   UNL d   1      20.769 -19.125  -0.974  0.00  0.00     0.292 C 
ATOM     34  O   UNL d   1      20.559 -19.696  -2.025  0.00  0.00    -0.259 OA
BRANCH  33  35
ATOM     35  O   UNL d   1      19.891 -19.004   0.060  0.00  0.00    -0.323 OA
ATOM     36  C   UNL d   1      20.137 -19.919   1.141  0.00  0.00     0.213 C 
ENDBRANCH  33  35
ENDBRANCH  30  33
ENDBRANCH  26  27
ENDBRANCH  25  26
ENDBRANCH   1  25
TORSDOF 9
ENDMDL
MODEL 5
REMARK VINA RESULT:    -9.309      7.495     10.217
REMARK INTER + INTRA:         -14.568
REMARK INTER:                 -11.993
REMARK INTRA:                  -2.575
REMARK CONF_INDEPENDENT:        2.685
REMARK UNBOUND:                -2.575
REMARK  9 active torsions:
REMARK  status: ('A' for Active; 'I' for Inactive)
REMARK    1  A    between atoms: O_2  and  C_3 
REMARK    2  A    between atoms: C_3  and  C_5 
REMARK    3  A    between atoms: C_8  and  O_9 
REMARK    4  A    between atoms: O_9  and  C_10 
REMARK    5  A    between atoms: C_10  and  C_11 
REMARK    6  A    between atoms: C_14  and  C_15 
REMARK       I    between atoms: C_15  and  N_17 
REMARK    7  A    between atoms: N_17  and  C_18 
REMARK    8  A    between atoms: C_18  and  C_19 
REMARK    9  A    between atoms: C_19  and  C_20 
ROOT
ATOM      1  C   UNL d   1      26.941 -15.903  -2.153  0.00  0.00     0.345 C 
ATOM      2  N   UNL d   1      27.414 -14.563  -1.777  0.00  0.00    -0.168 NA
ATOM      3  O   UNL d   1      26.933 -13.676  -2.849  0.00  0.00    -0.258 OA
ATOM      4  C   UNL d   1      26.012 -14.437  -3.627  0.00  0.00     0.471 C 
ATOM      5  N   UNL d   1      25.703 -15.652  -2.876  0.00  0.00     0.145 N 
ATOM      6  H   UNL d   1      28.424 -14.517  -1.910  0.00  0.00     0.156 HD
ATOM      7  H   UNL d   1      25.527 -16.427  -3.514  0.00  0.00     0.322 HD
ENDROOT
BRANCH   4   8
ATOM      8  C   UNL d   1      26.704 -14.762  -4.984  0.00  0.00     0.279 C 
ATOM      9  O   UNL d   1      26.278 -15.612  -5.769  0.00  0.00    -0.268 OA
ATOM     10  N   UNL d   1      27.845 -14.037  -5.292  0.00  0.00    -0.357 N 
ATOM     11  H   UNL d   1      28.193 -13.340  -4.638  0.00  0.00     0.162 HD
BRANCH  10  12
ATOM     12  C   UNL d   1      28.558 -14.354  -6.513  0.00  0.00     0.127 C 
BRANCH  12  13
ATOM     13  C   UNL d   1      29.949 -14.884  -6.253  0.00  0.00     0.056 C 
BRANCH  13  14
ATOM     14  C   UNL d   1      30.056 -16.108  -5.400  0.00  0.00    -0.048 A 
ATOM     15  C   UNL d   1      30.435 -17.264  -5.942  0.00  0.00    -0.003 A 
ATOM     16  C   UNL d   1      30.778 -17.590  -7.280  0.00  0.00     0.056 A 
ATOM     17  C   UNL d   1      30.378 -18.268  -4.873  0.00  0.00     0.039 A 
ATOM     18  C   UNL d   1      30.948 -18.877  -7.582  0.00  0.00     0.117 A 
ATOM     19  F   UNL d   1      31.115 -19.235  -8.868  0.00  0.00    -0.206 F 
ATOM     20  C   UNL d   1      30.932 -19.910  -6.562  0.00  0.00     0.044 A 
ATOM     21  C   UNL d   1      30.671 -19.668  -5.257  0.00  0.00     0.033 A 
ATOM     22  N   UNL d   1      30.060 -17.738  -3.752  0.00  0.00    -0.385 N 
ATOM     23  C   UNL d   1      29.762 -16.280  -3.934  0.00  0.00     0.155 A 
ATOM     24  H   UNL d   1      30.030 -18.269  -2.881  0.00  0.00     0.160 HD
ENDBRANCH  13  14
ENDBRANCH  12  13
ENDBRANCH  10  12
ENDBRANCH   4   8
BRANCH   1  25
ATOM     25  C   UNL d   1      26.789 -16.822  -0.914  0.00  0.00     0.229 C 
BRANCH  25  26
ATOM     26  O   UNL d   1      25.667 -16.436  -0.096  0.00  0.00    -0.348 OA
BRANCH  26  27
ATOM     27  C   UNL d   1      24.510 -17.162  -0.265  0.00  0.00     0.069 A 
ATOM     28  C   UNL d   1      23.391 -16.442  -0.701  0.00  0.00     0.038 A 
ATOM     29  C   UNL d   1      22.140 -17.071  -0.844  0.00  0.00     0.020 A 
ATOM     30  C   UNL d   1      22.011 -18.449  -0.622  0.00  0.00     0.039 A 
ATOM     31  C   UNL d   1      23.132 -19.176  -0.216  0.00  0.00     0.020 A 
ATOM     32  C   UNL d   1      24.371 -18.535  -0.041  0.00  0.00     0.038 A 
BRANCH  30  33
ATOM     33  C   UNL d   1      20.730 -19.128  -0.977  0.00  0.00     0.292 C 
ATOM     34  O   UNL d   1      20.569 -19.702  -2.035  0.00  0.00    -0.259 OA
BRANCH  33  35
ATOM     35  O   UNL d   1      19.810 -19.014   0.021  0.00  0.00    -0.323 OA
ATOM     36  C   UNL d   1      18.949 -20.156   0.150  0.00  0.00     0.213 C 
ENDBRANCH  33  35
ENDBRANCH  30  33
ENDBRANCH  26  27
ENDBRANCH  25  26
ENDBRANCH   1  25
TORSDOF 9
ENDMDL
MODEL 6
REMARK VINA RESULT:    -9.226      2.964      4.116
REMARK INTER + INTRA:         -14.734
REMARK INTER:                 -11.911
REMARK INTRA:                  -2.823
REMARK CONF_INDEPENDENT:        2.685
REMARK UNBOUND:                -2.823
REMARK  9 active torsions:
REMARK  status: ('A' for Active; 'I' for Inactive)
REMARK    1  A    between atoms: O_2  and  C_3 
REMARK    2  A    between atoms: C_3  and  C_5 
REMARK    3  A    between atoms: C_8  and  O_9 
REMARK    4  A    between atoms: O_9  and  C_10 
REMARK    5  A    between atoms: C_10  and  C_11 
REMARK    6  A    between atoms: C_14  and  C_15 
REMARK       I    between atoms: C_15  and  N_17 
REMARK    7  A    between atoms: N_17  and  C_18 
REMARK    8  A    between atoms: C_18  and  C_19 
REMARK    9  A    between atoms: C_19  and  C_20 
ROOT
ATOM      1  C   UNL d   1      28.118 -16.799   0.134  0.00  0.00     0.345 C 
ATOM      2  N   UNL d   1      28.093 -15.853  -0.991  0.00  0.00    -0.168 NA
ATOM      3  O   UNL d   1      29.470 -15.847  -1.512  0.00  0.00    -0.258 OA
ATOM      4  C   UNL d   1      30.148 -16.935  -0.888  0.00  0.00     0.471 C 
ATOM      5  N   UNL d   1      29.137 -17.769  -0.240  0.00  0.00     0.145 N 
ATOM      6  H   UNL d   1      28.008 -14.904  -0.625  0.00  0.00     0.156 HD
ATOM      7  H   UNL d   1      29.517 -18.195   0.603  0.00  0.00     0.322 HD
ENDROOT
BRANCH   4   8
ATOM      8  C   UNL d   1      31.143 -16.333   0.147  0.00  0.00     0.279 C 
ATOM      9  O   UNL d   1      31.679 -17.003   1.034  0.00  0.00    -0.268 OA
ATOM     10  N   UNL d   1      31.420 -14.979   0.032  0.00  0.00    -0.357 N 
ATOM     11  H   UNL d   1      30.972 -14.433  -0.699  0.00  0.00     0.162 HD
BRANCH  10  12
ATOM     12  C   UNL d   1      32.289 -14.365   1.016  0.00  0.00     0.127 C 
BRANCH  12  13
ATOM     13  C   UNL d   1      31.585 -13.304   1.831  0.00  0.00     0.056 C 
BRANCH  13  14
ATOM     14  C   UNL d   1      30.111 -13.469   2.022  0.00  0.00    -0.048 A 
ATOM     15  C   UNL d   1      29.627 -13.770   3.226  0.00  0.00    -0.003 A 
ATOM     16  C   UNL d   1      30.290 -13.989   4.461  0.00  0.00     0.056 A 
ATOM     17  C   UNL d   1      28.176 -13.925   3.068  0.00  0.00     0.039 A 
ATOM     18  C   UNL d   1      29.569 -14.455   5.480  0.00  0.00     0.117 A 
ATOM     19  F   UNL d   1      30.191 -14.824   6.614  0.00  0.00    -0.206 F 
ATOM     20  C   UNL d   1      28.127 -14.600   5.391  0.00  0.00     0.044 A 
ATOM     21  C   UNL d   1      27.418 -14.354   4.266  0.00  0.00     0.033 A 
ATOM     22  N   UNL d   1      27.805 -13.663   1.872  0.00  0.00    -0.385 N 
ATOM     23  C   UNL d   1      28.999 -13.375   1.011  0.00  0.00     0.155 A 
ATOM     24  H   UNL d   1      26.826 -13.657   1.587  0.00  0.00     0.160 HD
ENDBRANCH  13  14
ENDBRANCH  12  13
ENDBRANCH  10  12
ENDBRANCH   4   8
BRANCH   1  25
ATOM     25  C   UNL d   1      26.716 -17.407   0.398  0.00  0.00     0.229 C 
BRANCH  25  26
ATOM     26  O   UNL d   1      25.663 -16.562  -0.107  0.00  0.00    -0.348 OA
BRANCH  26  27
ATOM     27  C   UNL d   1      24.449 -17.171  -0.335  0.00  0.00     0.069 A 
ATOM     28  C   UNL d   1      24.434 -18.567  -0.244  0.00  0.00     0.038 A 
ATOM     29  C   UNL d   1      23.263 -19.296  -0.522  0.00  0.00     0.020 A 
ATOM     30  C   UNL d   1      22.068 -18.628  -0.824  0.00  0.00     0.039 A 
ATOM     31  C   UNL d   1      22.072 -17.233  -0.886  0.00  0.00     0.020 A 
ATOM     32  C   UNL d   1      23.254 -16.512  -0.641  0.00  0.00     0.038 A 
BRANCH  30  33
ATOM     33  C   UNL d   1      20.799 -19.407  -0.912  0.00  0.00     0.292 C 
ATOM     34  O   UNL d   1      20.286 -19.698  -1.974  0.00  0.00    -0.259 OA
BRANCH  33  35
ATOM     35  O   UNL d   1      20.323 -19.730   0.322  0.00  0.00    -0.323 OA
ATOM     36  C   UNL d   1      19.033 -20.364   0.299  0.00  0.00     0.213 C 
ENDBRANCH  33  35
ENDBRANCH  30  33
ENDBRANCH  26  27
ENDBRANCH  25  26
ENDBRANCH   1  25
TORSDOF 9
ENDMDL
MODEL 7
REMARK VINA RESULT:    -8.943      3.778      4.892
REMARK INTER + INTRA:         -14.516
REMARK INTER:                 -11.628
REMARK INTRA:                  -2.888
REMARK CONF_INDEPENDENT:        2.685
REMARK UNBOUND:                -2.888
REMARK  9 active torsions:
REMARK  status: ('A' for Active; 'I' for Inactive)
REMARK    1  A    between atoms: O_2  and  C_3 
REMARK    2  A    between atoms: C_3  and  C_5 
REMARK    3  A    between atoms: C_8  and  O_9 
REMARK    4  A    between atoms: O_9  and  C_10 
REMARK    5  A    between atoms: C_10  and  C_11 
REMARK    6  A    between atoms: C_14  and  C_15 
REMARK       I    between atoms: C_15  and  N_17 
REMARK    7  A    between atoms: N_17  and  C_18 
REMARK    8  A    between atoms: C_18  and  C_19 
REMARK    9  A    between atoms: C_19  and  C_20 
ROOT
ATOM      1  C   UNL d   1      27.907 -16.360  -0.239  0.00  0.00     0.345 C 
ATOM      2  N   UNL d   1      27.881 -16.374  -1.708  0.00  0.00    -0.168 NA
ATOM      3  O   UNL d   1      29.267 -16.667  -2.109  0.00  0.00    -0.258 OA
ATOM      4  C   UNL d   1      29.959 -17.065  -0.928  0.00  0.00     0.471 C 
ATOM      5  N   UNL d   1      28.956 -17.307   0.107  0.00  0.00     0.145 N 
ATOM      6  H   UNL d   1      27.766 -15.418  -2.047  0.00  0.00     0.156 HD
ATOM      7  H   UNL d   1      29.330 -17.070   1.025  0.00  0.00     0.322 HD
ENDROOT
BRANCH   4   8
ATOM      8  C   UNL d   1      30.920 -15.904  -0.535  0.00  0.00     0.279 C 
ATOM      9  O   UNL d   1      31.712 -15.977   0.408  0.00  0.00    -0.268 OA
ATOM     10  N   UNL d   1      30.857 -14.754  -1.307  0.00  0.00    -0.357 N 
ATOM     11  H   UNL d   1      30.199 -14.700  -2.080  0.00  0.00     0.162 HD
BRANCH  10  12
ATOM     12  C   UNL d   1      31.686 -13.625  -0.935  0.00  0.00     0.127 C 
BRANCH  12  13
ATOM     13  C   UNL d   1      31.030 -12.739   0.099  0.00  0.00     0.056 C 
BRANCH  13  14
ATOM     14  C   UNL d   1      30.915 -13.292   1.484  0.00  0.00    -0.048 A 
ATOM     15  C   UNL d   1      29.713 -13.563   1.993  0.00  0.00    -0.003 A 
ATOM     16  C   UNL d   1      28.418 -13.412   1.435  0.00  0.00     0.056 A 
ATOM     17  C   UNL d   1      29.934 -14.022   3.369  0.00  0.00     0.039 A 
ATOM     18  C   UNL d   1      27.370 -13.596   2.238  0.00  0.00     0.117 A 
ATOM     19  F   UNL d   1      26.136 -13.306   1.789  0.00  0.00    -0.206 F 
ATOM     20  C   UNL d   1      27.526 -14.077   3.599  0.00  0.00     0.044 A 
ATOM     21  C   UNL d   1      28.727 -14.301   4.180  0.00  0.00     0.033 A 
ATOM     22  N   UNL d   1      31.183 -14.092   3.643  0.00  0.00    -0.385 N 
ATOM     23  C   UNL d   1      31.996 -13.591   2.488  0.00  0.00     0.155 A 
ATOM     24  H   UNL d   1      31.532 -14.450   4.533  0.00  0.00     0.160 HD
ENDBRANCH  13  14
ENDBRANCH  12  13
ENDBRANCH  10  12
ENDBRANCH   4   8
BRANCH   1  25
ATOM     25  C   UNL d   1      26.515 -16.692   0.359  0.00  0.00     0.229 C 
BRANCH  25  26
ATOM     26  O   UNL d   1      25.447 -16.322  -0.535  0.00  0.00    -0.348 OA
BRANCH  26  27
ATOM     27  C   UNL d   1      24.365 -17.173  -0.578  0.00  0.00     0.069 A 
ATOM     28  C   UNL d   1      23.133 -16.585  -0.888  0.00  0.00     0.038 A 
ATOM     29  C   UNL d   1      21.951 -17.350  -0.895  0.00  0.00     0.020 A 
ATOM     30  C   UNL d   1      22.000 -18.731  -0.661  0.00  0.00     0.039 A 
ATOM     31  C   UNL d   1      23.232 -19.326  -0.381  0.00  0.00     0.020 A 
ATOM     32  C   UNL d   1      24.404 -18.550  -0.342  0.00  0.00     0.038 A 
BRANCH  30  33
ATOM     33  C   UNL d   1      20.771 -19.550  -0.875  0.00  0.00     0.292 C 
ATOM     34  O   UNL d   1      20.269 -19.698  -1.971  0.00  0.00    -0.259 OA
BRANCH  33  35
ATOM     35  O   UNL d   1      20.318 -20.086   0.293  0.00  0.00    -0.323 OA
ATOM     36  C   UNL d   1      18.885 -20.143   0.388  0.00  0.00     0.213 C 
ENDBRANCH  33  35
ENDBRANCH  30  33
ENDBRANCH  26  27
ENDBRANCH  25  26
ENDBRANCH   1  25
TORSDOF 9
ENDMDL
MODEL 8
REMARK VINA RESULT:    -8.557      6.195      7.581
REMARK INTER + INTRA:         -15.328
REMARK INTER:                 -11.242
REMARK INTRA:                  -4.087
REMARK CONF_INDEPENDENT:        2.685
REMARK UNBOUND:                -4.087
REMARK  9 active torsions:
REMARK  status: ('A' for Active; 'I' for Inactive)
REMARK    1  A    between atoms: O_2  and  C_3 
REMARK    2  A    between atoms: C_3  and  C_5 
REMARK    3  A    between atoms: C_8  and  O_9 
REMARK    4  A    between atoms: O_9  and  C_10 
REMARK    5  A    between atoms: C_10  and  C_11 
REMARK    6  A    between atoms: C_14  and  C_15 
REMARK       I    between atoms: C_15  and  N_17 
REMARK    7  A    between atoms: N_17  and  C_18 
REMARK    8  A    between atoms: C_18  and  C_19 
REMARK    9  A    between atoms: C_19  and  C_20 
ROOT
ATOM      1  C   UNL d   1      28.182 -16.795  -0.620  0.00  0.00     0.345 C 
ATOM      2  N   UNL d   1      28.656 -17.109  -1.975  0.00  0.00    -0.168 NA
ATOM      3  O   UNL d   1      30.096 -16.804  -1.954  0.00  0.00    -0.258 OA
ATOM      4  C   UNL d   1      30.450 -16.597  -0.588  0.00  0.00     0.471 C 
ATOM      5  N   UNL d   1      29.332 -17.063   0.230  0.00  0.00     0.145 N 
ATOM      6  H   UNL d   1      28.306 -16.402  -2.622  0.00  0.00     0.156 HD
ATOM      7  H   UNL d   1      29.257 -16.505   1.079  0.00  0.00     0.322 HD
ENDROOT
BRANCH   4   8
ATOM      8  C   UNL d   1      30.703 -15.072  -0.396  0.00  0.00     0.279 C 
ATOM      9  O   UNL d   1      31.034 -14.575   0.682  0.00  0.00    -0.268 OA
ATOM     10  N   UNL d   1      30.543 -14.268  -1.515  0.00  0.00    -0.357 N 
ATOM     11  H   UNL d   1      30.266 -14.684  -2.400  0.00  0.00     0.162 HD
BRANCH  10  12
ATOM     12  C   UNL d   1      30.703 -12.836  -1.366  0.00  0.00     0.127 C 
BRANCH  12  13
ATOM     13  C   UNL d   1      29.381 -12.107  -1.296  0.00  0.00     0.056 C 
BRANCH  13  14
ATOM     14  C   UNL d   1      28.158 -12.948  -1.103  0.00  0.00    -0.048 A 
ATOM     15  C   UNL d   1      27.577 -13.525  -2.154  0.00  0.00    -0.003 A 
ATOM     16  C   UNL d   1      27.913 -13.490  -3.532  0.00  0.00     0.056 A 
ATOM     17  C   UNL d   1      26.385 -14.214  -1.647  0.00  0.00     0.039 A 
ATOM     18  C   UNL d   1      27.046 -14.017  -4.397  0.00  0.00     0.117 A 
ATOM     19  F   UNL d   1      27.255 -13.860  -5.716  0.00  0.00    -0.206 F 
ATOM     20  C   UNL d   1      25.866 -14.736  -3.952  0.00  0.00     0.044 A 
ATOM     21  C   UNL d   1      25.512 -14.862  -2.653  0.00  0.00     0.033 A 
ATOM     22  N   UNL d   1      26.296 -14.121  -0.374  0.00  0.00    -0.385 N 
ATOM     23  C   UNL d   1      27.399 -13.255   0.159  0.00  0.00     0.155 A 
ATOM     24  H   UNL d   1      25.567 -14.589   0.164  0.00  0.00     0.160 HD
ENDBRANCH  13  14
ENDBRANCH  12  13
ENDBRANCH  10  12
ENDBRANCH   4   8
BRANCH   1  25
ATOM     25  C   UNL d   1      26.910 -17.605  -0.259  0.00  0.00     0.229 C 
BRANCH  25  26
ATOM     26  O   UNL d   1      25.783 -16.745  -0.002  0.00  0.00    -0.348 OA
BRANCH  26  27
ATOM     27  C   UNL d   1      24.539 -17.278  -0.253  0.00  0.00     0.069 A 
ATOM     28  C   UNL d   1      24.448 -18.675  -0.206  0.00  0.00     0.038 A 
ATOM     29  C   UNL d   1      23.239 -19.329  -0.510  0.00  0.00     0.020 A 
ATOM     30  C   UNL d   1      22.084 -18.588  -0.795  0.00  0.00     0.039 A 
ATOM     31  C   UNL d   1      22.164 -17.194  -0.813  0.00  0.00     0.020 A 
ATOM     32  C   UNL d   1      23.383 -16.547  -0.542  0.00  0.00     0.038 A 
BRANCH  30  33
ATOM     33  C   UNL d   1      20.775 -19.293  -0.912  0.00  0.00     0.292 C 
ATOM     34  O   UNL d   1      20.347 -19.700  -1.974  0.00  0.00    -0.259 OA
BRANCH  33  35
ATOM     35  O   UNL d   1      20.159 -19.409   0.297  0.00  0.00    -0.323 OA
ATOM     36  C   UNL d   1      19.053 -20.326   0.299  0.00  0.00     0.213 C 
ENDBRANCH  33  35
ENDBRANCH  30  33
ENDBRANCH  26  27
ENDBRANCH  25  26
ENDBRANCH   1  25
TORSDOF 9
ENDMDL
MODEL 9
REMARK VINA RESULT:    -8.299      6.831      8.178
REMARK INTER + INTRA:         -14.448
REMARK INTER:                 -10.984
REMARK INTRA:                  -3.464
REMARK CONF_INDEPENDENT:        2.685
REMARK UNBOUND:                -3.464
REMARK  9 active torsions:
REMARK  status: ('A' for Active; 'I' for Inactive)
REMARK    1  A    between atoms: O_2  and  C_3 
REMARK    2  A    between atoms: C_3  and  C_5 
REMARK    3  A    between atoms: C_8  and  O_9 
REMARK    4  A    between atoms: O_9  and  C_10 
REMARK    5  A    between atoms: C_10  and  C_11 
REMARK    6  A    between atoms: C_14  and  C_15 
REMARK       I    between atoms: C_15  and  N_17 
REMARK    7  A    between atoms: N_17  and  C_18 
REMARK    8  A    between atoms: C_18  and  C_19 
REMARK    9  A    between atoms: C_19  and  C_20 
ROOT
ATOM      1  C   UNL d   1      25.806 -14.775  -2.554  0.00  0.00     0.345 C 
ATOM      2  N   UNL d   1      24.691 -14.044  -3.171  0.00  0.00    -0.168 NA
ATOM      3  O   UNL d   1      24.763 -14.378  -4.603  0.00  0.00    -0.258 OA
ATOM      4  C   UNL d   1      25.694 -15.451  -4.725  0.00  0.00     0.471 C 
ATOM      5  N   UNL d   1      25.952 -15.963  -3.381  0.00  0.00     0.145 N 
ATOM      6  H   UNL d   1      24.911 -13.048  -3.182  0.00  0.00     0.156 HD
ATOM      7  H   UNL d   1      26.910 -16.304  -3.309  0.00  0.00     0.322 HD
ENDROOT
BRANCH   4   8
ATOM      8  C   UNL d   1      26.987 -14.875  -5.377  0.00  0.00     0.279 C 
ATOM      9  O   UNL d   1      27.800 -15.573  -5.986  0.00  0.00    -0.268 OA
ATOM     10  N   UNL d   1      27.194 -13.510  -5.250  0.00  0.00    -0.357 N 
ATOM     11  H   UNL d   1      26.521 -12.942  -4.743  0.00  0.00     0.162 HD
BRANCH  10  12
ATOM     12  C   UNL d   1      28.417 -12.944  -5.783  0.00  0.00     0.127 C 
BRANCH  12  13
ATOM     13  C   UNL d   1      29.467 -12.723  -4.720  0.00  0.00     0.056 C 
BRANCH  13  14
ATOM     14  C   UNL d   1      29.128 -13.174  -3.334  0.00  0.00    -0.048 A 
ATOM     15  C   UNL d   1      29.356 -14.435  -2.971  0.00  0.00    -0.003 A 
ATOM     16  C   UNL d   1      29.895 -15.525  -3.703  0.00  0.00     0.056 A 
ATOM     17  C   UNL d   1      28.863 -14.572  -1.596  0.00  0.00     0.039 A 
ATOM     18  C   UNL d   1      29.845 -16.734  -3.144  0.00  0.00     0.117 A 
ATOM     19  F   UNL d   1      30.199 -17.810  -3.869  0.00  0.00    -0.206 F 
ATOM     20  C   UNL d   1      29.395 -16.925  -1.777  0.00  0.00     0.044 A 
ATOM     21  C   UNL d   1      28.924 -15.925  -0.998  0.00  0.00     0.033 A 
ATOM     22  N   UNL d   1      28.437 -13.455  -1.139  0.00  0.00    -0.385 N 
ATOM     23  C   UNL d   1      28.503 -12.401  -2.204  0.00  0.00     0.155 A 
ATOM     24  H   UNL d   1      28.112 -13.340  -0.179  0.00  0.00     0.160 HD
ENDBRANCH  13  14
ENDBRANCH  12  13
ENDBRANCH  10  12
ENDBRANCH   4   8
BRANCH   1  25
ATOM     25  C   UNL d   1      25.539 -15.062  -1.054  0.00  0.00     0.229 C 
BRANCH  25  26
ATOM     26  O   UNL d   1      25.656 -16.466  -0.749  0.00  0.00    -0.348 OA
BRANCH  26  27
ATOM     27  C   UNL d   1      24.484 -17.188  -0.740  0.00  0.00     0.069 A 
ATOM     28  C   UNL d   1      23.309 -16.456  -0.947  0.00  0.00     0.038 A 
ATOM     29  C   UNL d   1      22.049 -17.082  -0.892  0.00  0.00     0.020 A 
ATOM     30  C   UNL d   1      21.955 -18.467  -0.700  0.00  0.00     0.039 A 
ATOM     31  C   UNL d   1      23.127 -19.206  -0.522  0.00  0.00     0.020 A 
ATOM     32  C   UNL d   1      24.381 -18.568  -0.544  0.00  0.00     0.038 A 
BRANCH  30  33
ATOM     33  C   UNL d   1      20.630 -19.136  -0.849  0.00  0.00     0.292 C 
ATOM     34  O   UNL d   1      20.321 -19.754  -1.849  0.00  0.00    -0.259 OA
BRANCH  33  35
ATOM     35  O   UNL d   1      19.853 -18.959   0.255  0.00  0.00    -0.323 OA
ATOM     36  C   UNL d   1      19.262 -20.172   0.750  0.00  0.00     0.213 C 
ENDBRANCH  33  35
ENDBRANCH  30  33
ENDBRANCH  26  27
ENDBRANCH  25  26
ENDBRANCH   1  25
TORSDOF 9
ENDMDL
