MODEL 1
REMARK VINA RESULT:    -8.175      0.000      0.000
REMARK INTER + INTRA:         -13.887
REMARK INTER:                 -11.754
REMARK INTRA:                  -2.133
REMARK CONF_INDEPENDENT:        3.580
REMARK UNBOUND:                -2.133
REMARK  12 active torsions:
REMARK  status: ('A' for Active; 'I' for Inactive)
REMARK    1  A    between atoms: C_2  and  O_3 
REMARK    2  A    between atoms: O_3  and  C_4 
REMARK    3  A    between atoms: C_4  and  C_5 
REMARK    4  A    between atoms: C_5  and  O_6 
REMARK    5  A    between atoms: O_6  and  C_7 
REMARK    6  A    between atoms: C_10  and  C_11 
REMARK       I    between atoms: C_11  and  N_13 
REMARK    7  A    between atoms: N_13  and  C_14 
REMARK    8  A    between atoms: C_14  and  N_16 
REMARK    9  A    between atoms: N_16  and  N_17 
REMARK       I    between atoms: N_17  and  C_18 
REMARK   10  A    between atoms: C_18  and  C_20 
REMARK   11  A    between atoms: C_20  and  O_21 
REMARK   12  A    between atoms: O_21  and  C_22 
ROOT
ATOM      1  C   UNL d   1      28.110 -16.571  -0.132  0.00  0.00     0.193 C 
ATOM      2  S   UNL d   1      29.153 -16.471  -1.457  0.00  0.00    -0.039 SA
ENDROOT
BRANCH   1   3
ATOM      3  N   UNL d   1      28.214 -15.799   1.054  0.00  0.00    -0.298 N 
ATOM      4  C   UNL d   1      27.404 -14.689   1.417  0.00  0.00     0.257 C 
ATOM      5  O   UNL d   1      26.476 -14.272   0.716  0.00  0.00    -0.267 OA
ATOM      6  H   UNL d   1      28.954 -16.051   1.692  0.00  0.00     0.171 HD
BRANCH   4   7
ATOM      7  C   UNL d   1      27.635 -13.898   2.683  0.00  0.00     0.032 A 
ATOM      8  C   UNL d   1      27.795 -14.617   3.894  0.00  0.00     0.020 A 
ATOM      9  C   UNL d   1      27.882 -13.972   5.137  0.00  0.00     0.038 A 
ATOM     10  C   UNL d   1      27.879 -12.582   5.198  0.00  0.00     0.068 A 
ATOM     11  C   UNL d   1      27.790 -11.859   4.007  0.00  0.00     0.038 A 
ATOM     12  C   UNL d   1      27.661 -12.506   2.759  0.00  0.00     0.020 A 
BRANCH  10  13
ATOM     13  O   UNL d   1      28.074 -12.026   6.434  0.00  0.00    -0.349 OA
BRANCH  13  14
ATOM     14  C   UNL d   1      29.423 -12.029   6.917  0.00  0.00     0.201 C 
BRANCH  14  15
ATOM     15  C   UNL d   1      29.457 -12.681   8.298  0.00  0.00     0.194 C 
BRANCH  15  16
ATOM     16  O   UNL d   1      28.142 -12.708   8.861  0.00  0.00    -0.389 OA
BRANCH  16  17
ATOM     17  C   UNL d   1      28.155 -13.316  10.153  0.00  0.00     0.163 C 
ATOM     18  C   UNL d   1      28.536 -14.776  10.020  0.00  0.00     0.033 C 
ENDBRANCH  16  17
ENDBRANCH  15  16
ENDBRANCH  14  15
ENDBRANCH  13  14
ENDBRANCH  10  13
ENDBRANCH   4   7
ENDBRANCH   1   3
BRANCH   1  19
ATOM     19  N   UNL d   1      27.036 -17.484  -0.174  0.00  0.00    -0.273 N 
ATOM     20  H   UNL d   1      27.105 -18.500  -0.148  0.00  0.00     0.189 HD
BRANCH  19  21
ATOM     21  N   UNL d   1      25.668 -16.972  -0.247  0.00  0.00    -0.266 N 
ATOM     22  C   UNL d   1      24.570 -17.827  -0.216  0.00  0.00     0.260 C 
ATOM     23  O   UNL d   1      24.723 -19.047  -0.145  0.00  0.00    -0.269 OA
ATOM     24  H   UNL d   1      25.590 -15.956  -0.306  0.00  0.00     0.190 HD
BRANCH  22  25
ATOM     25  C   UNL d   1      23.167 -17.137  -0.292  0.00  0.00     0.280 C 
BRANCH  25  26
ATOM     26  O   UNL d   1      22.258 -17.894  -1.108  0.00  0.00    -0.342 OA
BRANCH  26  27
ATOM     27  C   UNL d   1      21.326 -18.680  -0.480  0.00  0.00     0.069 A 
ATOM     28  C   UNL d   1      20.262 -19.141  -1.270  0.00  0.00     0.038 A 
ATOM     29  C   UNL d   1      19.209 -19.876  -0.704  0.00  0.00     0.026 A 
ATOM     30  C   UNL d   1      19.245 -20.195   0.650  0.00  0.00     0.034 A 
ATOM     31 CL   UNL d   1      18.029 -21.206   1.329  0.00  0.00    -0.084 Cl
ATOM     32  C   UNL d   1      20.281 -19.719   1.450  0.00  0.00     0.026 A 
ATOM     33  C   UNL d   1      21.311 -18.950   0.888  0.00  0.00     0.038 A 
ENDBRANCH  26  27
ENDBRANCH  25  26
ENDBRANCH  22  25
ENDBRANCH  19  21
ENDBRANCH   1  19
TORSDOF 12
ENDMDL
MODEL 2
REMARK VINA RESULT:    -8.114      3.585      9.522
REMARK INTER + INTRA:         -13.762
REMARK INTER:                 -11.694
REMARK INTRA:                  -2.068
REMARK CONF_INDEPENDENT:        3.580
REMARK UNBOUND:                -2.068
REMARK  12 active torsions:
REMARK  status: ('A' for Active; 'I' for Inactive)
REMARK    1  A    between atoms: C_2  and  O_3 
REMARK    2  A    between atoms: O_3  and  C_4 
REMARK    3  A    between atoms: C_4  and  C_5 
REMARK    4  A    between atoms: C_5  and  O_6 
REMARK    5  A    between atoms: O_6  and  C_7 
REMARK    6  A    between atoms: C_10  and  C_11 
REMARK       I    between atoms: C_11  and  N_13 
REMARK    7  A    between atoms: N_13  and  C_14 
REMARK    8  A    between atoms: C_14  and  N_16 
REMARK    9  A    between atoms: N_16  and  N_17 
REMARK       I    between atoms: N_17  and  C_18 
REMARK   10  A    between atoms: C_18  and  C_20 
REMARK   11  A    between atoms: C_20  and  O_21 
REMARK   12  A    between atoms: O_21  and  C_22 
ROOT
ATOM      1  C   UNL d   1      30.446 -16.900  -0.191  0.00  0.00     0.193 C 
ATOM      2  S   UNL d   1      31.689 -17.891  -0.762  0.00  0.00    -0.039 SA
ENDROOT
BRANCH   1   3
ATOM      3  N   UNL d   1      29.073 -17.256  -0.135  0.00  0.00    -0.298 N 
ATOM      4  C   UNL d   1      27.997 -16.585  -0.776  0.00  0.00     0.257 C 
ATOM      5  O   UNL d   1      28.151 -15.589  -1.492  0.00  0.00    -0.267 OA
ATOM      6  H   UNL d   1      28.837 -18.052   0.437  0.00  0.00     0.171 HD
BRANCH   4   7
ATOM      7  C   UNL d   1      26.558 -17.013  -0.607  0.00  0.00     0.032 A 
ATOM      8  C   UNL d   1      25.547 -16.135  -1.072  0.00  0.00     0.020 A 
ATOM      9  C   UNL d   1      24.184 -16.383  -0.843  0.00  0.00     0.038 A 
ATOM     10  C   UNL d   1      23.790 -17.551  -0.200  0.00  0.00     0.068 A 
ATOM     11  C   UNL d   1      24.772 -18.458   0.203  0.00  0.00     0.038 A 
ATOM     12  C   UNL d   1      26.146 -18.193   0.011  0.00  0.00     0.020 A 
BRANCH  10  13
ATOM     13  O   UNL d   1      22.442 -17.772  -0.108  0.00  0.00    -0.349 OA
BRANCH  13  14
ATOM     14  C   UNL d   1      21.928 -18.849  -0.901  0.00  0.00     0.201 C 
BRANCH  14  15
ATOM     15  C   UNL d   1      20.403 -18.765  -0.928  0.00  0.00     0.194 C 
BRANCH  15  16
ATOM     16  O   UNL d   1      19.840 -20.076  -1.028  0.00  0.00    -0.389 OA
BRANCH  16  17
ATOM     17  C   UNL d   1      18.934 -20.324   0.047  0.00  0.00     0.163 C 
ATOM     18  C   UNL d   1      19.700 -20.358   1.354  0.00  0.00     0.033 C 
ENDBRANCH  16  17
ENDBRANCH  15  16
ENDBRANCH  14  15
ENDBRANCH  13  14
ENDBRANCH  10  13
ENDBRANCH   4   7
ENDBRANCH   1   3
BRANCH   1  19
ATOM     19  N   UNL d   1      30.760 -15.608   0.277  0.00  0.00    -0.273 N 
ATOM     20  H   UNL d   1      31.633 -15.105   0.123  0.00  0.00     0.189 HD
BRANCH  19  21
ATOM     21  N   UNL d   1      29.765 -14.870   1.054  0.00  0.00    -0.266 N 
ATOM     22  C   UNL d   1      29.465 -13.540   0.772  0.00  0.00     0.260 C 
ATOM     23  O   UNL d   1      30.046 -12.940  -0.134  0.00  0.00    -0.269 OA
ATOM     24  H   UNL d   1      29.310 -15.405   1.794  0.00  0.00     0.190 HD
BRANCH  22  25
ATOM     25  C   UNL d   1      28.372 -12.881   1.678  0.00  0.00     0.280 C 
BRANCH  25  26
ATOM     26  O   UNL d   1      27.822 -13.831   2.607  0.00  0.00    -0.342 OA
BRANCH  26  27
ATOM     27  C   UNL d   1      28.167 -13.717   3.929  0.00  0.00     0.069 A 
ATOM     28  C   UNL d   1      28.859 -14.801   4.491  0.00  0.00     0.038 A 
ATOM     29  C   UNL d   1      29.177 -14.824   5.857  0.00  0.00     0.026 A 
ATOM     30  C   UNL d   1      28.846 -13.735   6.657  0.00  0.00     0.034 A 
ATOM     31 CL   UNL d   1      29.347 -13.691   8.303  0.00  0.00    -0.084 Cl
ATOM     32  C   UNL d   1      28.135 -12.666   6.118  0.00  0.00     0.026 A 
ATOM     33  C   UNL d   1      27.782 -12.665   4.760  0.00  0.00     0.038 A 
ENDBRANCH  26  27
ENDBRANCH  25  26
ENDBRANCH  22  25
ENDBRANCH  19  21
ENDBRANCH   1  19
TORSDOF 12
ENDMDL
MODEL 3
REMARK VINA RESULT:    -7.947      3.859     10.637
REMARK INTER + INTRA:         -13.677
REMARK INTER:                 -11.526
REMARK INTRA:                  -2.151
REMARK CONF_INDEPENDENT:        3.580
REMARK UNBOUND:                -2.151
REMARK  12 active torsions:
REMARK  status: ('A' for Active; 'I' for Inactive)
REMARK    1  A    between atoms: C_2  and  O_3 
REMARK    2  A    between atoms: O_3  and  C_4 
REMARK    3  A    between atoms: C_4  and  C_5 
REMARK    4  A    between atoms: C_5  and  O_6 
REMARK    5  A    between atoms: O_6  and  C_7 
REMARK    6  A    between atoms: C_10  and  C_11 
REMARK       I    between atoms: C_11  and  N_13 
REMARK    7  A    between atoms: N_13  and  C_14 
REMARK    8  A    between atoms: C_14  and  N_16 
REMARK    9  A    between atoms: N_16  and  N_17 
REMARK       I    between atoms: N_17  and  C_18 
REMARK   10  A    between atoms: C_18  and  C_20 
REMARK   11  A    between atoms: C_20  and  O_21 
REMARK   12  A    between atoms: O_21  and  C_22 
ROOT
ATOM      1  C   UNL d   1      29.826 -14.371   2.093  0.00  0.00     0.193 C 
ATOM      2  S   UNL d   1      30.325 -12.926   1.377  0.00  0.00    -0.039 SA
ENDROOT
BRANCH   1   3
ATOM      3  N   UNL d   1      28.773 -15.199   1.623  0.00  0.00    -0.298 N 
ATOM      4  C   UNL d   1      28.381 -15.385   0.270  0.00  0.00     0.257 C 
ATOM      5  O   UNL d   1      28.948 -14.835  -0.680  0.00  0.00    -0.267 OA
ATOM      6  H   UNL d   1      28.236 -15.685   2.325  0.00  0.00     0.171 HD
BRANCH   4   7
ATOM      7  C   UNL d   1      27.205 -16.249  -0.121  0.00  0.00     0.032 A 
ATOM      8  C   UNL d   1      26.418 -15.836  -1.225  0.00  0.00     0.020 A 
ATOM      9  C   UNL d   1      25.233 -16.498  -1.584  0.00  0.00     0.038 A 
ATOM     10  C   UNL d   1      24.837 -17.634  -0.888  0.00  0.00     0.068 A 
ATOM     11  C   UNL d   1      25.638 -18.093   0.160  0.00  0.00     0.038 A 
ATOM     12  C   UNL d   1      26.809 -17.406   0.548  0.00  0.00     0.020 A 
BRANCH  10  13
ATOM     13  O   UNL d   1      23.729 -18.285  -1.363  0.00  0.00    -0.349 OA
BRANCH  13  14
ATOM     14  C   UNL d   1      22.743 -18.640  -0.385  0.00  0.00     0.201 C 
BRANCH  14  15
ATOM     15  C   UNL d   1      21.364 -18.227  -0.895  0.00  0.00     0.194 C 
BRANCH  15  16
ATOM     16  O   UNL d   1      20.705 -19.346  -1.493  0.00  0.00    -0.389 OA
BRANCH  16  17
ATOM     17  C   UNL d   1      19.431 -19.569  -0.887  0.00  0.00     0.163 C 
ATOM     18  C   UNL d   1      19.606 -20.413   0.359  0.00  0.00     0.033 C 
ENDBRANCH  16  17
ENDBRANCH  15  16
ENDBRANCH  14  15
ENDBRANCH  13  14
ENDBRANCH  10  13
ENDBRANCH   4   7
ENDBRANCH   1   3
BRANCH   1  19
ATOM     19  N   UNL d   1      30.487 -14.824   3.253  0.00  0.00    -0.273 N 
ATOM     20  H   UNL d   1      31.246 -15.503   3.291  0.00  0.00     0.189 HD
BRANCH  19  21
ATOM     21  N   UNL d   1      30.092 -14.286   4.554  0.00  0.00    -0.266 N 
ATOM     22  C   UNL d   1      28.764 -14.296   4.972  0.00  0.00     0.260 C 
ATOM     23  O   UNL d   1      27.878 -14.745   4.244  0.00  0.00    -0.269 OA
ATOM     24  H   UNL d   1      30.859 -13.924   5.122  0.00  0.00     0.190 HD
BRANCH  22  25
ATOM     25  C   UNL d   1      28.492 -13.696   6.391  0.00  0.00     0.280 C 
BRANCH  25  26
ATOM     26  O   UNL d   1      29.720 -13.403   7.079  0.00  0.00    -0.342 OA
BRANCH  26  27
ATOM     27  C   UNL d   1      29.973 -14.057   8.258  0.00  0.00     0.069 A 
ATOM     28  C   UNL d   1      31.302 -14.447   8.484  0.00  0.00     0.038 A 
ATOM     29  C   UNL d   1      31.650 -15.201   9.614  0.00  0.00     0.026 A 
ATOM     30  C   UNL d   1      30.672 -15.525  10.551  0.00  0.00     0.034 A 
ATOM     31 CL   UNL d   1      31.108 -16.334  12.006  0.00  0.00    -0.084 Cl
ATOM     32  C   UNL d   1      29.345 -15.169  10.324  0.00  0.00     0.026 A 
ATOM     33  C   UNL d   1      28.994 -14.449   9.171  0.00  0.00     0.038 A 
ENDBRANCH  26  27
ENDBRANCH  25  26
ENDBRANCH  22  25
ENDBRANCH  19  21
ENDBRANCH   1  19
TORSDOF 12
ENDMDL
MODEL 4
REMARK VINA RESULT:    -7.907      3.544      9.728
REMARK INTER + INTRA:         -13.823
REMARK INTER:                 -11.487
REMARK INTRA:                  -2.336
REMARK CONF_INDEPENDENT:        3.580
REMARK UNBOUND:                -2.336
REMARK  12 active torsions:
REMARK  status: ('A' for Active; 'I' for Inactive)
REMARK    1  A    between atoms: C_2  and  O_3 
REMARK    2  A    between atoms: O_3  and  C_4 
REMARK    3  A    between atoms: C_4  and  C_5 
REMARK    4  A    between atoms: C_5  and  O_6 
REMARK    5  A    between atoms: O_6  and  C_7 
REMARK    6  A    between atoms: C_10  and  C_11 
REMARK       I    between atoms: C_11  and  N_13 
REMARK    7  A    between atoms: N_13  and  C_14 
REMARK    8  A    between atoms: C_14  and  N_16 
REMARK    9  A    between atoms: N_16  and  N_17 
REMARK       I    between atoms: N_17  and  C_18 
REMARK   10  A    between atoms: C_18  and  C_20 
REMARK   11  A    between atoms: C_20  and  O_21 
REMARK   12  A    between atoms: O_21  and  C_22 
ROOT
ATOM      1  C   UNL d   1      28.892 -16.771  -1.329  0.00  0.00     0.193 C 
ATOM      2  S   UNL d   1      29.802 -16.227  -2.644  0.00  0.00    -0.039 SA
ENDROOT
BRANCH   1   3
ATOM      3  N   UNL d   1      27.512 -17.100  -1.366  0.00  0.00    -0.298 N 
ATOM      4  C   UNL d   1      26.542 -16.798  -0.373  0.00  0.00     0.257 C 
ATOM      5  O   UNL d   1      26.806 -16.178   0.663  0.00  0.00    -0.267 OA
ATOM      6  H   UNL d   1      27.195 -17.622  -2.169  0.00  0.00     0.171 HD
BRANCH   4   7
ATOM      7  C   UNL d   1      25.103 -17.244  -0.483  0.00  0.00     0.032 A 
ATOM      8  C   UNL d   1      24.142 -16.283  -0.885  0.00  0.00     0.020 A 
ATOM      9  C   UNL d   1      22.766 -16.564  -0.890  0.00  0.00     0.038 A 
ATOM     10  C   UNL d   1      22.318 -17.837  -0.558  0.00  0.00     0.068 A 
ATOM     11  C   UNL d   1      23.259 -18.814  -0.226  0.00  0.00     0.038 A 
ATOM     12  C   UNL d   1      24.640 -18.523  -0.179  0.00  0.00     0.020 A 
BRANCH  10  13
ATOM     13  O   UNL d   1      20.974 -18.064  -0.689  0.00  0.00    -0.349 OA
BRANCH  13  14
ATOM     14  C   UNL d   1      20.604 -19.325  -1.261  0.00  0.00     0.201 C 
BRANCH  14  15
ATOM     15  C   UNL d   1      20.119 -20.254  -0.150  0.00  0.00     0.194 C 
BRANCH  15  16
ATOM     16  O   UNL d   1      18.832 -19.837   0.314  0.00  0.00    -0.389 OA
BRANCH  16  17
ATOM     17  C   UNL d   1      18.623 -20.245   1.666  0.00  0.00     0.163 C 
ATOM     18  C   UNL d   1      19.908 -20.075   2.450  0.00  0.00     0.033 C 
ENDBRANCH  16  17
ENDBRANCH  15  16
ENDBRANCH  14  15
ENDBRANCH  13  14
ENDBRANCH  10  13
ENDBRANCH   4   7
ENDBRANCH   1   3
BRANCH   1  19
ATOM     19  N   UNL d   1      29.523 -16.925  -0.078  0.00  0.00    -0.273 N 
ATOM     20  H   UNL d   1      30.098 -17.712   0.217  0.00  0.00     0.189 HD
BRANCH  19  21
ATOM     21  N   UNL d   1      29.380 -15.870   0.926  0.00  0.00    -0.266 N 
ATOM     22  C   UNL d   1      30.223 -14.763   0.940  0.00  0.00     0.260 C 
ATOM     23  O   UNL d   1      31.129 -14.649   0.114  0.00  0.00    -0.269 OA
ATOM     24  H   UNL d   1      28.617 -16.006   1.590  0.00  0.00     0.190 HD
BRANCH  22  25
ATOM     25  C   UNL d   1      29.947 -13.710   2.065  0.00  0.00     0.280 C 
BRANCH  25  26
ATOM     26  O   UNL d   1      28.715 -13.990   2.751  0.00  0.00    -0.342 OA
BRANCH  26  27
ATOM     27  C   UNL d   1      28.683 -13.839   4.114  0.00  0.00     0.069 A 
ATOM     28  C   UNL d   1      28.109 -12.654   4.599  0.00  0.00     0.038 A 
ATOM     29  C   UNL d   1      28.111 -12.361   5.971  0.00  0.00     0.026 A 
ATOM     30  C   UNL d   1      28.644 -13.281   6.868  0.00  0.00     0.034 A 
ATOM     31 CL   UNL d   1      28.532 -12.996   8.562  0.00  0.00    -0.084 Cl
ATOM     32  C   UNL d   1      29.241 -14.447   6.397  0.00  0.00     0.026 A 
ATOM     33  C   UNL d   1      29.275 -14.718   5.021  0.00  0.00     0.038 A 
ENDBRANCH  26  27
ENDBRANCH  25  26
ENDBRANCH  22  25
ENDBRANCH  19  21
ENDBRANCH   1  19
TORSDOF 12
ENDMDL
MODEL 5
REMARK VINA RESULT:    -7.343      4.601      9.209
REMARK INTER + INTRA:         -13.740
REMARK INTER:                 -10.922
REMARK INTRA:                  -2.818
REMARK CONF_INDEPENDENT:        3.580
REMARK UNBOUND:                -2.818
REMARK  12 active torsions:
REMARK  status: ('A' for Active; 'I' for Inactive)
REMARK    1  A    between atoms: C_2  and  O_3 
REMARK    2  A    between atoms: O_3  and  C_4 
REMARK    3  A    between atoms: C_4  and  C_5 
REMARK    4  A    between atoms: C_5  and  O_6 
REMARK    5  A    between atoms: O_6  and  C_7 
REMARK    6  A    between atoms: C_10  and  C_11 
REMARK       I    between atoms: C_11  and  N_13 
REMARK    7  A    between atoms: N_13  and  C_14 
REMARK    8  A    between atoms: C_14  and  N_16 
REMARK    9  A    between atoms: N_16  and  N_17 
REMARK       I    between atoms: N_17  and  C_18 
REMARK   10  A    between atoms: C_18  and  C_20 
REMARK   11  A    between atoms: C_20  and  O_21 
REMARK   12  A    between atoms: O_21  and  C_22 
ROOT
ATOM      1  C   UNL d   1      28.776 -16.259  -0.120  0.00  0.00     0.193 C 
ATOM      2  S   UNL d   1      29.878 -17.160  -1.029  0.00  0.00    -0.039 SA
ENDROOT
BRANCH   1   3
ATOM      3  N   UNL d   1      27.364 -16.314  -0.253  0.00  0.00    -0.298 N 
ATOM      4  C   UNL d   1      26.540 -17.458  -0.071  0.00  0.00     0.257 C 
ATOM      5  O   UNL d   1      26.983 -18.565   0.251  0.00  0.00    -0.267 OA
ATOM      6  H   UNL d   1      26.904 -15.460  -0.528  0.00  0.00     0.171 HD
BRANCH   4   7
ATOM      7  C   UNL d   1      25.046 -17.423  -0.291  0.00  0.00     0.032 A 
ATOM      8  C   UNL d   1      24.335 -18.646  -0.200  0.00  0.00     0.020 A 
ATOM      9  C   UNL d   1      22.971 -18.739  -0.517  0.00  0.00     0.038 A 
ATOM     10  C   UNL d   1      22.262 -17.596  -0.869  0.00  0.00     0.068 A 
ATOM     11  C   UNL d   1      22.933 -16.372  -0.896  0.00  0.00     0.038 A 
ATOM     12  C   UNL d   1      24.315 -16.282  -0.618  0.00  0.00     0.020 A 
BRANCH  10  13
ATOM     13  O   UNL d   1      20.914 -17.749  -1.059  0.00  0.00    -0.349 OA
BRANCH  13  14
ATOM     14  C   UNL d   1      20.456 -19.092  -1.253  0.00  0.00     0.201 C 
BRANCH  14  15
ATOM     15  C   UNL d   1      19.515 -19.468  -0.111  0.00  0.00     0.194 C 
BRANCH  15  16
ATOM     16  O   UNL d   1      19.237 -20.871  -0.143  0.00  0.00    -0.389 OA
BRANCH  16  17
ATOM     17  C   UNL d   1      18.156 -21.196   0.730  0.00  0.00     0.163 C 
ATOM     18  C   UNL d   1      18.432 -20.628   2.108  0.00  0.00     0.033 C 
ENDBRANCH  16  17
ENDBRANCH  15  16
ENDBRANCH  14  15
ENDBRANCH  13  14
ENDBRANCH  10  13
ENDBRANCH   4   7
ENDBRANCH   1   3
BRANCH   1  19
ATOM     19  N   UNL d   1      29.262 -15.369   0.859  0.00  0.00    -0.273 N 
ATOM     20  H   UNL d   1      29.730 -15.623   1.728  0.00  0.00     0.189 HD
BRANCH  19  21
ATOM     21  N   UNL d   1      29.119 -13.929   0.648  0.00  0.00    -0.266 N 
ATOM     22  C   UNL d   1      27.879 -13.302   0.733  0.00  0.00     0.260 C 
ATOM     23  O   UNL d   1      26.859 -13.951   0.972  0.00  0.00    -0.269 OA
ATOM     24  H   UNL d   1      29.988 -13.433   0.452  0.00  0.00     0.190 HD
BRANCH  22  25
ATOM     25  C   UNL d   1      27.878 -11.756   0.494  0.00  0.00     0.280 C 
BRANCH  25  26
ATOM     26  O   UNL d   1      27.148 -11.412  -0.695  0.00  0.00    -0.342 OA
BRANCH  26  27
ATOM     27  C   UNL d   1      27.137 -12.311  -1.731  0.00  0.00     0.069 A 
ATOM     28  C   UNL d   1      25.907 -12.920  -2.019  0.00  0.00     0.038 A 
ATOM     29  C   UNL d   1      25.808 -13.920  -2.997  0.00  0.00     0.026 A 
ATOM     30  C   UNL d   1      26.936 -14.278  -3.728  0.00  0.00     0.034 A 
ATOM     31 CL   UNL d   1      26.803 -15.407  -5.021  0.00  0.00    -0.084 Cl
ATOM     32  C   UNL d   1      28.169 -13.702  -3.433  0.00  0.00     0.026 A 
ATOM     33  C   UNL d   1      28.272 -12.731  -2.425  0.00  0.00     0.038 A 
ENDBRANCH  26  27
ENDBRANCH  25  26
ENDBRANCH  22  25
ENDBRANCH  19  21
ENDBRANCH   1  19
TORSDOF 12
ENDMDL
MODEL 6
REMARK VINA RESULT:    -7.296      6.019      9.276
REMARK INTER + INTRA:         -14.227
REMARK INTER:                 -10.875
REMARK INTRA:                  -3.352
REMARK CONF_INDEPENDENT:        3.580
REMARK UNBOUND:                -3.352
REMARK  12 active torsions:
REMARK  status: ('A' for Active; 'I' for Inactive)
REMARK    1  A    between atoms: C_2  and  O_3 
REMARK    2  A    between atoms: O_3  and  C_4 
REMARK    3  A    between atoms: C_4  and  C_5 
REMARK    4  A    between atoms: C_5  and  O_6 
REMARK    5  A    between atoms: O_6  and  C_7 
REMARK    6  A    between atoms: C_10  and  C_11 
REMARK       I    between atoms: C_11  and  N_13 
REMARK    7  A    between atoms: N_13  and  C_14 
REMARK    8  A    between atoms: C_14  and  N_16 
REMARK    9  A    between atoms: N_16  and  N_17 
REMARK       I    between atoms: N_17  and  C_18 
REMARK   10  A    between atoms: C_18  and  C_20 
REMARK   11  A    between atoms: C_20  and  O_21 
REMARK   12  A    between atoms: O_21  and  C_22 
ROOT
ATOM      1  C   UNL d   1      29.658 -15.970  -0.926  0.00  0.00     0.193 C 
ATOM      2  S   UNL d   1      30.555 -15.177   0.266  0.00  0.00    -0.039 SA
ENDROOT
BRANCH   1   3
ATOM      3  N   UNL d   1      28.358 -16.510  -0.750  0.00  0.00    -0.298 N 
ATOM      4  C   UNL d   1      27.133 -15.923  -1.167  0.00  0.00     0.257 C 
ATOM      5  O   UNL d   1      27.070 -14.843  -1.765  0.00  0.00    -0.267 OA
ATOM      6  H   UNL d   1      28.298 -17.388  -0.258  0.00  0.00     0.171 HD
BRANCH   4   7
ATOM      7  C   UNL d   1      25.792 -16.556  -0.882  0.00  0.00     0.032 A 
ATOM      8  C   UNL d   1      25.778 -17.787  -0.178  0.00  0.00     0.020 A 
ATOM      9  C   UNL d   1      24.595 -18.517   0.020  0.00  0.00     0.038 A 
ATOM     10  C   UNL d   1      23.381 -18.003  -0.422  0.00  0.00     0.068 A 
ATOM     11  C   UNL d   1      23.371 -16.759  -1.056  0.00  0.00     0.038 A 
ATOM     12  C   UNL d   1      24.563 -16.042  -1.293  0.00  0.00     0.020 A 
BRANCH  10  13
ATOM     13  O   UNL d   1      22.261 -18.721  -0.098  0.00  0.00    -0.349 OA
BRANCH  13  14
ATOM     14  C   UNL d   1      21.334 -18.953  -1.166  0.00  0.00     0.201 C 
BRANCH  14  15
ATOM     15  C   UNL d   1      19.914 -18.948  -0.605  0.00  0.00     0.194 C 
BRANCH  15  16
ATOM     16  O   UNL d   1      19.331 -20.248  -0.729  0.00  0.00    -0.389 OA
BRANCH  16  17
ATOM     17  C   UNL d   1      18.835 -20.706   0.529  0.00  0.00     0.163 C 
ATOM     18  C   UNL d   1      19.652 -20.091   1.647  0.00  0.00     0.033 C 
ENDBRANCH  16  17
ENDBRANCH  15  16
ENDBRANCH  14  15
ENDBRANCH  13  14
ENDBRANCH  10  13
ENDBRANCH   4   7
ENDBRANCH   1   3
BRANCH   1  19
ATOM     19  N   UNL d   1      30.215 -16.124  -2.212  0.00  0.00    -0.273 N 
ATOM     20  H   UNL d   1      31.163 -16.428  -2.428  0.00  0.00     0.189 HD
BRANCH  19  21
ATOM     21  N   UNL d   1      29.386 -15.848  -3.385  0.00  0.00    -0.266 N 
ATOM     22  C   UNL d   1      29.914 -15.883  -4.672  0.00  0.00     0.260 C 
ATOM     23  O   UNL d   1      31.106 -16.131  -4.858  0.00  0.00    -0.269 OA
ATOM     24  H   UNL d   1      28.406 -15.647  -3.183  0.00  0.00     0.190 HD
BRANCH  22  25
ATOM     25  C   UNL d   1      28.907 -15.577  -5.831  0.00  0.00     0.280 C 
BRANCH  25  26
ATOM     26  O   UNL d   1      27.550 -15.579  -5.357  0.00  0.00    -0.342 OA
BRANCH  26  27
ATOM     27  C   UNL d   1      27.007 -14.389  -4.943  0.00  0.00     0.069 A 
ATOM     28  C   UNL d   1      27.907 -13.336  -4.717  0.00  0.00     0.038 A 
ATOM     29  C   UNL d   1      27.465 -12.107  -4.205  0.00  0.00     0.026 A 
ATOM     30  C   UNL d   1      26.108 -11.913  -3.964  0.00  0.00     0.034 A 
ATOM     31 CL   UNL d   1      25.535 -10.369  -3.462  0.00  0.00    -0.084 Cl
ATOM     32  C   UNL d   1      25.209 -12.959  -4.157  0.00  0.00     0.026 A 
ATOM     33  C   UNL d   1      25.661 -14.200  -4.631  0.00  0.00     0.038 A 
ENDBRANCH  26  27
ENDBRANCH  25  26
ENDBRANCH  22  25
ENDBRANCH  19  21
ENDBRANCH   1  19
TORSDOF 12
ENDMDL
MODEL 7
REMARK VINA RESULT:    -7.166      6.846      9.734
REMARK INTER + INTRA:         -13.595
REMARK INTER:                 -10.746
REMARK INTRA:                  -2.850
REMARK CONF_INDEPENDENT:        3.580
REMARK UNBOUND:                -2.850
REMARK  12 active torsions:
REMARK  status: ('A' for Active; 'I' for Inactive)
REMARK    1  A    between atoms: C_2  and  O_3 
REMARK    2  A    between atoms: O_3  and  C_4 
REMARK    3  A    between atoms: C_4  and  C_5 
REMARK    4  A    between atoms: C_5  and  O_6 
REMARK    5  A    between atoms: O_6  and  C_7 
REMARK    6  A    between atoms: C_10  and  C_11 
REMARK       I    between atoms: C_11  and  N_13 
REMARK    7  A    between atoms: N_13  and  C_14 
REMARK    8  A    between atoms: C_14  and  N_16 
REMARK    9  A    between atoms: N_16  and  N_17 
REMARK       I    between atoms: N_17  and  C_18 
REMARK   10  A    between atoms: C_18  and  C_20 
REMARK   11  A    between atoms: C_20  and  O_21 
REMARK   12  A    between atoms: O_21  and  C_22 
ROOT
ATOM      1  C   UNL d   1      26.152 -12.140  -3.711  0.00  0.00     0.193 C 
ATOM      2  S   UNL d   1      26.587 -10.611  -3.142  0.00  0.00    -0.039 SA
ENDROOT
BRANCH   1   3
ATOM      3  N   UNL d   1      25.821 -13.255  -2.898  0.00  0.00    -0.298 N 
ATOM      4  C   UNL d   1      25.337 -14.515  -3.342  0.00  0.00     0.257 C 
ATOM      5  O   UNL d   1      25.161 -14.789  -4.534  0.00  0.00    -0.267 OA
ATOM      6  H   UNL d   1      25.918 -13.130  -1.901  0.00  0.00     0.171 HD
BRANCH   4   7
ATOM      7  C   UNL d   1      24.961 -15.622  -2.386  0.00  0.00     0.032 A 
ATOM      8  C   UNL d   1      23.677 -15.572  -1.788  0.00  0.00     0.020 A 
ATOM      9  C   UNL d   1      23.285 -16.478  -0.790  0.00  0.00     0.038 A 
ATOM     10  C   UNL d   1      24.143 -17.504  -0.409  0.00  0.00     0.068 A 
ATOM     11  C   UNL d   1      25.385 -17.607  -1.039  0.00  0.00     0.038 A 
ATOM     12  C   UNL d   1      25.799 -16.673  -2.014  0.00  0.00     0.020 A 
BRANCH  10  13
ATOM     13  O   UNL d   1      23.650 -18.410   0.491  0.00  0.00    -0.349 OA
BRANCH  13  14
ATOM     14  C   UNL d   1      22.223 -18.474   0.598  0.00  0.00     0.201 C 
BRANCH  14  15
ATOM     15  C   UNL d   1      21.647 -19.007  -0.712  0.00  0.00     0.194 C 
BRANCH  15  16
ATOM     16  O   UNL d   1      20.289 -18.582  -0.861  0.00  0.00    -0.389 OA
BRANCH  16  17
ATOM     17  C   UNL d   1      19.394 -19.686  -0.725  0.00  0.00     0.163 C 
ATOM     18  C   UNL d   1      19.202 -20.002   0.744  0.00  0.00     0.033 C 
ENDBRANCH  16  17
ENDBRANCH  15  16
ENDBRANCH  14  15
ENDBRANCH  13  14
ENDBRANCH  10  13
ENDBRANCH   4   7
ENDBRANCH   1   3
BRANCH   1  19
ATOM     19  N   UNL d   1      26.101 -12.364  -5.102  0.00  0.00    -0.273 N 
ATOM     20  H   UNL d   1      25.489 -11.895  -5.768  0.00  0.00     0.189 HD
BRANCH  19  21
ATOM     21  N   UNL d   1      27.007 -13.345  -5.700  0.00  0.00    -0.266 N 
ATOM     22  C   UNL d   1      28.125 -12.950  -6.429  0.00  0.00     0.260 C 
ATOM     23  O   UNL d   1      28.374 -11.757  -6.607  0.00  0.00    -0.269 OA
ATOM     24  H   UNL d   1      26.761 -14.320  -5.528  0.00  0.00     0.190 HD
BRANCH  22  25
ATOM     25  C   UNL d   1      29.009 -14.109  -7.001  0.00  0.00     0.280 C 
BRANCH  25  26
ATOM     26  O   UNL d   1      28.556 -15.390  -6.534  0.00  0.00    -0.342 OA
BRANCH  26  27
ATOM     27  C   UNL d   1      29.029 -15.844  -5.329  0.00  0.00     0.069 A 
ATOM     28  C   UNL d   1      29.942 -16.908  -5.376  0.00  0.00     0.038 A 
ATOM     29  C   UNL d   1      30.415 -17.505  -4.198  0.00  0.00     0.026 A 
ATOM     30  C   UNL d   1      30.013 -17.002  -2.964  0.00  0.00     0.034 A 
ATOM     31 CL   UNL d   1      30.688 -17.637  -1.514  0.00  0.00    -0.084 Cl
ATOM     32  C   UNL d   1      29.086 -15.965  -2.904  0.00  0.00     0.026 A 
ATOM     33  C   UNL d   1      28.584 -15.397  -4.085  0.00  0.00     0.038 A 
ENDBRANCH  26  27
ENDBRANCH  25  26
ENDBRANCH  22  25
ENDBRANCH  19  21
ENDBRANCH   1  19
TORSDOF 12
ENDMDL
MODEL 8
REMARK VINA RESULT:    -6.510      4.450      9.223
REMARK INTER + INTRA:         -13.512
REMARK INTER:                 -10.089
REMARK INTRA:                  -3.423
REMARK CONF_INDEPENDENT:        3.580
REMARK UNBOUND:                -3.423
REMARK  12 active torsions:
REMARK  status: ('A' for Active; 'I' for Inactive)
REMARK    1  A    between atoms: C_2  and  O_3 
REMARK    2  A    between atoms: O_3  and  C_4 
REMARK    3  A    between atoms: C_4  and  C_5 
REMARK    4  A    between atoms: C_5  and  O_6 
REMARK    5  A    between atoms: O_6  and  C_7 
REMARK    6  A    between atoms: C_10  and  C_11 
REMARK       I    between atoms: C_11  and  N_13 
REMARK    7  A    between atoms: N_13  and  C_14 
REMARK    8  A    between atoms: C_14  and  N_16 
REMARK    9  A    between atoms: N_16  and  N_17 
REMARK       I    between atoms: N_17  and  C_18 
REMARK   10  A    between atoms: C_18  and  C_20 
REMARK   11  A    between atoms: C_20  and  O_21 
REMARK   12  A    between atoms: O_21  and  C_22 
ROOT
ATOM      1  C   UNL d   1      29.025 -14.533   1.173  0.00  0.00     0.193 C 
ATOM      2  S   UNL d   1      30.680 -14.841   1.306  0.00  0.00    -0.039 SA
ENDROOT
BRANCH   1   3
ATOM      3  N   UNL d   1      28.036 -15.492   0.833  0.00  0.00    -0.298 N 
ATOM      4  C   UNL d   1      27.004 -15.341  -0.132  0.00  0.00     0.257 C 
ATOM      5  O   UNL d   1      26.863 -14.321  -0.816  0.00  0.00    -0.267 OA
ATOM      6  H   UNL d   1      28.055 -16.360   1.347  0.00  0.00     0.171 HD
BRANCH   4   7
ATOM      7  C   UNL d   1      25.963 -16.407  -0.381  0.00  0.00     0.032 A 
ATOM      8  C   UNL d   1      24.785 -16.032  -1.075  0.00  0.00     0.020 A 
ATOM      9  C   UNL d   1      23.706 -16.915  -1.239  0.00  0.00     0.038 A 
ATOM     10  C   UNL d   1      23.802 -18.221  -0.770  0.00  0.00     0.068 A 
ATOM     11  C   UNL d   1      24.983 -18.624  -0.144  0.00  0.00     0.038 A 
ATOM     12  C   UNL d   1      26.054 -17.727   0.058  0.00  0.00     0.020 A 
BRANCH  10  13
ATOM     13  O   UNL d   1      22.753 -19.052  -1.061  0.00  0.00    -0.349 OA
BRANCH  13  14
ATOM     14  C   UNL d   1      21.662 -19.033  -0.132  0.00  0.00     0.201 C 
BRANCH  14  15
ATOM     15  C   UNL d   1      20.355 -18.847  -0.900  0.00  0.00     0.194 C 
BRANCH  15  16
ATOM     16  O   UNL d   1      19.566 -20.037  -0.825  0.00  0.00    -0.389 OA
BRANCH  16  17
ATOM     17  C   UNL d   1      19.776 -20.708   0.418  0.00  0.00     0.163 C 
ATOM     18  C   UNL d   1      18.938 -20.048   1.495  0.00  0.00     0.033 C 
ENDBRANCH  16  17
ENDBRANCH  15  16
ENDBRANCH  14  15
ENDBRANCH  13  14
ENDBRANCH  10  13
ENDBRANCH   4   7
ENDBRANCH   1   3
BRANCH   1  19
ATOM     19  N   UNL d   1      28.550 -13.227   1.414  0.00  0.00    -0.273 N 
ATOM     20  H   UNL d   1      28.420 -12.790   2.325  0.00  0.00     0.189 HD
BRANCH  19  21
ATOM     21  N   UNL d   1      28.213 -12.371   0.278  0.00  0.00    -0.266 N 
ATOM     22  C   UNL d   1      27.713 -11.084   0.462  0.00  0.00     0.260 C 
ATOM     23  O   UNL d   1      27.524 -10.637   1.594  0.00  0.00    -0.269 OA
ATOM     24  H   UNL d   1      28.385 -12.783  -0.639  0.00  0.00     0.190 HD
BRANCH  22  25
ATOM     25  C   UNL d   1      27.406 -10.279  -0.845  0.00  0.00     0.280 C 
BRANCH  25  26
ATOM     26  O   UNL d   1      28.085 -10.846  -1.979  0.00  0.00    -0.342 OA
BRANCH  26  27
ATOM     27  C   UNL d   1      27.503 -11.913  -2.614  0.00  0.00     0.069 A 
ATOM     28  C   UNL d   1      28.364 -12.943  -3.022  0.00  0.00     0.038 A 
ATOM     29  C   UNL d   1      27.883 -14.035  -3.760  0.00  0.00     0.026 A 
ATOM     30  C   UNL d   1      26.524 -14.123  -4.049  0.00  0.00     0.034 A 
ATOM     31 CL   UNL d   1      25.900 -15.521  -4.837  0.00  0.00    -0.084 Cl
ATOM     32  C   UNL d   1      25.665 -13.094  -3.674  0.00  0.00     0.026 A 
ATOM     33  C   UNL d   1      26.157 -11.983  -2.972  0.00  0.00     0.038 A 
ENDBRANCH  26  27
ENDBRANCH  25  26
ENDBRANCH  22  25
ENDBRANCH  19  21
ENDBRANCH   1  19
TORSDOF 12
ENDMDL
MODEL 9
REMARK VINA RESULT:    -6.351      5.749      9.122
REMARK INTER + INTRA:         -13.488
REMARK INTER:                  -9.930
REMARK INTRA:                  -3.558
REMARK CONF_INDEPENDENT:        3.580
REMARK UNBOUND:                -3.558
REMARK  12 active torsions:
REMARK  status: ('A' for Active; 'I' for Inactive)
REMARK    1  A    between atoms: C_2  and  O_3 
REMARK    2  A    between atoms: O_3  and  C_4 
REMARK    3  A    between atoms: C_4  and  C_5 
REMARK    4  A    between atoms: C_5  and  O_6 
REMARK    5  A    between atoms: O_6  and  C_7 
REMARK    6  A    between atoms: C_10  and  C_11 
REMARK       I    between atoms: C_11  and  N_13 
REMARK    7  A    between atoms: N_13  and  C_14 
REMARK    8  A    between atoms: C_14  and  N_16 
REMARK    9  A    between atoms: N_16  and  N_17 
REMARK       I    between atoms: N_17  and  C_18 
REMARK   10  A    between atoms: C_18  and  C_20 
REMARK   11  A    between atoms: C_20  and  O_21 
REMARK   12  A    between atoms: O_21  and  C_22 
ROOT
ATOM      1  C   UNL d   1      31.143 -16.097   0.477  0.00  0.00     0.193 C 
ATOM      2  S   UNL d   1      32.212 -17.013   1.408  0.00  0.00    -0.039 SA
ENDROOT
BRANCH   1   3
ATOM      3  N   UNL d   1      29.735 -16.271   0.434  0.00  0.00    -0.298 N 
ATOM      4  C   UNL d   1      28.975 -16.771  -0.658  0.00  0.00     0.257 C 
ATOM      5  O   UNL d   1      29.484 -17.137  -1.723  0.00  0.00    -0.267 OA
ATOM      6  H   UNL d   1      29.221 -15.988   1.255  0.00  0.00     0.171 HD
BRANCH   4   7
ATOM      7  C   UNL d   1      27.468 -16.865  -0.621  0.00  0.00     0.032 A 
ATOM      8  C   UNL d   1      26.889 -17.918   0.132  0.00  0.00     0.020 A 
ATOM      9  C   UNL d   1      25.508 -18.167   0.122  0.00  0.00     0.038 A 
ATOM     10  C   UNL d   1      24.657 -17.328  -0.591  0.00  0.00     0.068 A 
ATOM     11  C   UNL d   1      25.207 -16.247  -1.282  0.00  0.00     0.038 A 
ATOM     12  C   UNL d   1      26.600 -16.017  -1.307  0.00  0.00     0.020 A 
BRANCH  10  13
ATOM     13  O   UNL d   1      23.316 -17.572  -0.467  0.00  0.00    -0.349 OA
BRANCH  13  14
ATOM     14  C   UNL d   1      22.908 -18.936  -0.631  0.00  0.00     0.201 C 
BRANCH  14  15
ATOM     15  C   UNL d   1      21.454 -19.079  -0.186  0.00  0.00     0.194 C 
BRANCH  15  16
ATOM     16  O   UNL d   1      20.644 -19.509  -1.283  0.00  0.00    -0.389 OA
BRANCH  16  17
ATOM     17  C   UNL d   1      19.274 -19.614  -0.893  0.00  0.00     0.163 C 
ATOM     18  C   UNL d   1      19.161 -20.535   0.305  0.00  0.00     0.033 C 
ENDBRANCH  16  17
ENDBRANCH  15  16
ENDBRANCH  14  15
ENDBRANCH  13  14
ENDBRANCH  10  13
ENDBRANCH   4   7
ENDBRANCH   1   3
BRANCH   1  19
ATOM     19  N   UNL d   1      31.654 -15.065  -0.336  0.00  0.00    -0.273 N 
ATOM     20  H   UNL d   1      32.330 -14.354  -0.058  0.00  0.00     0.189 HD
BRANCH  19  21
ATOM     21  N   UNL d   1      31.216 -14.970  -1.728  0.00  0.00    -0.266 N 
ATOM     22  C   UNL d   1      31.681 -13.963  -2.569  0.00  0.00     0.260 C 
ATOM     23  O   UNL d   1      32.466 -13.109  -2.156  0.00  0.00    -0.269 OA
ATOM     24  H   UNL d   1      30.565 -15.697  -2.026  0.00  0.00     0.190 HD
BRANCH  22  25
ATOM     25  C   UNL d   1      31.133 -13.992  -4.035  0.00  0.00     0.280 C 
BRANCH  25  26
ATOM     26  O   UNL d   1      30.145 -15.023  -4.203  0.00  0.00    -0.342 OA
BRANCH  26  27
ATOM     27  C   UNL d   1      28.824 -14.683  -4.058  0.00  0.00     0.069 A 
ATOM     28  C   UNL d   1      27.912 -15.345  -4.893  0.00  0.00     0.038 A 
ATOM     29  C   UNL d   1      26.551 -15.005  -4.888  0.00  0.00     0.026 A 
ATOM     30  C   UNL d   1      26.090 -14.032  -4.007  0.00  0.00     0.034 A 
ATOM     31 CL   UNL d   1      24.405 -13.700  -3.896  0.00  0.00    -0.084 Cl
ATOM     32  C   UNL d   1      26.989 -13.348  -3.193  0.00  0.00     0.026 A 
ATOM     33  C   UNL d   1      28.357 -13.662  -3.230  0.00  0.00     0.038 A 
ENDBRANCH  26  27
ENDBRANCH  25  26
ENDBRANCH  22  25
ENDBRANCH  19  21
ENDBRANCH   1  19
TORSDOF 12
ENDMDL
