MODEL 1
REMARK VINA RESULT:   -31.353      0.000      0.000
REMARK INTER + INTRA:         -34.694
REMARK INTER:                 -33.143
REMARK INTRA:                  -1.551
REMARK CONF_INDEPENDENT:        1.790
REMARK UNBOUND:                -1.551
REMARK  6 active torsions:
REMARK  status: ('A' for Active; 'I' for Inactive)
REMARK    1  A    between atoms: C_4  and  C_2 
REMARK    2  A    between atoms: C_4  and  C_9 
REMARK    3  A    between atoms: C_4  and  N_5 
REMARK       I    between atoms: N_5  and  C_6 
REMARK       I    between atoms: C_6  and  N_7 
REMARK       I    between atoms: C_9  and  N_11 
REMARK    4  A    between atoms: N_11  and  C_12 
REMARK    5  A    between atoms: C_15  and  O_16 
REMARK    6  A    between atoms: O_16  and  C_17 
ROOT
ATOM      1  C   UNL d   1      24.488 -17.437  -0.162  0.00  0.00     0.076 A 
ATOM      2  C   UNL d   1      24.249 -18.814  -0.151  0.00  0.00     0.039 A 
ATOM      3  C   UNL d   1      22.992 -19.308  -0.537  0.00  0.00     0.025 A 
ATOM      4  C   UNL d   1      21.937 -18.429  -0.812  0.00  0.00     0.044 A 
ATOM      5  C   UNL d   1      20.621 -18.926  -1.066  0.00  0.00     0.099 C 
ATOM      6  N   UNL d   1      19.535 -19.324  -1.242  0.00  0.00    -0.191 NA
ATOM      7  C   UNL d   1      22.173 -17.052  -0.795  0.00  0.00     0.025 A 
ATOM      8  C   UNL d   1      23.450 -16.565  -0.507  0.00  0.00     0.039 A 
ENDROOT
BRANCH   1   9
ATOM      9  O   UNL d   1      25.774 -16.978   0.062  0.00  0.00    -0.311 OA
BRANCH   9  10
ATOM     10  C   UNL d   1      26.445 -16.327  -0.956  0.00  0.00     0.076 A 
ATOM     11  C   UNL d   1      25.798 -15.262  -1.604  0.00  0.00     0.039 A 
ATOM     12  C   UNL d   1      26.361 -14.674  -2.756  0.00  0.00     0.032 A 
ATOM     13  C   UNL d   1      27.620 -15.092  -3.188  0.00  0.00     0.035 A 
ATOM     14  C   UNL d   1      28.267 -16.117  -2.509  0.00  0.00     0.032 A 
ATOM     15  C   UNL d   1      27.688 -16.735  -1.423  0.00  0.00     0.039 A 
BRANCH  13  16
ATOM     16  N   UNL d   1      28.310 -14.500  -4.269  0.00  0.00    -0.325 N 
ATOM     17  C   UNL d   1      27.764 -14.585  -5.545  0.00  0.00     0.245 C 
ATOM     18  O   UNL d   1      26.711 -15.199  -5.727  0.00  0.00    -0.271 OA
ATOM     19  H   UNL d   1      29.056 -13.853  -4.056  0.00  0.00     0.169 HD
BRANCH  17  20
ATOM     20  C   UNL d   1      28.428 -13.806  -6.702  0.00  0.00     0.182 C 
BRANCH  20  21
ATOM     21  N   UNL d   1      27.887 -12.415  -6.909  0.00  0.00    -0.330 N 
ATOM     22  C   UNL d   1      26.952 -11.623  -6.335  0.00  0.00     0.314 C 
ATOM     23  N   UNL d   1      25.942 -12.143  -5.633  0.00  0.00    -0.352 N 
ATOM     24  O   UNL d   1      27.010 -10.408  -6.504  0.00  0.00    -0.248 OA
ATOM     25  H   UNL d   1      25.771 -13.143  -5.610  0.00  0.00     0.160 HD
ATOM     26  H   UNL d   1      25.153 -11.556  -5.402  0.00  0.00     0.160 HD
ATOM     27  H   UNL d   1      28.556 -11.788  -7.338  0.00  0.00     0.165 HD
ENDBRANCH  20  21
BRANCH  20  28
ATOM     28  C   UNL d   1      29.992 -13.886  -6.722  0.00  0.00     0.009 C 
ATOM     29  C   UNL d   1      30.658 -12.990  -7.771  0.00  0.00     0.012 C 
ATOM     30  C   UNL d   1      30.490 -15.313  -6.951  0.00  0.00     0.012 C 
ENDBRANCH  20  28
ENDBRANCH  17  20
ENDBRANCH  13  16
ENDBRANCH   9  10
ENDBRANCH   1   9
TORSDOF 6
ENDMDL
MODEL 2
REMARK VINA RESULT:   -31.179      1.629      2.851
REMARK INTER + INTRA:         -34.097
REMARK INTER:                 -32.968
REMARK INTRA:                  -1.128
REMARK CONF_INDEPENDENT:        1.790
REMARK UNBOUND:                -1.128
REMARK  6 active torsions:
REMARK  status: ('A' for Active; 'I' for Inactive)
REMARK    1  A    between atoms: C_4  and  C_2 
REMARK    2  A    between atoms: C_4  and  C_9 
REMARK    3  A    between atoms: C_4  and  N_5 
REMARK       I    between atoms: N_5  and  C_6 
REMARK       I    between atoms: C_6  and  N_7 
REMARK       I    between atoms: C_9  and  N_11 
REMARK    4  A    between atoms: N_11  and  C_12 
REMARK    5  A    between atoms: C_15  and  O_16 
REMARK    6  A    between atoms: O_16  and  C_17 
ROOT
ATOM      1  C   UNL d   1      24.475 -17.424  -0.110  0.00  0.00     0.076 A 
ATOM      2  C   UNL d   1      24.253 -18.802  -0.157  0.00  0.00     0.039 A 
ATOM      3  C   UNL d   1      23.001 -19.295  -0.560  0.00  0.00     0.025 A 
ATOM      4  C   UNL d   1      21.935 -18.419  -0.795  0.00  0.00     0.044 A 
ATOM      5  C   UNL d   1      20.624 -18.921  -1.067  0.00  0.00     0.099 C 
ATOM      6  N   UNL d   1      19.542 -19.325  -1.256  0.00  0.00    -0.191 NA
ATOM      7  C   UNL d   1      22.153 -17.041  -0.720  0.00  0.00     0.025 A 
ATOM      8  C   UNL d   1      23.425 -16.551  -0.416  0.00  0.00     0.039 A 
ENDROOT
BRANCH   1   9
ATOM      9  O   UNL d   1      25.756 -16.958   0.130  0.00  0.00    -0.311 OA
BRANCH   9  10
ATOM     10  C   UNL d   1      26.506 -16.471  -0.925  0.00  0.00     0.076 A 
ATOM     11  C   UNL d   1      27.799 -16.986  -1.114  0.00  0.00     0.039 A 
ATOM     12  C   UNL d   1      28.669 -16.410  -2.063  0.00  0.00     0.032 A 
ATOM     13  C   UNL d   1      28.197 -15.387  -2.888  0.00  0.00     0.035 A 
ATOM     14  C   UNL d   1      26.900 -14.919  -2.716  0.00  0.00     0.032 A 
ATOM     15  C   UNL d   1      26.072 -15.438  -1.746  0.00  0.00     0.039 A 
BRANCH  13  16
ATOM     16  N   UNL d   1      28.956 -14.813  -3.931  0.00  0.00    -0.325 N 
ATOM     17  C   UNL d   1      28.505 -14.938  -5.240  0.00  0.00     0.245 C 
ATOM     18  O   UNL d   1      27.477 -15.572  -5.483  0.00  0.00    -0.271 OA
ATOM     19  H   UNL d   1      29.675 -14.149  -3.681  0.00  0.00     0.169 HD
BRANCH  17  20
ATOM     20  C   UNL d   1      29.241 -14.178  -6.367  0.00  0.00     0.182 C 
BRANCH  20  21
ATOM     21  N   UNL d   1      30.060 -15.054  -7.278  0.00  0.00    -0.330 N 
ATOM     22  C   UNL d   1      31.115 -15.893  -7.156  0.00  0.00     0.314 C 
ATOM     23  N   UNL d   1      31.971 -15.785  -6.138  0.00  0.00    -0.352 N 
ATOM     24  O   UNL d   1      31.312 -16.739  -8.025  0.00  0.00    -0.248 OA
ATOM     25  H   UNL d   1      31.934 -15.000  -5.495  0.00  0.00     0.160 HD
ATOM     26  H   UNL d   1      32.854 -16.273  -6.186  0.00  0.00     0.160 HD
ATOM     27  H   UNL d   1      29.549 -15.368  -8.093  0.00  0.00     0.165 HD
ENDBRANCH  20  21
BRANCH  20  28
ATOM     28  C   UNL d   1      28.357 -13.130  -7.124  0.00  0.00     0.009 C 
ATOM     29  C   UNL d   1      29.140 -12.185  -8.040  0.00  0.00     0.012 C 
ATOM     30  C   UNL d   1      27.540 -12.267  -6.162  0.00  0.00     0.012 C 
ENDBRANCH  20  28
ENDBRANCH  17  20
ENDBRANCH  13  16
ENDBRANCH   9  10
ENDBRANCH   1   9
TORSDOF 6
ENDMDL
MODEL 3
REMARK VINA RESULT:   -30.991      1.023      1.470
REMARK INTER + INTRA:         -34.490
REMARK INTER:                 -32.781
REMARK INTRA:                  -1.709
REMARK CONF_INDEPENDENT:        1.790
REMARK UNBOUND:                -1.709
REMARK  6 active torsions:
REMARK  status: ('A' for Active; 'I' for Inactive)
REMARK    1  A    between atoms: C_4  and  C_2 
REMARK    2  A    between atoms: C_4  and  C_9 
REMARK    3  A    between atoms: C_4  and  N_5 
REMARK       I    between atoms: N_5  and  C_6 
REMARK       I    between atoms: C_6  and  N_7 
REMARK       I    between atoms: C_9  and  N_11 
REMARK    4  A    between atoms: N_11  and  C_12 
REMARK    5  A    between atoms: C_15  and  O_16 
REMARK    6  A    between atoms: O_16  and  C_17 
ROOT
ATOM      1  C   UNL d   1      24.669 -17.195  -0.292  0.00  0.00     0.076 A 
ATOM      2  C   UNL d   1      23.601 -16.362  -0.635  0.00  0.00     0.039 A 
ATOM      3  C   UNL d   1      22.312 -16.902  -0.780  0.00  0.00     0.025 A 
ATOM      4  C   UNL d   1      22.110 -18.285  -0.708  0.00  0.00     0.044 A 
ATOM      5  C   UNL d   1      20.828 -18.850  -0.996  0.00  0.00     0.099 C 
ATOM      6  N   UNL d   1      19.791 -19.322  -1.263  0.00  0.00    -0.191 NA
ATOM      7  C   UNL d   1      23.186 -19.118  -0.392  0.00  0.00     0.025 A 
ATOM      8  C   UNL d   1      24.447 -18.568  -0.150  0.00  0.00     0.039 A 
ENDROOT
BRANCH   1   9
ATOM      9  O   UNL d   1      25.895 -16.625   0.007  0.00  0.00    -0.311 OA
BRANCH   9  10
ATOM     10  C   UNL d   1      26.752 -16.286  -1.023  0.00  0.00     0.076 A 
ATOM     11  C   UNL d   1      26.352 -15.278  -1.915  0.00  0.00     0.039 A 
ATOM     12  C   UNL d   1      27.103 -15.009  -3.078  0.00  0.00     0.032 A 
ATOM     13  C   UNL d   1      28.307 -15.685  -3.283  0.00  0.00     0.035 A 
ATOM     14  C   UNL d   1      28.710 -16.649  -2.367  0.00  0.00     0.032 A 
ATOM     15  C   UNL d   1      27.943 -16.957  -1.265  0.00  0.00     0.039 A 
BRANCH  13  16
ATOM     16  N   UNL d   1      29.178 -15.419  -4.362  0.00  0.00    -0.325 N 
ATOM     17  C   UNL d   1      28.641 -15.224  -5.629  0.00  0.00     0.245 C 
ATOM     18  O   UNL d   1      27.425 -15.318  -5.807  0.00  0.00    -0.271 OA
ATOM     19  H   UNL d   1      30.131 -15.162  -4.148  0.00  0.00     0.169 HD
BRANCH  17  20
ATOM     20  C   UNL d   1      29.568 -14.774  -6.781  0.00  0.00     0.182 C 
BRANCH  20  21
ATOM     21  N   UNL d   1      28.957 -13.764  -7.715  0.00  0.00    -0.330 N 
ATOM     22  C   UNL d   1      28.172 -12.666  -7.608  0.00  0.00     0.314 C 
ATOM     23  N   UNL d   1      27.381 -12.483  -6.549  0.00  0.00    -0.352 N 
ATOM     24  O   UNL d   1      28.155 -11.849  -8.526  0.00  0.00    -0.248 OA
ATOM     25  H   UNL d   1      27.247 -13.212  -5.854  0.00  0.00     0.160 HD
ATOM     26  H   UNL d   1      26.658 -11.779  -6.593  0.00  0.00     0.160 HD
ATOM     27  H   UNL d   1      29.483 -13.646  -8.572  0.00  0.00     0.165 HD
ENDBRANCH  20  21
BRANCH  20  28
ATOM     28  C   UNL d   1      31.028 -14.423  -6.335  0.00  0.00     0.009 C 
ATOM     29  C   UNL d   1      31.657 -13.251  -7.094  0.00  0.00     0.012 C 
ATOM     30  C   UNL d   1      31.972 -15.617  -6.467  0.00  0.00     0.012 C 
ENDBRANCH  20  28
ENDBRANCH  17  20
ENDBRANCH  13  16
ENDBRANCH   9  10
ENDBRANCH   1   9
TORSDOF 6
ENDMDL
MODEL 4
REMARK VINA RESULT:   -30.489      1.811      2.571
REMARK INTER + INTRA:         -34.126
REMARK INTER:                 -32.279
REMARK INTRA:                  -1.848
REMARK CONF_INDEPENDENT:        1.790
REMARK UNBOUND:                -1.848
REMARK  6 active torsions:
REMARK  status: ('A' for Active; 'I' for Inactive)
REMARK    1  A    between atoms: C_4  and  C_2 
REMARK    2  A    between atoms: C_4  and  C_9 
REMARK    3  A    between atoms: C_4  and  N_5 
REMARK       I    between atoms: N_5  and  C_6 
REMARK       I    between atoms: C_6  and  N_7 
REMARK       I    between atoms: C_9  and  N_11 
REMARK    4  A    between atoms: N_11  and  C_12 
REMARK    5  A    between atoms: C_15  and  O_16 
REMARK    6  A    between atoms: O_16  and  C_17 
ROOT
ATOM      1  C   UNL d   1      24.531 -17.185  -0.616  0.00  0.00     0.076 A 
ATOM      2  C   UNL d   1      23.430 -16.355  -0.836  0.00  0.00     0.039 A 
ATOM      3  C   UNL d   1      22.134 -16.898  -0.836  0.00  0.00     0.025 A 
ATOM      4  C   UNL d   1      21.945 -18.282  -0.743  0.00  0.00     0.044 A 
ATOM      5  C   UNL d   1      20.640 -18.850  -0.886  0.00  0.00     0.099 C 
ATOM      6  N   UNL d   1      19.581 -19.325  -1.035  0.00  0.00    -0.191 NA
ATOM      7  C   UNL d   1      23.051 -19.112  -0.552  0.00  0.00     0.025 A 
ATOM      8  C   UNL d   1      24.330 -18.560  -0.452  0.00  0.00     0.039 A 
ENDROOT
BRANCH   1   9
ATOM      9  O   UNL d   1      25.782 -16.613  -0.456  0.00  0.00    -0.311 OA
BRANCH   9  10
ATOM     10  C   UNL d   1      26.236 -15.709  -1.398  0.00  0.00     0.076 A 
ATOM     11  C   UNL d   1      26.694 -14.458  -0.950  0.00  0.00     0.039 A 
ATOM     12  C   UNL d   1      27.007 -13.437  -1.873  0.00  0.00     0.032 A 
ATOM     13  C   UNL d   1      26.959 -13.716  -3.239  0.00  0.00     0.035 A 
ATOM     14  C   UNL d   1      26.546 -14.973  -3.663  0.00  0.00     0.032 A 
ATOM     15  C   UNL d   1      26.177 -15.948  -2.764  0.00  0.00     0.039 A 
BRANCH  13  16
ATOM     16  N   UNL d   1      27.347 -12.795  -4.237  0.00  0.00    -0.325 N 
ATOM     17  C   UNL d   1      26.376 -11.999  -4.835  0.00  0.00     0.245 C 
ATOM     18  O   UNL d   1      25.192 -12.126  -4.519  0.00  0.00    -0.271 OA
ATOM     19  H   UNL d   1      28.331 -12.586  -4.330  0.00  0.00     0.169 HD
BRANCH  17  20
ATOM     20  C   UNL d   1      26.812 -10.881  -5.808  0.00  0.00     0.182 C 
BRANCH  20  21
ATOM     21  N   UNL d   1      26.732  -9.490  -5.235  0.00  0.00    -0.330 N 
ATOM     22  C   UNL d   1      26.069  -8.871  -4.231  0.00  0.00     0.314 C 
ATOM     23  N   UNL d   1      24.928  -9.367  -3.748  0.00  0.00    -0.352 N 
ATOM     24  O   UNL d   1      26.504  -7.810  -3.790  0.00  0.00    -0.248 OA
ATOM     25  H   UNL d   1      24.457 -10.147  -4.195  0.00  0.00     0.160 HD
ATOM     26  H   UNL d   1      24.351  -8.783  -3.158  0.00  0.00     0.160 HD
ATOM     27  H   UNL d   1      27.574  -8.949  -5.386  0.00  0.00     0.165 HD
ENDBRANCH  20  21
BRANCH  20  28
ATOM     28  C   UNL d   1      28.147 -11.174  -6.574  0.00  0.00     0.009 C 
ATOM     29  C   UNL d   1      28.266 -12.603  -7.112  0.00  0.00     0.012 C 
ATOM     30  C   UNL d   1      29.377 -10.903  -5.708  0.00  0.00     0.012 C 
ENDBRANCH  20  28
ENDBRANCH  17  20
ENDBRANCH  13  16
ENDBRANCH   9  10
ENDBRANCH   1   9
TORSDOF 6
ENDMDL
MODEL 5
REMARK VINA RESULT:   -30.204      1.681      2.726
REMARK INTER + INTRA:         -33.535
REMARK INTER:                 -31.994
REMARK INTRA:                  -1.541
REMARK CONF_INDEPENDENT:        1.790
REMARK UNBOUND:                -1.541
REMARK  6 active torsions:
REMARK  status: ('A' for Active; 'I' for Inactive)
REMARK    1  A    between atoms: C_4  and  C_2 
REMARK    2  A    between atoms: C_4  and  C_9 
REMARK    3  A    between atoms: C_4  and  N_5 
REMARK       I    between atoms: N_5  and  C_6 
REMARK       I    between atoms: C_6  and  N_7 
REMARK       I    between atoms: C_9  and  N_11 
REMARK    4  A    between atoms: N_11  and  C_12 
REMARK    5  A    between atoms: C_15  and  O_16 
REMARK    6  A    between atoms: O_16  and  C_17 
ROOT
ATOM      1  C   UNL d   1      24.570 -17.203  -0.439  0.00  0.00     0.076 A 
ATOM      2  C   UNL d   1      24.414 -18.585  -0.565  0.00  0.00     0.039 A 
ATOM      3  C   UNL d   1      23.141 -19.125  -0.811  0.00  0.00     0.025 A 
ATOM      4  C   UNL d   1      22.008 -18.303  -0.808  0.00  0.00     0.044 A 
ATOM      5  C   UNL d   1      20.698 -18.867  -0.916  0.00  0.00     0.099 C 
ATOM      6  N   UNL d   1      19.622 -19.323  -0.970  0.00  0.00    -0.191 NA
ATOM      7  C   UNL d   1      22.165 -16.924  -0.655  0.00  0.00     0.025 A 
ATOM      8  C   UNL d   1      23.442 -16.378  -0.509  0.00  0.00     0.039 A 
ENDROOT
BRANCH   1   9
ATOM      9  O   UNL d   1      25.847 -16.676  -0.361  0.00  0.00    -0.311 OA
BRANCH   9  10
ATOM     10  C   UNL d   1      26.207 -15.647  -1.212  0.00  0.00     0.076 A 
ATOM     11  C   UNL d   1      27.287 -14.828  -0.844  0.00  0.00     0.039 A 
ATOM     12  C   UNL d   1      27.590 -13.665  -1.583  0.00  0.00     0.032 A 
ATOM     13  C   UNL d   1      26.870 -13.391  -2.747  0.00  0.00     0.035 A 
ATOM     14  C   UNL d   1      25.832 -14.236  -3.120  0.00  0.00     0.032 A 
ATOM     15  C   UNL d   1      25.494 -15.336  -2.363  0.00  0.00     0.039 A 
BRANCH  13  16
ATOM     16  N   UNL d   1      27.159 -12.308  -3.607  0.00  0.00    -0.325 N 
ATOM     17  C   UNL d   1      27.412 -12.563  -4.949  0.00  0.00     0.245 C 
ATOM     18  O   UNL d   1      27.418 -13.722  -5.369  0.00  0.00    -0.271 OA
ATOM     19  H   UNL d   1      26.959 -11.375  -3.275  0.00  0.00     0.169 HD
BRANCH  17  20
ATOM     20  C   UNL d   1      27.571 -11.375  -5.926  0.00  0.00     0.182 C 
BRANCH  20  21
ATOM     21  N   UNL d   1      28.773 -11.466  -6.828  0.00  0.00    -0.330 N 
ATOM     22  C   UNL d   1      29.170 -12.231  -7.871  0.00  0.00     0.314 C 
ATOM     23  N   UNL d   1      28.666 -13.452  -8.065  0.00  0.00    -0.352 N 
ATOM     24  O   UNL d   1      30.046 -11.811  -8.624  0.00  0.00    -0.248 OA
ATOM     25  H   UNL d   1      28.066 -13.894  -7.375  0.00  0.00     0.160 HD
ATOM     26  H   UNL d   1      29.127 -14.076  -8.711  0.00  0.00     0.160 HD
ATOM     27  H   UNL d   1      29.262 -10.586  -6.928  0.00  0.00     0.165 HD
ENDBRANCH  20  21
BRANCH  20  28
ATOM     28  C   UNL d   1      26.252 -10.968  -6.667  0.00  0.00     0.009 C 
ATOM     29  C   UNL d   1      26.462 -10.444  -8.091  0.00  0.00     0.012 C 
ATOM     30  C   UNL d   1      25.465  -9.908  -5.897  0.00  0.00     0.012 C 
ENDBRANCH  20  28
ENDBRANCH  17  20
ENDBRANCH  13  16
ENDBRANCH   9  10
ENDBRANCH   1   9
TORSDOF 6
ENDMDL
MODEL 6
REMARK VINA RESULT:   -30.155      1.910      2.499
REMARK INTER + INTRA:         -33.745
REMARK INTER:                 -31.945
REMARK INTRA:                  -1.801
REMARK CONF_INDEPENDENT:        1.790
REMARK UNBOUND:                -1.801
REMARK  6 active torsions:
REMARK  status: ('A' for Active; 'I' for Inactive)
REMARK    1  A    between atoms: C_4  and  C_2 
REMARK    2  A    between atoms: C_4  and  C_9 
REMARK    3  A    between atoms: C_4  and  N_5 
REMARK       I    between atoms: N_5  and  C_6 
REMARK       I    between atoms: C_6  and  N_7 
REMARK       I    between atoms: C_9  and  N_11 
REMARK    4  A    between atoms: N_11  and  C_12 
REMARK    5  A    between atoms: C_15  and  O_16 
REMARK    6  A    between atoms: O_16  and  C_17 
ROOT
ATOM      1  C   UNL d   1      24.510 -17.143  -0.571  0.00  0.00     0.076 A 
ATOM      2  C   UNL d   1      24.347 -18.523  -0.430  0.00  0.00     0.039 A 
ATOM      3  C   UNL d   1      23.081 -19.101  -0.622  0.00  0.00     0.025 A 
ATOM      4  C   UNL d   1      21.956 -18.294  -0.830  0.00  0.00     0.044 A 
ATOM      5  C   UNL d   1      20.647 -18.867  -0.884  0.00  0.00     0.099 C 
ATOM      6  N   UNL d   1      19.571 -19.325  -0.895  0.00  0.00    -0.191 NA
ATOM      7  C   UNL d   1      22.119 -16.911  -0.942  0.00  0.00     0.025 A 
ATOM      8  C   UNL d   1      23.394 -16.348  -0.850  0.00  0.00     0.039 A 
ENDROOT
BRANCH   1   9
ATOM      9  O   UNL d   1      25.788 -16.612  -0.541  0.00  0.00    -0.311 OA
BRANCH   9  10
ATOM     10  C   UNL d   1      26.137 -15.640  -1.460  0.00  0.00     0.076 A 
ATOM     11  C   UNL d   1      26.097 -15.972  -2.824  0.00  0.00     0.039 A 
ATOM     12  C   UNL d   1      26.603 -15.082  -3.794  0.00  0.00     0.032 A 
ATOM     13  C   UNL d   1      27.049 -13.821  -3.395  0.00  0.00     0.035 A 
ATOM     14  C   UNL d   1      27.040 -13.493  -2.045  0.00  0.00     0.032 A 
ATOM     15  C   UNL d   1      26.607 -14.387  -1.091  0.00  0.00     0.039 A 
BRANCH  13  16
ATOM     16  N   UNL d   1      27.481 -12.824  -4.297  0.00  0.00    -0.325 N 
ATOM     17  C   UNL d   1      26.562 -11.891  -4.763  0.00  0.00     0.245 C 
ATOM     18  O   UNL d   1      25.381 -11.961  -4.417  0.00  0.00    -0.271 OA
ATOM     19  H   UNL d   1      28.476 -12.684  -4.405  0.00  0.00     0.169 HD
BRANCH  17  20
ATOM     20  C   UNL d   1      27.059 -10.706  -5.621  0.00  0.00     0.182 C 
BRANCH  20  21
ATOM     21  N   UNL d   1      26.908  -9.357  -4.967  0.00  0.00    -0.330 N 
ATOM     22  C   UNL d   1      26.128  -8.804  -4.010  0.00  0.00     0.314 C 
ATOM     23  N   UNL d   1      24.937  -9.324  -3.703  0.00  0.00    -0.352 N 
ATOM     24  O   UNL d   1      26.504  -7.779  -3.447  0.00  0.00    -0.248 OA
ATOM     25  H   UNL d   1      24.524 -10.069  -4.257  0.00  0.00     0.160 HD
ATOM     26  H   UNL d   1      24.292  -8.779  -3.149  0.00  0.00     0.160 HD
ATOM     27  H   UNL d   1      27.762  -8.814  -4.977  0.00  0.00     0.165 HD
ENDBRANCH  20  21
BRANCH  20  28
ATOM     28  C   UNL d   1      28.457 -10.933  -6.289  0.00  0.00     0.009 C 
ATOM     29  C   UNL d   1      29.175  -9.647  -6.709  0.00  0.00     0.012 C 
ATOM     30  C   UNL d   1      28.365 -11.832  -7.521  0.00  0.00     0.012 C 
ENDBRANCH  20  28
ENDBRANCH  17  20
ENDBRANCH  13  16
ENDBRANCH   9  10
ENDBRANCH   1   9
TORSDOF 6
ENDMDL
MODEL 7
REMARK VINA RESULT:   -30.040      2.615      3.435
REMARK INTER + INTRA:         -33.463
REMARK INTER:                 -31.829
REMARK INTRA:                  -1.633
REMARK CONF_INDEPENDENT:        1.790
REMARK UNBOUND:                -1.633
REMARK  6 active torsions:
REMARK  status: ('A' for Active; 'I' for Inactive)
REMARK    1  A    between atoms: C_4  and  C_2 
REMARK    2  A    between atoms: C_4  and  C_9 
REMARK    3  A    between atoms: C_4  and  N_5 
REMARK       I    between atoms: N_5  and  C_6 
REMARK       I    between atoms: C_6  and  N_7 
REMARK       I    between atoms: C_9  and  N_11 
REMARK    4  A    between atoms: N_11  and  C_12 
REMARK    5  A    between atoms: C_15  and  O_16 
REMARK    6  A    between atoms: O_16  and  C_17 
ROOT
ATOM      1  C   UNL d   1      24.625 -17.274  -0.176  0.00  0.00     0.076 A 
ATOM      2  C   UNL d   1      24.456 -18.657  -0.282  0.00  0.00     0.039 A 
ATOM      3  C   UNL d   1      23.206 -19.182  -0.648  0.00  0.00     0.025 A 
ATOM      4  C   UNL d   1      22.095 -18.341  -0.785  0.00  0.00     0.044 A 
ATOM      5  C   UNL d   1      20.793 -18.885  -1.016  0.00  0.00     0.099 C 
ATOM      6  N   UNL d   1      19.720 -19.325  -1.172  0.00  0.00    -0.191 NA
ATOM      7  C   UNL d   1      22.262 -16.961  -0.651  0.00  0.00     0.025 A 
ATOM      8  C   UNL d   1      23.527 -16.433  -0.385  0.00  0.00     0.039 A 
ENDROOT
BRANCH   1   9
ATOM      9  O   UNL d   1      25.898 -16.767   0.023  0.00  0.00    -0.311 OA
BRANCH   9  10
ATOM     10  C   UNL d   1      26.281 -15.621  -0.650  0.00  0.00     0.076 A 
ATOM     11  C   UNL d   1      25.837 -15.447  -1.971  0.00  0.00     0.039 A 
ATOM     12  C   UNL d   1      26.333 -14.387  -2.760  0.00  0.00     0.032 A 
ATOM     13  C   UNL d   1      27.190 -13.450  -2.182  0.00  0.00     0.035 A 
ATOM     14  C   UNL d   1      27.584 -13.614  -0.859  0.00  0.00     0.032 A 
ATOM     15  C   UNL d   1      27.152 -14.685  -0.109  0.00  0.00     0.039 A 
BRANCH  13  16
ATOM     16  N   UNL d   1      27.661 -12.303  -2.857  0.00  0.00    -0.325 N 
ATOM     17  C   UNL d   1      26.741 -11.398  -3.372  0.00  0.00     0.245 C 
ATOM     18  O   UNL d   1      25.533 -11.618  -3.268  0.00  0.00    -0.271 OA
ATOM     19  H   UNL d   1      28.638 -12.063  -2.755  0.00  0.00     0.169 HD
BRANCH  17  20
ATOM     20  C   UNL d   1      27.246 -10.065  -3.968  0.00  0.00     0.182 C 
BRANCH  20  21
ATOM     21  N   UNL d   1      27.193  -9.995  -5.472  0.00  0.00    -0.330 N 
ATOM     22  C   UNL d   1      26.258 -10.161  -6.436  0.00  0.00     0.314 C 
ATOM     23  N   UNL d   1      25.161 -10.888  -6.218  0.00  0.00    -0.352 N 
ATOM     24  O   UNL d   1      26.449  -9.671  -7.547  0.00  0.00    -0.248 OA
ATOM     25  H   UNL d   1      25.049 -11.439  -5.372  0.00  0.00     0.160 HD
ATOM     26  H   UNL d   1      24.595 -11.170  -7.005  0.00  0.00     0.160 HD
ATOM     27  H   UNL d   1      27.892  -9.378  -5.866  0.00  0.00     0.165 HD
ENDBRANCH  20  21
BRANCH  20  28
ATOM     28  C   UNL d   1      26.691  -8.786  -3.255  0.00  0.00     0.009 C 
ATOM     29  C   UNL d   1      26.268  -9.007  -1.799  0.00  0.00     0.012 C 
ATOM     30  C   UNL d   1      25.496  -8.188  -3.996  0.00  0.00     0.012 C 
ENDBRANCH  20  28
ENDBRANCH  17  20
ENDBRANCH  13  16
ENDBRANCH   9  10
ENDBRANCH   1   9
TORSDOF 6
ENDMDL
MODEL 8
REMARK VINA RESULT:   -29.592      5.815      8.106
REMARK INTER + INTRA:         -32.983
REMARK INTER:                 -31.382
REMARK INTRA:                  -1.601
REMARK CONF_INDEPENDENT:        1.790
REMARK UNBOUND:                -1.601
REMARK  6 active torsions:
REMARK  status: ('A' for Active; 'I' for Inactive)
REMARK    1  A    between atoms: C_4  and  C_2 
REMARK    2  A    between atoms: C_4  and  C_9 
REMARK    3  A    between atoms: C_4  and  N_5 
REMARK       I    between atoms: N_5  and  C_6 
REMARK       I    between atoms: C_6  and  N_7 
REMARK       I    between atoms: C_9  and  N_11 
REMARK    4  A    between atoms: N_11  and  C_12 
REMARK    5  A    between atoms: C_15  and  O_16 
REMARK    6  A    between atoms: O_16  and  C_17 
ROOT
ATOM      1  C   UNL d   1      25.151 -17.328  -0.822  0.00  0.00     0.076 A 
ATOM      2  C   UNL d   1      24.195 -16.347  -1.094  0.00  0.00     0.039 A 
ATOM      3  C   UNL d   1      22.828 -16.660  -1.008  0.00  0.00     0.025 A 
ATOM      4  C   UNL d   1      22.415 -17.977  -0.775  0.00  0.00     0.044 A 
ATOM      5  C   UNL d   1      21.030 -18.327  -0.829  0.00  0.00     0.099 C 
ATOM      6  N   UNL d   1      19.901 -18.627  -0.904  0.00  0.00    -0.191 NA
ATOM      7  C   UNL d   1      23.375 -18.961  -0.531  0.00  0.00     0.025 A 
ATOM      8  C   UNL d   1      24.732 -18.627  -0.519  0.00  0.00     0.039 A 
ENDROOT
BRANCH   1   9
ATOM      9  O   UNL d   1      26.485 -16.963  -0.750  0.00  0.00    -0.311 OA
BRANCH   9  10
ATOM     10  C   UNL d   1      26.844 -15.857  -0.003  0.00  0.00     0.076 A 
ATOM     11  C   UNL d   1      27.633 -16.056   1.141  0.00  0.00     0.039 A 
ATOM     12  C   UNL d   1      27.886 -14.992   2.033  0.00  0.00     0.032 A 
ATOM     13  C   UNL d   1      27.430 -13.712   1.712  0.00  0.00     0.035 A 
ATOM     14  C   UNL d   1      26.688 -13.525   0.553  0.00  0.00     0.032 A 
ATOM     15  C   UNL d   1      26.386 -14.576  -0.284  0.00  0.00     0.039 A 
BRANCH  13  16
ATOM     16  N   UNL d   1      27.715 -12.566   2.487  0.00  0.00    -0.325 N 
ATOM     17  C   UNL d   1      27.610 -12.645   3.871  0.00  0.00     0.245 C 
ATOM     18  O   UNL d   1      27.239 -13.692   4.405  0.00  0.00    -0.271 OA
ATOM     19  H   UNL d   1      28.193 -11.798   2.037  0.00  0.00     0.169 HD
BRANCH  17  20
ATOM     20  C   UNL d   1      28.072 -11.448   4.732  0.00  0.00     0.182 C 
BRANCH  20  21
ATOM     21  N   UNL d   1      27.849 -11.621   6.212  0.00  0.00    -0.330 N 
ATOM     22  C   UNL d   1      28.283 -12.453   7.186  0.00  0.00     0.314 C 
ATOM     23  N   UNL d   1      28.754 -13.668   6.898  0.00  0.00    -0.352 N 
ATOM     24  O   UNL d   1      28.197 -12.099   8.360  0.00  0.00    -0.248 OA
ATOM     25  H   UNL d   1      28.688 -14.055   5.962  0.00  0.00     0.160 HD
ATOM     26  H   UNL d   1      28.867 -14.340   7.645  0.00  0.00     0.160 HD
ATOM     27  H   UNL d   1      27.588 -10.761   6.677  0.00  0.00     0.165 HD
ENDBRANCH  20  21
BRANCH  20  28
ATOM     28  C   UNL d   1      29.494 -10.900   4.367  0.00  0.00     0.009 C 
ATOM     29  C   UNL d   1      30.518 -11.983   4.012  0.00  0.00     0.012 C 
ATOM     30  C   UNL d   1      30.089 -10.054   5.491  0.00  0.00     0.012 C 
ENDBRANCH  20  28
ENDBRANCH  17  20
ENDBRANCH  13  16
ENDBRANCH   9  10
ENDBRANCH   1   9
TORSDOF 6
ENDMDL
MODEL 9
REMARK VINA RESULT:   -29.157      5.078      6.545
REMARK INTER + INTRA:         -32.753
REMARK INTER:                 -30.947
REMARK INTRA:                  -1.806
REMARK CONF_INDEPENDENT:        1.790
REMARK UNBOUND:                -1.806
REMARK  6 active torsions:
REMARK  status: ('A' for Active; 'I' for Inactive)
REMARK    1  A    between atoms: C_4  and  C_2 
REMARK    2  A    between atoms: C_4  and  C_9 
REMARK    3  A    between atoms: C_4  and  N_5 
REMARK       I    between atoms: N_5  and  C_6 
REMARK       I    between atoms: C_6  and  N_7 
REMARK       I    between atoms: C_9  and  N_11 
REMARK    4  A    between atoms: N_11  and  C_12 
REMARK    5  A    between atoms: C_15  and  O_16 
REMARK    6  A    between atoms: O_16  and  C_17 
ROOT
ATOM      1  C   UNL d   1      25.110 -17.625  -0.632  0.00  0.00     0.076 A 
ATOM      2  C   UNL d   1      24.657 -18.913  -0.337  0.00  0.00     0.039 A 
ATOM      3  C   UNL d   1      23.300 -19.233  -0.510  0.00  0.00     0.025 A 
ATOM      4  C   UNL d   1      22.375 -18.241  -0.856  0.00  0.00     0.044 A 
ATOM      5  C   UNL d   1      20.975 -18.530  -0.894  0.00  0.00     0.099 C 
ATOM      6  N   UNL d   1      19.826 -18.751  -0.895  0.00  0.00    -0.191 NA
ATOM      7  C   UNL d   1      22.828 -16.947  -1.124  0.00  0.00     0.025 A 
ATOM      8  C   UNL d   1      24.192 -16.655  -1.047  0.00  0.00     0.039 A 
ENDROOT
BRANCH   1   9
ATOM      9  O   UNL d   1      26.471 -17.372  -0.614  0.00  0.00    -0.311 OA
BRANCH   9  10
ATOM     10  C   UNL d   1      26.925 -16.150  -0.153  0.00  0.00     0.076 A 
ATOM     11  C   UNL d   1      26.918 -15.062  -1.041  0.00  0.00     0.039 A 
ATOM     12  C   UNL d   1      27.525 -13.840  -0.682  0.00  0.00     0.032 A 
ATOM     13  C   UNL d   1      28.041 -13.688   0.605  0.00  0.00     0.035 A 
ATOM     14  C   UNL d   1      28.000 -14.762   1.486  0.00  0.00     0.032 A 
ATOM     15  C   UNL d   1      27.467 -15.975   1.114  0.00  0.00     0.039 A 
BRANCH  13  16
ATOM     16  N   UNL d   1      28.579 -12.476   1.092  0.00  0.00    -0.325 N 
ATOM     17  C   UNL d   1      27.756 -11.611   1.805  0.00  0.00     0.245 C 
ATOM     18  O   UNL d   1      26.567 -11.888   1.974  0.00  0.00    -0.271 OA
ATOM     19  H   UNL d   1      29.584 -12.375   1.101  0.00  0.00     0.169 HD
BRANCH  17  20
ATOM     20  C   UNL d   1      28.374 -10.364   2.476  0.00  0.00     0.182 C 
BRANCH  20  21
ATOM     21  N   UNL d   1      27.632  -9.081   2.210  0.00  0.00    -0.330 N 
ATOM     22  C   UNL d   1      26.421  -8.558   2.514  0.00  0.00     0.314 C 
ATOM     23  N   UNL d   1      25.386  -9.343   2.820  0.00  0.00    -0.352 N 
ATOM     24  O   UNL d   1      26.263  -7.341   2.460  0.00  0.00    -0.248 OA
ATOM     25  H   UNL d   1      25.436 -10.352   2.715  0.00  0.00     0.160 HD
ATOM     26  H   UNL d   1      24.457  -8.947   2.831  0.00  0.00     0.160 HD
ATOM     27  H   UNL d   1      28.246  -8.290   2.062  0.00  0.00     0.165 HD
ENDBRANCH  20  21
BRANCH  20  28
ATOM     28  C   UNL d   1      28.768 -10.568   3.979  0.00  0.00     0.009 C 
ATOM     29  C   UNL d   1      29.623 -11.810   4.246  0.00  0.00     0.012 C 
ATOM     30  C   UNL d   1      27.542 -10.649   4.888  0.00  0.00     0.012 C 
ENDBRANCH  20  28
ENDBRANCH  17  20
ENDBRANCH  13  16
ENDBRANCH   9  10
ENDBRANCH   1   9
TORSDOF 6
ENDMDL
