MODEL 1
REMARK VINA RESULT:   -10.822      0.000      0.000
REMARK INTER + INTRA:         -13.962
REMARK INTER:                 -12.313
REMARK INTRA:                  -1.648
REMARK CONF_INDEPENDENT:        1.492
REMARK UNBOUND:                -1.648
REMARK  5 active torsions:
REMARK  status: ('A' for Active; 'I' for Inactive)
REMARK    1  A    between atoms: C_2  and  O_3 
REMARK    2  A    between atoms: C_2  and  C_12 
REMARK    3  A    between atoms: O_3  and  C_4 
REMARK       I    between atoms: C_12  and  N_14 
REMARK    4  A    between atoms: N_14  and  C_15 
REMARK    5  A    between atoms: N_19  and  C_20 
ROOT
ATOM      1  C   UNL d   1      25.533 -15.898  -1.654  0.00  0.00     0.059 A 
ATOM      2  C   UNL d   1      24.110 -15.815  -1.622  0.00  0.00     0.067 A 
ATOM      3  C   UNL d   1      23.427 -16.912  -1.015  0.00  0.00     0.112 A 
ATOM      4  N   UNL d   1      22.107 -17.187  -0.921  0.00  0.00    -0.147 NA
ATOM      5  N   UNL d   1      22.076 -18.312  -0.153  0.00  0.00    -0.150 N 
ATOM      6  N   UNL d   1      23.274 -18.823   0.219  0.00  0.00    -0.147 NA
ATOM      7  C   UNL d   1      24.156 -18.007  -0.379  0.00  0.00     0.111 A 
ATOM      8  C   UNL d   1      25.558 -18.085  -0.399  0.00  0.00     0.062 A 
ATOM      9  C   UNL d   1      26.216 -17.005  -1.032  0.00  0.00     0.063 A 
ATOM     10 CL   UNL d   1      27.951 -17.013  -0.836  0.00  0.00    -0.082 Cl
ENDROOT
BRANCH   1  11
ATOM     11  N   UNL d   1      26.260 -14.856  -2.342  0.00  0.00    -0.323 N 
ATOM     12  C   UNL d   1      25.815 -14.388  -3.578  0.00  0.00     0.251 C 
ATOM     13  O   UNL d   1      24.781 -14.826  -4.105  0.00  0.00    -0.270 OA
ATOM     14  H   UNL d   1      26.799 -14.198  -1.787  0.00  0.00     0.169 HD
BRANCH  12  15
ATOM     15  C   UNL d   1      26.634 -13.253  -4.276  0.00  0.00     0.217 C 
ATOM     16  C   UNL d   1      25.995 -11.943  -3.793  0.00  0.00     0.050 C 
BRANCH  15  17
ATOM     17  O   UNL d   1      28.018 -13.402  -3.908  0.00  0.00    -0.335 OA
BRANCH  17  18
ATOM     18  C   UNL d   1      28.767 -14.451  -4.390  0.00  0.00     0.091 A 
ATOM     19  C   UNL d   1      29.117 -15.576  -3.635  0.00  0.00     0.040 A 
ATOM     20  C   UNL d   1      29.783 -16.670  -4.194  0.00  0.00     0.026 A 
ATOM     21  C   UNL d   1      30.037 -16.696  -5.554  0.00  0.00     0.035 A 
ATOM     22 CL   UNL d   1      30.764 -18.090  -6.246  0.00  0.00    -0.084 Cl
ATOM     23  C   UNL d   1      29.660 -15.617  -6.350  0.00  0.00     0.050 A 
ATOM     24  C   UNL d   1      29.038 -14.500  -5.768  0.00  0.00     0.069 A 
ATOM     25 CL   UNL d   1      28.592 -13.191  -6.808  0.00  0.00    -0.081 Cl
ENDBRANCH  17  18
ENDBRANCH  15  17
ENDBRANCH  12  15
ENDBRANCH   1  11
BRANCH   5  26
ATOM     26  C   UNL d   1      20.867 -18.968   0.226  0.00  0.00     0.079 A 
ATOM     27  C   UNL d   1      20.654 -19.325   1.568  0.00  0.00     0.033 A 
ATOM     28  C   UNL d   1      19.545 -20.104   1.924  0.00  0.00     0.002 A 
ATOM     29  C   UNL d   1      18.625 -20.496   0.954  0.00  0.00     0.000 A 
ATOM     30  C   UNL d   1      18.790 -20.076  -0.367  0.00  0.00     0.002 A 
ATOM     31  C   UNL d   1      19.920 -19.330  -0.741  0.00  0.00     0.033 A 
ENDBRANCH   5  26
TORSDOF 5
ENDMDL
MODEL 2
REMARK VINA RESULT:   -10.772      1.461      2.285
REMARK INTER + INTRA:         -13.406
REMARK INTER:                 -12.264
REMARK INTRA:                  -1.142
REMARK CONF_INDEPENDENT:        1.492
REMARK UNBOUND:                -1.142
REMARK  5 active torsions:
REMARK  status: ('A' for Active; 'I' for Inactive)
REMARK    1  A    between atoms: C_2  and  O_3 
REMARK    2  A    between atoms: C_2  and  C_12 
REMARK    3  A    between atoms: O_3  and  C_4 
REMARK       I    between atoms: C_12  and  N_14 
REMARK    4  A    between atoms: N_14  and  C_15 
REMARK    5  A    between atoms: N_19  and  C_20 
ROOT
ATOM      1  C   UNL d   1      25.735 -16.208  -1.754  0.00  0.00     0.059 A 
ATOM      2  C   UNL d   1      24.318 -16.167  -1.897  0.00  0.00     0.067 A 
ATOM      3  C   UNL d   1      23.580 -17.149  -1.169  0.00  0.00     0.112 A 
ATOM      4  N   UNL d   1      22.262 -17.443  -1.171  0.00  0.00    -0.147 NA
ATOM      5  N   UNL d   1      22.153 -18.401  -0.208  0.00  0.00    -0.150 N 
ATOM      6  N   UNL d   1      23.306 -18.792   0.386  0.00  0.00    -0.147 NA
ATOM      7  C   UNL d   1      24.242 -18.078  -0.257  0.00  0.00     0.111 A 
ATOM      8  C   UNL d   1      25.638 -18.113  -0.105  0.00  0.00     0.062 A 
ATOM      9  C   UNL d   1      26.353 -17.153  -0.857  0.00  0.00     0.063 A 
ATOM     10 CL   UNL d   1      28.054 -17.067  -0.472  0.00  0.00    -0.082 Cl
ENDROOT
BRANCH   1  11
ATOM     11  N   UNL d   1      26.526 -15.293  -2.544  0.00  0.00    -0.323 N 
ATOM     12  C   UNL d   1      26.365 -15.241  -3.929  0.00  0.00     0.251 C 
ATOM     13  O   UNL d   1      25.530 -15.950  -4.512  0.00  0.00    -0.270 OA
ATOM     14  H   UNL d   1      26.859 -14.440  -2.105  0.00  0.00     0.169 HD
BRANCH  12  15
ATOM     15  C   UNL d   1      27.239 -14.228  -4.737  0.00  0.00     0.217 C 
ATOM     16  C   UNL d   1      28.432 -13.910  -3.823  0.00  0.00     0.050 C 
BRANCH  15  17
ATOM     17  O   UNL d   1      27.605 -14.843  -5.987  0.00  0.00    -0.335 OA
BRANCH  17  18
ATOM     18  C   UNL d   1      28.653 -14.355  -6.734  0.00  0.00     0.091 A 
ATOM     19  C   UNL d   1      28.634 -13.124  -7.400  0.00  0.00     0.040 A 
ATOM     20  C   UNL d   1      29.759 -12.615  -8.054  0.00  0.00     0.026 A 
ATOM     21  C   UNL d   1      30.962 -13.295  -7.980  0.00  0.00     0.035 A 
ATOM     22 CL   UNL d   1      32.361 -12.607  -8.701  0.00  0.00    -0.084 Cl
ATOM     23  C   UNL d   1      31.036 -14.499  -7.284  0.00  0.00     0.050 A 
ATOM     24  C   UNL d   1      29.885 -15.027  -6.674  0.00  0.00     0.069 A 
ATOM     25 CL   UNL d   1      30.039 -16.525  -5.823  0.00  0.00    -0.081 Cl
ENDBRANCH  17  18
ENDBRANCH  15  17
ENDBRANCH  12  15
ENDBRANCH   1  11
BRANCH   5  26
ATOM     26  C   UNL d   1      20.916 -19.012   0.153  0.00  0.00     0.079 A 
ATOM     27  C   UNL d   1      20.655 -19.326   1.498  0.00  0.00     0.033 A 
ATOM     28  C   UNL d   1      19.515 -20.063   1.843  0.00  0.00     0.002 A 
ATOM     29  C   UNL d   1      18.610 -20.454   0.858  0.00  0.00     0.000 A 
ATOM     30  C   UNL d   1      18.824 -20.075  -0.469  0.00  0.00     0.002 A 
ATOM     31  C   UNL d   1      19.986 -19.373  -0.830  0.00  0.00     0.033 A 
ENDBRANCH   5  26
TORSDOF 5
ENDMDL
MODEL 3
REMARK VINA RESULT:   -10.356      2.009      4.158
REMARK INTER + INTRA:         -12.780
REMARK INTER:                 -11.848
REMARK INTRA:                  -0.933
REMARK CONF_INDEPENDENT:        1.492
REMARK UNBOUND:                -0.933
REMARK  5 active torsions:
REMARK  status: ('A' for Active; 'I' for Inactive)
REMARK    1  A    between atoms: C_2  and  O_3 
REMARK    2  A    between atoms: C_2  and  C_12 
REMARK    3  A    between atoms: O_3  and  C_4 
REMARK       I    between atoms: C_12  and  N_14 
REMARK    4  A    between atoms: N_14  and  C_15 
REMARK    5  A    between atoms: N_19  and  C_20 
ROOT
ATOM      1  C   UNL d   1      25.726 -16.029  -1.538  0.00  0.00     0.059 A 
ATOM      2  C   UNL d   1      24.303 -15.980  -1.599  0.00  0.00     0.067 A 
ATOM      3  C   UNL d   1      23.606 -17.066  -0.988  0.00  0.00     0.112 A 
ATOM      4  N   UNL d   1      22.290 -17.369  -0.965  0.00  0.00    -0.147 NA
ATOM      5  N   UNL d   1      22.234 -18.460  -0.151  0.00  0.00    -0.150 N 
ATOM      6  N   UNL d   1      23.417 -18.924   0.318  0.00  0.00    -0.147 NA
ATOM      7  C   UNL d   1      24.317 -18.114  -0.260  0.00  0.00     0.111 A 
ATOM      8  C   UNL d   1      25.719 -18.158  -0.188  0.00  0.00     0.062 A 
ATOM      9  C   UNL d   1      26.392 -17.090  -0.825  0.00  0.00     0.063 A 
ATOM     10 CL   UNL d   1      28.111 -17.047  -0.521  0.00  0.00    -0.082 Cl
ENDROOT
BRANCH   1  11
ATOM     11  N   UNL d   1      26.472 -15.000  -2.224  0.00  0.00    -0.323 N 
ATOM     12  C   UNL d   1      25.992 -14.462  -3.418  0.00  0.00     0.251 C 
ATOM     13  O   UNL d   1      24.911 -14.826  -3.907  0.00  0.00    -0.270 OA
ATOM     14  H   UNL d   1      27.073 -14.392  -1.675  0.00  0.00     0.169 HD
BRANCH  12  15
ATOM     15  C   UNL d   1      26.835 -13.345  -4.117  0.00  0.00     0.217 C 
ATOM     16  C   UNL d   1      27.878 -14.096  -4.957  0.00  0.00     0.050 C 
BRANCH  15  17
ATOM     17  O   UNL d   1      25.941 -12.521  -4.889  0.00  0.00    -0.335 OA
BRANCH  17  18
ATOM     18  C   UNL d   1      25.770 -11.189  -4.587  0.00  0.00     0.091 A 
ATOM     19  C   UNL d   1      25.587 -10.697  -3.289  0.00  0.00     0.040 A 
ATOM     20  C   UNL d   1      25.529  -9.328  -3.014  0.00  0.00     0.026 A 
ATOM     21  C   UNL d   1      25.742  -8.415  -4.031  0.00  0.00     0.035 A 
ATOM     22 CL   UNL d   1      25.770  -6.737  -3.661  0.00  0.00    -0.084 Cl
ATOM     23  C   UNL d   1      25.977  -8.864  -5.328  0.00  0.00     0.050 A 
ATOM     24  C   UNL d   1      25.981 -10.242  -5.603  0.00  0.00     0.069 A 
ATOM     25 CL   UNL d   1      26.279 -10.739  -7.233  0.00  0.00    -0.081 Cl
ENDBRANCH  17  18
ENDBRANCH  15  17
ENDBRANCH  12  15
ENDBRANCH   1  11
BRANCH   5  26
ATOM     26  C   UNL d   1      21.018 -19.129   0.180  0.00  0.00     0.079 A 
ATOM     27  C   UNL d   1      20.138 -19.529  -0.840  0.00  0.00     0.033 A 
ATOM     28  C   UNL d   1      18.875 -20.046  -0.521  0.00  0.00     0.002 A 
ATOM     29  C   UNL d   1      18.501 -20.205   0.812  0.00  0.00     0.000 A 
ATOM     30  C   UNL d   1      19.404 -19.884   1.828  0.00  0.00     0.002 A 
ATOM     31  C   UNL d   1      20.655 -19.326   1.518  0.00  0.00     0.033 A 
ENDBRANCH   5  26
TORSDOF 5
ENDMDL
MODEL 4
REMARK VINA RESULT:   -10.122      1.851      2.692
REMARK INTER + INTRA:         -12.575
REMARK INTER:                 -11.613
REMARK INTRA:                  -0.962
REMARK CONF_INDEPENDENT:        1.492
REMARK UNBOUND:                -0.962
REMARK  5 active torsions:
REMARK  status: ('A' for Active; 'I' for Inactive)
REMARK    1  A    between atoms: C_2  and  O_3 
REMARK    2  A    between atoms: C_2  and  C_12 
REMARK    3  A    between atoms: O_3  and  C_4 
REMARK       I    between atoms: C_12  and  N_14 
REMARK    4  A    between atoms: N_14  and  C_15 
REMARK    5  A    between atoms: N_19  and  C_20 
ROOT
ATOM      1  C   UNL d   1      25.607 -15.986  -1.538  0.00  0.00     0.059 A 
ATOM      2  C   UNL d   1      24.185 -15.901  -1.576  0.00  0.00     0.067 A 
ATOM      3  C   UNL d   1      23.470 -16.980  -0.972  0.00  0.00     0.112 A 
ATOM      4  N   UNL d   1      22.147 -17.249  -0.934  0.00  0.00    -0.147 NA
ATOM      5  N   UNL d   1      22.075 -18.353  -0.138  0.00  0.00    -0.150 N 
ATOM      6  N   UNL d   1      23.253 -18.855   0.304  0.00  0.00    -0.147 NA
ATOM      7  C   UNL d   1      24.164 -18.057  -0.274  0.00  0.00     0.111 A 
ATOM      8  C   UNL d   1      25.566 -18.138  -0.224  0.00  0.00     0.062 A 
ATOM      9  C   UNL d   1      26.256 -17.077  -0.854  0.00  0.00     0.063 A 
ATOM     10 CL   UNL d   1      27.980 -17.083  -0.576  0.00  0.00    -0.082 Cl
ENDROOT
BRANCH   1  11
ATOM     11  N   UNL d   1      26.369 -14.965  -2.218  0.00  0.00    -0.323 N 
ATOM     12  C   UNL d   1      26.080 -14.638  -3.543  0.00  0.00     0.251 C 
ATOM     13  O   UNL d   1      25.156 -15.188  -4.160  0.00  0.00    -0.270 OA
ATOM     14  H   UNL d   1      26.790 -14.227  -1.661  0.00  0.00     0.169 HD
BRANCH  12  15
ATOM     15  C   UNL d   1      26.930 -13.520  -4.230  0.00  0.00     0.217 C 
ATOM     16  C   UNL d   1      28.253 -13.487  -3.452  0.00  0.00     0.050 C 
BRANCH  15  17
ATOM     17  O   UNL d   1      27.076 -13.854  -5.623  0.00  0.00    -0.335 OA
BRANCH  17  18
ATOM     18  C   UNL d   1      27.859 -13.086  -6.455  0.00  0.00     0.091 A 
ATOM     19  C   UNL d   1      28.969 -13.573  -7.155  0.00  0.00     0.040 A 
ATOM     20  C   UNL d   1      29.670 -12.789  -8.076  0.00  0.00     0.026 A 
ATOM     21  C   UNL d   1      29.216 -11.518  -8.379  0.00  0.00     0.035 A 
ATOM     22 CL   UNL d   1      30.026 -10.603  -9.587  0.00  0.00    -0.084 Cl
ATOM     23  C   UNL d   1      28.086 -11.014  -7.740  0.00  0.00     0.050 A 
ATOM     24  C   UNL d   1      27.419 -11.792  -6.778  0.00  0.00     0.069 A 
ATOM     25 CL   UNL d   1      26.021 -11.113  -6.019  0.00  0.00    -0.081 Cl
ENDBRANCH  17  18
ENDBRANCH  15  17
ENDBRANCH  12  15
ENDBRANCH   1  11
BRANCH   5  26
ATOM     26  C   UNL d   1      20.848 -18.996   0.200  0.00  0.00     0.079 A 
ATOM     27  C   UNL d   1      20.589 -19.357   1.533  0.00  0.00     0.033 A 
ATOM     28  C   UNL d   1      19.461 -20.125   1.851  0.00  0.00     0.002 A 
ATOM     29  C   UNL d   1      18.566 -20.501   0.852  0.00  0.00     0.000 A 
ATOM     30  C   UNL d   1      18.778 -20.076  -0.462  0.00  0.00     0.002 A 
ATOM     31  C   UNL d   1      19.927 -19.343  -0.797  0.00  0.00     0.033 A 
ENDBRANCH   5  26
TORSDOF 5
ENDMDL
MODEL 5
REMARK VINA RESULT:    -9.993      4.015      5.890
REMARK INTER + INTRA:         -12.693
REMARK INTER:                 -11.484
REMARK INTRA:                  -1.209
REMARK CONF_INDEPENDENT:        1.492
REMARK UNBOUND:                -1.209
REMARK  5 active torsions:
REMARK  status: ('A' for Active; 'I' for Inactive)
REMARK    1  A    between atoms: C_2  and  O_3 
REMARK    2  A    between atoms: C_2  and  C_12 
REMARK    3  A    between atoms: O_3  and  C_4 
REMARK       I    between atoms: C_12  and  N_14 
REMARK    4  A    between atoms: N_14  and  C_15 
REMARK    5  A    between atoms: N_19  and  C_20 
ROOT
ATOM      1  C   UNL d   1      25.849 -16.901  -0.566  0.00  0.00     0.059 A 
ATOM      2  C   UNL d   1      25.244 -17.984   0.136  0.00  0.00     0.067 A 
ATOM      3  C   UNL d   1      23.829 -18.115  -0.001  0.00  0.00     0.112 A 
ATOM      4  N   UNL d   1      22.957 -18.950   0.604  0.00  0.00    -0.147 NA
ATOM      5  N   UNL d   1      21.773 -18.663  -0.005  0.00  0.00    -0.150 N 
ATOM      6  N   UNL d   1      21.794 -17.669  -0.925  0.00  0.00    -0.147 NA
ATOM      7  C   UNL d   1      23.066 -17.242  -0.889  0.00  0.00     0.111 A 
ATOM      8  C   UNL d   1      23.661 -16.181  -1.591  0.00  0.00     0.062 A 
ATOM      9  C   UNL d   1      25.058 -16.049  -1.418  0.00  0.00     0.063 A 
ATOM     10 CL   UNL d   1      25.800 -14.876  -2.478  0.00  0.00    -0.082 Cl
ENDROOT
BRANCH   1  11
ATOM     11  N   UNL d   1      27.264 -16.674  -0.380  0.00  0.00    -0.323 N 
ATOM     12  C   UNL d   1      27.708 -15.601   0.392  0.00  0.00     0.251 C 
ATOM     13  O   UNL d   1      26.913 -14.834   0.957  0.00  0.00    -0.270 OA
ATOM     14  H   UNL d   1      27.890 -17.472  -0.431  0.00  0.00     0.169 HD
BRANCH  12  15
ATOM     15  C   UNL d   1      29.249 -15.405   0.568  0.00  0.00     0.217 C 
ATOM     16  C   UNL d   1      29.833 -15.531  -0.847  0.00  0.00     0.050 C 
BRANCH  15  17
ATOM     17  O   UNL d   1      29.475 -14.124   1.185  0.00  0.00    -0.335 OA
BRANCH  17  18
ATOM     18  C   UNL d   1      29.354 -13.965   2.547  0.00  0.00     0.091 A 
ATOM     19  C   UNL d   1      28.188 -13.529   3.185  0.00  0.00     0.040 A 
ATOM     20  C   UNL d   1      28.071 -13.489   4.577  0.00  0.00     0.026 A 
ATOM     21  C   UNL d   1      29.101 -13.970   5.365  0.00  0.00     0.035 A 
ATOM     22 CL   UNL d   1      28.905 -14.010   7.071  0.00  0.00    -0.084 Cl
ATOM     23  C   UNL d   1      30.261 -14.460   4.768  0.00  0.00     0.050 A 
ATOM     24  C   UNL d   1      30.387 -14.447   3.368  0.00  0.00     0.069 A 
ATOM     25 CL   UNL d   1      31.850 -15.069   2.685  0.00  0.00    -0.081 Cl
ENDBRANCH  17  18
ENDBRANCH  15  17
ENDBRANCH  12  15
ENDBRANCH   1  11
BRANCH   5  26
ATOM     26  C   UNL d   1      20.549 -19.323   0.310  0.00  0.00     0.079 A 
ATOM     27  C   UNL d   1      20.261 -19.669   1.642  0.00  0.00     0.033 A 
ATOM     28  C   UNL d   1      19.139 -20.451   1.942  0.00  0.00     0.002 A 
ATOM     29  C   UNL d   1      18.277 -20.857   0.925  0.00  0.00     0.000 A 
ATOM     30  C   UNL d   1      18.515 -20.448  -0.388  0.00  0.00     0.002 A 
ATOM     31  C   UNL d   1      19.660 -19.700  -0.705  0.00  0.00     0.033 A 
ENDBRANCH   5  26
TORSDOF 5
ENDMDL
MODEL 6
REMARK VINA RESULT:    -9.404      3.648      5.595
REMARK INTER + INTRA:         -12.673
REMARK INTER:                 -10.895
REMARK INTRA:                  -1.778
REMARK CONF_INDEPENDENT:        1.492
REMARK UNBOUND:                -1.778
REMARK  5 active torsions:
REMARK  status: ('A' for Active; 'I' for Inactive)
REMARK    1  A    between atoms: C_2  and  O_3 
REMARK    2  A    between atoms: C_2  and  C_12 
REMARK    3  A    between atoms: O_3  and  C_4 
REMARK       I    between atoms: C_12  and  N_14 
REMARK    4  A    between atoms: N_14  and  C_15 
REMARK    5  A    between atoms: N_19  and  C_20 
ROOT
ATOM      1  C   UNL d   1      25.877 -16.341  -0.494  0.00  0.00     0.059 A 
ATOM      2  C   UNL d   1      25.358 -17.461   0.218  0.00  0.00     0.067 A 
ATOM      3  C   UNL d   1      23.973 -17.749   0.021  0.00  0.00     0.112 A 
ATOM      4  N   UNL d   1      23.167 -18.655   0.617  0.00  0.00    -0.147 NA
ATOM      5  N   UNL d   1      21.991 -18.518  -0.057  0.00  0.00    -0.150 N 
ATOM      6  N   UNL d   1      21.950 -17.556  -1.011  0.00  0.00    -0.147 NA
ATOM      7  C   UNL d   1      23.166 -16.993  -0.933  0.00  0.00     0.111 A 
ATOM      8  C   UNL d   1      23.678 -15.896  -1.645  0.00  0.00     0.062 A 
ATOM      9  C   UNL d   1      25.042 -15.607  -1.413  0.00  0.00     0.063 A 
ATOM     10 CL   UNL d   1      25.706 -14.395  -2.480  0.00  0.00    -0.082 Cl
ENDROOT
BRANCH   1  11
ATOM     11  N   UNL d   1      27.248 -15.956  -0.253  0.00  0.00    -0.323 N 
ATOM     12  C   UNL d   1      28.257 -16.919  -0.247  0.00  0.00     0.251 C 
ATOM     13  O   UNL d   1      28.015 -18.115  -0.472  0.00  0.00    -0.270 OA
ATOM     14  H   UNL d   1      27.536 -15.015  -0.504  0.00  0.00     0.169 HD
BRANCH  12  15
ATOM     15  C   UNL d   1      29.726 -16.449   0.012  0.00  0.00     0.217 C 
ATOM     16  C   UNL d   1      30.492 -16.806  -1.271  0.00  0.00     0.050 C 
BRANCH  15  17
ATOM     17  O   UNL d   1      29.704 -15.040   0.310  0.00  0.00    -0.335 OA
BRANCH  17  18
ATOM     18  C   UNL d   1      29.389 -14.591   1.572  0.00  0.00     0.091 A 
ATOM     19  C   UNL d   1      28.081 -14.446   2.049  0.00  0.00     0.040 A 
ATOM     20  C   UNL d   1      27.807 -14.093   3.373  0.00  0.00     0.026 A 
ATOM     21  C   UNL d   1      28.846 -13.963   4.277  0.00  0.00     0.035 A 
ATOM     22 CL   UNL d   1      28.489 -13.631   5.924  0.00  0.00    -0.084 Cl
ATOM     23  C   UNL d   1      30.160 -14.148   3.854  0.00  0.00     0.050 A 
ATOM     24  C   UNL d   1      30.427 -14.451   2.508  0.00  0.00     0.069 A 
ATOM     25 CL   UNL d   1      32.079 -14.670   2.043  0.00  0.00    -0.081 Cl
ENDBRANCH  17  18
ENDBRANCH  15  17
ENDBRANCH  12  15
ENDBRANCH   1  11
BRANCH   5  26
ATOM     26  C   UNL d   1      20.830 -19.296   0.226  0.00  0.00     0.079 A 
ATOM     27  C   UNL d   1      19.945 -19.639  -0.810  0.00  0.00     0.033 A 
ATOM     28  C   UNL d   1      18.727 -20.269  -0.520  0.00  0.00     0.002 A 
ATOM     29  C   UNL d   1      18.405 -20.597   0.796  0.00  0.00     0.000 A 
ATOM     30  C   UNL d   1      19.317 -20.330   1.819  0.00  0.00     0.002 A 
ATOM     31  C   UNL d   1      20.521 -19.661   1.543  0.00  0.00     0.033 A 
ENDBRANCH   5  26
TORSDOF 5
ENDMDL
MODEL 7
REMARK VINA RESULT:    -9.374      2.243      3.304
REMARK INTER + INTRA:         -12.798
REMARK INTER:                 -10.865
REMARK INTRA:                  -1.932
REMARK CONF_INDEPENDENT:        1.492
REMARK UNBOUND:                -1.932
REMARK  5 active torsions:
REMARK  status: ('A' for Active; 'I' for Inactive)
REMARK    1  A    between atoms: C_2  and  O_3 
REMARK    2  A    between atoms: C_2  and  C_12 
REMARK    3  A    between atoms: O_3  and  C_4 
REMARK       I    between atoms: C_12  and  N_14 
REMARK    4  A    between atoms: N_14  and  C_15 
REMARK    5  A    between atoms: N_19  and  C_20 
ROOT
ATOM      1  C   UNL d   1      25.952 -16.880  -1.116  0.00  0.00     0.059 A 
ATOM      2  C   UNL d   1      25.403 -18.025  -0.467  0.00  0.00     0.067 A 
ATOM      3  C   UNL d   1      23.979 -18.076  -0.374  0.00  0.00     0.112 A 
ATOM      4  N   UNL d   1      23.168 -18.950   0.260  0.00  0.00    -0.147 NA
ATOM      5  N   UNL d   1      21.920 -18.532  -0.093  0.00  0.00    -0.150 N 
ATOM      6  N   UNL d   1      21.853 -17.421  -0.866  0.00  0.00    -0.147 NA
ATOM      7  C   UNL d   1      23.138 -17.057  -0.995  0.00  0.00     0.111 A 
ATOM      8  C   UNL d   1      23.676 -15.934  -1.645  0.00  0.00     0.062 A 
ATOM      9  C   UNL d   1      25.088 -15.886  -1.700  0.00  0.00     0.063 A 
ATOM     10 CL   UNL d   1      25.719 -14.609  -2.711  0.00  0.00    -0.082 Cl
ENDROOT
BRANCH   1  11
ATOM     11  N   UNL d   1      27.390 -16.741  -1.150  0.00  0.00    -0.323 N 
ATOM     12  C   UNL d   1      28.005 -15.656  -0.526  0.00  0.00     0.251 C 
ATOM     13  O   UNL d   1      27.349 -14.803   0.091  0.00  0.00    -0.270 OA
ATOM     14  H   UNL d   1      27.953 -17.582  -1.233  0.00  0.00     0.169 HD
BRANCH  12  15
ATOM     15  C   UNL d   1      29.565 -15.557  -0.585  0.00  0.00     0.217 C 
ATOM     16  C   UNL d   1      29.998 -15.200   0.844  0.00  0.00     0.050 C 
BRANCH  15  17
ATOM     17  O   UNL d   1      30.080 -16.816  -1.058  0.00  0.00    -0.335 OA
BRANCH  17  18
ATOM     18  C   UNL d   1      30.112 -17.105  -2.404  0.00  0.00     0.091 A 
ATOM     19  C   UNL d   1      29.687 -16.224  -3.405  0.00  0.00     0.040 A 
ATOM     20  C   UNL d   1      29.841 -16.513  -4.764  0.00  0.00     0.026 A 
ATOM     21  C   UNL d   1      30.508 -17.662  -5.149  0.00  0.00     0.035 A 
ATOM     22 CL   UNL d   1      30.780 -17.954  -6.820  0.00  0.00    -0.084 Cl
ATOM     23  C   UNL d   1      30.991 -18.541  -4.183  0.00  0.00     0.050 A 
ATOM     24  C   UNL d   1      30.785 -18.266  -2.820  0.00  0.00     0.069 A 
ATOM     25 CL   UNL d   1      31.408 -19.394  -1.666  0.00  0.00    -0.081 Cl
ENDBRANCH  17  18
ENDBRANCH  15  17
ENDBRANCH  12  15
ENDBRANCH   1  11
BRANCH   5  26
ATOM     26  C   UNL d   1      20.725 -19.177   0.341  0.00  0.00     0.079 A 
ATOM     27  C   UNL d   1      20.475 -19.342   1.714  0.00  0.00     0.033 A 
ATOM     28  C   UNL d   1      19.385 -20.108   2.148  0.00  0.00     0.002 A 
ATOM     29  C   UNL d   1      18.517 -20.678   1.218  0.00  0.00     0.000 A 
ATOM     30  C   UNL d   1      18.716 -20.450  -0.145  0.00  0.00     0.002 A 
ATOM     31  C   UNL d   1      19.829 -19.719  -0.590  0.00  0.00     0.033 A 
ENDBRANCH   5  26
TORSDOF 5
ENDMDL
MODEL 8
REMARK VINA RESULT:    -9.257      3.173      4.703
REMARK INTER + INTRA:         -12.535
REMARK INTER:                 -10.748
REMARK INTRA:                  -1.786
REMARK CONF_INDEPENDENT:        1.492
REMARK UNBOUND:                -1.786
REMARK  5 active torsions:
REMARK  status: ('A' for Active; 'I' for Inactive)
REMARK    1  A    between atoms: C_2  and  O_3 
REMARK    2  A    between atoms: C_2  and  C_12 
REMARK    3  A    between atoms: O_3  and  C_4 
REMARK       I    between atoms: C_12  and  N_14 
REMARK    4  A    between atoms: N_14  and  C_15 
REMARK    5  A    between atoms: N_19  and  C_20 
ROOT
ATOM      1  C   UNL d   1      25.653 -16.949  -1.089  0.00  0.00     0.059 A 
ATOM      2  C   UNL d   1      25.118 -18.138  -0.514  0.00  0.00     0.067 A 
ATOM      3  C   UNL d   1      23.698 -18.188  -0.374  0.00  0.00     0.112 A 
ATOM      4  N   UNL d   1      22.902 -19.106   0.217  0.00  0.00    -0.147 NA
ATOM      5  N   UNL d   1      21.646 -18.653  -0.056  0.00  0.00    -0.150 N 
ATOM      6  N   UNL d   1      21.561 -17.483  -0.734  0.00  0.00    -0.147 NA
ATOM      7  C   UNL d   1      22.844 -17.118  -0.881  0.00  0.00     0.111 A 
ATOM      8  C   UNL d   1      23.368 -15.950  -1.458  0.00  0.00     0.062 A 
ATOM      9  C   UNL d   1      24.777 -15.905  -1.561  0.00  0.00     0.063 A 
ATOM     10 CL   UNL d   1      25.383 -14.555  -2.488  0.00  0.00    -0.082 Cl
ENDROOT
BRANCH   1  11
ATOM     11  N   UNL d   1      27.090 -16.816  -1.164  0.00  0.00    -0.323 N 
ATOM     12  C   UNL d   1      27.864 -16.889  -0.006  0.00  0.00     0.251 C 
ATOM     13  O   UNL d   1      27.352 -17.094   1.105  0.00  0.00    -0.270 OA
ATOM     14  H   UNL d   1      27.555 -17.089  -2.025  0.00  0.00     0.169 HD
BRANCH  12  15
ATOM     15  C   UNL d   1      29.415 -16.747  -0.143  0.00  0.00     0.217 C 
ATOM     16  C   UNL d   1      29.782 -17.561  -1.392  0.00  0.00     0.050 C 
BRANCH  15  17
ATOM     17  O   UNL d   1      29.734 -15.346  -0.240  0.00  0.00    -0.335 OA
BRANCH  17  18
ATOM     18  C   UNL d   1      28.917 -14.395   0.328  0.00  0.00     0.091 A 
ATOM     19  C   UNL d   1      28.712 -14.260   1.705  0.00  0.00     0.040 A 
ATOM     20  C   UNL d   1      27.964 -13.211   2.247  0.00  0.00     0.026 A 
ATOM     21  C   UNL d   1      27.475 -12.218   1.417  0.00  0.00     0.035 A 
ATOM     22 CL   UNL d   1      26.645 -10.881   2.106  0.00  0.00    -0.084 Cl
ATOM     23  C   UNL d   1      27.700 -12.288   0.044  0.00  0.00     0.050 A 
ATOM     24  C   UNL d   1      28.409 -13.376  -0.495  0.00  0.00     0.069 A 
ATOM     25 CL   UNL d   1      28.658 -13.408  -2.206  0.00  0.00    -0.081 Cl
ENDBRANCH  17  18
ENDBRANCH  15  17
ENDBRANCH  12  15
ENDBRANCH   1  11
BRANCH   5  26
ATOM     26  C   UNL d   1      20.462 -19.324   0.368  0.00  0.00     0.079 A 
ATOM     27  C   UNL d   1      20.283 -19.642   1.726  0.00  0.00     0.033 A 
ATOM     28  C   UNL d   1      19.201 -20.435   2.130  0.00  0.00     0.002 A 
ATOM     29  C   UNL d   1      18.271 -20.879   1.192  0.00  0.00     0.000 A 
ATOM     30  C   UNL d   1      18.400 -20.499  -0.145  0.00  0.00     0.002 A 
ATOM     31  C   UNL d   1      19.504 -19.740  -0.566  0.00  0.00     0.033 A 
ENDBRANCH   5  26
TORSDOF 5
ENDMDL
MODEL 9
REMARK VINA RESULT:    -9.036      2.183      2.789
REMARK INTER + INTRA:         -12.760
REMARK INTER:                 -10.528
REMARK INTRA:                  -2.232
REMARK CONF_INDEPENDENT:        1.492
REMARK UNBOUND:                -2.232
REMARK  5 active torsions:
REMARK  status: ('A' for Active; 'I' for Inactive)
REMARK    1  A    between atoms: C_2  and  O_3 
REMARK    2  A    between atoms: C_2  and  C_12 
REMARK    3  A    between atoms: O_3  and  C_4 
REMARK       I    between atoms: C_12  and  N_14 
REMARK    4  A    between atoms: N_14  and  C_15 
REMARK    5  A    between atoms: N_19  and  C_20 
ROOT
ATOM      1  C   UNL d   1      25.439 -15.971  -1.400  0.00  0.00     0.059 A 
ATOM      2  C   UNL d   1      24.015 -15.938  -1.383  0.00  0.00     0.067 A 
ATOM      3  C   UNL d   1      23.361 -17.097  -0.867  0.00  0.00     0.112 A 
ATOM      4  N   UNL d   1      22.050 -17.420  -0.812  0.00  0.00    -0.147 NA
ATOM      5  N   UNL d   1      22.047 -18.598  -0.127  0.00  0.00    -0.150 N 
ATOM      6  N   UNL d   1      23.257 -19.095   0.224  0.00  0.00    -0.147 NA
ATOM      7  C   UNL d   1      24.118 -18.210  -0.301  0.00  0.00     0.111 A 
ATOM      8  C   UNL d   1      25.522 -18.241  -0.306  0.00  0.00     0.062 A 
ATOM      9  C   UNL d   1      26.151 -17.098  -0.849  0.00  0.00     0.063 A 
ATOM     10 CL   UNL d   1      27.883 -17.063  -0.629  0.00  0.00    -0.082 Cl
ENDROOT
BRANCH   1  11
ATOM     11  N   UNL d   1      26.140 -14.860  -2.000  0.00  0.00    -0.323 N 
ATOM     12  C   UNL d   1      25.994 -14.590  -3.361  0.00  0.00     0.251 C 
ATOM     13  O   UNL d   1      25.249 -15.271  -4.082  0.00  0.00    -0.270 OA
ATOM     14  H   UNL d   1      26.373 -14.064  -1.414  0.00  0.00     0.169 HD
BRANCH  12  15
ATOM     15  C   UNL d   1      26.768 -13.370  -3.959  0.00  0.00     0.217 C 
ATOM     16  C   UNL d   1      25.681 -12.454  -4.544  0.00  0.00     0.050 C 
BRANCH  15  17
ATOM     17  O   UNL d   1      27.542 -12.765  -2.907  0.00  0.00    -0.335 OA
BRANCH  17  18
ATOM     18  C   UNL d   1      28.541 -13.467  -2.272  0.00  0.00     0.091 A 
ATOM     19  C   UNL d   1      29.552 -14.168  -2.939  0.00  0.00     0.040 A 
ATOM     20  C   UNL d   1      30.611 -14.774  -2.257  0.00  0.00     0.026 A 
ATOM     21  C   UNL d   1      30.724 -14.616  -0.888  0.00  0.00     0.035 A 
ATOM     22 CL   UNL d   1      32.086 -15.280  -0.076  0.00  0.00    -0.084 Cl
ATOM     23  C   UNL d   1      29.766 -13.884  -0.192  0.00  0.00     0.050 A 
ATOM     24  C   UNL d   1      28.677 -13.322  -0.881  0.00  0.00     0.069 A 
ATOM     25 CL   UNL d   1      27.519 -12.423   0.036  0.00  0.00    -0.081 Cl
ENDBRANCH  17  18
ENDBRANCH  15  17
ENDBRANCH  12  15
ENDBRANCH   1  11
BRANCH   5  26
ATOM     26  C   UNL d   1      20.857 -19.319   0.185  0.00  0.00     0.079 A 
ATOM     27  C   UNL d   1      19.934 -19.624  -0.830  0.00  0.00     0.033 A 
ATOM     28  C   UNL d   1      18.694 -20.193  -0.511  0.00  0.00     0.002 A 
ATOM     29  C   UNL d   1      18.385 -20.499   0.813  0.00  0.00     0.000 A 
ATOM     30  C   UNL d   1      19.331 -20.272   1.815  0.00  0.00     0.002 A 
ATOM     31  C   UNL d   1      20.559 -19.663   1.511  0.00  0.00     0.033 A 
ENDBRANCH   5  26
TORSDOF 5
ENDMDL
