MODEL 1
REMARK VINA RESULT:    -8.657      0.000      0.000
REMARK INTER + INTRA:         -16.852
REMARK INTER:                 -12.535
REMARK INTRA:                  -4.317
REMARK CONF_INDEPENDENT:        3.878
REMARK UNBOUND:                -4.317
REMARK  13 active torsions:
REMARK  status: ('A' for Active; 'I' for Inactive)
REMARK    1  A    between atoms: C_2  and  C_3 
REMARK    2  A    between atoms: C_3  and  C_4 
REMARK    3  A    between atoms: C_4  and  N_5 
REMARK       I    between atoms: N_5  and  C_6 
REMARK    4  A    between atoms: C_8  and  C_6 
REMARK    5  A    between atoms: C_8  and  N_18 
REMARK    6  A    between atoms: C_8  and  C_9 
REMARK    7  A    between atoms: C_12  and  N_13 
REMARK    8  A    between atoms: N_18  and  C_19 
REMARK       I    between atoms: N_18  and  C_22 
REMARK    9  A    between atoms: C_19  and  C_20 
REMARK   10  A    between atoms: C_22  and  C_24 
REMARK   11  A    between atoms: C_24  and  O_25 
REMARK   12  A    between atoms: C_24  and  C_26 
REMARK   13  A    between atoms: C_24  and  C_32 
ROOT
ATOM      1  N   UNL d   1      28.811 -14.151   0.023  0.00  0.00    -0.331 N 
ATOM      2  C   UNL d   1      27.546 -14.802   0.044  0.00  0.00     0.265 C 
ATOM      3  O   UNL d   1      26.801 -14.628   1.020  0.00  0.00    -0.269 OA
ENDROOT
BRANCH   1   4
ATOM      4  C   UNL d   1      29.115 -13.254   1.229  0.00  0.00     0.212 C 
BRANCH   4   5
ATOM      5  C   UNL d   1      28.116 -12.116   1.535  0.00  0.00    -0.026 C 
ATOM      6  C   UNL d   1      27.763 -11.737   2.843  0.00  0.00     0.012 C 
ATOM      7  C   UNL d   1      27.006 -10.570   3.055  0.00  0.00     0.037 C 
ATOM      8  C   UNL d   1      26.677  -9.737   1.972  0.00  0.00     0.102 C 
ATOM      9  C   UNL d   1      27.004 -10.106   0.666  0.00  0.00     0.037 C 
ATOM     10  C   UNL d   1      27.647 -11.325   0.452  0.00  0.00     0.012 C 
BRANCH   8  11
ATOM     11  N   UNL d   1      26.064  -8.423   2.198  0.00  0.00    -0.116 N 
ATOM     12  O   UNL d   1      26.518  -7.735   3.134  0.00  0.00    -0.532 OA
ATOM     13  O   UNL d   1      25.156  -8.066   1.446  0.00  0.00    -0.532 OA
ENDBRANCH   8  11
ENDBRANCH   4   5
BRANCH   4  14
ATOM     14  C   UNL d   1      29.249 -14.057   2.588  0.00  0.00     0.245 C 
ATOM     15  N   UNL d   1      28.089 -14.417   3.232  0.00  0.00    -0.359 N 
ATOM     16  H   UNL d   1      27.300 -14.616   2.627  0.00  0.00     0.162 HD
ATOM     17  O   UNL d   1      30.348 -14.350   3.069  0.00  0.00    -0.271 OA
BRANCH  15  18
ATOM     18  C   UNL d   1      28.155 -15.200   4.431  0.00  0.00     0.122 C 
BRANCH  18  19
ATOM     19  C   UNL d   1      28.750 -14.387   5.566  0.00  0.00     0.019 C 
BRANCH  19  20
ATOM     20  C   UNL d   1      27.757 -13.320   6.000  0.00  0.00    -0.003 C 
ATOM     21  C   UNL d   1      28.444 -12.237   6.807  0.00  0.00     0.005 C 
ENDBRANCH  19  20
ENDBRANCH  18  19
ENDBRANCH  15  18
ENDBRANCH   4  14
ENDBRANCH   1   4
BRANCH   1  22
ATOM     22  C   UNL d   1      29.802 -14.531  -1.008  0.00  0.00     0.127 C 
BRANCH  22  23
ATOM     23  C   UNL d   1      30.943 -15.428  -0.675  0.00  0.00     0.015 C 
ATOM     24  C   UNL d   1      30.759 -16.691   0.101  0.00  0.00     0.006 C 
ENDBRANCH  22  23
ENDBRANCH   1  22
BRANCH   2  25
ATOM     25  C   UNL d   1      27.044 -15.691  -1.206  0.00  0.00     0.194 C 
BRANCH  25  26
ATOM     26  O   UNL d   1      28.102 -16.517  -1.710  0.00  0.00    -0.371 OA
ATOM     27  H   UNL d   1      28.534 -16.986  -0.995  0.00  0.00     0.212 HD
ENDBRANCH  25  26
BRANCH  25  28
ATOM     28  C   UNL d   1      25.831 -16.494  -0.722  0.00  0.00    -0.010 C 
ATOM     29  C   UNL d   1      25.909 -17.542   0.202  0.00  0.00     0.011 C 
ATOM     30  C   UNL d   1      24.746 -18.201   0.602  0.00  0.00     0.001 C 
ATOM     31  C   UNL d   1      23.509 -17.859   0.052  0.00  0.00     0.000 C 
ATOM     32  C   UNL d   1      23.410 -16.809  -0.842  0.00  0.00     0.001 C 
ATOM     33  C   UNL d   1      24.544 -16.077  -1.130  0.00  0.00     0.011 C 
ENDBRANCH  25  28
BRANCH  25  34
ATOM     34  C   UNL d   1      26.695 -14.753  -2.406  0.00  0.00    -0.010 A 
ATOM     35  C   UNL d   1      26.438 -13.383  -2.222  0.00  0.00     0.011 A 
ATOM     36  C   UNL d   1      25.879 -12.615  -3.252  0.00  0.00     0.001 A 
ATOM     37  C   UNL d   1      25.627 -13.175  -4.504  0.00  0.00     0.000 A 
ATOM     38  C   UNL d   1      25.938 -14.498  -4.732  0.00  0.00     0.001 A 
ATOM     39  C   UNL d   1      26.480 -15.253  -3.706  0.00  0.00     0.011 A 
ENDBRANCH  25  34
ENDBRANCH   2  25
TORSDOF 13
ENDMDL
MODEL 2
REMARK VINA RESULT:    -8.495      0.492      1.054
REMARK INTER + INTRA:         -16.846
REMARK INTER:                 -12.373
REMARK INTRA:                  -4.473
REMARK CONF_INDEPENDENT:        3.878
REMARK UNBOUND:                -4.473
REMARK  13 active torsions:
REMARK  status: ('A' for Active; 'I' for Inactive)
REMARK    1  A    between atoms: C_2  and  C_3 
REMARK    2  A    between atoms: C_3  and  C_4 
REMARK    3  A    between atoms: C_4  and  N_5 
REMARK       I    between atoms: N_5  and  C_6 
REMARK    4  A    between atoms: C_8  and  C_6 
REMARK    5  A    between atoms: C_8  and  N_18 
REMARK    6  A    between atoms: C_8  and  C_9 
REMARK    7  A    between atoms: C_12  and  N_13 
REMARK    8  A    between atoms: N_18  and  C_19 
REMARK       I    between atoms: N_18  and  C_22 
REMARK    9  A    between atoms: C_19  and  C_20 
REMARK   10  A    between atoms: C_22  and  C_24 
REMARK   11  A    between atoms: C_24  and  O_25 
REMARK   12  A    between atoms: C_24  and  C_26 
REMARK   13  A    between atoms: C_24  and  C_32 
ROOT
ATOM      1  N   UNL d   1      28.862 -14.129   0.153  0.00  0.00    -0.331 N 
ATOM      2  C   UNL d   1      27.580 -14.745   0.129  0.00  0.00     0.265 C 
ATOM      3  O   UNL d   1      26.805 -14.548   1.077  0.00  0.00    -0.269 OA
ENDROOT
BRANCH   1   4
ATOM      4  C   UNL d   1      29.149 -13.240   1.369  0.00  0.00     0.212 C 
BRANCH   4   5
ATOM      5  C   UNL d   1      28.145 -12.104   1.667  0.00  0.00    -0.026 C 
ATOM      6  C   UNL d   1      27.804 -11.705   2.972  0.00  0.00     0.012 C 
ATOM      7  C   UNL d   1      27.041 -10.540   3.172  0.00  0.00     0.037 C 
ATOM      8  C   UNL d   1      26.694  -9.728   2.079  0.00  0.00     0.102 C 
ATOM      9  C   UNL d   1      27.009 -10.117   0.776  0.00  0.00     0.037 C 
ATOM     10  C   UNL d   1      27.658 -11.335   0.576  0.00  0.00     0.012 C 
BRANCH   8  11
ATOM     11  N   UNL d   1      26.074  -8.415   2.290  0.00  0.00    -0.116 N 
ATOM     12  O   UNL d   1      25.156  -8.085   1.512  0.00  0.00    -0.532 OA
ATOM     13  O   UNL d   1      26.474  -7.724   3.228  0.00  0.00    -0.532 OA
ENDBRANCH   8  11
ENDBRANCH   4   5
BRANCH   4  14
ATOM     14  C   UNL d   1      29.262 -14.051   2.725  0.00  0.00     0.245 C 
ATOM     15  N   UNL d   1      28.093 -14.408   3.353  0.00  0.00    -0.359 N 
ATOM     16  H   UNL d   1      27.310 -14.600   2.738  0.00  0.00     0.162 HD
ATOM     17  O   UNL d   1      30.354 -14.353   3.217  0.00  0.00    -0.271 OA
BRANCH  15  18
ATOM     18  C   UNL d   1      28.140 -15.198   4.549  0.00  0.00     0.122 C 
BRANCH  18  19
ATOM     19  C   UNL d   1      28.641 -14.368   5.716  0.00  0.00     0.019 C 
BRANCH  19  20
ATOM     20  C   UNL d   1      27.779 -13.124   5.861  0.00  0.00    -0.003 C 
ATOM     21  C   UNL d   1      28.509 -12.046   6.635  0.00  0.00     0.005 C 
ENDBRANCH  19  20
ENDBRANCH  18  19
ENDBRANCH  15  18
ENDBRANCH   4  14
ENDBRANCH   1   4
BRANCH   1  22
ATOM     22  C   UNL d   1      29.879 -14.539  -0.841  0.00  0.00     0.127 C 
BRANCH  22  23
ATOM     23  C   UNL d   1      30.336 -13.597  -1.900  0.00  0.00     0.015 C 
ATOM     24  C   UNL d   1      29.695 -12.263  -2.103  0.00  0.00     0.006 C 
ENDBRANCH  22  23
ENDBRANCH   1  22
BRANCH   2  25
ATOM     25  C   UNL d   1      27.098 -15.621  -1.138  0.00  0.00     0.194 C 
BRANCH  25  26
ATOM     26  O   UNL d   1      28.170 -16.424  -1.648  0.00  0.00    -0.371 OA
ATOM     27  H   UNL d   1      28.661 -16.828  -0.930  0.00  0.00     0.212 HD
ENDBRANCH  25  26
BRANCH  25  28
ATOM     28  C   UNL d   1      25.893 -16.448  -0.675  0.00  0.00    -0.010 C 
ATOM     29  C   UNL d   1      25.982 -17.520   0.220  0.00  0.00     0.011 C 
ATOM     30  C   UNL d   1      24.825 -18.199   0.603  0.00  0.00     0.001 C 
ATOM     31  C   UNL d   1      23.584 -17.853   0.065  0.00  0.00     0.000 C 
ATOM     32  C   UNL d   1      23.475 -16.781  -0.800  0.00  0.00     0.001 C 
ATOM     33  C   UNL d   1      24.602 -16.031  -1.069  0.00  0.00     0.011 C 
ENDBRANCH  25  28
BRANCH  25  34
ATOM     34  C   UNL d   1      26.744 -14.669  -2.326  0.00  0.00    -0.010 A 
ATOM     35  C   UNL d   1      26.414 -13.319  -2.117  0.00  0.00     0.011 A 
ATOM     36  C   UNL d   1      25.854 -12.551  -3.147  0.00  0.00     0.001 A 
ATOM     37  C   UNL d   1      25.672 -13.089  -4.420  0.00  0.00     0.000 A 
ATOM     38  C   UNL d   1      26.055 -14.389  -4.670  0.00  0.00     0.001 A 
ATOM     39  C   UNL d   1      26.598 -15.144  -3.644  0.00  0.00     0.011 A 
ENDBRANCH  25  34
ENDBRANCH   2  25
TORSDOF 13
ENDMDL
MODEL 3
REMARK VINA RESULT:    -7.895      2.540      7.380
REMARK INTER + INTRA:         -15.288
REMARK INTER:                 -11.773
REMARK INTRA:                  -3.514
REMARK CONF_INDEPENDENT:        3.878
REMARK UNBOUND:                -3.514
REMARK  13 active torsions:
REMARK  status: ('A' for Active; 'I' for Inactive)
REMARK    1  A    between atoms: C_2  and  C_3 
REMARK    2  A    between atoms: C_3  and  C_4 
REMARK    3  A    between atoms: C_4  and  N_5 
REMARK       I    between atoms: N_5  and  C_6 
REMARK    4  A    between atoms: C_8  and  C_6 
REMARK    5  A    between atoms: C_8  and  N_18 
REMARK    6  A    between atoms: C_8  and  C_9 
REMARK    7  A    between atoms: C_12  and  N_13 
REMARK    8  A    between atoms: N_18  and  C_19 
REMARK       I    between atoms: N_18  and  C_22 
REMARK    9  A    between atoms: C_19  and  C_20 
REMARK   10  A    between atoms: C_22  and  C_24 
REMARK   11  A    between atoms: C_24  and  O_25 
REMARK   12  A    between atoms: C_24  and  C_26 
REMARK   13  A    between atoms: C_24  and  C_32 
ROOT
ATOM      1  N   UNL d   1      26.551 -15.666   0.512  0.00  0.00    -0.331 N 
ATOM      2  C   UNL d   1      26.885 -14.349   0.933  0.00  0.00     0.265 C 
ATOM      3  O   UNL d   1      26.277 -13.391   0.433  0.00  0.00    -0.269 OA
ENDROOT
BRANCH   1   4
ATOM      4  C   UNL d   1      25.424 -15.767  -0.523  0.00  0.00     0.212 C 
BRANCH   4   5
ATOM      5  C   UNL d   1      25.802 -15.544  -2.004  0.00  0.00    -0.026 C 
ATOM      6  C   UNL d   1      25.014 -14.788  -2.891  0.00  0.00     0.012 C 
ATOM      7  C   UNL d   1      25.511 -14.459  -4.165  0.00  0.00     0.037 C 
ATOM      8  C   UNL d   1      26.824 -14.810  -4.521  0.00  0.00     0.102 C 
ATOM      9  C   UNL d   1      27.615 -15.574  -3.661  0.00  0.00     0.037 C 
ATOM     10  C   UNL d   1      27.072 -16.001  -2.449  0.00  0.00     0.012 C 
BRANCH   8  11
ATOM     11  N   UNL d   1      27.423 -14.305  -5.763  0.00  0.00    -0.116 N 
ATOM     12  O   UNL d   1      27.334 -13.080  -5.982  0.00  0.00    -0.532 OA
ATOM     13  O   UNL d   1      27.994 -15.107  -6.503  0.00  0.00    -0.532 OA
ENDBRANCH   8  11
ENDBRANCH   4   5
BRANCH   4  14
ATOM     14  C   UNL d   1      24.673 -17.161  -0.497  0.00  0.00     0.245 C 
ATOM     15  N   UNL d   1      23.416 -17.196   0.057  0.00  0.00    -0.359 N 
ATOM     16  H   UNL d   1      22.866 -16.352  -0.057  0.00  0.00     0.162 HD
ATOM     17  O   UNL d   1      25.187 -18.189  -0.947  0.00  0.00    -0.271 OA
BRANCH  15  18
ATOM     18  C   UNL d   1      22.668 -18.419   0.047  0.00  0.00     0.122 C 
BRANCH  18  19
ATOM     19  C   UNL d   1      21.922 -18.578  -1.265  0.00  0.00     0.019 C 
BRANCH  19  20
ATOM     20  C   UNL d   1      20.595 -19.275  -1.013  0.00  0.00    -0.003 C 
ATOM     21  C   UNL d   1      20.420 -19.595   0.458  0.00  0.00     0.005 C 
ENDBRANCH  19  20
ENDBRANCH  18  19
ENDBRANCH  15  18
ENDBRANCH   4  14
ENDBRANCH   1   4
BRANCH   1  22
ATOM     22  C   UNL d   1      27.420 -16.794   0.915  0.00  0.00     0.127 C 
BRANCH  22  23
ATOM     23  C   UNL d   1      28.051 -17.676  -0.106  0.00  0.00     0.015 C 
ATOM     24  C   UNL d   1      29.469 -17.499  -0.539  0.00  0.00     0.006 C 
ENDBRANCH  22  23
ENDBRANCH   1  22
BRANCH   2  25
ATOM     25  C   UNL d   1      27.975 -14.095   2.095  0.00  0.00     0.194 C 
BRANCH  25  26
ATOM     26  O   UNL d   1      27.817 -15.033   3.167  0.00  0.00    -0.371 OA
ATOM     27  H   UNL d   1      28.505 -15.700   3.136  0.00  0.00     0.212 HD
ENDBRANCH  25  26
BRANCH  25  28
ATOM     28  C   UNL d   1      29.356 -14.165   1.432  0.00  0.00    -0.010 C 
ATOM     29  C   UNL d   1      29.563 -14.070   0.051  0.00  0.00     0.011 C 
ATOM     30  C   UNL d   1      30.860 -14.120  -0.460  0.00  0.00     0.001 C 
ATOM     31  C   UNL d   1      31.953 -14.315   0.388  0.00  0.00     0.000 C 
ATOM     32  C   UNL d   1      31.769 -14.385   1.756  0.00  0.00     0.001 C 
ATOM     33  C   UNL d   1      30.498 -14.200   2.262  0.00  0.00     0.011 C 
ENDBRANCH  25  28
BRANCH  25  34
ATOM     34  C   UNL d   1      27.710 -12.709   2.766  0.00  0.00    -0.010 A 
ATOM     35  C   UNL d   1      27.541 -11.540   2.004  0.00  0.00     0.011 A 
ATOM     36  C   UNL d   1      27.562 -10.278   2.614  0.00  0.00     0.001 A 
ATOM     37  C   UNL d   1      27.683 -10.157   3.998  0.00  0.00     0.000 A 
ATOM     38  C   UNL d   1      27.777 -11.291   4.775  0.00  0.00     0.001 A 
ATOM     39  C   UNL d   1      27.766 -12.533   4.163  0.00  0.00     0.011 A 
ENDBRANCH  25  34
ENDBRANCH   2  25
TORSDOF 13
ENDMDL
MODEL 4
REMARK VINA RESULT:    -7.885      1.278      2.428
REMARK INTER + INTRA:         -15.931
REMARK INTER:                 -11.762
REMARK INTRA:                  -4.169
REMARK CONF_INDEPENDENT:        3.878
REMARK UNBOUND:                -4.169
REMARK  13 active torsions:
REMARK  status: ('A' for Active; 'I' for Inactive)
REMARK    1  A    between atoms: C_2  and  C_3 
REMARK    2  A    between atoms: C_3  and  C_4 
REMARK    3  A    between atoms: C_4  and  N_5 
REMARK       I    between atoms: N_5  and  C_6 
REMARK    4  A    between atoms: C_8  and  C_6 
REMARK    5  A    between atoms: C_8  and  N_18 
REMARK    6  A    between atoms: C_8  and  C_9 
REMARK    7  A    between atoms: C_12  and  N_13 
REMARK    8  A    between atoms: N_18  and  C_19 
REMARK       I    between atoms: N_18  and  C_22 
REMARK    9  A    between atoms: C_19  and  C_20 
REMARK   10  A    between atoms: C_22  and  C_24 
REMARK   11  A    between atoms: C_24  and  O_25 
REMARK   12  A    between atoms: C_24  and  C_26 
REMARK   13  A    between atoms: C_24  and  C_32 
ROOT
ATOM      1  N   UNL d   1      27.801 -13.920  -0.278  0.00  0.00    -0.331 N 
ATOM      2  C   UNL d   1      28.413 -15.106  -0.772  0.00  0.00     0.265 C 
ATOM      3  O   UNL d   1      29.487 -15.475  -0.275  0.00  0.00    -0.269 OA
ENDROOT
BRANCH   1   4
ATOM      4  C   UNL d   1      28.541 -13.220   0.869  0.00  0.00     0.212 C 
BRANCH   4   5
ATOM      5  C   UNL d   1      28.025 -11.829   1.299  0.00  0.00    -0.026 C 
ATOM      6  C   UNL d   1      28.537 -10.627   0.778  0.00  0.00     0.012 C 
ATOM      7  C   UNL d   1      27.892  -9.409   1.060  0.00  0.00     0.037 C 
ATOM      8  C   UNL d   1      26.690  -9.400   1.789  0.00  0.00     0.102 C 
ATOM      9  C   UNL d   1      26.177 -10.581   2.328  0.00  0.00     0.037 C 
ATOM     10  C   UNL d   1      26.887 -11.768   2.147  0.00  0.00     0.012 C 
BRANCH   8  11
ATOM     11  N   UNL d   1      25.905  -8.168   1.922  0.00  0.00    -0.116 N 
ATOM     12  O   UNL d   1      26.207  -7.396   2.855  0.00  0.00    -0.532 OA
ATOM     13  O   UNL d   1      25.013  -7.953   1.099  0.00  0.00    -0.532 OA
ENDBRANCH   8  11
ENDBRANCH   4   5
BRANCH   4  14
ATOM     14  C   UNL d   1      28.578 -14.074   2.202  0.00  0.00     0.245 C 
ATOM     15  N   UNL d   1      29.532 -13.751   3.138  0.00  0.00    -0.359 N 
ATOM     16  H   UNL d   1      29.782 -12.770   3.183  0.00  0.00     0.162 HD
ATOM     17  O   UNL d   1      27.791 -15.003   2.406  0.00  0.00    -0.271 OA
BRANCH  15  18
ATOM     18  C   UNL d   1      29.567 -14.451   4.389  0.00  0.00     0.122 C 
BRANCH  18  19
ATOM     19  C   UNL d   1      29.420 -13.481   5.546  0.00  0.00     0.019 C 
BRANCH  19  20
ATOM     20  C   UNL d   1      27.974 -13.018   5.640  0.00  0.00    -0.003 C 
ATOM     21  C   UNL d   1      27.031 -14.075   5.105  0.00  0.00     0.005 C 
ENDBRANCH  19  20
ENDBRANCH  18  19
ENDBRANCH  15  18
ENDBRANCH   4  14
ENDBRANCH   1   4
BRANCH   1  22
ATOM     22  C   UNL d   1      26.655 -13.339  -1.012  0.00  0.00     0.127 C 
BRANCH  22  23
ATOM     23  C   UNL d   1      26.811 -12.087  -1.805  0.00  0.00     0.015 C 
ATOM     24  C   UNL d   1      26.019 -11.831  -3.045  0.00  0.00     0.006 C 
ENDBRANCH  22  23
ENDBRANCH   1  22
BRANCH   2  25
ATOM     25  C   UNL d   1      27.695 -16.006  -1.903  0.00  0.00     0.194 C 
BRANCH  25  26
ATOM     26  O   UNL d   1      28.538 -17.091  -2.311  0.00  0.00    -0.371 OA
ATOM     27  H   UNL d   1      29.325 -17.132  -1.765  0.00  0.00     0.212 HD
ENDBRANCH  25  26
BRANCH  25  28
ATOM     28  C   UNL d   1      26.355 -16.470  -1.319  0.00  0.00    -0.010 C 
ATOM     29  C   UNL d   1      25.125 -15.882  -1.631  0.00  0.00     0.011 C 
ATOM     30  C   UNL d   1      23.953 -16.389  -1.070  0.00  0.00     0.001 C 
ATOM     31  C   UNL d   1      23.999 -17.446  -0.158  0.00  0.00     0.000 C 
ATOM     32  C   UNL d   1      25.203 -18.054   0.143  0.00  0.00     0.001 C 
ATOM     33  C   UNL d   1      26.339 -17.634  -0.520  0.00  0.00     0.011 C 
ENDBRANCH  25  28
BRANCH  25  34
ATOM     34  C   UNL d   1      27.514 -15.161  -3.205  0.00  0.00    -0.010 A 
ATOM     35  C   UNL d   1      26.484 -15.431  -4.122  0.00  0.00     0.011 A 
ATOM     36  C   UNL d   1      26.486 -14.844  -5.395  0.00  0.00     0.001 A 
ATOM     37  C   UNL d   1      27.473 -13.929  -5.757  0.00  0.00     0.000 A 
ATOM     38  C   UNL d   1      28.454 -13.592  -4.850  0.00  0.00     0.001 A 
ATOM     39  C   UNL d   1      28.450 -14.184  -3.598  0.00  0.00     0.011 A 
ENDBRANCH  25  34
ENDBRANCH   2  25
TORSDOF 13
ENDMDL
MODEL 5
REMARK VINA RESULT:    -7.422      3.068      6.913
REMARK INTER + INTRA:         -15.128
REMARK INTER:                 -11.300
REMARK INTRA:                  -3.828
REMARK CONF_INDEPENDENT:        3.878
REMARK UNBOUND:                -3.828
REMARK  13 active torsions:
REMARK  status: ('A' for Active; 'I' for Inactive)
REMARK    1  A    between atoms: C_2  and  C_3 
REMARK    2  A    between atoms: C_3  and  C_4 
REMARK    3  A    between atoms: C_4  and  N_5 
REMARK       I    between atoms: N_5  and  C_6 
REMARK    4  A    between atoms: C_8  and  C_6 
REMARK    5  A    between atoms: C_8  and  N_18 
REMARK    6  A    between atoms: C_8  and  C_9 
REMARK    7  A    between atoms: C_12  and  N_13 
REMARK    8  A    between atoms: N_18  and  C_19 
REMARK       I    between atoms: N_18  and  C_22 
REMARK    9  A    between atoms: C_19  and  C_20 
REMARK   10  A    between atoms: C_22  and  C_24 
REMARK   11  A    between atoms: C_24  and  O_25 
REMARK   12  A    between atoms: C_24  and  C_26 
REMARK   13  A    between atoms: C_24  and  C_32 
ROOT
ATOM      1  N   UNL d   1      27.091 -14.996  -3.153  0.00  0.00    -0.331 N 
ATOM      2  C   UNL d   1      25.982 -15.453  -2.389  0.00  0.00     0.265 C 
ATOM      3  O   UNL d   1      24.836 -15.200  -2.790  0.00  0.00    -0.269 OA
ENDROOT
BRANCH   1   4
ATOM      4  C   UNL d   1      26.744 -14.243  -4.443  0.00  0.00     0.212 C 
BRANCH   4   5
ATOM      5  C   UNL d   1      26.543 -12.715  -4.338  0.00  0.00    -0.026 C 
ATOM      6  C   UNL d   1      26.054 -11.931  -5.400  0.00  0.00     0.012 C 
ATOM      7  C   UNL d   1      25.708 -10.587  -5.177  0.00  0.00     0.037 C 
ATOM      8  C   UNL d   1      25.769 -10.048  -3.880  0.00  0.00     0.102 C 
ATOM      9  C   UNL d   1      26.267 -10.805  -2.818  0.00  0.00     0.037 C 
ATOM     10  C   UNL d   1      26.723 -12.099  -3.070  0.00  0.00     0.012 C 
BRANCH   8  11
ATOM     11  N   UNL d   1      25.226  -8.714  -3.597  0.00  0.00    -0.116 N 
ATOM     12  O   UNL d   1      24.409  -8.246  -4.415  0.00  0.00    -0.532 OA
ATOM     13  O   UNL d   1      25.588  -8.144  -2.567  0.00  0.00    -0.532 OA
ENDBRANCH   8  11
ENDBRANCH   4   5
BRANCH   4  14
ATOM     14  C   UNL d   1      27.818 -14.437  -5.590  0.00  0.00     0.245 C 
ATOM     15  N   UNL d   1      28.807 -13.488  -5.704  0.00  0.00    -0.359 N 
ATOM     16  H   UNL d   1      29.099 -13.059  -4.833  0.00  0.00     0.162 HD
ATOM     17  O   UNL d   1      27.779 -15.396  -6.367  0.00  0.00    -0.271 OA
BRANCH  15  18
ATOM     18  C   UNL d   1      29.840 -13.652  -6.684  0.00  0.00     0.122 C 
BRANCH  18  19
ATOM     19  C   UNL d   1      29.402 -13.079  -8.020  0.00  0.00     0.019 C 
BRANCH  19  20
ATOM     20  C   UNL d   1      28.951 -11.639  -7.832  0.00  0.00    -0.003 C 
ATOM     21  C   UNL d   1      27.515 -11.459  -8.277  0.00  0.00     0.005 C 
ENDBRANCH  19  20
ENDBRANCH  18  19
ENDBRANCH  15  18
ENDBRANCH   4  14
ENDBRANCH   1   4
BRANCH   1  22
ATOM     22  C   UNL d   1      28.450 -15.079  -2.573  0.00  0.00     0.127 C 
BRANCH  22  23
ATOM     23  C   UNL d   1      29.311 -16.271  -2.810  0.00  0.00     0.015 C 
ATOM     24  C   UNL d   1      29.727 -16.688  -4.183  0.00  0.00     0.006 C 
ENDBRANCH  22  23
ENDBRANCH   1  22
BRANCH   2  25
ATOM     25  C   UNL d   1      26.193 -16.351  -1.066  0.00  0.00     0.194 C 
BRANCH  25  26
ATOM     26  O   UNL d   1      27.080 -17.448  -1.322  0.00  0.00    -0.371 OA
ATOM     27  H   UNL d   1      27.860 -17.389  -0.767  0.00  0.00     0.212 HD
ENDBRANCH  25  26
BRANCH  25  28
ATOM     28  C   UNL d   1      26.700 -15.411   0.035  0.00  0.00    -0.010 C 
ATOM     29  C   UNL d   1      27.655 -15.775   0.991  0.00  0.00     0.011 C 
ATOM     30  C   UNL d   1      28.074 -14.843   1.940  0.00  0.00     0.001 C 
ATOM     31  C   UNL d   1      27.515 -13.564   1.978  0.00  0.00     0.000 C 
ATOM     32  C   UNL d   1      26.590 -13.180   1.026  0.00  0.00     0.001 C 
ATOM     33  C   UNL d   1      26.280 -14.063   0.011  0.00  0.00     0.011 C 
ENDBRANCH  25  28
BRANCH  25  34
ATOM     34  C   UNL d   1      24.844 -17.041  -0.682  0.00  0.00    -0.010 A 
ATOM     35  C   UNL d   1      24.747 -18.434  -0.520  0.00  0.00     0.011 A 
ATOM     36  C   UNL d   1      23.496 -19.058  -0.431  0.00  0.00     0.001 A 
ATOM     37  C   UNL d   1      22.321 -18.308  -0.435  0.00  0.00     0.000 A 
ATOM     38  C   UNL d   1      22.392 -16.934  -0.520  0.00  0.00     0.001 A 
ATOM     39  C   UNL d   1      23.632 -16.325  -0.617  0.00  0.00     0.011 A 
ENDBRANCH  25  34
ENDBRANCH   2  25
TORSDOF 13
ENDMDL
MODEL 6
REMARK VINA RESULT:    -7.402      2.988      6.661
REMARK INTER + INTRA:         -15.130
REMARK INTER:                 -11.280
REMARK INTRA:                  -3.850
REMARK CONF_INDEPENDENT:        3.878
REMARK UNBOUND:                -3.850
REMARK  13 active torsions:
REMARK  status: ('A' for Active; 'I' for Inactive)
REMARK    1  A    between atoms: C_2  and  C_3 
REMARK    2  A    between atoms: C_3  and  C_4 
REMARK    3  A    between atoms: C_4  and  N_5 
REMARK       I    between atoms: N_5  and  C_6 
REMARK    4  A    between atoms: C_8  and  C_6 
REMARK    5  A    between atoms: C_8  and  N_18 
REMARK    6  A    between atoms: C_8  and  C_9 
REMARK    7  A    between atoms: C_12  and  N_13 
REMARK    8  A    between atoms: N_18  and  C_19 
REMARK       I    between atoms: N_18  and  C_22 
REMARK    9  A    between atoms: C_19  and  C_20 
REMARK   10  A    between atoms: C_22  and  C_24 
REMARK   11  A    between atoms: C_24  and  O_25 
REMARK   12  A    between atoms: C_24  and  C_26 
REMARK   13  A    between atoms: C_24  and  C_32 
ROOT
ATOM      1  N   UNL d   1      26.988 -14.898  -3.124  0.00  0.00    -0.331 N 
ATOM      2  C   UNL d   1      25.888 -15.374  -2.356  0.00  0.00     0.265 C 
ATOM      3  O   UNL d   1      24.737 -15.126  -2.744  0.00  0.00    -0.269 OA
ENDROOT
BRANCH   1   4
ATOM      4  C   UNL d   1      26.622 -14.132  -4.401  0.00  0.00     0.212 C 
BRANCH   4   5
ATOM      5  C   UNL d   1      26.495 -12.596  -4.293  0.00  0.00    -0.026 C 
ATOM      6  C   UNL d   1      26.099 -11.782  -5.370  0.00  0.00     0.012 C 
ATOM      7  C   UNL d   1      25.813 -10.422  -5.153  0.00  0.00     0.037 C 
ATOM      8  C   UNL d   1      25.837  -9.896  -3.850  0.00  0.00     0.102 C 
ATOM      9  C   UNL d   1      26.244 -10.684  -2.772  0.00  0.00     0.037 C 
ATOM     10  C   UNL d   1      26.644 -11.998  -3.013  0.00  0.00     0.012 C 
BRANCH   8  11
ATOM     11  N   UNL d   1      25.351  -8.537  -3.583  0.00  0.00    -0.116 N 
ATOM     12  O   UNL d   1      25.543  -8.077  -2.440  0.00  0.00    -0.532 OA
ATOM     13  O   UNL d   1      24.804  -7.923  -4.501  0.00  0.00    -0.532 OA
ENDBRANCH   8  11
ENDBRANCH   4   5
BRANCH   4  14
ATOM     14  C   UNL d   1      27.639 -14.376  -5.590  0.00  0.00     0.245 C 
ATOM     15  N   UNL d   1      28.791 -13.626  -5.607  0.00  0.00    -0.359 N 
ATOM     16  H   UNL d   1      29.161 -13.377  -4.696  0.00  0.00     0.162 HD
ATOM     17  O   UNL d   1      27.417 -15.201  -6.482  0.00  0.00    -0.271 OA
BRANCH  15  18
ATOM     18  C   UNL d   1      29.774 -13.854  -6.625  0.00  0.00     0.122 C 
BRANCH  18  19
ATOM     19  C   UNL d   1      30.719 -14.968  -6.215  0.00  0.00     0.019 C 
BRANCH  19  20
ATOM     20  C   UNL d   1      30.234 -16.285  -6.800  0.00  0.00    -0.003 C 
ATOM     21  C   UNL d   1      30.463 -17.426  -5.830  0.00  0.00     0.005 C 
ENDBRANCH  19  20
ENDBRANCH  18  19
ENDBRANCH  15  18
ENDBRANCH   4  14
ENDBRANCH   1   4
BRANCH   1  22
ATOM     22  C   UNL d   1      28.352 -14.977  -2.557  0.00  0.00     0.127 C 
BRANCH  22  23
ATOM     23  C   UNL d   1      29.238 -16.136  -2.857  0.00  0.00     0.015 C 
ATOM     24  C   UNL d   1      30.154 -16.720  -1.831  0.00  0.00     0.006 C 
ENDBRANCH  22  23
ENDBRANCH   1  22
BRANCH   2  25
ATOM     25  C   UNL d   1      26.119 -16.287  -1.046  0.00  0.00     0.194 C 
BRANCH  25  26
ATOM     26  O   UNL d   1      27.027 -17.362  -1.319  0.00  0.00    -0.371 OA
ATOM     27  H   UNL d   1      26.774 -17.823  -2.121  0.00  0.00     0.212 HD
ENDBRANCH  25  26
BRANCH  25  28
ATOM     28  C   UNL d   1      26.609 -15.353   0.067  0.00  0.00    -0.010 C 
ATOM     29  C   UNL d   1      27.410 -15.769   1.136  0.00  0.00     0.011 C 
ATOM     30  C   UNL d   1      27.829 -14.842   2.090  0.00  0.00     0.001 C 
ATOM     31  C   UNL d   1      27.414 -13.509   2.019  0.00  0.00     0.000 C 
ATOM     32  C   UNL d   1      26.643 -13.076   0.956  0.00  0.00     0.001 C 
ATOM     33  C   UNL d   1      26.346 -13.971  -0.053  0.00  0.00     0.011 C 
ENDBRANCH  25  28
BRANCH  25  34
ATOM     34  C   UNL d   1      24.785 -17.008  -0.671  0.00  0.00    -0.010 A 
ATOM     35  C   UNL d   1      24.719 -18.404  -0.516  0.00  0.00     0.011 A 
ATOM     36  C   UNL d   1      23.481 -19.057  -0.436  0.00  0.00     0.001 A 
ATOM     37  C   UNL d   1      22.290 -18.333  -0.441  0.00  0.00     0.000 A 
ATOM     38  C   UNL d   1      22.330 -16.958  -0.519  0.00  0.00     0.001 A 
ATOM     39  C   UNL d   1      23.556 -16.321  -0.608  0.00  0.00     0.011 A 
ENDBRANCH  25  34
ENDBRANCH   2  25
TORSDOF 13
ENDMDL
MODEL 7
REMARK VINA RESULT:    -7.254      3.877      8.396
REMARK INTER + INTRA:         -15.595
REMARK INTER:                 -11.132
REMARK INTRA:                  -4.463
REMARK CONF_INDEPENDENT:        3.878
REMARK UNBOUND:                -4.463
REMARK  13 active torsions:
REMARK  status: ('A' for Active; 'I' for Inactive)
REMARK    1  A    between atoms: C_2  and  C_3 
REMARK    2  A    between atoms: C_3  and  C_4 
REMARK    3  A    between atoms: C_4  and  N_5 
REMARK       I    between atoms: N_5  and  C_6 
REMARK    4  A    between atoms: C_8  and  C_6 
REMARK    5  A    between atoms: C_8  and  N_18 
REMARK    6  A    between atoms: C_8  and  C_9 
REMARK    7  A    between atoms: C_12  and  N_13 
REMARK    8  A    between atoms: N_18  and  C_19 
REMARK       I    between atoms: N_18  and  C_22 
REMARK    9  A    between atoms: C_19  and  C_20 
REMARK   10  A    between atoms: C_22  and  C_24 
REMARK   11  A    between atoms: C_24  and  O_25 
REMARK   12  A    between atoms: C_24  and  C_26 
REMARK   13  A    between atoms: C_24  and  C_32 
ROOT
ATOM      1  N   UNL d   1      29.116 -16.153  -2.880  0.00  0.00    -0.331 N 
ATOM      2  C   UNL d   1      28.563 -15.256  -1.923  0.00  0.00     0.265 C 
ATOM      3  O   UNL d   1      28.292 -14.099  -2.277  0.00  0.00    -0.269 OA
ENDROOT
BRANCH   1   4
ATOM      4  C   UNL d   1      29.297 -15.587  -4.293  0.00  0.00     0.212 C 
BRANCH   4   5
ATOM      5  C   UNL d   1      30.094 -16.444  -5.302  0.00  0.00    -0.026 C 
ATOM      6  C   UNL d   1      30.030 -17.849  -5.333  0.00  0.00     0.012 C 
ATOM      7  C   UNL d   1      30.621 -18.554  -6.396  0.00  0.00     0.037 C 
ATOM      8  C   UNL d   1      31.199 -17.856  -7.471  0.00  0.00     0.102 C 
ATOM      9  C   UNL d   1      31.286 -16.463  -7.449  0.00  0.00     0.037 C 
ATOM     10  C   UNL d   1      30.808 -15.776  -6.333  0.00  0.00     0.012 C 
BRANCH   8  11
ATOM     11  N   UNL d   1      31.640 -18.569  -8.675  0.00  0.00    -0.116 N 
ATOM     12  O   UNL d   1      30.815 -19.326  -9.225  0.00  0.00    -0.532 OA
ATOM     13  O   UNL d   1      32.783 -18.366  -9.088  0.00  0.00    -0.532 OA
ENDBRANCH   8  11
ENDBRANCH   4   5
BRANCH   4  14
ATOM     14  C   UNL d   1      27.926 -15.269  -5.020  0.00  0.00     0.245 C 
ATOM     15  N   UNL d   1      26.798 -15.179  -4.239  0.00  0.00    -0.359 N 
ATOM     16  H   UNL d   1      26.945 -14.820  -3.303  0.00  0.00     0.162 HD
ATOM     17  O   UNL d   1      27.855 -15.111  -6.242  0.00  0.00    -0.271 OA
BRANCH  15  18
ATOM     18  C   UNL d   1      25.544 -14.829  -4.840  0.00  0.00     0.122 C 
BRANCH  18  19
ATOM     19  C   UNL d   1      24.685 -14.047  -3.864  0.00  0.00     0.019 C 
BRANCH  19  20
ATOM     20  C   UNL d   1      25.518 -12.948  -3.223  0.00  0.00    -0.003 C 
ATOM     21  C   UNL d   1      26.102 -12.027  -4.274  0.00  0.00     0.005 C 
ENDBRANCH  19  20
ENDBRANCH  18  19
ENDBRANCH  15  18
ENDBRANCH   4  14
ENDBRANCH   1   4
BRANCH   1  22
ATOM     22  C   UNL d   1      29.663 -17.450  -2.421  0.00  0.00     0.127 C 
BRANCH  22  23
ATOM     23  C   UNL d   1      31.110 -17.599  -2.102  0.00  0.00     0.015 C 
ATOM     24  C   UNL d   1      31.905 -16.492  -1.491  0.00  0.00     0.006 C 
ENDBRANCH  22  23
ENDBRANCH   1  22
BRANCH   2  25
ATOM     25  C   UNL d   1      28.216 -15.744  -0.425  0.00  0.00     0.194 C 
BRANCH  25  26
ATOM     26  O   UNL d   1      29.253 -16.585   0.098  0.00  0.00    -0.371 OA
ATOM     27  H   UNL d   1      29.171 -16.669   1.050  0.00  0.00     0.212 HD
ENDBRANCH  25  26
BRANCH  25  28
ATOM     28  C   UNL d   1      27.987 -14.480   0.413  0.00  0.00    -0.010 C 
ATOM     29  C   UNL d   1      29.019 -13.701   0.946  0.00  0.00     0.011 C 
ATOM     30  C   UNL d   1      28.714 -12.552   1.676  0.00  0.00     0.001 C 
ATOM     31  C   UNL d   1      27.386 -12.197   1.923  0.00  0.00     0.000 C 
ATOM     32  C   UNL d   1      26.354 -12.941   1.382  0.00  0.00     0.001 C 
ATOM     33  C   UNL d   1      26.666 -13.997   0.551  0.00  0.00     0.011 C 
ENDBRANCH  25  28
BRANCH  25  34
ATOM     34  C   UNL d   1      26.959 -16.672  -0.456  0.00  0.00    -0.010 A 
ATOM     35  C   UNL d   1      25.997 -16.577  -1.476  0.00  0.00     0.011 A 
ATOM     36  C   UNL d   1      24.761 -17.226  -1.356  0.00  0.00     0.001 A 
ATOM     37  C   UNL d   1      24.482 -18.033  -0.254  0.00  0.00     0.000 A 
ATOM     38  C   UNL d   1      25.436 -18.200   0.726  0.00  0.00     0.001 A 
ATOM     39  C   UNL d   1      26.652 -17.548   0.605  0.00  0.00     0.011 A 
ENDBRANCH  25  34
ENDBRANCH   2  25
TORSDOF 13
ENDMDL
MODEL 8
REMARK VINA RESULT:    -7.083      2.315      4.857
REMARK INTER + INTRA:         -15.141
REMARK INTER:                 -10.961
REMARK INTRA:                  -4.180
REMARK CONF_INDEPENDENT:        3.878
REMARK UNBOUND:                -4.180
REMARK  13 active torsions:
REMARK  status: ('A' for Active; 'I' for Inactive)
REMARK    1  A    between atoms: C_2  and  C_3 
REMARK    2  A    between atoms: C_3  and  C_4 
REMARK    3  A    between atoms: C_4  and  N_5 
REMARK       I    between atoms: N_5  and  C_6 
REMARK    4  A    between atoms: C_8  and  C_6 
REMARK    5  A    between atoms: C_8  and  N_18 
REMARK    6  A    between atoms: C_8  and  C_9 
REMARK    7  A    between atoms: C_12  and  N_13 
REMARK    8  A    between atoms: N_18  and  C_19 
REMARK       I    between atoms: N_18  and  C_22 
REMARK    9  A    between atoms: C_19  and  C_20 
REMARK   10  A    between atoms: C_22  and  C_24 
REMARK   11  A    between atoms: C_24  and  O_25 
REMARK   12  A    between atoms: C_24  and  C_26 
REMARK   13  A    between atoms: C_24  and  C_32 
ROOT
ATOM      1  N   UNL d   1      27.985 -12.945  -2.072  0.00  0.00    -0.331 N 
ATOM      2  C   UNL d   1      26.685 -13.434  -2.381  0.00  0.00     0.265 C 
ATOM      3  O   UNL d   1      25.915 -13.714  -1.450  0.00  0.00    -0.269 OA
ENDROOT
BRANCH   1   4
ATOM      4  C   UNL d   1      28.294 -12.783  -0.579  0.00  0.00     0.212 C 
BRANCH   4   5
ATOM      5  C   UNL d   1      27.529 -11.681   0.187  0.00  0.00    -0.026 C 
ATOM      6  C   UNL d   1      26.840 -11.922   1.390  0.00  0.00     0.012 C 
ATOM      7  C   UNL d   1      26.335 -10.842   2.136  0.00  0.00     0.037 C 
ATOM      8  C   UNL d   1      26.592  -9.522   1.729  0.00  0.00     0.102 C 
ATOM      9  C   UNL d   1      27.259  -9.265   0.530  0.00  0.00     0.037 C 
ATOM     10  C   UNL d   1      27.650 -10.341  -0.266  0.00  0.00     0.012 C 
BRANCH   8  11
ATOM     11  N   UNL d   1      26.244  -8.390   2.597  0.00  0.00    -0.116 N 
ATOM     12  O   UNL d   1      25.530  -7.493   2.106  0.00  0.00    -0.532 OA
ATOM     13  O   UNL d   1      26.655  -8.398   3.758  0.00  0.00    -0.532 OA
ENDBRANCH   8  11
ENDBRANCH   4   5
BRANCH   4  14
ATOM     14  C   UNL d   1      28.052 -14.107   0.258  0.00  0.00     0.245 C 
ATOM     15  N   UNL d   1      27.603 -15.215  -0.420  0.00  0.00    -0.359 N 
ATOM     16  H   UNL d   1      27.925 -15.299  -1.378  0.00  0.00     0.162 HD
ATOM     17  O   UNL d   1      28.249 -14.155   1.476  0.00  0.00    -0.271 OA
BRANCH  15  18
ATOM     18  C   UNL d   1      27.430 -16.454   0.279  0.00  0.00     0.122 C 
BRANCH  18  19
ATOM     19  C   UNL d   1      26.603 -17.421  -0.548  0.00  0.00     0.019 C 
BRANCH  19  20
ATOM     20  C   UNL d   1      25.550 -16.650  -1.329  0.00  0.00    -0.003 C 
ATOM     21  C   UNL d   1      24.160 -16.950  -0.806  0.00  0.00     0.005 C 
ENDBRANCH  19  20
ENDBRANCH  18  19
ENDBRANCH  15  18
ENDBRANCH   4  14
ENDBRANCH   1   4
BRANCH   1  22
ATOM     22  C   UNL d   1      28.990 -12.834  -3.152  0.00  0.00     0.127 C 
BRANCH  22  23
ATOM     23  C   UNL d   1      30.444 -12.976  -2.860  0.00  0.00     0.015 C 
ATOM     24  C   UNL d   1      31.152 -14.285  -2.979  0.00  0.00     0.006 C 
ENDBRANCH  22  23
ENDBRANCH   1  22
BRANCH   2  25
ATOM     25  C   UNL d   1      26.180 -13.554  -3.909  0.00  0.00     0.194 C 
BRANCH  25  26
ATOM     26  O   UNL d   1      24.981 -14.335  -3.998  0.00  0.00    -0.371 OA
ATOM     27  H   UNL d   1      24.793 -14.761  -3.160  0.00  0.00     0.212 HD
ENDBRANCH  25  26
BRANCH  25  28
ATOM     28  C   UNL d   1      26.008 -12.124  -4.435  0.00  0.00    -0.010 C 
ATOM     29  C   UNL d   1      25.716 -11.815  -5.768  0.00  0.00     0.011 C 
ATOM     30  C   UNL d   1      25.553 -10.483  -6.150  0.00  0.00     0.001 C 
ATOM     31  C   UNL d   1      25.728  -9.450  -5.225  0.00  0.00     0.000 C 
ATOM     32  C   UNL d   1      25.992  -9.739  -3.900  0.00  0.00     0.001 C 
ATOM     33  C   UNL d   1      26.019 -11.061  -3.505  0.00  0.00     0.011 C 
ENDBRANCH  25  28
BRANCH  25  34
ATOM     34  C   UNL d   1      27.222 -14.371  -4.740  0.00  0.00    -0.010 A 
ATOM     35  C   UNL d   1      27.824 -15.534  -4.230  0.00  0.00     0.011 A 
ATOM     36  C   UNL d   1      28.932 -16.105  -4.870  0.00  0.00     0.001 A 
ATOM     37  C   UNL d   1      29.422 -15.573  -6.062  0.00  0.00     0.000 A 
ATOM     38  C   UNL d   1      28.804 -14.476  -6.621  0.00  0.00     0.001 A 
ATOM     39  C   UNL d   1      27.715 -13.911  -5.977  0.00  0.00     0.011 A 
ENDBRANCH  25  34
ENDBRANCH   2  25
TORSDOF 13
ENDMDL
MODEL 9
REMARK VINA RESULT:    -6.787      2.921      7.621
REMARK INTER + INTRA:         -15.364
REMARK INTER:                 -10.665
REMARK INTRA:                  -4.699
REMARK CONF_INDEPENDENT:        3.878
REMARK UNBOUND:                -4.699
REMARK  13 active torsions:
REMARK  status: ('A' for Active; 'I' for Inactive)
REMARK    1  A    between atoms: C_2  and  C_3 
REMARK    2  A    between atoms: C_3  and  C_4 
REMARK    3  A    between atoms: C_4  and  N_5 
REMARK       I    between atoms: N_5  and  C_6 
REMARK    4  A    between atoms: C_8  and  C_6 
REMARK    5  A    between atoms: C_8  and  N_18 
REMARK    6  A    between atoms: C_8  and  C_9 
REMARK    7  A    between atoms: C_12  and  N_13 
REMARK    8  A    between atoms: N_18  and  C_19 
REMARK       I    between atoms: N_18  and  C_22 
REMARK    9  A    between atoms: C_19  and  C_20 
REMARK   10  A    between atoms: C_22  and  C_24 
REMARK   11  A    between atoms: C_24  and  O_25 
REMARK   12  A    between atoms: C_24  and  C_26 
REMARK   13  A    between atoms: C_24  and  C_32 
ROOT
ATOM      1  N   UNL d   1      27.579 -15.876  -1.638  0.00  0.00    -0.331 N 
ATOM      2  C   UNL d   1      27.367 -14.939  -0.588  0.00  0.00     0.265 C 
ATOM      3  O   UNL d   1      26.215 -14.533  -0.374  0.00  0.00    -0.269 OA
ENDROOT
BRANCH   1   4
ATOM      4  C   UNL d   1      26.322 -16.319  -2.396  0.00  0.00     0.212 C 
BRANCH   4   5
ATOM      5  C   UNL d   1      25.092 -16.722  -1.552  0.00  0.00    -0.026 C 
ATOM      6  C   UNL d   1      23.903 -15.969  -1.522  0.00  0.00     0.012 C 
ATOM      7  C   UNL d   1      22.758 -16.491  -0.894  0.00  0.00     0.037 C 
ATOM      8  C   UNL d   1      22.773 -17.797  -0.374  0.00  0.00     0.102 C 
ATOM      9  C   UNL d   1      23.947 -18.552  -0.381  0.00  0.00     0.037 C 
ATOM     10  C   UNL d   1      25.111 -17.981  -0.894  0.00  0.00     0.012 C 
BRANCH   8  11
ATOM     11  N   UNL d   1      21.536 -18.426   0.102  0.00  0.00    -0.116 N 
ATOM     12  O   UNL d   1      21.512 -18.813   1.288  0.00  0.00    -0.532 OA
ATOM     13  O   UNL d   1      20.589 -18.518  -0.680  0.00  0.00    -0.532 OA
ENDBRANCH   8  11
ENDBRANCH   4   5
BRANCH   4  14
ATOM     14  C   UNL d   1      25.784 -15.226  -3.408  0.00  0.00     0.245 C 
ATOM     15  N   UNL d   1      25.613 -13.948  -2.933  0.00  0.00    -0.359 N 
ATOM     16  H   UNL d   1      26.266 -13.661  -2.213  0.00  0.00     0.162 HD
ATOM     17  O   UNL d   1      25.516 -15.498  -4.582  0.00  0.00    -0.271 OA
BRANCH  15  18
ATOM     18  C   UNL d   1      25.190 -12.908  -3.825  0.00  0.00     0.122 C 
BRANCH  18  19
ATOM     19  C   UNL d   1      25.906 -11.609  -3.508  0.00  0.00     0.019 C 
BRANCH  19  20
ATOM     20  C   UNL d   1      26.580 -11.080  -4.764  0.00  0.00    -0.003 C 
ATOM     21  C   UNL d   1      27.351 -12.177  -5.468  0.00  0.00     0.005 C 
ENDBRANCH  19  20
ENDBRANCH  18  19
ENDBRANCH  15  18
ENDBRANCH   4  14
ENDBRANCH   1   4
BRANCH   1  22
ATOM     22  C   UNL d   1      28.963 -16.186  -2.059  0.00  0.00     0.127 C 
BRANCH  22  23
ATOM     23  C   UNL d   1      29.290 -16.423  -3.493  0.00  0.00     0.015 C 
ATOM     24  C   UNL d   1      28.933 -15.441  -4.560  0.00  0.00     0.006 C 
ENDBRANCH  22  23
ENDBRANCH   1  22
BRANCH   2  25
ATOM     25  C   UNL d   1      28.579 -14.465   0.365  0.00  0.00     0.194 C 
BRANCH  25  26
ATOM     26  O   UNL d   1      29.442 -15.562   0.689  0.00  0.00    -0.371 OA
ATOM     27  H   UNL d   1      29.059 -16.100   1.384  0.00  0.00     0.212 HD
ENDBRANCH  25  26
BRANCH  25  28
ATOM     28  C   UNL d   1      29.301 -13.326  -0.367  0.00  0.00    -0.010 C 
ATOM     29  C   UNL d   1      30.647 -13.002  -0.165  0.00  0.00     0.011 C 
ATOM     30  C   UNL d   1      31.226 -11.964  -0.896  0.00  0.00     0.001 C 
ATOM     31  C   UNL d   1      30.462 -11.210  -1.791  0.00  0.00     0.000 C 
ATOM     32  C   UNL d   1      29.138 -11.533  -2.020  0.00  0.00     0.001 C 
ATOM     33  C   UNL d   1      28.611 -12.645  -1.394  0.00  0.00     0.011 C 
ENDBRANCH  25  28
BRANCH  25  34
ATOM     34  C   UNL d   1      28.010 -14.014   1.748  0.00  0.00    -0.010 A 
ATOM     35  C   UNL d   1      27.499 -12.719   1.950  0.00  0.00     0.011 A 
ATOM     36  C   UNL d   1      27.234 -12.248   3.243  0.00  0.00     0.001 A 
ATOM     37  C   UNL d   1      27.408 -13.073   4.353  0.00  0.00     0.000 A 
ATOM     38  C   UNL d   1      27.838 -14.370   4.176  0.00  0.00     0.001 A 
ATOM     39  C   UNL d   1      28.108 -14.825   2.896  0.00  0.00     0.011 A 
ENDBRANCH  25  34
ENDBRANCH   2  25
TORSDOF 13
ENDMDL
