MODEL 1
REMARK VINA RESULT:   -30.581      0.000      0.000
REMARK INTER + INTRA:         -32.422
REMARK INTER:                 -31.774
REMARK INTRA:                  -0.648
REMARK CONF_INDEPENDENT:        1.193
REMARK UNBOUND:                -0.648
REMARK  4 active torsions:
REMARK  status: ('A' for Active; 'I' for Inactive)
REMARK    1  A    between atoms: C_2  and  C_3 
REMARK    2  A    between atoms: C_6  and  N_7 
REMARK       I    between atoms: N_7  and  C_8 
REMARK       I    between atoms: C_8  and  N_10 
REMARK    3  A    between atoms: N_10  and  N_11 
REMARK       I    between atoms: N_11  and  C_12 
REMARK    4  A    between atoms: C_12  and  C_14 
ROOT
ATOM      1  N   UNL d   1      25.983 -16.701  -1.213  0.00  0.00    -0.308 N 
ATOM      2  C   UNL d   1      24.789 -17.415  -1.103  0.00  0.00     0.339 C 
ATOM      3  O   UNL d   1      23.987 -17.638  -2.014  0.00  0.00    -0.245 OA
ATOM      4  N   UNL d   1      24.494 -17.936   0.148  0.00  0.00    -0.248 N 
ATOM      5  H   UNL d   1      26.526 -16.538  -0.378  0.00  0.00     0.170 HD
ATOM      6  H   UNL d   1      25.007 -17.772   1.009  0.00  0.00     0.192 HD
ENDROOT
BRANCH   1   7
ATOM      7  C   UNL d   1      26.452 -16.070  -2.418  0.00  0.00     0.036 A 
ATOM      8  C   UNL d   1      25.564 -15.573  -3.392  0.00  0.00     0.030 A 
ATOM      9  C   UNL d   1      26.044 -15.077  -4.632  0.00  0.00     0.009 A 
ATOM     10  C   UNL d   1      27.418 -14.995  -4.884  0.00  0.00    -0.058 A 
ATOM     11  C   UNL d   1      28.291 -15.426  -3.891  0.00  0.00     0.009 A 
ATOM     12  C   UNL d   1      27.815 -15.950  -2.692  0.00  0.00     0.030 A 
BRANCH  10  13
ATOM     13  C   UNL d   1      28.011 -14.468  -6.168  0.00  0.00     0.034 C 
ATOM     14  C   UNL d   1      29.319 -15.178  -6.500  0.00  0.00     0.010 C 
ENDBRANCH  10  13
ENDBRANCH   1   7
BRANCH   4  15
ATOM     15  N   UNL d   1      23.278 -18.711   0.255  0.00  0.00    -0.261 N 
ATOM     16  C   UNL d   1      22.049 -18.161  -0.091  0.00  0.00     0.288 C 
ATOM     17  O   UNL d   1      21.950 -16.989  -0.470  0.00  0.00    -0.264 OA
ATOM     18  H   UNL d   1      23.420 -19.700   0.465  0.00  0.00     0.190 HD
BRANCH  16  19
ATOM     19  C   UNL d   1      20.827 -19.060   0.011  0.00  0.00     0.125 A 
ATOM     20  C   UNL d   1      20.655 -19.943   1.077  0.00  0.00     0.037 A 
ATOM     21  C   UNL d   1      19.497 -20.732   1.121  0.00  0.00     0.004 A 
ATOM     22  C   UNL d   1      18.545 -20.617   0.113  0.00  0.00     0.019 A 
ATOM     23  C   UNL d   1      18.782 -19.699  -0.895  0.00  0.00     0.117 A 
ATOM     24  N   UNL d   1      19.892 -18.922  -0.970  0.00  0.00    -0.255 NA
ENDBRANCH  16  19
ENDBRANCH   4  15
TORSDOF 4
ENDMDL
MODEL 2
REMARK VINA RESULT:   -30.300      1.729      2.133
REMARK INTER + INTRA:         -32.233
REMARK INTER:                 -31.494
REMARK INTRA:                  -0.739
REMARK CONF_INDEPENDENT:        1.193
REMARK UNBOUND:                -0.739
REMARK  4 active torsions:
REMARK  status: ('A' for Active; 'I' for Inactive)
REMARK    1  A    between atoms: C_2  and  C_3 
REMARK    2  A    between atoms: C_6  and  N_7 
REMARK       I    between atoms: N_7  and  C_8 
REMARK       I    between atoms: C_8  and  N_10 
REMARK    3  A    between atoms: N_10  and  N_11 
REMARK       I    between atoms: N_11  and  C_12 
REMARK    4  A    between atoms: C_12  and  C_14 
ROOT
ATOM      1  N   UNL d   1      25.666 -16.179  -1.448  0.00  0.00    -0.308 N 
ATOM      2  C   UNL d   1      24.399 -16.641  -1.090  0.00  0.00     0.339 C 
ATOM      3  O   UNL d   1      23.322 -16.228  -1.529  0.00  0.00    -0.245 OA
ATOM      4  N   UNL d   1      24.357 -17.678  -0.169  0.00  0.00    -0.248 N 
ATOM      5  H   UNL d   1      26.471 -16.562  -0.972  0.00  0.00     0.170 HD
ATOM      6  H   UNL d   1      25.144 -18.069   0.340  0.00  0.00     0.192 HD
ENDROOT
BRANCH   1   7
ATOM      7  C   UNL d   1      25.916 -15.103  -2.368  0.00  0.00     0.036 A 
ATOM      8  C   UNL d   1      26.352 -13.837  -1.932  0.00  0.00     0.030 A 
ATOM      9  C   UNL d   1      26.464 -12.750  -2.838  0.00  0.00     0.009 A 
ATOM     10  C   UNL d   1      26.219 -12.932  -4.204  0.00  0.00    -0.058 A 
ATOM     11  C   UNL d   1      25.853 -14.202  -4.638  0.00  0.00     0.009 A 
ATOM     12  C   UNL d   1      25.705 -15.254  -3.739  0.00  0.00     0.030 A 
BRANCH  10  13
ATOM     13  C   UNL d   1      26.328 -11.835  -5.234  0.00  0.00     0.034 C 
ATOM     14  C   UNL d   1      26.073 -10.468  -4.610  0.00  0.00     0.010 C 
ENDBRANCH  10  13
ENDBRANCH   1   7
BRANCH   4  15
ATOM     15  N   UNL d   1      23.047 -18.186   0.171  0.00  0.00    -0.261 N 
ATOM     16  C   UNL d   1      22.251 -18.807  -0.785  0.00  0.00     0.288 C 
ATOM     17  O   UNL d   1      22.620 -18.917  -1.959  0.00  0.00    -0.264 OA
ATOM     18  H   UNL d   1      22.831 -18.172   1.169  0.00  0.00     0.190 HD
BRANCH  16  19
ATOM     19  C   UNL d   1      20.906 -19.349  -0.329  0.00  0.00     0.125 A 
ATOM     20  C   UNL d   1      20.703 -19.805   0.973  0.00  0.00     0.037 A 
ATOM     21  C   UNL d   1      19.434 -20.277   1.334  0.00  0.00     0.004 A 
ATOM     22  C   UNL d   1      18.405 -20.276   0.398  0.00  0.00     0.019 A 
ATOM     23  C   UNL d   1      18.684 -19.783  -0.865  0.00  0.00     0.117 A 
ATOM     24  N   UNL d   1      19.901 -19.321  -1.249  0.00  0.00    -0.255 NA
ENDBRANCH  16  19
ENDBRANCH   4  15
TORSDOF 4
ENDMDL
MODEL 3
REMARK VINA RESULT:   -29.652      2.760      3.946
REMARK INTER + INTRA:         -31.688
REMARK INTER:                 -30.846
REMARK INTRA:                  -0.842
REMARK CONF_INDEPENDENT:        1.193
REMARK UNBOUND:                -0.842
REMARK  4 active torsions:
REMARK  status: ('A' for Active; 'I' for Inactive)
REMARK    1  A    between atoms: C_2  and  C_3 
REMARK    2  A    between atoms: C_6  and  N_7 
REMARK       I    between atoms: N_7  and  C_8 
REMARK       I    between atoms: C_8  and  N_10 
REMARK    3  A    between atoms: N_10  and  N_11 
REMARK       I    between atoms: N_11  and  C_12 
REMARK    4  A    between atoms: C_12  and  C_14 
ROOT
ATOM      1  N   UNL d   1      26.073 -16.628  -1.224  0.00  0.00    -0.308 N 
ATOM      2  C   UNL d   1      25.033 -17.376  -0.671  0.00  0.00     0.339 C 
ATOM      3  O   UNL d   1      24.807 -17.529   0.533  0.00  0.00    -0.245 OA
ATOM      4  N   UNL d   1      24.165 -17.984  -1.566  0.00  0.00    -0.248 N 
ATOM      5  H   UNL d   1      26.186 -16.628  -2.228  0.00  0.00     0.170 HD
ATOM      6  H   UNL d   1      24.264 -18.020  -2.576  0.00  0.00     0.192 HD
ENDROOT
BRANCH   1   7
ATOM      7  C   UNL d   1      27.083 -15.941  -0.465  0.00  0.00     0.036 A 
ATOM      8  C   UNL d   1      28.441 -16.311  -0.527  0.00  0.00     0.030 A 
ATOM      9  C   UNL d   1      29.401 -15.711   0.329  0.00  0.00     0.009 A 
ATOM     10  C   UNL d   1      29.035 -14.680   1.201  0.00  0.00    -0.058 A 
ATOM     11  C   UNL d   1      27.704 -14.275   1.210  0.00  0.00     0.009 A 
ATOM     12  C   UNL d   1      26.758 -14.894   0.398  0.00  0.00     0.030 A 
BRANCH  10  13
ATOM     13  C   UNL d   1      29.994 -13.982   2.133  0.00  0.00     0.034 C 
ATOM     14  C   UNL d   1      29.394 -13.831   3.526  0.00  0.00     0.010 C 
ENDBRANCH  10  13
ENDBRANCH   1   7
BRANCH   4  15
ATOM     15  N   UNL d   1      23.063 -18.725  -0.994  0.00  0.00    -0.261 N 
ATOM     16  C   UNL d   1      21.856 -18.099  -0.704  0.00  0.00     0.288 C 
ATOM     17  O   UNL d   1      21.695 -16.889  -0.895  0.00  0.00    -0.264 OA
ATOM     18  H   UNL d   1      23.203 -19.736  -0.957  0.00  0.00     0.190 HD
BRANCH  16  19
ATOM     19  C   UNL d   1      20.737 -18.964  -0.145  0.00  0.00     0.125 A 
ATOM     20  C   UNL d   1      20.694 -19.325   1.201  0.00  0.00     0.037 A 
ATOM     21  C   UNL d   1      19.626 -20.109   1.657  0.00  0.00     0.004 A 
ATOM     22  C   UNL d   1      18.631 -20.504   0.768  0.00  0.00     0.019 A 
ATOM     23  C   UNL d   1      18.737 -20.082  -0.546  0.00  0.00     0.117 A 
ATOM     24  N   UNL d   1      19.758 -19.325  -1.021  0.00  0.00    -0.255 NA
ENDBRANCH  16  19
ENDBRANCH   4  15
TORSDOF 4
ENDMDL
MODEL 4
REMARK VINA RESULT:   -29.044      2.819      3.681
REMARK INTER + INTRA:         -31.652
REMARK INTER:                 -30.237
REMARK INTRA:                  -1.415
REMARK CONF_INDEPENDENT:        1.193
REMARK UNBOUND:                -1.415
REMARK  4 active torsions:
REMARK  status: ('A' for Active; 'I' for Inactive)
REMARK    1  A    between atoms: C_2  and  C_3 
REMARK    2  A    between atoms: C_6  and  N_7 
REMARK       I    between atoms: N_7  and  C_8 
REMARK       I    between atoms: C_8  and  N_10 
REMARK    3  A    between atoms: N_10  and  N_11 
REMARK       I    between atoms: N_11  and  C_12 
REMARK    4  A    between atoms: C_12  and  C_14 
ROOT
ATOM      1  N   UNL d   1      26.265 -16.523  -0.968  0.00  0.00    -0.308 N 
ATOM      2  C   UNL d   1      25.301 -17.409  -0.487  0.00  0.00     0.339 C 
ATOM      3  O   UNL d   1      25.462 -18.245   0.407  0.00  0.00    -0.245 OA
ATOM      4  N   UNL d   1      24.040 -17.321  -1.058  0.00  0.00    -0.248 N 
ATOM      5  H   UNL d   1      26.025 -15.924  -1.746  0.00  0.00     0.170 HD
ATOM      6  H   UNL d   1      23.774 -16.747  -1.853  0.00  0.00     0.192 HD
ENDROOT
BRANCH   1   7
ATOM      7  C   UNL d   1      27.630 -16.473  -0.518  0.00  0.00     0.036 A 
ATOM      8  C   UNL d   1      28.114 -15.413   0.273  0.00  0.00     0.030 A 
ATOM      9  C   UNL d   1      29.494 -15.311   0.593  0.00  0.00     0.009 A 
ATOM     10  C   UNL d   1      30.393 -16.306   0.197  0.00  0.00    -0.058 A 
ATOM     11  C   UNL d   1      29.896 -17.385  -0.527  0.00  0.00     0.009 A 
ATOM     12  C   UNL d   1      28.550 -17.459  -0.875  0.00  0.00     0.030 A 
BRANCH  10  13
ATOM     13  C   UNL d   1      31.869 -16.282   0.508  0.00  0.00     0.034 C 
ATOM     14  C   UNL d   1      32.113 -16.236   2.012  0.00  0.00     0.010 C 
ENDBRANCH  10  13
ENDBRANCH   1   7
BRANCH   4  15
ATOM     15  N   UNL d   1      23.029 -18.210  -0.532  0.00  0.00    -0.261 N 
ATOM     16  C   UNL d   1      21.677 -17.924  -0.685  0.00  0.00     0.288 C 
ATOM     17  O   UNL d   1      21.295 -16.891  -1.246  0.00  0.00    -0.264 OA
ATOM     18  H   UNL d   1      23.385 -19.098  -0.177  0.00  0.00     0.190 HD
BRANCH  16  19
ATOM     19  C   UNL d   1      20.682 -18.935  -0.138  0.00  0.00     0.125 A 
ATOM     20  C   UNL d   1      20.760 -19.403   1.173  0.00  0.00     0.037 A 
ATOM     21  C   UNL d   1      19.801 -20.322   1.621  0.00  0.00     0.004 A 
ATOM     22  C   UNL d   1      18.792 -20.742   0.760  0.00  0.00     0.019 A 
ATOM     23  C   UNL d   1      18.773 -20.209  -0.518  0.00  0.00     0.117 A 
ATOM     24  N   UNL d   1      19.686 -19.321  -0.985  0.00  0.00    -0.255 NA
ENDBRANCH  16  19
ENDBRANCH   4  15
TORSDOF 4
ENDMDL
