MODEL 1
REMARK VINA RESULT:    -8.057      0.000      0.000
REMARK INTER + INTRA:         -11.683
REMARK INTER:                 -10.145
REMARK INTRA:                  -1.538
REMARK CONF_INDEPENDENT:        2.088
REMARK UNBOUND:                -1.538
REMARK  7 active torsions:
REMARK  status: ('A' for Active; 'I' for Inactive)
REMARK    1  A    between atoms: C_2  and  C_13 
REMARK    2  A    between atoms: C_2  and  O_3 
REMARK    3  A    between atoms: O_3  and  C_4 
REMARK       I    between atoms: C_13  and  N_15 
REMARK    4  A    between atoms: N_15  and  N_16 
REMARK    5  A    between atoms: N_16  and  C_17 
REMARK    6  A    between atoms: C_17  and  N_19 
REMARK    7  A    between atoms: N_19  and  C_20 
ROOT
ATOM      1  C   UNL d   1      27.929 -14.935  -5.243  0.00  0.00     0.265 C 
ATOM      2  O   UNL d   1      27.000 -15.338  -5.925  0.00  0.00    -0.269 OA
ATOM      3  N   UNL d   1      27.935 -15.094  -3.854  0.00  0.00    -0.266 N 
ATOM      4  H   UNL d   1      28.689 -14.765  -3.255  0.00  0.00     0.190 HD
ENDROOT
BRANCH   3   5
ATOM      5  N   UNL d   1      26.794 -15.588  -3.144  0.00  0.00    -0.273 N 
ATOM      6  H   UNL d   1      25.959 -15.734  -3.708  0.00  0.00     0.189 HD
BRANCH   5   7
ATOM      7  C   UNL d   1      26.950 -15.979  -1.805  0.00  0.00     0.191 C 
ATOM      8  S   UNL d   1      28.337 -16.825  -1.325  0.00  0.00    -0.039 SA
BRANCH   7   9
ATOM      9  N   UNL d   1      25.872 -15.626  -0.970  0.00  0.00    -0.331 N 
ATOM     10  H   UNL d   1      25.745 -14.636  -0.790  0.00  0.00     0.168 HD
BRANCH   9  11
ATOM     11  C   UNL d   1      24.726 -16.465  -0.723  0.00  0.00     0.056 A 
ATOM     12  C   UNL d   1      23.430 -16.000  -1.027  0.00  0.00     0.032 A 
ATOM     13  C   UNL d   1      22.308 -16.849  -0.895  0.00  0.00     0.021 A 
ATOM     14  C   UNL d   1      22.473 -18.156  -0.441  0.00  0.00     0.012 A 
ATOM     15 BR   UNL d   1      20.996 -19.324  -0.265  0.00  0.00    -0.051 Br
ATOM     16  C   UNL d   1      23.732 -18.608  -0.070  0.00  0.00     0.045 A 
ATOM     17  C   UNL d   1      24.838 -17.758  -0.168  0.00  0.00     0.062 A 
ATOM     18 CL   UNL d   1      26.284 -18.319   0.611  0.00  0.00    -0.082 Cl
ENDBRANCH   9  11
ENDBRANCH   7   9
ENDBRANCH   5   7
ENDBRANCH   3   5
BRANCH   1  19
ATOM     19  C   UNL d   1      29.203 -14.217  -5.827  0.00  0.00     0.218 C 
ATOM     20  C   UNL d   1      28.866 -13.794  -7.250  0.00  0.00     0.050 C 
BRANCH  19  21
ATOM     21  O   UNL d   1      30.383 -15.053  -5.677  0.00  0.00    -0.337 OA
BRANCH  21  22
ATOM     22  C   UNL d   1      30.437 -16.420  -5.810  0.00  0.00     0.072 A 
ATOM     23  C   UNL d   1      30.334 -17.364  -4.773  0.00  0.00     0.040 A 
ATOM     24  C   UNL d   1      30.408 -18.736  -4.944  0.00  0.00     0.042 A 
ATOM     25  C   UNL d   1      30.643 -19.182  -6.201  0.00  0.00     0.105 A 
ATOM     26  C   UNL d   1      30.796 -18.312  -7.255  0.00  0.00     0.107 A 
ATOM     27  O   UNL d   1      30.782 -20.486  -6.523  0.00  0.00    -0.323 OA
ATOM     28  C   UNL d   1      30.685 -16.929  -7.099  0.00  0.00     0.076 A 
ATOM     29  O   UNL d   1      31.076 -18.997  -8.400  0.00  0.00    -0.323 OA
ATOM     30  C   UNL d   1      31.144 -20.359  -7.904  0.00  0.00     0.352 A 
ENDBRANCH  21  22
ENDBRANCH  19  21
ENDBRANCH   1  19
TORSDOF 7
ENDMDL
MODEL 2
REMARK VINA RESULT:    -7.981      6.617      9.337
REMARK INTER + INTRA:         -12.389
REMARK INTER:                 -10.069
REMARK INTRA:                  -2.320
REMARK CONF_INDEPENDENT:        2.088
REMARK UNBOUND:                -2.320
REMARK  7 active torsions:
REMARK  status: ('A' for Active; 'I' for Inactive)
REMARK    1  A    between atoms: C_2  and  C_13 
REMARK    2  A    between atoms: C_2  and  O_3 
REMARK    3  A    between atoms: O_3  and  C_4 
REMARK       I    between atoms: C_13  and  N_15 
REMARK    4  A    between atoms: N_15  and  N_16 
REMARK    5  A    between atoms: N_16  and  C_17 
REMARK    6  A    between atoms: C_17  and  N_19 
REMARK    7  A    between atoms: N_19  and  C_20 
ROOT
ATOM      1  C   UNL d   1      27.947 -13.816   1.285  0.00  0.00     0.265 C 
ATOM      2  O   UNL d   1      28.176 -13.321   0.192  0.00  0.00    -0.269 OA
ATOM      3  N   UNL d   1      28.424 -15.087   1.621  0.00  0.00    -0.266 N 
ATOM      4  H   UNL d   1      28.247 -15.533   2.519  0.00  0.00     0.190 HD
ENDROOT
BRANCH   3   5
ATOM      5  N   UNL d   1      29.061 -15.935   0.659  0.00  0.00    -0.273 N 
ATOM      6  H   UNL d   1      29.907 -16.401   0.981  0.00  0.00     0.189 HD
BRANCH   5   7
ATOM      7  C   UNL d   1      28.407 -16.186  -0.557  0.00  0.00     0.191 C 
ATOM      8  S   UNL d   1      29.206 -17.025  -1.793  0.00  0.00    -0.039 SA
BRANCH   7   9
ATOM      9  N   UNL d   1      27.098 -15.667  -0.627  0.00  0.00    -0.331 N 
ATOM     10  H   UNL d   1      27.004 -14.726  -0.991  0.00  0.00     0.168 HD
BRANCH   9  11
ATOM     11  C   UNL d   1      25.904 -16.475  -0.647  0.00  0.00     0.056 A 
ATOM     12  C   UNL d   1      25.856 -17.684   0.076  0.00  0.00     0.032 A 
ATOM     13  C   UNL d   1      24.659 -18.429   0.157  0.00  0.00     0.021 A 
ATOM     14  C   UNL d   1      23.513 -17.983  -0.499  0.00  0.00     0.012 A 
ATOM     15 BR   UNL d   1      21.890 -18.949  -0.402  0.00  0.00    -0.051 Br
ATOM     16  C   UNL d   1      23.562 -16.833  -1.274  0.00  0.00     0.045 A 
ATOM     17  C   UNL d   1      24.755 -16.111  -1.383  0.00  0.00     0.062 A 
ATOM     18 CL   UNL d   1      24.781 -14.887  -2.612  0.00  0.00    -0.082 Cl
ENDBRANCH   9  11
ENDBRANCH   7   9
ENDBRANCH   5   7
ENDBRANCH   3   5
BRANCH   1  19
ATOM     19  C   UNL d   1      27.122 -13.103   2.420  0.00  0.00     0.218 C 
ATOM     20  C   UNL d   1      27.744 -11.730   2.630  0.00  0.00     0.050 C 
BRANCH  19  21
ATOM     21  O   UNL d   1      27.030 -13.946   3.601  0.00  0.00    -0.337 OA
BRANCH  21  22
ATOM     22  C   UNL d   1      27.916 -13.979   4.651  0.00  0.00     0.072 A 
ATOM     23  C   UNL d   1      29.045 -14.810   4.765  0.00  0.00     0.040 A 
ATOM     24  C   UNL d   1      29.909 -14.825   5.848  0.00  0.00     0.042 A 
ATOM     25  C   UNL d   1      29.602 -14.009   6.883  0.00  0.00     0.105 A 
ATOM     26  C   UNL d   1      28.490 -13.200   6.856  0.00  0.00     0.107 A 
ATOM     27  O   UNL d   1      30.320 -13.939   8.025  0.00  0.00    -0.323 OA
ATOM     28  C   UNL d   1      27.635 -13.150   5.753  0.00  0.00     0.076 A 
ATOM     29  O   UNL d   1      28.369 -12.517   8.030  0.00  0.00    -0.323 OA
ATOM     30  C   UNL d   1      29.485 -13.056   8.785  0.00  0.00     0.352 A 
ENDBRANCH  21  22
ENDBRANCH  19  21
ENDBRANCH   1  19
TORSDOF 7
ENDMDL
MODEL 3
REMARK VINA RESULT:    -7.758      2.539      3.325
REMARK INTER + INTRA:         -11.493
REMARK INTER:                  -9.846
REMARK INTRA:                  -1.647
REMARK CONF_INDEPENDENT:        2.088
REMARK UNBOUND:                -1.647
REMARK  7 active torsions:
REMARK  status: ('A' for Active; 'I' for Inactive)
REMARK    1  A    between atoms: C_2  and  C_13 
REMARK    2  A    between atoms: C_2  and  O_3 
REMARK    3  A    between atoms: O_3  and  C_4 
REMARK       I    between atoms: C_13  and  N_15 
REMARK    4  A    between atoms: N_15  and  N_16 
REMARK    5  A    between atoms: N_16  and  C_17 
REMARK    6  A    between atoms: C_17  and  N_19 
REMARK    7  A    between atoms: N_19  and  C_20 
ROOT
ATOM      1  C   UNL d   1      30.034 -16.902  -1.562  0.00  0.00     0.265 C 
ATOM      2  O   UNL d   1      29.870 -15.796  -2.052  0.00  0.00    -0.269 OA
ATOM      3  N   UNL d   1      29.595 -17.196  -0.267  0.00  0.00    -0.266 N 
ATOM      4  H   UNL d   1      29.721 -18.104   0.175  0.00  0.00     0.190 HD
ENDROOT
BRANCH   3   5
ATOM      5  N   UNL d   1      29.080 -16.184   0.605  0.00  0.00    -0.273 N 
ATOM      6  H   UNL d   1      29.672 -15.950   1.399  0.00  0.00     0.189 HD
BRANCH   5   7
ATOM      7  C   UNL d   1      27.918 -15.494   0.225  0.00  0.00     0.191 C 
ATOM      8  S   UNL d   1      27.400 -14.150   1.117  0.00  0.00    -0.039 SA
BRANCH   7   9
ATOM      9  N   UNL d   1      27.267 -16.034  -0.902  0.00  0.00    -0.331 N 
ATOM     10  H   UNL d   1      27.850 -16.238  -1.706  0.00  0.00     0.168 HD
BRANCH   9  11
ATOM     11  C   UNL d   1      25.991 -16.704  -0.860  0.00  0.00     0.056 A 
ATOM     12  C   UNL d   1      25.871 -17.958  -0.228  0.00  0.00     0.032 A 
ATOM     13  C   UNL d   1      24.609 -18.575  -0.081  0.00  0.00     0.021 A 
ATOM     14  C   UNL d   1      23.467 -17.954  -0.582  0.00  0.00     0.012 A 
ATOM     15 BR   UNL d   1      21.759 -18.745  -0.393  0.00  0.00    -0.051 Br
ATOM     16  C   UNL d   1      23.576 -16.753  -1.270  0.00  0.00     0.045 A 
ATOM     17  C   UNL d   1      24.828 -16.158  -1.446  0.00  0.00     0.062 A 
ATOM     18 CL   UNL d   1      24.881 -14.843  -2.577  0.00  0.00    -0.082 Cl
ENDBRANCH   9  11
ENDBRANCH   7   9
ENDBRANCH   5   7
ENDBRANCH   3   5
BRANCH   1  19
ATOM     19  C   UNL d   1      30.729 -18.102  -2.308  0.00  0.00     0.218 C 
ATOM     20  C   UNL d   1      31.904 -18.544  -1.448  0.00  0.00     0.050 C 
BRANCH  19  21
ATOM     21  O   UNL d   1      31.047 -17.743  -3.681  0.00  0.00    -0.337 OA
BRANCH  21  22
ATOM     22  C   UNL d   1      31.009 -18.576  -4.773  0.00  0.00     0.072 A 
ATOM     23  C   UNL d   1      30.995 -19.982  -4.750  0.00  0.00     0.040 A 
ATOM     24  C   UNL d   1      30.971 -20.790  -5.875  0.00  0.00     0.042 A 
ATOM     25  C   UNL d   1      31.011 -20.165  -7.075  0.00  0.00     0.105 A 
ATOM     26  C   UNL d   1      31.067 -18.795  -7.170  0.00  0.00     0.107 A 
ATOM     27  O   UNL d   1      31.034 -20.813  -8.260  0.00  0.00    -0.323 OA
ATOM     28  C   UNL d   1      31.053 -17.971  -6.043  0.00  0.00     0.076 A 
ATOM     29  O   UNL d   1      31.153 -18.411  -8.476  0.00  0.00    -0.323 OA
ATOM     30  C   UNL d   1      31.213 -19.699  -9.143  0.00  0.00     0.352 A 
ENDBRANCH  21  22
ENDBRANCH  19  21
ENDBRANCH   1  19
TORSDOF 7
ENDMDL
MODEL 4
REMARK VINA RESULT:    -7.669      3.985      7.939
REMARK INTER + INTRA:         -11.837
REMARK INTER:                  -9.758
REMARK INTRA:                  -2.080
REMARK CONF_INDEPENDENT:        2.088
REMARK UNBOUND:                -2.080
REMARK  7 active torsions:
REMARK  status: ('A' for Active; 'I' for Inactive)
REMARK    1  A    between atoms: C_2  and  C_13 
REMARK    2  A    between atoms: C_2  and  O_3 
REMARK    3  A    between atoms: O_3  and  C_4 
REMARK       I    between atoms: C_13  and  N_15 
REMARK    4  A    between atoms: N_15  and  N_16 
REMARK    5  A    between atoms: N_16  and  C_17 
REMARK    6  A    between atoms: C_17  and  N_19 
REMARK    7  A    between atoms: N_19  and  C_20 
ROOT
ATOM      1  C   UNL d   1      26.974 -15.127  -4.589  0.00  0.00     0.265 C 
ATOM      2  O   UNL d   1      27.047 -15.214  -5.804  0.00  0.00    -0.269 OA
ATOM      3  N   UNL d   1      28.003 -15.592  -3.763  0.00  0.00    -0.266 N 
ATOM      4  H   UNL d   1      27.972 -15.542  -2.747  0.00  0.00     0.190 HD
ENDROOT
BRANCH   3   5
ATOM      5  N   UNL d   1      29.112 -16.334  -4.282  0.00  0.00    -0.273 N 
ATOM      6  H   UNL d   1      29.289 -16.216  -5.277  0.00  0.00     0.189 HD
BRANCH   5   7
ATOM      7  C   UNL d   1      29.949 -17.013  -3.382  0.00  0.00     0.191 C 
ATOM      8  S   UNL d   1      29.618 -16.975  -1.721  0.00  0.00    -0.039 SA
BRANCH   7   9
ATOM      9  N   UNL d   1      31.039 -17.668  -3.989  0.00  0.00    -0.331 N 
ATOM     10  H   UNL d   1      31.756 -18.024  -3.366  0.00  0.00     0.168 HD
BRANCH   9  11
ATOM     11  C   UNL d   1      31.010 -18.242  -5.311  0.00  0.00     0.056 A 
ATOM     12  C   UNL d   1      30.919 -17.406  -6.443  0.00  0.00     0.032 A 
ATOM     13  C   UNL d   1      31.000 -17.944  -7.746  0.00  0.00     0.021 A 
ATOM     14  C   UNL d   1      31.152 -19.317  -7.926  0.00  0.00     0.012 A 
ATOM     15 BR   UNL d   1      31.277 -20.071  -9.656  0.00  0.00    -0.051 Br
ATOM     16  C   UNL d   1      31.172 -20.162  -6.825  0.00  0.00     0.045 A 
ATOM     17  C   UNL d   1      31.057 -19.635  -5.535  0.00  0.00     0.062 A 
ATOM     18 CL   UNL d   1      30.780 -20.794  -4.273  0.00  0.00    -0.082 Cl
ENDBRANCH   9  11
ENDBRANCH   7   9
ENDBRANCH   5   7
ENDBRANCH   3   5
BRANCH   1  19
ATOM     19  C   UNL d   1      25.755 -14.489  -3.823  0.00  0.00     0.218 C 
ATOM     20  C   UNL d   1      25.662 -13.035  -4.262  0.00  0.00     0.050 C 
BRANCH  19  21
ATOM     21  O   UNL d   1      25.870 -14.714  -2.390  0.00  0.00    -0.337 OA
BRANCH  21  22
ATOM     22  C   UNL d   1      25.383 -15.793  -1.691  0.00  0.00     0.072 A 
ATOM     23  C   UNL d   1      26.146 -16.796  -1.069  0.00  0.00     0.040 A 
ATOM     24  C   UNL d   1      25.619 -17.878  -0.384  0.00  0.00     0.042 A 
ATOM     25  C   UNL d   1      24.270 -17.987  -0.362  0.00  0.00     0.105 A 
ATOM     26  C   UNL d   1      23.464 -17.064  -0.985  0.00  0.00     0.107 A 
ATOM     27  O   UNL d   1      23.607 -19.005   0.228  0.00  0.00    -0.323 OA
ATOM     28  C   UNL d   1      23.985 -15.949  -1.645  0.00  0.00     0.076 A 
ATOM     29  O   UNL d   1      22.153 -17.420  -0.868  0.00  0.00    -0.323 OA
ATOM     30  C   UNL d   1      22.268 -18.687  -0.171  0.00  0.00     0.352 A 
ENDBRANCH  21  22
ENDBRANCH  19  21
ENDBRANCH   1  19
TORSDOF 7
ENDMDL
MODEL 5
REMARK VINA RESULT:    -7.653      4.922      8.124
REMARK INTER + INTRA:         -11.983
REMARK INTER:                  -9.741
REMARK INTRA:                  -2.242
REMARK CONF_INDEPENDENT:        2.088
REMARK UNBOUND:                -2.242
REMARK  7 active torsions:
REMARK  status: ('A' for Active; 'I' for Inactive)
REMARK    1  A    between atoms: C_2  and  C_13 
REMARK    2  A    between atoms: C_2  and  O_3 
REMARK    3  A    between atoms: O_3  and  C_4 
REMARK       I    between atoms: C_13  and  N_15 
REMARK    4  A    between atoms: N_15  and  N_16 
REMARK    5  A    between atoms: N_16  and  C_17 
REMARK    6  A    between atoms: C_17  and  N_19 
REMARK    7  A    between atoms: N_19  and  C_20 
ROOT
ATOM      1  C   UNL d   1      27.120 -13.624  -0.916  0.00  0.00     0.265 C 
ATOM      2  O   UNL d   1      28.250 -13.234  -0.666  0.00  0.00    -0.269 OA
ATOM      3  N   UNL d   1      26.312 -12.963  -1.846  0.00  0.00    -0.266 N 
ATOM      4  H   UNL d   1      25.364 -13.256  -2.073  0.00  0.00     0.190 HD
ENDROOT
BRANCH   3   5
ATOM      5  N   UNL d   1      26.697 -11.715  -2.431  0.00  0.00    -0.273 N 
ATOM      6  H   UNL d   1      27.593 -11.345  -2.121  0.00  0.00     0.189 HD
BRANCH   5   7
ATOM      7  C   UNL d   1      25.921 -11.192  -3.478  0.00  0.00     0.191 C 
ATOM      8  S   UNL d   1      25.365  -9.593  -3.406  0.00  0.00    -0.039 SA
BRANCH   7   9
ATOM      9  N   UNL d   1      25.659 -12.108  -4.516  0.00  0.00    -0.331 N 
ATOM     10  H   UNL d   1      24.822 -11.943  -5.064  0.00  0.00     0.168 HD
BRANCH   9  11
ATOM     11  C   UNL d   1      26.654 -12.954  -5.124  0.00  0.00     0.056 A 
ATOM     12  C   UNL d   1      27.544 -12.425  -6.082  0.00  0.00     0.032 A 
ATOM     13  C   UNL d   1      28.594 -13.212  -6.604  0.00  0.00     0.021 A 
ATOM     14  C   UNL d   1      28.749 -14.533  -6.190  0.00  0.00     0.012 A 
ATOM     15 BR   UNL d   1      30.152 -15.611  -6.858  0.00  0.00    -0.051 Br
ATOM     16  C   UNL d   1      27.840 -15.091  -5.302  0.00  0.00     0.045 A 
ATOM     17  C   UNL d   1      26.780 -14.325  -4.809  0.00  0.00     0.062 A 
ATOM     18 CL   UNL d   1      25.545 -15.207  -3.967  0.00  0.00    -0.082 Cl
ENDBRANCH   9  11
ENDBRANCH   7   9
ENDBRANCH   5   7
ENDBRANCH   3   5
BRANCH   1  19
ATOM     19  C   UNL d   1      26.457 -14.887  -0.249  0.00  0.00     0.218 C 
ATOM     20  C   UNL d   1      27.568 -15.897  -0.001  0.00  0.00     0.050 C 
BRANCH  19  21
ATOM     21  O   UNL d   1      25.334 -15.361  -1.043  0.00  0.00    -0.337 OA
BRANCH  21  22
ATOM     22  C   UNL d   1      24.561 -16.468  -0.786  0.00  0.00     0.072 A 
ATOM     23  C   UNL d   1      25.027 -17.746  -0.433  0.00  0.00     0.040 A 
ATOM     24  C   UNL d   1      24.217 -18.844  -0.195  0.00  0.00     0.042 A 
ATOM     25  C   UNL d   1      22.886 -18.667  -0.365  0.00  0.00     0.105 A 
ATOM     26  C   UNL d   1      22.365 -17.454  -0.750  0.00  0.00     0.107 A 
ATOM     27  O   UNL d   1      21.970 -19.649  -0.211  0.00  0.00    -0.323 OA
ATOM     28  C   UNL d   1      23.170 -16.332  -0.955  0.00  0.00     0.076 A 
ATOM     29  O   UNL d   1      21.013 -17.544  -0.905  0.00  0.00    -0.323 OA
ATOM     30  C   UNL d   1      20.793 -18.953  -0.640  0.00  0.00     0.352 A 
ENDBRANCH  21  22
ENDBRANCH  19  21
ENDBRANCH   1  19
TORSDOF 7
ENDMDL
MODEL 6
REMARK VINA RESULT:    -7.452      5.983      9.089
REMARK INTER + INTRA:         -11.967
REMARK INTER:                  -9.540
REMARK INTRA:                  -2.427
REMARK CONF_INDEPENDENT:        2.088
REMARK UNBOUND:                -2.427
REMARK  7 active torsions:
REMARK  status: ('A' for Active; 'I' for Inactive)
REMARK    1  A    between atoms: C_2  and  C_13 
REMARK    2  A    between atoms: C_2  and  O_3 
REMARK    3  A    between atoms: O_3  and  C_4 
REMARK       I    between atoms: C_13  and  N_15 
REMARK    4  A    between atoms: N_15  and  N_16 
REMARK    5  A    between atoms: N_16  and  C_17 
REMARK    6  A    between atoms: C_17  and  N_19 
REMARK    7  A    between atoms: N_19  and  C_20 
ROOT
ATOM      1  C   UNL d   1      27.883 -13.793   0.723  0.00  0.00     0.265 C 
ATOM      2  O   UNL d   1      28.701 -14.559   0.239  0.00  0.00    -0.269 OA
ATOM      3  N   UNL d   1      26.853 -13.246  -0.049  0.00  0.00    -0.266 N 
ATOM      4  H   UNL d   1      26.159 -12.599   0.319  0.00  0.00     0.190 HD
ENDROOT
BRANCH   3   5
ATOM      5  N   UNL d   1      26.796 -13.424  -1.469  0.00  0.00    -0.273 N 
ATOM      6  H   UNL d   1      27.267 -12.709  -2.018  0.00  0.00     0.189 HD
BRANCH   5   7
ATOM      7  C   UNL d   1      26.260 -14.618  -1.977  0.00  0.00     0.191 C 
ATOM      8  S   UNL d   1      25.675 -14.677  -3.566  0.00  0.00    -0.039 SA
BRANCH   7   9
ATOM      9  N   UNL d   1      26.247 -15.685  -1.056  0.00  0.00    -0.331 N 
ATOM     10  H   UNL d   1      26.976 -15.682  -0.352  0.00  0.00     0.168 HD
BRANCH   9  11
ATOM     11  C   UNL d   1      25.091 -16.494  -0.765  0.00  0.00     0.056 A 
ATOM     12  C   UNL d   1      23.799 -16.018  -1.070  0.00  0.00     0.032 A 
ATOM     13  C   UNL d   1      22.665 -16.841  -0.893  0.00  0.00     0.021 A 
ATOM     14  C   UNL d   1      22.813 -18.133  -0.394  0.00  0.00     0.012 A 
ATOM     15 BR   UNL d   1      21.319 -19.268  -0.157  0.00  0.00    -0.051 Br
ATOM     16  C   UNL d   1      24.068 -18.593  -0.022  0.00  0.00     0.045 A 
ATOM     17  C   UNL d   1      25.188 -17.768  -0.164  0.00  0.00     0.062 A 
ATOM     18 CL   UNL d   1      26.634 -18.325   0.617  0.00  0.00    -0.082 Cl
ENDBRANCH   9  11
ENDBRANCH   7   9
ENDBRANCH   5   7
ENDBRANCH   3   5
BRANCH   1  19
ATOM     19  C   UNL d   1      27.879 -13.346   2.233  0.00  0.00     0.218 C 
ATOM     20  C   UNL d   1      27.901 -14.614   3.075  0.00  0.00     0.050 C 
BRANCH  19  21
ATOM     21  O   UNL d   1      26.784 -12.426   2.498  0.00  0.00    -0.337 OA
BRANCH  21  22
ATOM     22  C   UNL d   1      26.888 -11.074   2.718  0.00  0.00     0.072 A 
ATOM     23  C   UNL d   1      27.602 -10.451   3.757  0.00  0.00     0.040 A 
ATOM     24  C   UNL d   1      27.674  -9.082   3.956  0.00  0.00     0.042 A 
ATOM     25  C   UNL d   1      26.959  -8.306   3.108  0.00  0.00     0.105 A 
ATOM     26  C   UNL d   1      26.206  -8.851   2.095  0.00  0.00     0.107 A 
ATOM     27  O   UNL d   1      26.893  -6.959   3.196  0.00  0.00    -0.323 OA
ATOM     28  C   UNL d   1      26.159 -10.227   1.863  0.00  0.00     0.076 A 
ATOM     29  O   UNL d   1      25.540  -7.873   1.417  0.00  0.00    -0.323 OA
ATOM     30  C   UNL d   1      25.922  -6.696   2.175  0.00  0.00     0.352 A 
ENDBRANCH  21  22
ENDBRANCH  19  21
ENDBRANCH   1  19
TORSDOF 7
ENDMDL
MODEL 7
REMARK VINA RESULT:    -7.213      2.396      4.209
REMARK INTER + INTRA:         -11.538
REMARK INTER:                  -9.301
REMARK INTRA:                  -2.237
REMARK CONF_INDEPENDENT:        2.088
REMARK UNBOUND:                -2.237
REMARK  7 active torsions:
REMARK  status: ('A' for Active; 'I' for Inactive)
REMARK    1  A    between atoms: C_2  and  C_13 
REMARK    2  A    between atoms: C_2  and  O_3 
REMARK    3  A    between atoms: O_3  and  C_4 
REMARK       I    between atoms: C_13  and  N_15 
REMARK    4  A    between atoms: N_15  and  N_16 
REMARK    5  A    between atoms: N_16  and  C_17 
REMARK    6  A    between atoms: C_17  and  N_19 
REMARK    7  A    between atoms: N_19  and  C_20 
ROOT
ATOM      1  C   UNL d   1      30.219 -16.703  -1.696  0.00  0.00     0.265 C 
ATOM      2  O   UNL d   1      30.145 -15.516  -1.969  0.00  0.00    -0.269 OA
ATOM      3  N   UNL d   1      29.790 -17.193  -0.458  0.00  0.00    -0.266 N 
ATOM      4  H   UNL d   1      29.843 -18.174  -0.194  0.00  0.00     0.190 HD
ENDROOT
BRANCH   3   5
ATOM      5  N   UNL d   1      29.395 -16.319   0.605  0.00  0.00    -0.273 N 
ATOM      6  H   UNL d   1      30.035 -16.273   1.394  0.00  0.00     0.189 HD
BRANCH   5   7
ATOM      7  C   UNL d   1      28.277 -15.490   0.416  0.00  0.00     0.191 C 
ATOM      8  S   UNL d   1      27.906 -14.293   1.556  0.00  0.00    -0.039 SA
BRANCH   7   9
ATOM      9  N   UNL d   1      27.538 -15.772  -0.750  0.00  0.00    -0.331 N 
ATOM     10  H   UNL d   1      28.045 -15.733  -1.627  0.00  0.00     0.168 HD
BRANCH   9  11
ATOM     11  C   UNL d   1      26.300 -16.510  -0.769  0.00  0.00     0.056 A 
ATOM     12  C   UNL d   1      26.078 -17.543   0.164  0.00  0.00     0.032 A 
ATOM     13  C   UNL d   1      24.829 -18.200   0.231  0.00  0.00     0.021 A 
ATOM     14  C   UNL d   1      23.806 -17.843  -0.645  0.00  0.00     0.012 A 
ATOM     15 BR   UNL d   1      22.117 -18.692  -0.575  0.00  0.00    -0.051 Br
ATOM     16  C   UNL d   1      24.030 -16.877  -1.616  0.00  0.00     0.045 A 
ATOM     17  C   UNL d   1      25.276 -16.250  -1.706  0.00  0.00     0.062 A 
ATOM     18 CL   UNL d   1      25.538 -15.303  -3.137  0.00  0.00    -0.082 Cl
ENDBRANCH   9  11
ENDBRANCH   7   9
ENDBRANCH   5   7
ENDBRANCH   3   5
BRANCH   1  19
ATOM     19  C   UNL d   1      30.780 -17.800  -2.677  0.00  0.00     0.218 C 
ATOM     20  C   UNL d   1      32.257 -17.500  -2.886  0.00  0.00     0.050 C 
BRANCH  19  21
ATOM     21  O   UNL d   1      29.971 -17.878  -3.883  0.00  0.00    -0.337 OA
BRANCH  21  22
ATOM     22  C   UNL d   1      29.819 -16.893  -4.829  0.00  0.00     0.072 A 
ATOM     23  C   UNL d   1      30.632 -16.690  -5.958  0.00  0.00     0.040 A 
ATOM     24  C   UNL d   1      30.456 -15.676  -6.885  0.00  0.00     0.042 A 
ATOM     25  C   UNL d   1      29.454 -14.798  -6.645  0.00  0.00     0.105 A 
ATOM     26  C   UNL d   1      28.647 -14.914  -5.538  0.00  0.00     0.107 A 
ATOM     27  O   UNL d   1      29.181 -13.734  -7.431  0.00  0.00    -0.323 OA
ATOM     28  C   UNL d   1      28.792 -15.955  -4.619  0.00  0.00     0.076 A 
ATOM     29  O   UNL d   1      27.752 -13.885  -5.491  0.00  0.00    -0.323 OA
ATOM     30  C   UNL d   1      28.157 -13.108  -6.648  0.00  0.00     0.352 A 
ENDBRANCH  21  22
ENDBRANCH  19  21
ENDBRANCH   1  19
TORSDOF 7
ENDMDL
MODEL 8
REMARK VINA RESULT:    -7.178      3.183      4.816
REMARK INTER + INTRA:         -11.926
REMARK INTER:                  -9.266
REMARK INTRA:                  -2.660
REMARK CONF_INDEPENDENT:        2.088
REMARK UNBOUND:                -2.660
REMARK  7 active torsions:
REMARK  status: ('A' for Active; 'I' for Inactive)
REMARK    1  A    between atoms: C_2  and  C_13 
REMARK    2  A    between atoms: C_2  and  O_3 
REMARK    3  A    between atoms: O_3  and  C_4 
REMARK       I    between atoms: C_13  and  N_15 
REMARK    4  A    between atoms: N_15  and  N_16 
REMARK    5  A    between atoms: N_16  and  C_17 
REMARK    6  A    between atoms: C_17  and  N_19 
REMARK    7  A    between atoms: N_19  and  C_20 
ROOT
ATOM      1  C   UNL d   1      29.653 -16.458  -0.990  0.00  0.00     0.265 C 
ATOM      2  O   UNL d   1      28.987 -17.478  -0.907  0.00  0.00    -0.269 OA
ATOM      3  N   UNL d   1      29.485 -15.403  -0.087  0.00  0.00    -0.266 N 
ATOM      4  H   UNL d   1      30.017 -14.537  -0.130  0.00  0.00     0.190 HD
ENDROOT
BRANCH   3   5
ATOM      5  N   UNL d   1      28.424 -15.394   0.875  0.00  0.00    -0.273 N 
ATOM      6  H   UNL d   1      28.708 -15.551   1.840  0.00  0.00     0.189 HD
BRANCH   5   7
ATOM      7  C   UNL d   1      27.138 -15.017   0.457  0.00  0.00     0.191 C 
ATOM      8  S   UNL d   1      26.357 -13.706   1.194  0.00  0.00    -0.039 SA
BRANCH   7   9
ATOM      9  N   UNL d   1      26.602 -15.824  -0.566  0.00  0.00    -0.331 N 
ATOM     10  H   UNL d   1      27.255 -16.157  -1.267  0.00  0.00     0.168 HD
BRANCH   9  11
ATOM     11  C   UNL d   1      25.361 -16.548  -0.464  0.00  0.00     0.056 A 
ATOM     12  C   UNL d   1      24.156 -15.952  -0.889  0.00  0.00     0.032 A 
ATOM     13  C   UNL d   1      22.950 -16.687  -0.899  0.00  0.00     0.021 A 
ATOM     14  C   UNL d   1      22.937 -18.011  -0.467  0.00  0.00     0.012 A 
ATOM     15 BR   UNL d   1      21.343 -19.030  -0.479  0.00  0.00    -0.051 Br
ATOM     16  C   UNL d   1      24.099 -18.593   0.021  0.00  0.00     0.045 A 
ATOM     17  C   UNL d   1      25.287 -17.856   0.063  0.00  0.00     0.062 A 
ATOM     18 CL   UNL d   1      26.580 -18.571   0.973  0.00  0.00    -0.082 Cl
ENDBRANCH   9  11
ENDBRANCH   7   9
ENDBRANCH   5   7
ENDBRANCH   3   5
BRANCH   1  19
ATOM     19  C   UNL d   1      30.759 -16.214  -2.085  0.00  0.00     0.218 C 
ATOM     20  C   UNL d   1      32.052 -15.894  -1.351  0.00  0.00     0.050 C 
BRANCH  19  21
ATOM     21  O   UNL d   1      30.317 -15.223  -3.054  0.00  0.00    -0.337 OA
BRANCH  21  22
ATOM     22  C   UNL d   1      29.042 -15.074  -3.546  0.00  0.00     0.072 A 
ATOM     23  C   UNL d   1      28.611 -15.374  -4.849  0.00  0.00     0.040 A 
ATOM     24  C   UNL d   1      27.318 -15.196  -5.314  0.00  0.00     0.042 A 
ATOM     25  C   UNL d   1      26.430 -14.649  -4.450  0.00  0.00     0.105 A 
ATOM     26  C   UNL d   1      26.795 -14.294  -3.173  0.00  0.00     0.107 A 
ATOM     27  O   UNL d   1      25.145 -14.376  -4.765  0.00  0.00    -0.323 OA
ATOM     28  C   UNL d   1      28.086 -14.505  -2.684  0.00  0.00     0.076 A 
ATOM     29  O   UNL d   1      25.745 -13.718  -2.521  0.00  0.00    -0.323 OA
ATOM     30  C   UNL d   1      24.738 -13.705  -3.565  0.00  0.00     0.352 A 
ENDBRANCH  21  22
ENDBRANCH  19  21
ENDBRANCH   1  19
TORSDOF 7
ENDMDL
MODEL 9
REMARK VINA RESULT:    -7.067      2.284      4.876
REMARK INTER + INTRA:         -11.990
REMARK INTER:                  -9.155
REMARK INTRA:                  -2.835
REMARK CONF_INDEPENDENT:        2.088
REMARK UNBOUND:                -2.835
REMARK  7 active torsions:
REMARK  status: ('A' for Active; 'I' for Inactive)
REMARK    1  A    between atoms: C_2  and  C_13 
REMARK    2  A    between atoms: C_2  and  O_3 
REMARK    3  A    between atoms: O_3  and  C_4 
REMARK       I    between atoms: C_13  and  N_15 
REMARK    4  A    between atoms: N_15  and  N_16 
REMARK    5  A    between atoms: N_16  and  C_17 
REMARK    6  A    between atoms: C_17  and  N_19 
REMARK    7  A    between atoms: N_19  and  C_20 
ROOT
ATOM      1  C   UNL d   1      30.014 -17.358  -4.407  0.00  0.00     0.265 C 
ATOM      2  O   UNL d   1      30.253 -18.546  -4.262  0.00  0.00    -0.269 OA
ATOM      3  N   UNL d   1      29.832 -16.513  -3.307  0.00  0.00    -0.266 N 
ATOM      4  H   UNL d   1      29.625 -15.520  -3.391  0.00  0.00     0.190 HD
ENDROOT
BRANCH   3   5
ATOM      5  N   UNL d   1      29.757 -17.018  -1.969  0.00  0.00    -0.273 N 
ATOM      6  H   UNL d   1      30.013 -17.996  -1.857  0.00  0.00     0.189 HD
BRANCH   5   7
ATOM      7  C   UNL d   1      29.509 -16.117  -0.922  0.00  0.00     0.191 C 
ATOM      8  S   UNL d   1      30.260 -14.598  -0.912  0.00  0.00    -0.039 SA
BRANCH   7   9
ATOM      9  N   UNL d   1      28.633 -16.608   0.068  0.00  0.00    -0.331 N 
ATOM     10  H   UNL d   1      28.906 -16.449   1.031  0.00  0.00     0.168 HD
BRANCH   9  11
ATOM     11  C   UNL d   1      27.241 -16.905  -0.155  0.00  0.00     0.056 A 
ATOM     12  C   UNL d   1      26.768 -18.227  -0.018  0.00  0.00     0.032 A 
ATOM     13  C   UNL d   1      25.390 -18.516  -0.124  0.00  0.00     0.021 A 
ATOM     14  C   UNL d   1      24.481 -17.493  -0.385  0.00  0.00     0.012 A 
ATOM     15 BR   UNL d   1      22.627 -17.841  -0.520  0.00  0.00    -0.051 Br
ATOM     16  C   UNL d   1      24.936 -16.198  -0.593  0.00  0.00     0.045 A 
ATOM     17  C   UNL d   1      26.303 -15.915  -0.523  0.00  0.00     0.062 A 
ATOM     18 CL   UNL d   1      26.776 -14.350  -1.103  0.00  0.00    -0.082 Cl
ENDBRANCH   9  11
ENDBRANCH   7   9
ENDBRANCH   5   7
ENDBRANCH   3   5
BRANCH   1  19
ATOM     19  C   UNL d   1      29.894 -16.648  -5.807  0.00  0.00     0.218 C 
ATOM     20  C   UNL d   1      31.039 -17.161  -6.668  0.00  0.00     0.050 C 
BRANCH  19  21
ATOM     21  O   UNL d   1      29.816 -15.204  -5.650  0.00  0.00    -0.337 OA
BRANCH  21  22
ATOM     22  C   UNL d   1      28.707 -14.481  -5.282  0.00  0.00     0.072 A 
ATOM     23  C   UNL d   1      28.658 -13.100  -5.027  0.00  0.00     0.040 A 
ATOM     24  C   UNL d   1      27.521 -12.407  -4.644  0.00  0.00     0.042 A 
ATOM     25  C   UNL d   1      26.396 -13.137  -4.459  0.00  0.00     0.105 A 
ATOM     26  C   UNL d   1      26.383 -14.499  -4.650  0.00  0.00     0.107 A 
ATOM     27  O   UNL d   1      25.220 -12.616  -4.047  0.00  0.00    -0.323 OA
ATOM     28  C   UNL d   1      27.514 -15.200  -5.074  0.00  0.00     0.076 A 
ATOM     29  O   UNL d   1      25.155 -15.010  -4.350  0.00  0.00    -0.323 OA
ATOM     30  C   UNL d   1      24.459 -13.821  -3.895  0.00  0.00     0.352 A 
ENDBRANCH  21  22
ENDBRANCH  19  21
ENDBRANCH   1  19
TORSDOF 7
ENDMDL
