MODEL 1
REMARK VINA RESULT:    -9.514      0.000      0.000
REMARK INTER + INTRA:         -13.290
REMARK INTER:                 -11.900
REMARK INTRA:                  -1.390
REMARK CONF_INDEPENDENT:        2.386
REMARK UNBOUND:                -1.390
REMARK  8 active torsions:
REMARK  status: ('A' for Active; 'I' for Inactive)
REMARK    1  A    between atoms: C_2  and  C_3 
REMARK    2  A    between atoms: C_3  and  C_4 
REMARK    3  A    between atoms: C_4  and  O_5 
REMARK    4  A    between atoms: O_5  and  C_6 
REMARK    5  A    between atoms: C_6  and  C_8 
REMARK    6  A    between atoms: N_14  and  C_15 
REMARK    7  A    between atoms: C_15  and  N_17 
REMARK       I    between atoms: N_17  and  C_18 
REMARK    8  A    between atoms: C_18  and  C_20 
ROOT
ATOM      1  C   UNL d   1      22.686 -17.933  -0.679  0.00  0.00     0.041 A 
ATOM      2  C   UNL d   1      23.468 -18.750   0.161  0.00  0.00     0.020 A 
ATOM      3  C   UNL d   1      24.820 -18.427   0.393  0.00  0.00     0.032 A 
ATOM      4  C   UNL d   1      25.353 -17.288  -0.207  0.00  0.00     0.051 A 
ATOM      5  N   UNL d   1      26.661 -16.828  -0.108  0.00  0.00    -0.334 N 
ATOM      6  C   UNL d   1      26.985 -15.669  -0.783  0.00  0.00     0.174 A 
ATOM      7  N   UNL d   1      28.096 -14.997  -0.866  0.00  0.00    -0.195 NA
ATOM      8  S   UNL d   1      25.521 -15.096  -1.649  0.00  0.00    -0.050 SA
ATOM      9  C   UNL d   1      24.562 -16.474  -1.018  0.00  0.00     0.036 A 
ATOM     10  C   UNL d   1      23.240 -16.783  -1.266  0.00  0.00     0.038 A 
ATOM     11  H   UNL d   1      27.358 -17.308   0.445  0.00  0.00     0.168 HD
ENDROOT
BRANCH   7  12
ATOM     12  C   UNL d   1      29.237 -15.429  -0.195  0.00  0.00     0.203 C 
ATOM     13  S   UNL d   1      30.580 -16.204  -0.906  0.00  0.00    -0.038 SA
BRANCH  12  14
ATOM     14  N   UNL d   1      29.194 -15.183   1.186  0.00  0.00    -0.296 N 
ATOM     15  C   UNL d   1      28.259 -14.375   1.851  0.00  0.00     0.281 C 
ATOM     16  O   UNL d   1      27.328 -13.795   1.286  0.00  0.00    -0.265 OA
ATOM     17  H   UNL d   1      29.878 -15.680   1.745  0.00  0.00     0.171 HD
BRANCH  15  18
ATOM     18  C   UNL d   1      28.389 -14.212   3.274  0.00  0.00     0.142 A 
ATOM     19  C   UNL d   1      27.500 -13.878   4.276  0.00  0.00     0.045 A 
ATOM     20  C   UNL d   1      28.186 -14.066   5.504  0.00  0.00     0.027 A 
ATOM     21  C   UNL d   1      29.447 -14.509   5.183  0.00  0.00     0.143 A 
ATOM     22  O   UNL d   1      29.575 -14.610   3.840  0.00  0.00    -0.317 OA
ENDBRANCH  15  18
ENDBRANCH  12  14
ENDBRANCH   7  12
BRANCH   1  23
ATOM     23  C   UNL d   1      21.305 -18.272  -1.107  0.00  0.00     0.293 C 
ATOM     24  O   UNL d   1      20.468 -17.400  -1.270  0.00  0.00    -0.259 OA
BRANCH  23  25
ATOM     25  O   UNL d   1      21.087 -19.609  -1.210  0.00  0.00    -0.318 OA
BRANCH  25  26
ATOM     26  C   UNL d   1      19.900 -20.028  -0.498  0.00  0.00     0.179 C 
BRANCH  26  27
ATOM     27  C   UNL d   1      20.084 -19.795   0.998  0.00  0.00     0.026 C 
BRANCH  27  28
ATOM     28  C   UNL d   1      18.986 -20.474   1.822  0.00  0.00    -0.002 C 
ATOM     29  C   UNL d   1      18.055 -21.287   0.934  0.00  0.00     0.005 C 
ENDBRANCH  27  28
ENDBRANCH  26  27
ENDBRANCH  25  26
ENDBRANCH  23  25
ENDBRANCH   1  23
TORSDOF 8
ENDMDL
MODEL 2
REMARK VINA RESULT:    -9.386      1.354      1.783
REMARK INTER + INTRA:         -13.452
REMARK INTER:                 -11.772
REMARK INTRA:                  -1.680
REMARK CONF_INDEPENDENT:        2.386
REMARK UNBOUND:                -1.680
REMARK  8 active torsions:
REMARK  status: ('A' for Active; 'I' for Inactive)
REMARK    1  A    between atoms: C_2  and  C_3 
REMARK    2  A    between atoms: C_3  and  C_4 
REMARK    3  A    between atoms: C_4  and  O_5 
REMARK    4  A    between atoms: O_5  and  C_6 
REMARK    5  A    between atoms: C_6  and  C_8 
REMARK    6  A    between atoms: N_14  and  C_15 
REMARK    7  A    between atoms: C_15  and  N_17 
REMARK       I    between atoms: N_17  and  C_18 
REMARK    8  A    between atoms: C_18  and  C_20 
ROOT
ATOM      1  C   UNL d   1      21.850 -18.228  -0.899  0.00  0.00     0.041 A 
ATOM      2  C   UNL d   1      21.779 -16.820  -0.895  0.00  0.00     0.020 A 
ATOM      3  C   UNL d   1      22.940 -16.060  -0.648  0.00  0.00     0.032 A 
ATOM      4  C   UNL d   1      24.145 -16.722  -0.426  0.00  0.00     0.051 A 
ATOM      5  N   UNL d   1      25.377 -16.142  -0.150  0.00  0.00    -0.334 N 
ATOM      6  C   UNL d   1      26.455 -16.984   0.036  0.00  0.00     0.174 A 
ATOM      7  N   UNL d   1      27.709 -16.743   0.285  0.00  0.00    -0.195 NA
ATOM      8  S   UNL d   1      25.880 -18.676  -0.131  0.00  0.00    -0.050 SA
ATOM      9  C   UNL d   1      24.208 -18.116  -0.456  0.00  0.00     0.036 A 
ATOM     10  C   UNL d   1      23.078 -18.876  -0.683  0.00  0.00     0.038 A 
ATOM     11  H   UNL d   1      25.498 -15.140  -0.096  0.00  0.00     0.168 HD
ENDROOT
BRANCH   7  12
ATOM     12  C   UNL d   1      28.167 -15.434   0.412  0.00  0.00     0.203 C 
ATOM     13  S   UNL d   1      28.352 -14.313  -0.860  0.00  0.00    -0.038 SA
BRANCH  12  14
ATOM     14  N   UNL d   1      28.500 -15.089   1.731  0.00  0.00    -0.296 N 
ATOM     15  C   UNL d   1      27.767 -14.238   2.572  0.00  0.00     0.281 C 
ATOM     16  O   UNL d   1      26.705 -13.700   2.247  0.00  0.00    -0.265 OA
ATOM     17  H   UNL d   1      29.322 -15.545   2.113  0.00  0.00     0.171 HD
BRANCH  15  18
ATOM     18  C   UNL d   1      28.280 -13.974   3.890  0.00  0.00     0.142 A 
ATOM     19  C   UNL d   1      27.776 -13.306   4.987  0.00  0.00     0.045 A 
ATOM     20  C   UNL d   1      28.676 -13.551   6.058  0.00  0.00     0.027 A 
ATOM     21  C   UNL d   1      29.669 -14.357   5.555  0.00  0.00     0.143 A 
ATOM     22  O   UNL d   1      29.433 -14.626   4.250  0.00  0.00    -0.317 OA
ENDBRANCH  15  18
ENDBRANCH  12  14
ENDBRANCH   7  12
BRANCH   1  23
ATOM     23  C   UNL d   1      20.664 -19.114  -0.994  0.00  0.00     0.293 C 
ATOM     24  O   UNL d   1      20.418 -19.725  -2.020  0.00  0.00    -0.259 OA
BRANCH  23  25
ATOM     25  O   UNL d   1      19.887 -19.095   0.122  0.00  0.00    -0.318 OA
BRANCH  25  26
ATOM     26  C   UNL d   1      20.651 -19.326   1.327  0.00  0.00     0.179 C 
BRANCH  26  27
ATOM     27  C   UNL d   1      19.880 -20.254   2.259  0.00  0.00     0.026 C 
BRANCH  27  28
ATOM     28  C   UNL d   1      18.406 -20.369   1.862  0.00  0.00    -0.002 C 
ATOM     29  C   UNL d   1      18.180 -21.547   0.924  0.00  0.00     0.005 C 
ENDBRANCH  27  28
ENDBRANCH  26  27
ENDBRANCH  25  26
ENDBRANCH  23  25
ENDBRANCH   1  23
TORSDOF 8
ENDMDL
MODEL 3
REMARK VINA RESULT:    -8.910      0.819      1.055
REMARK INTER + INTRA:         -12.730
REMARK INTER:                 -11.297
REMARK INTRA:                  -1.433
REMARK CONF_INDEPENDENT:        2.386
REMARK UNBOUND:                -1.433
REMARK  8 active torsions:
REMARK  status: ('A' for Active; 'I' for Inactive)
REMARK    1  A    between atoms: C_2  and  C_3 
REMARK    2  A    between atoms: C_3  and  C_4 
REMARK    3  A    between atoms: C_4  and  O_5 
REMARK    4  A    between atoms: O_5  and  C_6 
REMARK    5  A    between atoms: C_6  and  C_8 
REMARK    6  A    between atoms: N_14  and  C_15 
REMARK    7  A    between atoms: C_15  and  N_17 
REMARK       I    between atoms: N_17  and  C_18 
REMARK    8  A    between atoms: C_18  and  C_20 
ROOT
ATOM      1  C   UNL d   1      23.522 -17.981  -0.740  0.00  0.00     0.041 A 
ATOM      2  C   UNL d   1      24.279 -18.657   0.238  0.00  0.00     0.020 A 
ATOM      3  C   UNL d   1      25.570 -18.199   0.566  0.00  0.00     0.032 A 
ATOM      4  C   UNL d   1      26.068 -17.069  -0.077  0.00  0.00     0.051 A 
ATOM      5  N   UNL d   1      27.318 -16.489   0.104  0.00  0.00    -0.334 N 
ATOM      6  C   UNL d   1      27.615 -15.362  -0.636  0.00  0.00     0.174 A 
ATOM      7  N   UNL d   1      28.672 -14.604  -0.672  0.00  0.00    -0.195 NA
ATOM      8  S   UNL d   1      26.205 -14.990  -1.682  0.00  0.00    -0.050 SA
ATOM      9  C   UNL d   1      25.300 -16.393  -1.026  0.00  0.00     0.036 A 
ATOM     10  C   UNL d   1      24.040 -16.836  -1.369  0.00  0.00     0.038 A 
ATOM     11  H   UNL d   1      27.992 -16.861   0.760  0.00  0.00     0.168 HD
ENDROOT
BRANCH   7  12
ATOM     12  C   UNL d   1      29.770 -14.880   0.138  0.00  0.00     0.203 C 
ATOM     13  S   UNL d   1      31.334 -15.290  -0.406  0.00  0.00    -0.038 SA
BRANCH  12  14
ATOM     14  N   UNL d   1      29.479 -14.809   1.509  0.00  0.00    -0.296 N 
ATOM     15  C   UNL d   1      28.575 -13.923   2.116  0.00  0.00     0.281 C 
ATOM     16  O   UNL d   1      27.897 -13.101   1.493  0.00  0.00    -0.265 OA
ATOM     17  H   UNL d   1      29.934 -15.500   2.094  0.00  0.00     0.171 HD
BRANCH  15  18
ATOM     18  C   UNL d   1      28.427 -13.973   3.546  0.00  0.00     0.142 A 
ATOM     19  C   UNL d   1      27.407 -13.621   4.406  0.00  0.00     0.045 A 
ATOM     20  C   UNL d   1      27.786 -14.086   5.693  0.00  0.00     0.027 A 
ATOM     21  C   UNL d   1      29.007 -14.698   5.543  0.00  0.00     0.143 A 
ATOM     22  O   UNL d   1      29.397 -14.644   4.248  0.00  0.00    -0.317 OA
ENDBRANCH  15  18
ENDBRANCH  12  14
ENDBRANCH   7  12
BRANCH   1  23
ATOM     23  C   UNL d   1      22.223 -18.472  -1.264  0.00  0.00     0.293 C 
ATOM     24  O   UNL d   1      22.181 -19.325  -2.135  0.00  0.00    -0.259 OA
BRANCH  23  25
ATOM     25  O   UNL d   1      21.150 -17.826  -0.735  0.00  0.00    -0.318 OA
BRANCH  25  26
ATOM     26  C   UNL d   1      19.925 -18.575  -0.895  0.00  0.00     0.179 C 
BRANCH  26  27
ATOM     27  C   UNL d   1      20.041 -19.917  -0.178  0.00  0.00     0.026 C 
BRANCH  27  28
ATOM     28  C   UNL d   1      18.691 -20.395   0.363  0.00  0.00    -0.002 C 
ATOM     29  C   UNL d   1      18.784 -20.744   1.842  0.00  0.00     0.005 C 
ENDBRANCH  27  28
ENDBRANCH  26  27
ENDBRANCH  25  26
ENDBRANCH  23  25
ENDBRANCH   1  23
TORSDOF 8
ENDMDL
MODEL 4
REMARK VINA RESULT:    -8.335      2.650      4.379
REMARK INTER + INTRA:         -12.951
REMARK INTER:                 -10.721
REMARK INTRA:                  -2.230
REMARK CONF_INDEPENDENT:        2.386
REMARK UNBOUND:                -2.230
REMARK  8 active torsions:
REMARK  status: ('A' for Active; 'I' for Inactive)
REMARK    1  A    between atoms: C_2  and  C_3 
REMARK    2  A    between atoms: C_3  and  C_4 
REMARK    3  A    between atoms: C_4  and  O_5 
REMARK    4  A    between atoms: O_5  and  C_6 
REMARK    5  A    between atoms: C_6  and  C_8 
REMARK    6  A    between atoms: N_14  and  C_15 
REMARK    7  A    between atoms: C_15  and  N_17 
REMARK       I    between atoms: N_17  and  C_18 
REMARK    8  A    between atoms: C_18  and  C_20 
ROOT
ATOM      1  C   UNL d   1      22.072 -18.516  -0.550  0.00  0.00     0.041 A 
ATOM      2  C   UNL d   1      21.932 -17.157  -0.895  0.00  0.00     0.020 A 
ATOM      3  C   UNL d   1      23.056 -16.307  -0.865  0.00  0.00     0.032 A 
ATOM      4  C   UNL d   1      24.293 -16.838  -0.508  0.00  0.00     0.051 A 
ATOM      5  N   UNL d   1      25.498 -16.151  -0.407  0.00  0.00    -0.334 N 
ATOM      6  C   UNL d   1      26.616 -16.871  -0.037  0.00  0.00     0.174 A 
ATOM      7  N   UNL d   1      27.858 -16.518   0.122  0.00  0.00    -0.195 NA
ATOM      8  S   UNL d   1      26.123 -18.576   0.232  0.00  0.00    -0.050 SA
ATOM      9  C   UNL d   1      24.424 -18.191  -0.192  0.00  0.00     0.036 A 
ATOM     10  C   UNL d   1      23.331 -19.034  -0.202  0.00  0.00     0.038 A 
ATOM     11  H   UNL d   1      25.569 -15.163  -0.605  0.00  0.00     0.168 HD
ENDROOT
BRANCH   7  12
ATOM     12  C   UNL d   1      28.254 -15.200  -0.089  0.00  0.00     0.203 C 
ATOM     13  S   UNL d   1      29.080 -14.214   1.032  0.00  0.00    -0.038 SA
BRANCH  12  14
ATOM     14  N   UNL d   1      27.889 -14.708  -1.352  0.00  0.00    -0.296 N 
ATOM     15  C   UNL d   1      26.921 -13.724  -1.606  0.00  0.00     0.281 C 
ATOM     16  O   UNL d   1      26.281 -13.146  -0.724  0.00  0.00    -0.265 OA
ATOM     17  H   UNL d   1      28.418 -15.071  -2.137  0.00  0.00     0.171 HD
BRANCH  15  18
ATOM     18  C   UNL d   1      26.658 -13.364  -2.974  0.00  0.00     0.142 A 
ATOM     19  C   UNL d   1      25.986 -12.315  -3.566  0.00  0.00     0.045 A 
ATOM     20  C   UNL d   1      26.233 -12.412  -4.961  0.00  0.00     0.027 A 
ATOM     21  C   UNL d   1      27.045 -13.506  -5.137  0.00  0.00     0.143 A 
ATOM     22  O   UNL d   1      27.315 -14.082  -3.943  0.00  0.00    -0.317 OA
ENDBRANCH  15  18
ENDBRANCH  12  14
ENDBRANCH   7  12
BRANCH   1  23
ATOM     23  C   UNL d   1      20.929 -19.451  -0.401  0.00  0.00     0.293 C 
ATOM     24  O   UNL d   1      20.282 -19.812  -1.370  0.00  0.00    -0.259 OA
BRANCH  23  25
ATOM     25  O   UNL d   1      20.663 -19.773   0.893  0.00  0.00    -0.318 OA
BRANCH  25  26
ATOM     26  C   UNL d   1      19.324 -19.399   1.288  0.00  0.00     0.179 C 
BRANCH  26  27
ATOM     27  C   UNL d   1      18.722 -20.484   2.175  0.00  0.00     0.026 C 
BRANCH  27  28
ATOM     28  C   UNL d   1      18.019 -21.569   1.355  0.00  0.00    -0.002 C 
ATOM     29  C   UNL d   1      17.741 -21.093  -0.064  0.00  0.00     0.005 C 
ENDBRANCH  27  28
ENDBRANCH  26  27
ENDBRANCH  25  26
ENDBRANCH  23  25
ENDBRANCH   1  23
TORSDOF 8
ENDMDL
MODEL 5
REMARK VINA RESULT:    -8.295      3.011      4.866
REMARK INTER + INTRA:         -12.171
REMARK INTER:                 -10.682
REMARK INTRA:                  -1.489
REMARK CONF_INDEPENDENT:        2.386
REMARK UNBOUND:                -1.489
REMARK  8 active torsions:
REMARK  status: ('A' for Active; 'I' for Inactive)
REMARK    1  A    between atoms: C_2  and  C_3 
REMARK    2  A    between atoms: C_3  and  C_4 
REMARK    3  A    between atoms: C_4  and  O_5 
REMARK    4  A    between atoms: O_5  and  C_6 
REMARK    5  A    between atoms: C_6  and  C_8 
REMARK    6  A    between atoms: N_14  and  C_15 
REMARK    7  A    between atoms: C_15  and  N_17 
REMARK       I    between atoms: N_17  and  C_18 
REMARK    8  A    between atoms: C_18  and  C_20 
ROOT
ATOM      1  C   UNL d   1      21.812 -18.407  -0.589  0.00  0.00     0.041 A 
ATOM      2  C   UNL d   1      21.767 -17.033  -0.896  0.00  0.00     0.020 A 
ATOM      3  C   UNL d   1      22.955 -16.276  -0.902  0.00  0.00     0.032 A 
ATOM      4  C   UNL d   1      24.161 -16.913  -0.617  0.00  0.00     0.051 A 
ATOM      5  N   UNL d   1      25.421 -16.327  -0.560  0.00  0.00    -0.334 N 
ATOM      6  C   UNL d   1      26.493 -17.143  -0.261  0.00  0.00     0.174 A 
ATOM      7  N   UNL d   1      27.766 -16.894  -0.155  0.00  0.00    -0.195 NA
ATOM      8  S   UNL d   1      25.878 -18.809  -0.006  0.00  0.00    -0.050 SA
ATOM      9  C   UNL d   1      24.197 -18.280  -0.338  0.00  0.00     0.036 A 
ATOM     10  C   UNL d   1      23.040 -19.032  -0.314  0.00  0.00     0.038 A 
ATOM     11  H   UNL d   1      25.562 -15.343  -0.740  0.00  0.00     0.168 HD
ENDROOT
BRANCH   7  12
ATOM     12  C   UNL d   1      28.256 -15.606  -0.355  0.00  0.00     0.203 C 
ATOM     13  S   UNL d   1      28.413 -14.401   0.841  0.00  0.00    -0.038 SA
BRANCH  12  14
ATOM     14  N   UNL d   1      28.616 -15.352  -1.688  0.00  0.00    -0.296 N 
ATOM     15  C   UNL d   1      27.776 -15.468  -2.806  0.00  0.00     0.281 C 
ATOM     16  O   UNL d   1      26.588 -15.792  -2.741  0.00  0.00    -0.265 OA
ATOM     17  H   UNL d   1      29.558 -15.006  -1.832  0.00  0.00     0.171 HD
BRANCH  15  18
ATOM     18  C   UNL d   1      28.330 -15.195  -4.106  0.00  0.00     0.142 A 
ATOM     19  C   UNL d   1      29.618 -15.163  -4.600  0.00  0.00     0.045 A 
ATOM     20  C   UNL d   1      29.506 -15.018  -6.008  0.00  0.00     0.027 A 
ATOM     21  C   UNL d   1      28.162 -14.977  -6.291  0.00  0.00     0.143 A 
ATOM     22  O   UNL d   1      27.444 -15.094  -5.150  0.00  0.00    -0.317 OA
ENDBRANCH  15  18
ENDBRANCH  12  14
ENDBRANCH   7  12
BRANCH   1  23
ATOM     23  C   UNL d   1      20.606 -19.252  -0.404  0.00  0.00     0.293 C 
ATOM     24  O   UNL d   1      20.280 -20.073  -1.246  0.00  0.00    -0.259 OA
BRANCH  23  25
ATOM     25  O   UNL d   1      19.906 -18.953   0.723  0.00  0.00    -0.318 OA
BRANCH  25  26
ATOM     26  C   UNL d   1      20.490 -19.547   1.904  0.00  0.00     0.179 C 
BRANCH  26  27
ATOM     27  C   UNL d   1      19.468 -20.449   2.590  0.00  0.00     0.026 C 
BRANCH  27  28
ATOM     28  C   UNL d   1      18.116 -20.431   1.871  0.00  0.00    -0.002 C 
ATOM     29  C   UNL d   1      18.003 -21.585   0.885  0.00  0.00     0.005 C 
ENDBRANCH  27  28
ENDBRANCH  26  27
ENDBRANCH  25  26
ENDBRANCH  23  25
ENDBRANCH   1  23
TORSDOF 8
ENDMDL
MODEL 6
REMARK VINA RESULT:    -8.202      3.571      4.650
REMARK INTER + INTRA:         -12.030
REMARK INTER:                 -10.589
REMARK INTRA:                  -1.441
REMARK CONF_INDEPENDENT:        2.386
REMARK UNBOUND:                -1.441
REMARK  8 active torsions:
REMARK  status: ('A' for Active; 'I' for Inactive)
REMARK    1  A    between atoms: C_2  and  C_3 
REMARK    2  A    between atoms: C_3  and  C_4 
REMARK    3  A    between atoms: C_4  and  O_5 
REMARK    4  A    between atoms: O_5  and  C_6 
REMARK    5  A    between atoms: C_6  and  C_8 
REMARK    6  A    between atoms: N_14  and  C_15 
REMARK    7  A    between atoms: C_15  and  N_17 
REMARK       I    between atoms: N_17  and  C_18 
REMARK    8  A    between atoms: C_18  and  C_20 
ROOT
ATOM      1  C   UNL d   1      23.504 -17.789  -0.567  0.00  0.00     0.041 A 
ATOM      2  C   UNL d   1      24.127 -18.485   0.487  0.00  0.00     0.020 A 
ATOM      3  C   UNL d   1      25.524 -18.398   0.656  0.00  0.00     0.032 A 
ATOM      4  C   UNL d   1      26.261 -17.607  -0.222  0.00  0.00     0.051 A 
ATOM      5  N   UNL d   1      27.638 -17.418  -0.220  0.00  0.00    -0.334 N 
ATOM      6  C   UNL d   1      28.172 -16.586  -1.182  0.00  0.00     0.174 A 
ATOM      7  N   UNL d   1      29.395 -16.209  -1.419  0.00  0.00    -0.195 NA
ATOM      8  S   UNL d   1      26.831 -15.985  -2.212  0.00  0.00    -0.050 SA
ATOM      9  C   UNL d   1      25.629 -16.903  -1.248  0.00  0.00     0.036 A 
ATOM     10  C   UNL d   1      24.265 -16.989  -1.436  0.00  0.00     0.038 A 
ATOM     11  H   UNL d   1      28.238 -17.860   0.463  0.00  0.00     0.168 HD
ENDROOT
BRANCH   7  12
ATOM     12  C   UNL d   1      30.443 -16.665  -0.624  0.00  0.00     0.203 C 
ATOM     13  S   UNL d   1      31.561 -15.685   0.212  0.00  0.00    -0.038 SA
BRANCH  12  14
ATOM     14  N   UNL d   1      30.529 -18.065  -0.569  0.00  0.00    -0.296 N 
ATOM     15  C   UNL d   1      31.221 -18.885  -1.473  0.00  0.00     0.281 C 
ATOM     16  O   UNL d   1      31.872 -18.456  -2.430  0.00  0.00    -0.265 OA
ATOM     17  H   UNL d   1      30.086 -18.504   0.230  0.00  0.00     0.171 HD
BRANCH  15  18
ATOM     18  C   UNL d   1      31.173 -20.309  -1.276  0.00  0.00     0.142 A 
ATOM     19  C   UNL d   1      31.755 -21.377  -1.928  0.00  0.00     0.045 A 
ATOM     20  C   UNL d   1      31.478 -22.528  -1.145  0.00  0.00     0.027 A 
ATOM     21  C   UNL d   1      30.752 -22.097  -0.061  0.00  0.00     0.143 A 
ATOM     22  O   UNL d   1      30.571 -20.757  -0.126  0.00  0.00    -0.317 OA
ENDBRANCH  15  18
ENDBRANCH  12  14
ENDBRANCH   7  12
BRANCH   1  23
ATOM     23  C   UNL d   1      22.070 -17.939  -0.921  0.00  0.00     0.293 C 
ATOM     24  O   UNL d   1      21.314 -16.982  -0.895  0.00  0.00    -0.259 OA
BRANCH  23  25
ATOM     25  O   UNL d   1      21.713 -19.224  -1.186  0.00  0.00    -0.318 OA
BRANCH  25  26
ATOM     26  C   UNL d   1      20.279 -19.389  -1.270  0.00  0.00     0.179 C 
BRANCH  26  27
ATOM     27  C   UNL d   1      19.677 -19.402   0.132  0.00  0.00     0.026 C 
BRANCH  27  28
ATOM     28  C   UNL d   1      19.419 -20.826   0.630  0.00  0.00    -0.002 C 
ATOM     29  C   UNL d   1      18.188 -20.881   1.525  0.00  0.00     0.005 C 
ENDBRANCH  27  28
ENDBRANCH  26  27
ENDBRANCH  25  26
ENDBRANCH  23  25
ENDBRANCH   1  23
TORSDOF 8
ENDMDL
MODEL 7
REMARK VINA RESULT:    -8.095      4.961      6.829
REMARK INTER + INTRA:         -12.748
REMARK INTER:                 -10.481
REMARK INTRA:                  -2.267
REMARK CONF_INDEPENDENT:        2.386
REMARK UNBOUND:                -2.267
REMARK  8 active torsions:
REMARK  status: ('A' for Active; 'I' for Inactive)
REMARK    1  A    between atoms: C_2  and  C_3 
REMARK    2  A    between atoms: C_3  and  C_4 
REMARK    3  A    between atoms: C_4  and  O_5 
REMARK    4  A    between atoms: O_5  and  C_6 
REMARK    5  A    between atoms: C_6  and  C_8 
REMARK    6  A    between atoms: N_14  and  C_15 
REMARK    7  A    between atoms: C_15  and  N_17 
REMARK       I    between atoms: N_17  and  C_18 
REMARK    8  A    between atoms: C_18  and  C_20 
ROOT
ATOM      1  C   UNL d   1      24.693 -16.511  -1.005  0.00  0.00     0.041 A 
ATOM      2  C   UNL d   1      26.009 -16.762  -0.569  0.00  0.00     0.020 A 
ATOM      3  C   UNL d   1      27.097 -16.483  -1.420  0.00  0.00     0.032 A 
ATOM      4  C   UNL d   1      26.844 -15.946  -2.681  0.00  0.00     0.051 A 
ATOM      5  N   UNL d   1      27.784 -15.628  -3.655  0.00  0.00    -0.334 N 
ATOM      6  C   UNL d   1      27.320 -15.100  -4.843  0.00  0.00     0.174 A 
ATOM      7  N   UNL d   1      27.943 -14.697  -5.912  0.00  0.00    -0.195 NA
ATOM      8  S   UNL d   1      25.530 -15.003  -4.754  0.00  0.00    -0.050 SA
ATOM      9  C   UNL d   1      25.538 -15.680  -3.093  0.00  0.00     0.036 A 
ATOM     10  C   UNL d   1      24.462 -15.960  -2.277  0.00  0.00     0.038 A 
ATOM     11  H   UNL d   1      28.774 -15.762  -3.508  0.00  0.00     0.168 HD
ENDROOT
BRANCH   7  12
ATOM     12  C   UNL d   1      29.332 -14.762  -5.991  0.00  0.00     0.203 C 
ATOM     13  S   UNL d   1      30.417 -13.530  -5.531  0.00  0.00    -0.038 SA
BRANCH  12  14
ATOM     14  N   UNL d   1      29.799 -15.975  -6.519  0.00  0.00    -0.296 N 
ATOM     15  C   UNL d   1      30.081 -17.140  -5.788  0.00  0.00     0.281 C 
ATOM     16  O   UNL d   1      29.922 -17.240  -4.569  0.00  0.00    -0.265 OA
ATOM     17  H   UNL d   1      29.889 -16.012  -7.528  0.00  0.00     0.171 HD
BRANCH  15  18
ATOM     18  C   UNL d   1      30.584 -18.286  -6.498  0.00  0.00     0.142 A 
ATOM     19  C   UNL d   1      30.779 -19.607  -6.150  0.00  0.00     0.045 A 
ATOM     20  C   UNL d   1      31.126 -20.292  -7.344  0.00  0.00     0.027 A 
ATOM     21  C   UNL d   1      31.116 -19.355  -8.349  0.00  0.00     0.143 A 
ATOM     22  O   UNL d   1      30.780 -18.142  -7.850  0.00  0.00    -0.317 OA
ENDBRANCH  15  18
ENDBRANCH  12  14
ENDBRANCH   7  12
BRANCH   1  23
ATOM     23  C   UNL d   1      23.481 -16.913  -0.248  0.00  0.00     0.293 C 
ATOM     24  O   UNL d   1      22.532 -16.155  -0.137  0.00  0.00    -0.259 OA
BRANCH  23  25
ATOM     25  O   UNL d   1      23.594 -18.134   0.339  0.00  0.00    -0.318 OA
BRANCH  25  26
ATOM     26  C   UNL d   1      23.130 -19.200  -0.520  0.00  0.00     0.179 C 
BRANCH  26  27
ATOM     27  C   UNL d   1      21.687 -18.937  -0.939  0.00  0.00     0.026 C 
BRANCH  27  28
ATOM     28  C   UNL d   1      20.688 -19.428   0.111  0.00  0.00    -0.002 C 
ATOM     29  C   UNL d   1      19.325 -19.700  -0.510  0.00  0.00     0.005 C 
ENDBRANCH  27  28
ENDBRANCH  26  27
ENDBRANCH  25  26
ENDBRANCH  23  25
ENDBRANCH   1  23
TORSDOF 8
ENDMDL
MODEL 8
REMARK VINA RESULT:    -8.031      3.751      5.551
REMARK INTER + INTRA:         -12.577
REMARK INTER:                 -10.417
REMARK INTRA:                  -2.160
REMARK CONF_INDEPENDENT:        2.386
REMARK UNBOUND:                -2.160
REMARK  8 active torsions:
REMARK  status: ('A' for Active; 'I' for Inactive)
REMARK    1  A    between atoms: C_2  and  C_3 
REMARK    2  A    between atoms: C_3  and  C_4 
REMARK    3  A    between atoms: C_4  and  O_5 
REMARK    4  A    between atoms: O_5  and  C_6 
REMARK    5  A    between atoms: C_6  and  C_8 
REMARK    6  A    between atoms: N_14  and  C_15 
REMARK    7  A    between atoms: C_15  and  N_17 
REMARK       I    between atoms: N_17  and  C_18 
REMARK    8  A    between atoms: C_18  and  C_20 
ROOT
ATOM      1  C   UNL d   1      23.527 -17.937  -0.409  0.00  0.00     0.041 A 
ATOM      2  C   UNL d   1      24.740 -18.525  -0.000  0.00  0.00     0.020 A 
ATOM      3  C   UNL d   1      25.964 -18.014  -0.476  0.00  0.00     0.032 A 
ATOM      4  C   UNL d   1      25.948 -16.918  -1.336  0.00  0.00     0.051 A 
ATOM      5  N   UNL d   1      27.047 -16.297  -1.916  0.00  0.00    -0.334 N 
ATOM      6  C   UNL d   1      26.810 -15.217  -2.742  0.00  0.00     0.174 A 
ATOM      7  N   UNL d   1      27.618 -14.437  -3.400  0.00  0.00    -0.195 NA
ATOM      8  S   UNL d   1      25.037 -14.952  -2.827  0.00  0.00    -0.050 SA
ATOM      9  C   UNL d   1      24.741 -16.329  -1.716  0.00  0.00     0.036 A 
ATOM     10  C   UNL d   1      23.534 -16.826  -1.270  0.00  0.00     0.038 A 
ATOM     11  H   UNL d   1      27.993 -16.606  -1.739  0.00  0.00     0.168 HD
ENDROOT
BRANCH   7  12
ATOM     12  C   UNL d   1      28.996 -14.629  -3.339  0.00  0.00     0.203 C 
ATOM     13  S   UNL d   1      30.071 -13.817  -2.294  0.00  0.00    -0.038 SA
BRANCH  12  14
ATOM     14  N   UNL d   1      29.464 -15.580  -4.260  0.00  0.00    -0.296 N 
ATOM     15  C   UNL d   1      29.759 -16.923  -3.981  0.00  0.00     0.281 C 
ATOM     16  O   UNL d   1      29.614 -17.441  -2.871  0.00  0.00    -0.265 OA
ATOM     17  H   UNL d   1      29.543 -15.263  -5.220  0.00  0.00     0.171 HD
BRANCH  15  18
ATOM     18  C   UNL d   1      30.260 -17.747  -5.048  0.00  0.00     0.142 A 
ATOM     19  C   UNL d   1      30.462 -19.105  -5.183  0.00  0.00     0.045 A 
ATOM     20  C   UNL d   1      30.802 -19.330  -6.544  0.00  0.00     0.027 A 
ATOM     21  C   UNL d   1      30.780 -18.101  -7.159  0.00  0.00     0.143 A 
ATOM     22  O   UNL d   1      30.444 -17.141  -6.267  0.00  0.00    -0.317 OA
ENDBRANCH  15  18
ENDBRANCH  12  14
ENDBRANCH   7  12
BRANCH   1  23
ATOM     23  C   UNL d   1      22.190 -18.494  -0.090  0.00  0.00     0.293 C 
ATOM     24  O   UNL d   1      21.803 -18.575   1.065  0.00  0.00    -0.259 OA
BRANCH  23  25
ATOM     25  O   UNL d   1      21.522 -18.951  -1.182  0.00  0.00    -0.318 OA
BRANCH  25  26
ATOM     26  C   UNL d   1      20.114 -19.146  -0.923  0.00  0.00     0.179 C 
BRANCH  26  27
ATOM     27  C   UNL d   1      19.905 -20.442  -0.145  0.00  0.00     0.026 C 
BRANCH  27  28
ATOM     28  C   UNL d   1      18.816 -20.300   0.921  0.00  0.00    -0.002 C 
ATOM     29  C   UNL d   1      17.992 -21.575   1.039  0.00  0.00     0.005 C 
ENDBRANCH  27  28
ENDBRANCH  26  27
ENDBRANCH  25  26
ENDBRANCH  23  25
ENDBRANCH   1  23
TORSDOF 8
ENDMDL
MODEL 9
REMARK VINA RESULT:    -7.852      3.072      4.902
REMARK INTER + INTRA:         -12.337
REMARK INTER:                 -10.238
REMARK INTRA:                  -2.099
REMARK CONF_INDEPENDENT:        2.386
REMARK UNBOUND:                -2.099
REMARK  8 active torsions:
REMARK  status: ('A' for Active; 'I' for Inactive)
REMARK    1  A    between atoms: C_2  and  C_3 
REMARK    2  A    between atoms: C_3  and  C_4 
REMARK    3  A    between atoms: C_4  and  O_5 
REMARK    4  A    between atoms: O_5  and  C_6 
REMARK    5  A    between atoms: C_6  and  C_8 
REMARK    6  A    between atoms: N_14  and  C_15 
REMARK    7  A    between atoms: C_15  and  N_17 
REMARK       I    between atoms: N_17  and  C_18 
REMARK    8  A    between atoms: C_18  and  C_20 
ROOT
ATOM      1  C   UNL d   1      22.486 -18.196  -0.310  0.00  0.00     0.041 A 
ATOM      2  C   UNL d   1      22.459 -16.915  -0.895  0.00  0.00     0.020 A 
ATOM      3  C   UNL d   1      23.663 -16.207  -1.090  0.00  0.00     0.032 A 
ATOM      4  C   UNL d   1      24.863 -16.803  -0.710  0.00  0.00     0.051 A 
ATOM      5  N   UNL d   1      26.135 -16.251  -0.808  0.00  0.00    -0.334 N 
ATOM      6  C   UNL d   1      27.199 -17.015  -0.373  0.00  0.00     0.174 A 
ATOM      7  N   UNL d   1      28.480 -16.784  -0.354  0.00  0.00    -0.195 NA
ATOM      8  S   UNL d   1      26.558 -18.576   0.239  0.00  0.00    -0.050 SA
ATOM      9  C   UNL d   1      24.879 -18.082  -0.153  0.00  0.00     0.036 A 
ATOM     10  C   UNL d   1      23.709 -18.782   0.057  0.00  0.00     0.038 A 
ATOM     11  H   UNL d   1      26.292 -15.330  -1.192  0.00  0.00     0.168 HD
ENDROOT
BRANCH   7  12
ATOM     12  C   UNL d   1      28.990 -15.579  -0.830  0.00  0.00     0.203 C 
ATOM     13  S   UNL d   1      29.466 -14.249   0.126  0.00  0.00    -0.038 SA
BRANCH  12  14
ATOM     14  N   UNL d   1      29.074 -15.528  -2.230  0.00  0.00    -0.296 N 
ATOM     15  C   UNL d   1      28.081 -15.051  -3.100  0.00  0.00     0.281 C 
ATOM     16  O   UNL d   1      27.003 -14.587  -2.721  0.00  0.00    -0.265 OA
ATOM     17  H   UNL d   1      29.959 -15.820  -2.630  0.00  0.00     0.171 HD
BRANCH  15  18
ATOM     18  C   UNL d   1      28.332 -15.105  -4.515  0.00  0.00     0.142 A 
ATOM     19  C   UNL d   1      27.696 -14.559  -5.612  0.00  0.00     0.045 A 
ATOM     20  C   UNL d   1      28.532 -14.815  -6.732  0.00  0.00     0.027 A 
ATOM     21  C   UNL d   1      29.628 -15.493  -6.254  0.00  0.00     0.143 A 
ATOM     22  O   UNL d   1      29.521 -15.663  -4.915  0.00  0.00    -0.317 OA
ENDBRANCH  15  18
ENDBRANCH  12  14
ENDBRANCH   7  12
BRANCH   1  23
ATOM     23  C   UNL d   1      21.269 -18.952   0.077  0.00  0.00     0.293 C 
ATOM     24  O   UNL d   1      21.030 -19.201   1.247  0.00  0.00    -0.259 OA
BRANCH  23  25
ATOM     25  O   UNL d   1      20.538 -19.377  -0.988  0.00  0.00    -0.318 OA
BRANCH  25  26
ATOM     26  C   UNL d   1      19.175 -19.694  -0.627  0.00  0.00     0.179 C 
BRANCH  26  27
ATOM     27  C   UNL d   1      19.146 -20.955   0.230  0.00  0.00     0.026 C 
BRANCH  27  28
ATOM     28  C   UNL d   1      18.198 -20.815   1.424  0.00  0.00    -0.002 C 
ATOM     29  C   UNL d   1      18.959 -20.450   2.691  0.00  0.00     0.005 C 
ENDBRANCH  27  28
ENDBRANCH  26  27
ENDBRANCH  25  26
ENDBRANCH  23  25
ENDBRANCH   1  23
TORSDOF 8
ENDMDL
