MODEL 1
REMARK VINA RESULT:    -8.928      0.000      0.000
REMARK INTER + INTRA:         -10.552
REMARK INTER:                 -10.121
REMARK INTRA:                  -0.430
REMARK CONF_INDEPENDENT:        1.193
REMARK UNBOUND:                -0.430
REMARK  4 active torsions:
REMARK  status: ('A' for Active; 'I' for Inactive)
REMARK    1  A    between atoms: C_8  and  C_9 
REMARK    2  A    between atoms: C_9  and  N_10 
REMARK       I    between atoms: N_10  and  C_11 
REMARK       I    between atoms: C_11  and  N_13 
REMARK    3  A    between atoms: N_13  and  C_14 
REMARK    4  A    between atoms: C_14  and  C_15 
ROOT
ATOM      1  N   UNL d   1      24.642 -16.136  -0.515  0.00  0.00    -0.337 N 
ATOM      2  C   UNL d   1      24.072 -17.153  -1.240  0.00  0.00     0.316 C 
ATOM      3  O   UNL d   1      24.527 -17.553  -2.309  0.00  0.00    -0.247 OA
ATOM      4  N   UNL d   1      22.949 -17.665  -0.662  0.00  0.00    -0.339 N 
ATOM      5  H   UNL d   1      24.256 -15.813   0.361  0.00  0.00     0.164 HD
ATOM      6  H   UNL d   1      22.720 -17.321   0.250  0.00  0.00     0.164 HD
ENDROOT
BRANCH   1   7
ATOM      7  C   UNL d   1      25.828 -15.470  -1.011  0.00  0.00     0.187 C 
BRANCH   7   8
ATOM      8  C   UNL d   1      25.775 -15.121  -2.467  0.00  0.00     0.092 A 
ATOM      9  N   UNL d   1      24.679 -14.642  -3.079  0.00  0.00    -0.130 NA
ATOM     10  O   UNL d   1      25.049 -14.451  -4.412  0.00  0.00    -0.212 OA
ATOM     11  C   UNL d   1      26.351 -14.813  -4.586  0.00  0.00     0.113 A 
ATOM     12  C   UNL d   1      27.088 -14.770  -5.770  0.00  0.00     0.041 A 
ATOM     13  C   UNL d   1      26.858 -15.249  -3.378  0.00  0.00     0.029 A 
ATOM     14  C   UNL d   1      28.421 -15.200  -5.689  0.00  0.00     0.009 A 
ATOM     15  C   UNL d   1      28.974 -15.653  -4.483  0.00  0.00    -0.061 A 
ATOM     16  C   UNL d   1      30.399 -16.118  -4.413  0.00  0.00     0.048 C 
ATOM     17  C   UNL d   1      28.193 -15.678  -3.314  0.00  0.00     0.023 A 
ENDBRANCH   7   8
ENDBRANCH   1   7
BRANCH   4  18
ATOM     18  C   UNL d   1      22.185 -18.763  -1.250  0.00  0.00     0.162 C 
BRANCH  18  19
ATOM     19  C   UNL d   1      20.986 -19.230  -0.435  0.00  0.00    -0.040 C 
ATOM     20  C   UNL d   1      21.015 -19.322   0.966  0.00  0.00     0.012 C 
ATOM     21  C   UNL d   1      19.988 -19.942   1.674  0.00  0.00     0.043 C 
ATOM     22  C   UNL d   1      18.846 -20.349   1.007  0.00  0.00     0.116 C 
ATOM     23  F   UNL d   1      17.863 -20.949   1.691  0.00  0.00    -0.206 F 
ATOM     24  C   UNL d   1      18.713 -20.135  -0.359  0.00  0.00     0.043 C 
ATOM     25  C   UNL d   1      19.800 -19.630  -1.087  0.00  0.00     0.012 C 
ENDBRANCH  18  19
ENDBRANCH   4  18
TORSDOF 4
ENDMDL
MODEL 2
REMARK VINA RESULT:    -8.675      2.019      2.611
REMARK INTER + INTRA:         -10.393
REMARK INTER:                  -9.868
REMARK INTRA:                  -0.525
REMARK CONF_INDEPENDENT:        1.193
REMARK UNBOUND:                -0.525
REMARK  4 active torsions:
REMARK  status: ('A' for Active; 'I' for Inactive)
REMARK    1  A    between atoms: C_8  and  C_9 
REMARK    2  A    between atoms: C_9  and  N_10 
REMARK       I    between atoms: N_10  and  C_11 
REMARK       I    between atoms: C_11  and  N_13 
REMARK    3  A    between atoms: N_13  and  C_14 
REMARK    4  A    between atoms: C_14  and  C_15 
ROOT
ATOM      1  N   UNL d   1      25.403 -18.300   0.295  0.00  0.00    -0.337 N 
ATOM      2  C   UNL d   1      24.338 -18.139  -0.557  0.00  0.00     0.316 C 
ATOM      3  O   UNL d   1      24.431 -17.592  -1.653  0.00  0.00    -0.247 OA
ATOM      4  N   UNL d   1      23.170 -18.637  -0.062  0.00  0.00    -0.339 N 
ATOM      5  H   UNL d   1      25.313 -18.748   1.196  0.00  0.00     0.164 HD
ATOM      6  H   UNL d   1      23.229 -19.138   0.804  0.00  0.00     0.164 HD
ENDROOT
BRANCH   1   7
ATOM      7  C   UNL d   1      26.709 -17.799  -0.077  0.00  0.00     0.187 C 
BRANCH   7   8
ATOM      8  C   UNL d   1      26.790 -16.307  -0.180  0.00  0.00     0.092 A 
ATOM      9  N   UNL d   1      27.040 -15.500   0.865  0.00  0.00    -0.130 NA
ATOM     10  O   UNL d   1      27.032 -14.203   0.347  0.00  0.00    -0.212 OA
ATOM     11  C   UNL d   1      26.779 -14.243  -0.991  0.00  0.00     0.113 A 
ATOM     12  C   UNL d   1      26.690 -13.160  -1.865  0.00  0.00     0.041 A 
ATOM     13  C   UNL d   1      26.616 -15.560  -1.376  0.00  0.00     0.029 A 
ATOM     14  C   UNL d   1      26.419 -13.464  -3.208  0.00  0.00     0.009 A 
ATOM     15  C   UNL d   1      26.244 -14.787  -3.640  0.00  0.00    -0.061 A 
ATOM     16  C   UNL d   1      25.946 -15.097  -5.078  0.00  0.00     0.048 C 
ATOM     17  C   UNL d   1      26.344 -15.848  -2.723  0.00  0.00     0.023 A 
ENDBRANCH   7   8
ENDBRANCH   1   7
BRANCH   4  18
ATOM     18  C   UNL d   1      21.911 -18.589  -0.802  0.00  0.00     0.162 C 
BRANCH  18  19
ATOM     19  C   UNL d   1      20.717 -19.216  -0.094  0.00  0.00    -0.040 C 
ATOM     20  C   UNL d   1      20.651 -19.349   1.302  0.00  0.00     0.012 C 
ATOM     21  C   UNL d   1      19.652 -20.106   1.913  0.00  0.00     0.043 C 
ATOM     22  C   UNL d   1      18.620 -20.620   1.149  0.00  0.00     0.116 C 
ATOM     23  F   UNL d   1      17.666 -21.350   1.740  0.00  0.00    -0.206 F 
ATOM     24  C   UNL d   1      18.567 -20.380  -0.217  0.00  0.00     0.043 C 
ATOM     25  C   UNL d   1      19.639 -19.730  -0.847  0.00  0.00     0.012 C 
ENDBRANCH  18  19
ENDBRANCH   4  18
TORSDOF 4
ENDMDL
MODEL 3
REMARK VINA RESULT:    -8.565      1.891      2.483
REMARK INTER + INTRA:         -10.127
REMARK INTER:                  -9.758
REMARK INTRA:                  -0.369
REMARK CONF_INDEPENDENT:        1.193
REMARK UNBOUND:                -0.369
REMARK  4 active torsions:
REMARK  status: ('A' for Active; 'I' for Inactive)
REMARK    1  A    between atoms: C_8  and  C_9 
REMARK    2  A    between atoms: C_9  and  N_10 
REMARK       I    between atoms: N_10  and  C_11 
REMARK       I    between atoms: C_11  and  N_13 
REMARK    3  A    between atoms: N_13  and  C_14 
REMARK    4  A    between atoms: C_14  and  C_15 
ROOT
ATOM      1  N   UNL d   1      24.546 -16.036  -0.679  0.00  0.00    -0.337 N 
ATOM      2  C   UNL d   1      24.104 -17.204  -1.249  0.00  0.00     0.316 C 
ATOM      3  O   UNL d   1      24.681 -17.756  -2.183  0.00  0.00    -0.247 OA
ATOM      4  N   UNL d   1      22.960 -17.683  -0.684  0.00  0.00    -0.339 N 
ATOM      5  H   UNL d   1      24.061 -15.589   0.086  0.00  0.00     0.164 HD
ATOM      6  H   UNL d   1      22.626 -17.197   0.126  0.00  0.00     0.164 HD
ENDROOT
BRANCH   1   7
ATOM      7  C   UNL d   1      25.737 -15.388  -1.188  0.00  0.00     0.187 C 
BRANCH   7   8
ATOM      8  C   UNL d   1      25.583 -14.806  -2.559  0.00  0.00     0.092 A 
ATOM      9  N   UNL d   1      25.155 -15.507  -3.622  0.00  0.00    -0.130 NA
ATOM     10  O   UNL d   1      25.155 -14.605  -4.689  0.00  0.00    -0.212 OA
ATOM     11  C   UNL d   1      25.579 -13.384  -4.260  0.00  0.00     0.113 A 
ATOM     12  C   UNL d   1      25.716 -12.224  -5.023  0.00  0.00     0.041 A 
ATOM     13  C   UNL d   1      25.865 -13.459  -2.912  0.00  0.00     0.029 A 
ATOM     14  C   UNL d   1      26.174 -11.084  -4.345  0.00  0.00     0.009 A 
ATOM     15  C   UNL d   1      26.480 -11.118  -2.976  0.00  0.00    -0.061 A 
ATOM     16  C   UNL d   1      26.977  -9.893  -2.265  0.00  0.00     0.048 C 
ATOM     17  C   UNL d   1      26.325 -12.310  -2.247  0.00  0.00     0.023 A 
ENDBRANCH   7   8
ENDBRANCH   1   7
BRANCH   4  18
ATOM     18  C   UNL d   1      22.317 -18.919  -1.121  0.00  0.00     0.162 C 
BRANCH  18  19
ATOM     19  C   UNL d   1      21.052 -19.297  -0.362  0.00  0.00    -0.040 C 
ATOM     20  C   UNL d   1      20.993 -19.325   1.041  0.00  0.00     0.012 C 
ATOM     21  C   UNL d   1      19.897 -19.867   1.711  0.00  0.00     0.043 C 
ATOM     22  C   UNL d   1      18.780 -20.256   0.993  0.00  0.00     0.116 C 
ATOM     23  F   UNL d   1      17.733 -20.782   1.640  0.00  0.00    -0.206 F 
ATOM     24  C   UNL d   1      18.740 -20.101  -0.386  0.00  0.00     0.043 C 
ATOM     25  C   UNL d   1      19.890 -19.677  -1.068  0.00  0.00     0.012 C 
ENDBRANCH  18  19
ENDBRANCH   4  18
TORSDOF 4
ENDMDL
MODEL 4
REMARK VINA RESULT:    -8.203      3.627      9.367
REMARK INTER + INTRA:          -9.907
REMARK INTER:                  -9.397
REMARK INTRA:                  -0.511
REMARK CONF_INDEPENDENT:        1.193
REMARK UNBOUND:                -0.511
REMARK  4 active torsions:
REMARK  status: ('A' for Active; 'I' for Inactive)
REMARK    1  A    between atoms: C_8  and  C_9 
REMARK    2  A    between atoms: C_9  and  N_10 
REMARK       I    between atoms: N_10  and  C_11 
REMARK       I    between atoms: C_11  and  N_13 
REMARK    3  A    between atoms: N_13  and  C_14 
REMARK    4  A    between atoms: C_14  and  C_15 
ROOT
ATOM      1  N   UNL d   1      23.892 -18.173  -1.294  0.00  0.00    -0.337 N 
ATOM      2  C   UNL d   1      24.555 -17.016  -0.967  0.00  0.00     0.316 C 
ATOM      3  O   UNL d   1      24.581 -16.555   0.172  0.00  0.00    -0.247 OA
ATOM      4  N   UNL d   1      25.172 -16.428  -2.030  0.00  0.00    -0.339 N 
ATOM      5  H   UNL d   1      23.874 -18.540  -2.235  0.00  0.00     0.164 HD
ATOM      6  H   UNL d   1      25.156 -16.936  -2.893  0.00  0.00     0.164 HD
ENDROOT
BRANCH   1   7
ATOM      7  C   UNL d   1      23.163 -18.901  -0.277  0.00  0.00     0.187 C 
BRANCH   7   8
ATOM      8  C   UNL d   1      21.773 -19.291  -0.674  0.00  0.00     0.092 A 
ATOM      9  N   UNL d   1      21.325 -19.263  -1.941  0.00  0.00    -0.130 NA
ATOM     10  O   UNL d   1      19.998 -19.697  -1.877  0.00  0.00    -0.212 OA
ATOM     11  C   UNL d   1      19.667 -19.978  -0.586  0.00  0.00     0.113 A 
ATOM     12  C   UNL d   1      18.438 -20.437  -0.112  0.00  0.00     0.041 A 
ATOM     13  C   UNL d   1      20.762 -19.735   0.219  0.00  0.00     0.029 A 
ATOM     14  C   UNL d   1      18.345 -20.655   1.271  0.00  0.00     0.009 A 
ATOM     15  C   UNL d   1      19.433 -20.417   2.125  0.00  0.00    -0.061 A 
ATOM     16  C   UNL d   1      19.318 -20.646   3.604  0.00  0.00     0.048 C 
ATOM     17  C   UNL d   1      20.654 -19.956   1.602  0.00  0.00     0.023 A 
ENDBRANCH   7   8
ENDBRANCH   1   7
BRANCH   4  18
ATOM     18  C   UNL d   1      25.948 -15.195  -1.915  0.00  0.00     0.162 C 
BRANCH  18  19
ATOM     19  C   UNL d   1      26.200 -14.461  -3.225  0.00  0.00    -0.040 C 
ATOM     20  C   UNL d   1      27.041 -14.972  -4.227  0.00  0.00     0.012 C 
ATOM     21  C   UNL d   1      27.420 -14.197  -5.322  0.00  0.00     0.043 C 
ATOM     22  C   UNL d   1      26.847 -12.951  -5.508  0.00  0.00     0.116 C 
ATOM     23  F   UNL d   1      27.218 -12.208  -6.559  0.00  0.00    -0.206 F 
ATOM     24  C   UNL d   1      25.894 -12.473  -4.619  0.00  0.00     0.043 C 
ATOM     25  C   UNL d   1      25.612 -13.198  -3.453  0.00  0.00     0.012 C 
ENDBRANCH  18  19
ENDBRANCH   4  18
TORSDOF 4
ENDMDL
MODEL 5
REMARK VINA RESULT:    -7.975      2.705      3.629
REMARK INTER + INTRA:          -9.521
REMARK INTER:                  -9.168
REMARK INTRA:                  -0.353
REMARK CONF_INDEPENDENT:        1.193
REMARK UNBOUND:                -0.353
REMARK  4 active torsions:
REMARK  status: ('A' for Active; 'I' for Inactive)
REMARK    1  A    between atoms: C_8  and  C_9 
REMARK    2  A    between atoms: C_9  and  N_10 
REMARK       I    between atoms: N_10  and  C_11 
REMARK       I    between atoms: C_11  and  N_13 
REMARK    3  A    between atoms: N_13  and  C_14 
REMARK    4  A    between atoms: C_14  and  C_15 
ROOT
ATOM      1  N   UNL d   1      24.962 -18.361   0.319  0.00  0.00    -0.337 N 
ATOM      2  C   UNL d   1      23.858 -18.221  -0.485  0.00  0.00     0.316 C 
ATOM      3  O   UNL d   1      23.912 -17.784  -1.631  0.00  0.00    -0.247 OA
ATOM      4  N   UNL d   1      22.698 -18.605   0.119  0.00  0.00    -0.339 N 
ATOM      5  H   UNL d   1      24.904 -18.718   1.262  0.00  0.00     0.164 HD
ATOM      6  H   UNL d   1      22.783 -19.026   1.025  0.00  0.00     0.164 HD
ENDROOT
BRANCH   1   7
ATOM      7  C   UNL d   1      26.267 -17.970  -0.171  0.00  0.00     0.187 C 
BRANCH   7   8
ATOM      8  C   UNL d   1      26.342 -16.558  -0.664  0.00  0.00     0.092 A 
ATOM      9  N   UNL d   1      25.927 -16.171  -1.882  0.00  0.00    -0.130 NA
ATOM     10  O   UNL d   1      26.169 -14.796  -1.939  0.00  0.00    -0.212 OA
ATOM     11  C   UNL d   1      26.722 -14.376  -0.767  0.00  0.00     0.113 A 
ATOM     12  C   UNL d   1      27.106 -13.077  -0.434  0.00  0.00     0.041 A 
ATOM     13  C   UNL d   1      26.854 -15.459   0.078  0.00  0.00     0.029 A 
ATOM     14  C   UNL d   1      27.654 -12.898   0.845  0.00  0.00     0.009 A 
ATOM     15  C   UNL d   1      27.809 -13.972   1.733  0.00  0.00    -0.061 A 
ATOM     16  C   UNL d   1      28.405 -13.769   3.095  0.00  0.00     0.048 C 
ATOM     17  C   UNL d   1      27.407 -15.265   1.354  0.00  0.00     0.023 A 
ENDBRANCH   7   8
ENDBRANCH   1   7
BRANCH   4  18
ATOM     18  C   UNL d   1      21.400 -18.555  -0.551  0.00  0.00     0.162 C 
BRANCH  18  19
ATOM     19  C   UNL d   1      20.326 -19.455   0.046  0.00  0.00    -0.040 C 
ATOM     20  C   UNL d   1      19.320 -20.049  -0.733  0.00  0.00     0.012 C 
ATOM     21  C   UNL d   1      18.234 -20.695  -0.145  0.00  0.00     0.043 C 
ATOM     22  C   UNL d   1      18.211 -20.886   1.225  0.00  0.00     0.116 C 
ATOM     23  F   UNL d   1      17.162 -21.503   1.785  0.00  0.00    -0.206 F 
ATOM     24  C   UNL d   1      19.264 -20.447   2.015  0.00  0.00     0.043 C 
ATOM     25  C   UNL d   1      20.290 -19.685   1.438  0.00  0.00     0.012 C 
ENDBRANCH  18  19
ENDBRANCH   4  18
TORSDOF 4
ENDMDL
MODEL 6
REMARK VINA RESULT:    -7.865      6.357      8.577
REMARK INTER + INTRA:          -9.703
REMARK INTER:                  -9.058
REMARK INTRA:                  -0.645
REMARK CONF_INDEPENDENT:        1.193
REMARK UNBOUND:                -0.645
REMARK  4 active torsions:
REMARK  status: ('A' for Active; 'I' for Inactive)
REMARK    1  A    between atoms: C_8  and  C_9 
REMARK    2  A    between atoms: C_9  and  N_10 
REMARK       I    between atoms: N_10  and  C_11 
REMARK       I    between atoms: C_11  and  N_13 
REMARK    3  A    between atoms: N_13  and  C_14 
REMARK    4  A    between atoms: C_14  and  C_15 
ROOT
ATOM      1  N   UNL d   1      28.169 -14.899   2.432  0.00  0.00    -0.337 N 
ATOM      2  C   UNL d   1      27.542 -15.116   1.230  0.00  0.00     0.316 C 
ATOM      3  O   UNL d   1      26.653 -14.388   0.795  0.00  0.00    -0.247 OA
ATOM      4  N   UNL d   1      27.995 -16.222   0.575  0.00  0.00    -0.339 N 
ATOM      5  H   UNL d   1      28.896 -15.508   2.781  0.00  0.00     0.164 HD
ATOM      6  H   UNL d   1      28.781 -16.691   0.983  0.00  0.00     0.164 HD
ENDROOT
BRANCH   1   7
ATOM      7  C   UNL d   1      27.779 -13.778   3.260  0.00  0.00     0.187 C 
BRANCH   7   8
ATOM      8  C   UNL d   1      28.121 -13.934   4.709  0.00  0.00     0.092 A 
ATOM      9  N   UNL d   1      28.186 -15.120   5.336  0.00  0.00    -0.130 NA
ATOM     10  O   UNL d   1      28.531 -14.826   6.657  0.00  0.00    -0.212 OA
ATOM     11  C   UNL d   1      28.669 -13.480   6.809  0.00  0.00     0.113 A 
ATOM     12  C   UNL d   1      29.006 -12.793   7.976  0.00  0.00     0.041 A 
ATOM     13  C   UNL d   1      28.417 -12.866   5.599  0.00  0.00     0.029 A 
ATOM     14  C   UNL d   1      29.085 -11.396   7.875  0.00  0.00     0.009 A 
ATOM     15  C   UNL d   1      28.834 -10.732   6.665  0.00  0.00    -0.061 A 
ATOM     16  C   UNL d   1      28.915  -9.236   6.573  0.00  0.00     0.048 C 
ATOM     17  C   UNL d   1      28.499 -11.467   5.514  0.00  0.00     0.023 A 
ENDBRANCH   7   8
ENDBRANCH   1   7
BRANCH   4  18
ATOM     18  C   UNL d   1      27.481 -16.639  -0.727  0.00  0.00     0.162 C 
BRANCH  18  19
ATOM     19  C   UNL d   1      26.010 -17.031  -0.750  0.00  0.00    -0.040 C 
ATOM     20  C   UNL d   1      25.031 -16.252  -1.387  0.00  0.00     0.012 C 
ATOM     21  C   UNL d   1      23.672 -16.516  -1.222  0.00  0.00     0.043 C 
ATOM     22  C   UNL d   1      23.274 -17.651  -0.538  0.00  0.00     0.116 C 
ATOM     23  F   UNL d   1      21.968 -17.898  -0.378  0.00  0.00    -0.206 F 
ATOM     24  C   UNL d   1      24.217 -18.531  -0.024  0.00  0.00     0.043 C 
ATOM     25  C   UNL d   1      25.578 -18.195  -0.079  0.00  0.00     0.012 C 
ENDBRANCH  18  19
ENDBRANCH   4  18
TORSDOF 4
ENDMDL
MODEL 7
REMARK VINA RESULT:    -7.199      3.970      8.832
REMARK INTER + INTRA:          -9.051
REMARK INTER:                  -8.392
REMARK INTRA:                  -0.660
REMARK CONF_INDEPENDENT:        1.193
REMARK UNBOUND:                -0.660
REMARK  4 active torsions:
REMARK  status: ('A' for Active; 'I' for Inactive)
REMARK    1  A    between atoms: C_8  and  C_9 
REMARK    2  A    between atoms: C_9  and  N_10 
REMARK       I    between atoms: N_10  and  C_11 
REMARK       I    between atoms: C_11  and  N_13 
REMARK    3  A    between atoms: N_13  and  C_14 
REMARK    4  A    between atoms: C_14  and  C_15 
ROOT
ATOM      1  N   UNL d   1      26.235 -13.802  -3.858  0.00  0.00    -0.337 N 
ATOM      2  C   UNL d   1      26.835 -14.498  -4.878  0.00  0.00     0.316 C 
ATOM      3  O   UNL d   1      26.554 -15.661  -5.154  0.00  0.00    -0.247 OA
ATOM      4  N   UNL d   1      27.778 -13.773  -5.544  0.00  0.00    -0.339 N 
ATOM      5  H   UNL d   1      26.477 -12.847  -3.637  0.00  0.00     0.164 HD
ATOM      6  H   UNL d   1      27.863 -12.808  -5.289  0.00  0.00     0.164 HD
ENDROOT
BRANCH   1   7
ATOM      7  C   UNL d   1      25.230 -14.445  -3.037  0.00  0.00     0.187 C 
BRANCH   7   8
ATOM      8  C   UNL d   1      25.774 -15.452  -2.072  0.00  0.00     0.092 A 
ATOM      9  N   UNL d   1      27.070 -15.530  -1.728  0.00  0.00    -0.130 NA
ATOM     10  O   UNL d   1      27.153 -16.587  -0.819  0.00  0.00    -0.212 OA
ATOM     11  C   UNL d   1      25.917 -17.129  -0.628  0.00  0.00     0.113 A 
ATOM     12  C   UNL d   1      25.585 -18.199   0.203  0.00  0.00     0.041 A 
ATOM     13  C   UNL d   1      25.004 -16.443  -1.405  0.00  0.00     0.029 A 
ATOM     14  C   UNL d   1      24.233 -18.572   0.227  0.00  0.00     0.009 A 
ATOM     15  C   UNL d   1      23.274 -17.904  -0.549  0.00  0.00    -0.061 A 
ATOM     16  C   UNL d   1      21.832 -18.319  -0.521  0.00  0.00     0.048 C 
ATOM     17  C   UNL d   1      23.655 -16.829  -1.372  0.00  0.00     0.023 A 
ENDBRANCH   7   8
ENDBRANCH   1   7
BRANCH   4  18
ATOM     18  C   UNL d   1      28.535 -14.306  -6.675  0.00  0.00     0.162 C 
BRANCH  18  19
ATOM     19  C   UNL d   1      29.484 -15.449  -6.340  0.00  0.00    -0.040 C 
ATOM     20  C   UNL d   1      30.401 -15.966  -7.269  0.00  0.00     0.012 C 
ATOM     21  C   UNL d   1      31.112 -17.137  -7.013  0.00  0.00     0.043 C 
ATOM     22  C   UNL d   1      31.028 -17.729  -5.765  0.00  0.00     0.116 C 
ATOM     23  F   UNL d   1      31.709 -18.857  -5.526  0.00  0.00    -0.206 F 
ATOM     24  C   UNL d   1      30.250 -17.160  -4.766  0.00  0.00     0.043 C 
ATOM     25  C   UNL d   1      29.437 -16.058  -5.067  0.00  0.00     0.012 C 
ENDBRANCH  18  19
ENDBRANCH   4  18
TORSDOF 4
ENDMDL
MODEL 8
REMARK VINA RESULT:    -7.063      3.122      4.488
REMARK INTER + INTRA:          -9.030
REMARK INTER:                  -8.256
REMARK INTRA:                  -0.775
REMARK CONF_INDEPENDENT:        1.193
REMARK UNBOUND:                -0.775
REMARK  4 active torsions:
REMARK  status: ('A' for Active; 'I' for Inactive)
REMARK    1  A    between atoms: C_8  and  C_9 
REMARK    2  A    between atoms: C_9  and  N_10 
REMARK       I    between atoms: N_10  and  C_11 
REMARK       I    between atoms: C_11  and  N_13 
REMARK    3  A    between atoms: N_13  and  C_14 
REMARK    4  A    between atoms: C_14  and  C_15 
ROOT
ATOM      1  N   UNL d   1      29.197 -16.669  -2.492  0.00  0.00    -0.337 N 
ATOM      2  C   UNL d   1      28.201 -16.421  -1.580  0.00  0.00     0.316 C 
ATOM      3  O   UNL d   1      27.512 -15.404  -1.597  0.00  0.00    -0.247 OA
ATOM      4  N   UNL d   1      28.061 -17.408  -0.650  0.00  0.00    -0.339 N 
ATOM      5  H   UNL d   1      29.760 -17.507  -2.465  0.00  0.00     0.164 HD
ATOM      6  H   UNL d   1      28.619 -18.230  -0.784  0.00  0.00     0.164 HD
ENDROOT
BRANCH   1   7
ATOM      7  C   UNL d   1      29.486 -15.701  -3.528  0.00  0.00     0.187 C 
BRANCH   7   8
ATOM      8  C   UNL d   1      28.281 -15.217  -4.274  0.00  0.00     0.092 A 
ATOM      9  N   UNL d   1      27.719 -15.885  -5.295  0.00  0.00    -0.130 NA
ATOM     10  O   UNL d   1      26.636 -15.102  -5.702  0.00  0.00    -0.212 OA
ATOM     11  C   UNL d   1      26.559 -13.984  -4.929  0.00  0.00     0.113 A 
ATOM     12  C   UNL d   1      25.618 -12.958  -5.021  0.00  0.00     0.041 A 
ATOM     13  C   UNL d   1      27.585 -14.008  -4.005  0.00  0.00     0.029 A 
ATOM     14  C   UNL d   1      25.752 -11.905  -4.103  0.00  0.00     0.009 A 
ATOM     15  C   UNL d   1      26.782 -11.890  -3.150  0.00  0.00    -0.061 A 
ATOM     16  C   UNL d   1      26.919 -10.753  -2.180  0.00  0.00     0.048 C 
ATOM     17  C   UNL d   1      27.707 -12.946  -3.094  0.00  0.00     0.023 A 
ENDBRANCH   7   8
ENDBRANCH   1   7
BRANCH   4  18
ATOM     18  C   UNL d   1      27.056 -17.364   0.409  0.00  0.00     0.162 C 
BRANCH  18  19
ATOM     19  C   UNL d   1      25.610 -17.414  -0.065  0.00  0.00    -0.040 C 
ATOM     20  C   UNL d   1      24.980 -16.322  -0.684  0.00  0.00     0.012 C 
ATOM     21  C   UNL d   1      23.606 -16.316  -0.922  0.00  0.00     0.043 C 
ATOM     22  C   UNL d   1      22.866 -17.460  -0.681  0.00  0.00     0.116 C 
ATOM     23  F   UNL d   1      21.545 -17.448  -0.906  0.00  0.00    -0.206 F 
ATOM     24  C   UNL d   1      23.481 -18.613  -0.213  0.00  0.00     0.043 C 
ATOM     25  C   UNL d   1      24.836 -18.575   0.148  0.00  0.00     0.012 C 
ENDBRANCH  18  19
ENDBRANCH   4  18
TORSDOF 4
ENDMDL
MODEL 9
REMARK VINA RESULT:    -6.781      4.951      8.197
REMARK INTER + INTRA:          -9.067
REMARK INTER:                  -7.974
REMARK INTRA:                  -1.093
REMARK CONF_INDEPENDENT:        1.193
REMARK UNBOUND:                -1.093
REMARK  4 active torsions:
REMARK  status: ('A' for Active; 'I' for Inactive)
REMARK    1  A    between atoms: C_8  and  C_9 
REMARK    2  A    between atoms: C_9  and  N_10 
REMARK       I    between atoms: N_10  and  C_11 
REMARK       I    between atoms: C_11  and  N_13 
REMARK    3  A    between atoms: N_13  and  C_14 
REMARK    4  A    between atoms: C_14  and  C_15 
ROOT
ATOM      1  N   UNL d   1      28.306 -13.636  -4.985  0.00  0.00    -0.337 N 
ATOM      2  C   UNL d   1      28.537 -14.653  -5.879  0.00  0.00     0.316 C 
ATOM      3  O   UNL d   1      27.643 -15.200  -6.520  0.00  0.00    -0.247 OA
ATOM      4  N   UNL d   1      29.852 -14.999  -5.975  0.00  0.00    -0.339 N 
ATOM      5  H   UNL d   1      29.049 -13.197  -4.460  0.00  0.00     0.164 HD
ATOM      6  H   UNL d   1      30.502 -14.428  -5.470  0.00  0.00     0.164 HD
ENDROOT
BRANCH   1   7
ATOM      7  C   UNL d   1      26.955 -13.173  -4.750  0.00  0.00     0.187 C 
BRANCH   7   8
ATOM      8  C   UNL d   1      26.123 -14.096  -3.914  0.00  0.00     0.092 A 
ATOM      9  N   UNL d   1      24.780 -14.121  -3.943  0.00  0.00    -0.130 NA
ATOM     10  O   UNL d   1      24.405 -15.109  -3.029  0.00  0.00    -0.212 OA
ATOM     11  C   UNL d   1      25.516 -15.661  -2.466  0.00  0.00     0.113 A 
ATOM     12  C   UNL d   1      25.560 -16.676  -1.510  0.00  0.00     0.041 A 
ATOM     13  C   UNL d   1      26.636 -15.050  -2.994  0.00  0.00     0.029 A 
ATOM     14  C   UNL d   1      26.836 -17.075  -1.084  0.00  0.00     0.009 A 
ATOM     15  C   UNL d   1      27.999 -16.478  -1.593  0.00  0.00    -0.061 A 
ATOM     16  C   UNL d   1      29.358 -16.909  -1.123  0.00  0.00     0.048 C 
ATOM     17  C   UNL d   1      27.906 -15.459  -2.557  0.00  0.00     0.023 A 
ENDBRANCH   7   8
ENDBRANCH   1   7
BRANCH   4  18
ATOM     18  C   UNL d   1      30.332 -16.046  -6.874  0.00  0.00     0.162 C 
BRANCH  18  19
ATOM     19  C   UNL d   1      30.521 -17.415  -6.233  0.00  0.00    -0.040 C 
ATOM     20  C   UNL d   1      30.780 -18.572  -6.986  0.00  0.00     0.012 C 
ATOM     21  C   UNL d   1      30.745 -19.839  -6.406  0.00  0.00     0.043 C 
ATOM     22  C   UNL d   1      30.598 -19.959  -5.035  0.00  0.00     0.116 C 
ATOM     23  F   UNL d   1      30.560 -21.179  -4.483  0.00  0.00    -0.206 F 
ATOM     24  C   UNL d   1      30.493 -18.829  -4.236  0.00  0.00     0.043 C 
ATOM     25  C   UNL d   1      30.398 -17.565  -4.835  0.00  0.00     0.012 C 
ENDBRANCH  18  19
ENDBRANCH   4  18
TORSDOF 4
ENDMDL
