MODEL 1
REMARK VINA RESULT:    -7.968      0.000      0.000
REMARK INTER + INTRA:          -9.681
REMARK INTER:                  -8.863
REMARK INTRA:                  -0.819
REMARK CONF_INDEPENDENT:        0.895
REMARK UNBOUND:                -0.819
REMARK  3 active torsions:
REMARK  status: ('A' for Active; 'I' for Inactive)
REMARK       I    between atoms: C_2  and  N_4 
REMARK    1  A    between atoms: N_4  and  C_5 
REMARK    2  A    between atoms: C_7  and  C_8 
REMARK       I    between atoms: C_8  and  N_10 
REMARK    3  A    between atoms: N_10  and  C_11 
ROOT
ATOM      1  C   UNL d   1      26.540 -12.598  -4.544  0.00  0.00     0.055 A 
ATOM      2  C   UNL d   1      25.895 -11.372  -4.307  0.00  0.00     0.031 A 
ATOM      3  C   UNL d   1      25.938 -10.351  -5.265  0.00  0.00     0.002 A 
ATOM      4  C   UNL d   1      26.590 -10.561  -6.478  0.00  0.00     0.002 A 
ATOM      5  C   UNL d   1      27.198 -11.790  -6.736  0.00  0.00     0.025 A 
ATOM      6  C   UNL d   1      27.183 -12.814  -5.778  0.00  0.00     0.071 A 
ATOM      7  C   UNL d   1      27.740 -14.087  -6.140  0.00  0.00     0.102 C 
ATOM      8  N   UNL d   1      28.167 -15.130  -6.443  0.00  0.00    -0.191 NA
ENDROOT
BRANCH   1   9
ATOM      9  N   UNL d   1      26.489 -13.590  -3.532  0.00  0.00    -0.322 N 
ATOM     10  C   UNL d   1      25.542 -14.616  -3.539  0.00  0.00     0.256 C 
ATOM     11  O   UNL d   1      24.781 -14.821  -4.481  0.00  0.00    -0.267 OA
ATOM     12  H   UNL d   1      27.272 -13.623  -2.895  0.00  0.00     0.169 HD
BRANCH  10  13
ATOM     13  C   UNL d   1      25.499 -15.564  -2.389  0.00  0.00     0.034 A 
ATOM     14  C   UNL d   1      24.305 -16.080  -1.887  0.00  0.00     0.047 A 
ATOM     15  C   UNL d   1      24.286 -16.946  -0.785  0.00  0.00     0.041 A 
ATOM     16  C   UNL d   1      25.495 -17.301  -0.160  0.00  0.00    -0.035 A 
ATOM     17  C   UNL d   1      26.703 -16.802  -0.680  0.00  0.00     0.010 A 
ATOM     18  C   UNL d   1      25.543 -18.278   0.979  0.00  0.00     0.050 C 
ATOM     19  C   UNL d   1      26.705 -15.942  -1.782  0.00  0.00     0.018 A 
BRANCH  15  20
ATOM     20  N   UNL d   1      23.034 -17.435  -0.326  0.00  0.00    -0.327 N 
ATOM     21  C   UNL d   1      22.424 -18.538  -0.916  0.00  0.00     0.218 C 
ATOM     22  C   UNL d   1      21.115 -18.967  -0.302  0.00  0.00     0.117 C 
ATOM     23  O   UNL d   1      22.890 -19.169  -1.863  0.00  0.00    -0.274 OA
ATOM     24  H   UNL d   1      22.703 -17.114   0.575  0.00  0.00     0.169 HD
ENDBRANCH  15  20
ENDBRANCH  10  13
ENDBRANCH   1   9
TORSDOF 3
ENDMDL
MODEL 2
REMARK VINA RESULT:    -7.403      2.192      7.391
REMARK INTER + INTRA:          -8.828
REMARK INTER:                  -8.298
REMARK INTRA:                  -0.530
REMARK CONF_INDEPENDENT:        0.895
REMARK UNBOUND:                -0.530
REMARK  3 active torsions:
REMARK  status: ('A' for Active; 'I' for Inactive)
REMARK       I    between atoms: C_2  and  N_4 
REMARK    1  A    between atoms: N_4  and  C_5 
REMARK    2  A    between atoms: C_7  and  C_8 
REMARK       I    between atoms: C_8  and  N_10 
REMARK    3  A    between atoms: N_10  and  C_11 
ROOT
ATOM      1  C   UNL d   1      25.449 -16.706  -1.642  0.00  0.00     0.055 A 
ATOM      2  C   UNL d   1      24.044 -16.669  -1.645  0.00  0.00     0.031 A 
ATOM      3  C   UNL d   1      23.312 -17.426  -0.721  0.00  0.00     0.002 A 
ATOM      4  C   UNL d   1      23.977 -18.190   0.235  0.00  0.00     0.002 A 
ATOM      5  C   UNL d   1      25.372 -18.200   0.270  0.00  0.00     0.025 A 
ATOM      6  C   UNL d   1      26.119 -17.466  -0.663  0.00  0.00     0.071 A 
ATOM      7  C   UNL d   1      27.547 -17.438  -0.516  0.00  0.00     0.102 C 
ATOM      8  N   UNL d   1      28.705 -17.391  -0.380  0.00  0.00    -0.191 NA
ENDROOT
BRANCH   1   9
ATOM      9  N   UNL d   1      26.142 -15.943  -2.615  0.00  0.00    -0.322 N 
ATOM     10  C   UNL d   1      25.528 -14.919  -3.337  0.00  0.00     0.256 C 
ATOM     11  O   UNL d   1      24.396 -14.508  -3.091  0.00  0.00    -0.267 OA
ATOM     12  H   UNL d   1      27.146 -16.058  -2.646  0.00  0.00     0.169 HD
BRANCH  10  13
ATOM     13  C   UNL d   1      26.302 -14.227  -4.408  0.00  0.00     0.034 A 
ATOM     14  C   UNL d   1      27.271 -14.877  -5.172  0.00  0.00     0.047 A 
ATOM     15  C   UNL d   1      28.008 -14.198  -6.152  0.00  0.00     0.041 A 
ATOM     16  C   UNL d   1      27.780 -12.827  -6.368  0.00  0.00    -0.035 A 
ATOM     17  C   UNL d   1      26.786 -12.175  -5.616  0.00  0.00     0.010 A 
ATOM     18  C   UNL d   1      28.489 -12.065  -7.450  0.00  0.00     0.050 C 
ATOM     19  C   UNL d   1      26.056 -12.867  -4.645  0.00  0.00     0.018 A 
BRANCH  15  20
ATOM     20  N   UNL d   1      28.979 -14.922  -6.895  0.00  0.00    -0.327 N 
ATOM     21  C   UNL d   1      29.806 -15.862  -6.289  0.00  0.00     0.218 C 
ATOM     22  C   UNL d   1      30.764 -16.578  -7.207  0.00  0.00     0.117 C 
ATOM     23  O   UNL d   1      29.783 -16.143  -5.093  0.00  0.00    -0.274 OA
ATOM     24  H   UNL d   1      28.907 -14.909  -7.905  0.00  0.00     0.169 HD
ENDBRANCH  15  20
ENDBRANCH  10  13
ENDBRANCH   1   9
TORSDOF 3
ENDMDL
MODEL 3
REMARK VINA RESULT:    -7.349      0.925      2.060
REMARK INTER + INTRA:          -9.042
REMARK INTER:                  -8.244
REMARK INTRA:                  -0.798
REMARK CONF_INDEPENDENT:        0.895
REMARK UNBOUND:                -0.798
REMARK  3 active torsions:
REMARK  status: ('A' for Active; 'I' for Inactive)
REMARK       I    between atoms: C_2  and  N_4 
REMARK    1  A    between atoms: N_4  and  C_5 
REMARK    2  A    between atoms: C_7  and  C_8 
REMARK       I    between atoms: C_8  and  N_10 
REMARK    3  A    between atoms: N_10  and  C_11 
ROOT
ATOM      1  C   UNL d   1      27.542 -13.634  -5.389  0.00  0.00     0.055 A 
ATOM      2  C   UNL d   1      28.389 -14.041  -6.435  0.00  0.00     0.031 A 
ATOM      3  C   UNL d   1      28.545 -13.241  -7.573  0.00  0.00     0.002 A 
ATOM      4  C   UNL d   1      27.891 -12.015  -7.658  0.00  0.00     0.002 A 
ATOM      5  C   UNL d   1      27.080 -11.586  -6.607  0.00  0.00     0.025 A 
ATOM      6  C   UNL d   1      26.894 -12.385  -5.471  0.00  0.00     0.071 A 
ATOM      7  C   UNL d   1      26.128 -11.848  -4.381  0.00  0.00     0.102 C 
ATOM      8  N   UNL d   1      25.530 -11.400  -3.485  0.00  0.00    -0.191 NA
ENDROOT
BRANCH   1   9
ATOM      9  N   UNL d   1      27.396 -14.492  -4.270  0.00  0.00    -0.322 N 
ATOM     10  C   UNL d   1      26.166 -15.043  -3.907  0.00  0.00     0.256 C 
ATOM     11  O   UNL d   1      25.155 -14.944  -4.599  0.00  0.00    -0.267 OA
ATOM     12  H   UNL d   1      28.250 -14.824  -3.844  0.00  0.00     0.169 HD
BRANCH  10  13
ATOM     13  C   UNL d   1      26.081 -15.861  -2.663  0.00  0.00     0.034 A 
ATOM     14  C   UNL d   1      24.866 -16.273  -2.117  0.00  0.00     0.047 A 
ATOM     15  C   UNL d   1      24.809 -17.016  -0.930  0.00  0.00     0.041 A 
ATOM     16  C   UNL d   1      26.001 -17.348  -0.261  0.00  0.00    -0.035 A 
ATOM     17  C   UNL d   1      27.230 -16.955  -0.823  0.00  0.00     0.010 A 
ATOM     18  C   UNL d   1      26.008 -18.200   0.975  0.00  0.00     0.050 C 
ATOM     19  C   UNL d   1      27.269 -16.218  -2.010  0.00  0.00     0.018 A 
BRANCH  15  20
ATOM     20  N   UNL d   1      23.538 -17.404  -0.431  0.00  0.00    -0.327 N 
ATOM     21  C   UNL d   1      22.802 -18.421  -1.030  0.00  0.00     0.218 C 
ATOM     22  C   UNL d   1      21.486 -18.751  -0.372  0.00  0.00     0.117 C 
ATOM     23  O   UNL d   1      23.164 -19.055  -2.020  0.00  0.00    -0.274 OA
ATOM     24  H   UNL d   1      23.277 -17.089   0.495  0.00  0.00     0.169 HD
ENDBRANCH  15  20
ENDBRANCH  10  13
ENDBRANCH   1   9
TORSDOF 3
ENDMDL
MODEL 4
REMARK VINA RESULT:    -7.317      1.286      2.286
REMARK INTER + INTRA:          -8.928
REMARK INTER:                  -8.212
REMARK INTRA:                  -0.716
REMARK CONF_INDEPENDENT:        0.895
REMARK UNBOUND:                -0.716
REMARK  3 active torsions:
REMARK  status: ('A' for Active; 'I' for Inactive)
REMARK       I    between atoms: C_2  and  N_4 
REMARK    1  A    between atoms: N_4  and  C_5 
REMARK    2  A    between atoms: C_7  and  C_8 
REMARK       I    between atoms: C_8  and  N_10 
REMARK    3  A    between atoms: N_10  and  C_11 
ROOT
ATOM      1  C   UNL d   1      26.151 -12.019  -3.991  0.00  0.00     0.055 A 
ATOM      2  C   UNL d   1      25.908 -12.202  -5.363  0.00  0.00     0.031 A 
ATOM      3  C   UNL d   1      25.768 -11.097  -6.212  0.00  0.00     0.002 A 
ATOM      4  C   UNL d   1      25.909  -9.808  -5.706  0.00  0.00     0.002 A 
ATOM      5  C   UNL d   1      26.190  -9.619  -4.353  0.00  0.00     0.025 A 
ATOM      6  C   UNL d   1      26.310 -10.714  -3.485  0.00  0.00     0.071 A 
ATOM      7  C   UNL d   1      26.696 -10.461  -2.125  0.00  0.00     0.102 C 
ATOM      8  N   UNL d   1      27.038 -10.259  -1.028  0.00  0.00    -0.191 NA
ENDROOT
BRANCH   1   9
ATOM      9  N   UNL d   1      26.258 -13.169  -3.168  0.00  0.00    -0.322 N 
ATOM     10  C   UNL d   1      25.313 -14.196  -3.196  0.00  0.00     0.256 C 
ATOM     11  O   UNL d   1      24.406 -14.253  -4.022  0.00  0.00    -0.267 OA
ATOM     12  H   UNL d   1      27.135 -13.295  -2.683  0.00  0.00     0.169 HD
BRANCH  10  13
ATOM     13  C   UNL d   1      25.451 -15.327  -2.233  0.00  0.00     0.034 A 
ATOM     14  C   UNL d   1      24.349 -15.961  -1.659  0.00  0.00     0.047 A 
ATOM     15  C   UNL d   1      24.503 -17.002  -0.733  0.00  0.00     0.041 A 
ATOM     16  C   UNL d   1      25.795 -17.415  -0.360  0.00  0.00    -0.035 A 
ATOM     17  C   UNL d   1      26.908 -16.794  -0.957  0.00  0.00     0.010 A 
ATOM     18  C   UNL d   1      26.021 -18.570   0.572  0.00  0.00     0.050 C 
ATOM     19  C   UNL d   1      26.737 -15.760  -1.882  0.00  0.00     0.018 A 
BRANCH  15  20
ATOM     20  N   UNL d   1      23.338 -17.605  -0.189  0.00  0.00    -0.327 N 
ATOM     21  C   UNL d   1      22.621 -18.568  -0.893  0.00  0.00     0.218 C 
ATOM     22  C   UNL d   1      21.427 -19.147  -0.177  0.00  0.00     0.117 C 
ATOM     23  O   UNL d   1      22.912 -18.970  -2.017  0.00  0.00    -0.274 OA
ATOM     24  H   UNL d   1      23.167 -17.492   0.803  0.00  0.00     0.169 HD
ENDBRANCH  15  20
ENDBRANCH  10  13
ENDBRANCH   1   9
TORSDOF 3
ENDMDL
MODEL 5
REMARK VINA RESULT:    -6.869      2.059      7.562
REMARK INTER + INTRA:          -8.331
REMARK INTER:                  -7.764
REMARK INTRA:                  -0.567
REMARK CONF_INDEPENDENT:        0.895
REMARK UNBOUND:                -0.567
REMARK  3 active torsions:
REMARK  status: ('A' for Active; 'I' for Inactive)
REMARK       I    between atoms: C_2  and  N_4 
REMARK    1  A    between atoms: N_4  and  C_5 
REMARK    2  A    between atoms: C_7  and  C_8 
REMARK       I    between atoms: C_8  and  N_10 
REMARK    3  A    between atoms: N_10  and  C_11 
ROOT
ATOM      1  C   UNL d   1      25.434 -16.761  -1.572  0.00  0.00     0.055 A 
ATOM      2  C   UNL d   1      24.030 -16.770  -1.646  0.00  0.00     0.031 A 
ATOM      3  C   UNL d   1      23.277 -17.523  -0.736  0.00  0.00     0.002 A 
ATOM      4  C   UNL d   1      23.917 -18.237   0.274  0.00  0.00     0.002 A 
ATOM      5  C   UNL d   1      25.307 -18.200   0.378  0.00  0.00     0.025 A 
ATOM      6  C   UNL d   1      26.077 -17.470  -0.539  0.00  0.00     0.071 A 
ATOM      7  C   UNL d   1      27.494 -17.391  -0.323  0.00  0.00     0.102 C 
ATOM      8  N   UNL d   1      28.642 -17.302  -0.131  0.00  0.00    -0.191 NA
ENDROOT
BRANCH   1   9
ATOM      9  N   UNL d   1      26.151 -16.004  -2.533  0.00  0.00    -0.322 N 
ATOM     10  C   UNL d   1      25.549 -14.999  -3.293  0.00  0.00     0.256 C 
ATOM     11  O   UNL d   1      24.405 -14.600  -3.092  0.00  0.00    -0.267 OA
ATOM     12  H   UNL d   1      27.156 -16.107  -2.528  0.00  0.00     0.169 HD
BRANCH  10  13
ATOM     13  C   UNL d   1      26.352 -14.314  -4.347  0.00  0.00     0.034 A 
ATOM     14  C   UNL d   1      26.251 -12.946  -4.595  0.00  0.00     0.047 A 
ATOM     15  C   UNL d   1      26.993 -12.328  -5.611  0.00  0.00     0.041 A 
ATOM     16  C   UNL d   1      27.853 -13.102  -6.411  0.00  0.00    -0.035 A 
ATOM     17  C   UNL d   1      27.976 -14.478  -6.146  0.00  0.00     0.010 A 
ATOM     18  C   UNL d   1      28.724 -12.486  -7.468  0.00  0.00     0.050 C 
ATOM     19  C   UNL d   1      27.232 -15.078  -5.126  0.00  0.00     0.018 A 
BRANCH  15  20
ATOM     20  N   UNL d   1      26.843 -10.930  -5.810  0.00  0.00    -0.327 N 
ATOM     21  C   UNL d   1      25.726 -10.402  -6.449  0.00  0.00     0.218 C 
ATOM     22  C   UNL d   1      25.684  -8.899  -6.558  0.00  0.00     0.117 C 
ATOM     23  O   UNL d   1      24.796 -11.072  -6.894  0.00  0.00    -0.274 OA
ATOM     24  H   UNL d   1      27.446 -10.311  -5.283  0.00  0.00     0.169 HD
ENDBRANCH  15  20
ENDBRANCH  10  13
ENDBRANCH   1   9
TORSDOF 3
ENDMDL
MODEL 6
REMARK VINA RESULT:    -6.798      2.174      3.525
REMARK INTER + INTRA:          -8.476
REMARK INTER:                  -7.693
REMARK INTRA:                  -0.783
REMARK CONF_INDEPENDENT:        0.895
REMARK UNBOUND:                -0.783
REMARK  3 active torsions:
REMARK  status: ('A' for Active; 'I' for Inactive)
REMARK       I    between atoms: C_2  and  N_4 
REMARK    1  A    between atoms: N_4  and  C_5 
REMARK    2  A    between atoms: C_7  and  C_8 
REMARK       I    between atoms: C_8  and  N_10 
REMARK    3  A    between atoms: N_10  and  C_11 
ROOT
ATOM      1  C   UNL d   1      26.691 -12.539  -4.330  0.00  0.00     0.055 A 
ATOM      2  C   UNL d   1      26.031 -11.353  -3.964  0.00  0.00     0.031 A 
ATOM      3  C   UNL d   1      25.902 -10.302  -4.880  0.00  0.00     0.002 A 
ATOM      4  C   UNL d   1      26.393 -10.443  -6.176  0.00  0.00     0.002 A 
ATOM      5  C   UNL d   1      27.013 -11.632  -6.558  0.00  0.00     0.025 A 
ATOM      6  C   UNL d   1      27.172 -12.685  -5.646  0.00  0.00     0.071 A 
ATOM      7  C   UNL d   1      27.730 -13.919  -6.125  0.00  0.00     0.102 C 
ATOM      8  N   UNL d   1      28.156 -14.930  -6.521  0.00  0.00    -0.191 NA
ENDROOT
BRANCH   1   9
ATOM      9  N   UNL d   1      26.820 -13.564  -3.358  0.00  0.00    -0.322 N 
ATOM     10  C   UNL d   1      25.974 -14.674  -3.327  0.00  0.00     0.256 C 
ATOM     11  O   UNL d   1      25.156 -14.920  -4.210  0.00  0.00    -0.267 OA
ATOM     12  H   UNL d   1      27.655 -13.542  -2.790  0.00  0.00     0.169 HD
BRANCH  10  13
ATOM     13  C   UNL d   1      26.118 -15.659  -2.217  0.00  0.00     0.034 A 
ATOM     14  C   UNL d   1      27.349 -15.953  -1.631  0.00  0.00     0.047 A 
ATOM     15  C   UNL d   1      27.465 -16.905  -0.609  0.00  0.00     0.041 A 
ATOM     16  C   UNL d   1      26.320 -17.592  -0.166  0.00  0.00    -0.035 A 
ATOM     17  C   UNL d   1      25.073 -17.279  -0.738  0.00  0.00     0.010 A 
ATOM     18  C   UNL d   1      26.371 -18.571   0.971  0.00  0.00     0.050 C 
ATOM     19  C   UNL d   1      24.974 -16.324  -1.754  0.00  0.00     0.018 A 
BRANCH  15  20
ATOM     20  N   UNL d   1      28.748 -17.155  -0.055  0.00  0.00    -0.327 N 
ATOM     21  C   UNL d   1      29.866 -17.339  -0.863  0.00  0.00     0.218 C 
ATOM     22  C   UNL d   1      31.169 -17.561  -0.137  0.00  0.00     0.117 C 
ATOM     23  O   UNL d   1      29.850 -17.310  -2.092  0.00  0.00    -0.274 OA
ATOM     24  H   UNL d   1      28.880 -16.975   0.933  0.00  0.00     0.169 HD
ENDBRANCH  15  20
ENDBRANCH  10  13
ENDBRANCH   1   9
TORSDOF 3
ENDMDL
MODEL 7
REMARK VINA RESULT:    -6.775      2.202      3.329
REMARK INTER + INTRA:          -8.460
REMARK INTER:                  -7.669
REMARK INTRA:                  -0.791
REMARK CONF_INDEPENDENT:        0.895
REMARK UNBOUND:                -0.791
REMARK  3 active torsions:
REMARK  status: ('A' for Active; 'I' for Inactive)
REMARK       I    between atoms: C_2  and  N_4 
REMARK    1  A    between atoms: N_4  and  C_5 
REMARK    2  A    between atoms: C_7  and  C_8 
REMARK       I    between atoms: C_8  and  N_10 
REMARK    3  A    between atoms: N_10  and  C_11 
ROOT
ATOM      1  C   UNL d   1      26.712 -12.487  -4.648  0.00  0.00     0.055 A 
ATOM      2  C   UNL d   1      25.994 -11.310  -4.375  0.00  0.00     0.031 A 
ATOM      3  C   UNL d   1      25.903 -10.295  -5.336  0.00  0.00     0.002 A 
ATOM      4  C   UNL d   1      26.492 -10.466  -6.586  0.00  0.00     0.002 A 
ATOM      5  C   UNL d   1      27.172 -11.648  -6.879  0.00  0.00     0.025 A 
ATOM      6  C   UNL d   1      27.292 -12.664  -5.919  0.00  0.00     0.071 A 
ATOM      7  C   UNL d   1      27.918 -13.895  -6.311  0.00  0.00     0.102 C 
ATOM      8  N   UNL d   1      28.401 -14.906  -6.637  0.00  0.00    -0.191 NA
ENDROOT
BRANCH   1   9
ATOM      9  N   UNL d   1      26.797 -13.473  -3.632  0.00  0.00    -0.322 N 
ATOM     10  C   UNL d   1      25.777 -14.398  -3.403  0.00  0.00     0.256 C 
ATOM     11  O   UNL d   1      24.803 -14.522  -4.141  0.00  0.00    -0.267 OA
ATOM     12  H   UNL d   1      27.698 -13.587  -3.191  0.00  0.00     0.169 HD
BRANCH  10  13
ATOM     13  C   UNL d   1      25.906 -15.342  -2.255  0.00  0.00     0.034 A 
ATOM     14  C   UNL d   1      26.757 -15.100  -1.177  0.00  0.00     0.047 A 
ATOM     15  C   UNL d   1      26.884 -16.016  -0.124  0.00  0.00     0.041 A 
ATOM     16  C   UNL d   1      26.148 -17.214  -0.153  0.00  0.00    -0.035 A 
ATOM     17  C   UNL d   1      25.270 -17.449  -1.227  0.00  0.00     0.010 A 
ATOM     18  C   UNL d   1      26.191 -18.200   0.979  0.00  0.00     0.050 C 
ATOM     19  C   UNL d   1      25.151 -16.523  -2.267  0.00  0.00     0.018 A 
BRANCH  15  20
ATOM     20  N   UNL d   1      27.768 -15.706   0.944  0.00  0.00    -0.327 N 
ATOM     21  C   UNL d   1      27.633 -14.536   1.682  0.00  0.00     0.218 C 
ATOM     22  C   UNL d   1      28.620 -14.355   2.808  0.00  0.00     0.117 C 
ATOM     23  O   UNL d   1      26.770 -13.682   1.486  0.00  0.00    -0.274 OA
ATOM     24  H   UNL d   1      28.354 -16.450   1.303  0.00  0.00     0.169 HD
ENDBRANCH  15  20
ENDBRANCH  10  13
ENDBRANCH   1   9
TORSDOF 3
ENDMDL
MODEL 8
REMARK VINA RESULT:    -6.667      2.419      7.591
REMARK INTER + INTRA:          -8.163
REMARK INTER:                  -7.562
REMARK INTRA:                  -0.601
REMARK CONF_INDEPENDENT:        0.895
REMARK UNBOUND:                -0.601
REMARK  3 active torsions:
REMARK  status: ('A' for Active; 'I' for Inactive)
REMARK       I    between atoms: C_2  and  N_4 
REMARK    1  A    between atoms: N_4  and  C_5 
REMARK    2  A    between atoms: C_7  and  C_8 
REMARK       I    between atoms: C_8  and  N_10 
REMARK    3  A    between atoms: N_10  and  C_11 
ROOT
ATOM      1  C   UNL d   1      25.147 -16.643  -1.349  0.00  0.00     0.055 A 
ATOM      2  C   UNL d   1      23.941 -15.949  -1.551  0.00  0.00     0.031 A 
ATOM      3  C   UNL d   1      22.772 -16.354  -0.895  0.00  0.00     0.002 A 
ATOM      4  C   UNL d   1      22.807 -17.425  -0.006  0.00  0.00     0.002 A 
ATOM      5  C   UNL d   1      24.009 -18.093   0.229  0.00  0.00     0.025 A 
ATOM      6  C   UNL d   1      25.183 -17.715  -0.437  0.00  0.00     0.071 A 
ATOM      7  C   UNL d   1      26.407 -18.376  -0.080  0.00  0.00     0.102 C 
ATOM      8  N   UNL d   1      27.406 -18.893   0.231  0.00  0.00    -0.191 NA
ENDROOT
BRANCH   1   9
ATOM      9  N   UNL d   1      26.297 -16.210  -2.057  0.00  0.00    -0.322 N 
ATOM     10  C   UNL d   1      26.218 -15.616  -3.317  0.00  0.00     0.256 C 
ATOM     11  O   UNL d   1      25.155 -15.295  -3.843  0.00  0.00    -0.267 OA
ATOM     12  H   UNL d   1      27.165 -16.196  -1.539  0.00  0.00     0.169 HD
BRANCH  10  13
ATOM     13  C   UNL d   1      27.481 -15.273  -4.033  0.00  0.00     0.034 A 
ATOM     14  C   UNL d   1      27.495 -14.809  -5.348  0.00  0.00     0.047 A 
ATOM     15  C   UNL d   1      28.696 -14.523  -6.011  0.00  0.00     0.041 A 
ATOM     16  C   UNL d   1      29.920 -14.716  -5.346  0.00  0.00    -0.035 A 
ATOM     17  C   UNL d   1      29.908 -15.160  -4.011  0.00  0.00     0.010 A 
ATOM     18  C   UNL d   1      31.234 -14.361  -5.980  0.00  0.00     0.050 C 
ATOM     19  C   UNL d   1      28.701 -15.438  -3.362  0.00  0.00     0.018 A 
BRANCH  15  20
ATOM     20  N   UNL d   1      28.638 -14.052  -7.350  0.00  0.00    -0.327 N 
ATOM     21  C   UNL d   1      28.491 -12.699  -7.638  0.00  0.00     0.218 C 
ATOM     22  C   UNL d   1      28.480 -12.340  -9.103  0.00  0.00     0.117 C 
ATOM     23  O   UNL d   1      28.393 -11.812  -6.792  0.00  0.00    -0.274 OA
ATOM     24  H   UNL d   1      28.931 -14.682  -8.086  0.00  0.00     0.169 HD
ENDBRANCH  15  20
ENDBRANCH  10  13
ENDBRANCH   1   9
TORSDOF 3
ENDMDL
MODEL 9
REMARK VINA RESULT:    -6.617      2.156      7.461
REMARK INTER + INTRA:          -8.301
REMARK INTER:                  -7.512
REMARK INTRA:                  -0.789
REMARK CONF_INDEPENDENT:        0.895
REMARK UNBOUND:                -0.789
REMARK  3 active torsions:
REMARK  status: ('A' for Active; 'I' for Inactive)
REMARK       I    between atoms: C_2  and  N_4 
REMARK    1  A    between atoms: N_4  and  C_5 
REMARK    2  A    between atoms: C_7  and  C_8 
REMARK       I    between atoms: C_8  and  N_10 
REMARK    3  A    between atoms: N_10  and  C_11 
ROOT
ATOM      1  C   UNL d   1      25.017 -16.250  -1.375  0.00  0.00     0.055 A 
ATOM      2  C   UNL d   1      23.646 -16.537  -1.254  0.00  0.00     0.031 A 
ATOM      3  C   UNL d   1      23.216 -17.645  -0.513  0.00  0.00     0.002 A 
ATOM      4  C   UNL d   1      24.147 -18.449   0.141  0.00  0.00     0.002 A 
ATOM      5  C   UNL d   1      25.506 -18.147   0.058  0.00  0.00     0.025 A 
ATOM      6  C   UNL d   1      25.954 -17.054  -0.698  0.00  0.00     0.071 A 
ATOM      7  C   UNL d   1      27.355 -16.736  -0.665  0.00  0.00     0.102 C 
ATOM      8  N   UNL d   1      28.487 -16.461  -0.616  0.00  0.00    -0.191 NA
ENDROOT
BRANCH   1   9
ATOM      9  N   UNL d   1      25.402 -15.132  -2.157  0.00  0.00    -0.322 N 
ATOM     10  C   UNL d   1      25.706 -15.241  -3.515  0.00  0.00     0.256 C 
ATOM     11  O   UNL d   1      25.530 -16.270  -4.163  0.00  0.00    -0.267 OA
ATOM     12  H   UNL d   1      25.285 -14.223  -1.732  0.00  0.00     0.169 HD
BRANCH  10  13
ATOM     13  C   UNL d   1      26.192 -14.033  -4.244  0.00  0.00     0.034 A 
ATOM     14  C   UNL d   1      25.662 -12.762  -4.026  0.00  0.00     0.047 A 
ATOM     15  C   UNL d   1      26.112 -11.647  -4.745  0.00  0.00     0.041 A 
ATOM     16  C   UNL d   1      27.115 -11.806  -5.718  0.00  0.00    -0.035 A 
ATOM     17  C   UNL d   1      27.670 -13.083  -5.923  0.00  0.00     0.010 A 
ATOM     18  C   UNL d   1      27.687 -10.639  -6.469  0.00  0.00     0.050 C 
ATOM     19  C   UNL d   1      27.211 -14.185  -5.194  0.00  0.00     0.018 A 
BRANCH  15  20
ATOM     20  N   UNL d   1      25.530 -10.380  -4.471  0.00  0.00    -0.327 N 
ATOM     21  C   UNL d   1      26.173  -9.442  -3.671  0.00  0.00     0.218 C 
ATOM     22  C   UNL d   1      25.454  -8.129  -3.495  0.00  0.00     0.117 C 
ATOM     23  O   UNL d   1      27.267  -9.615  -3.136  0.00  0.00    -0.274 OA
ATOM     24  H   UNL d   1      24.751 -10.084  -5.046  0.00  0.00     0.169 HD
ENDBRANCH  15  20
ENDBRANCH  10  13
ENDBRANCH   1   9
TORSDOF 3
ENDMDL
