MODEL 1
REMARK VINA RESULT:    -9.745      0.000      0.000
REMARK INTER + INTRA:         -15.640
REMARK INTER:                 -13.623
REMARK INTRA:                  -2.017
REMARK CONF_INDEPENDENT:        3.878
REMARK UNBOUND:                -2.017
REMARK  13 active torsions:
REMARK  status: ('A' for Active; 'I' for Inactive)
REMARK    1  A    between atoms: C_2  and  O_3 
REMARK    2  A    between atoms: C_2  and  C_12 
REMARK    3  A    between atoms: O_3  and  C_4 
REMARK       I    between atoms: C_12  and  N_14 
REMARK    4  A    between atoms: N_14  and  N_15 
REMARK       I    between atoms: N_15  and  C_16 
REMARK    5  A    between atoms: C_16  and  C_18 
REMARK    6  A    between atoms: C_18  and  C_19 
REMARK    7  A    between atoms: C_19  and  C_20 
REMARK    8  A    between atoms: C_20  and  C_21 
REMARK    9  A    between atoms: C_21  and  O_23 
REMARK   10  A    between atoms: O_23  and  C_24 
REMARK   11  A    between atoms: C_24  and  C_25 
REMARK   12  A    between atoms: C_25  and  C_26 
REMARK   13  A    between atoms: C_26  and  C_27 
ROOT
ATOM      1  N   UNL d   1      28.199 -14.649   3.419  0.00  0.00    -0.267 N 
ATOM      2  C   UNL d   1      27.606 -14.381   2.197  0.00  0.00     0.236 C 
ATOM      3  O   UNL d   1      27.148 -13.267   1.942  0.00  0.00    -0.272 OA
ATOM      4  H   UNL d   1      28.604 -15.547   3.682  0.00  0.00     0.190 HD
ENDROOT
BRANCH   1   5
ATOM      5  N   UNL d   1      28.289 -13.602   4.393  0.00  0.00    -0.265 N 
ATOM      6  C   UNL d   1      28.860 -13.878   5.622  0.00  0.00     0.265 C 
ATOM      7  O   UNL d   1      29.246 -15.025   5.878  0.00  0.00    -0.269 OA
ATOM      8  H   UNL d   1      27.985 -12.674   4.096  0.00  0.00     0.190 HD
BRANCH   6   9
ATOM      9  C   UNL d   1      28.931 -12.709   6.669  0.00  0.00     0.218 C 
ATOM     10  C   UNL d   1      28.111 -11.555   6.068  0.00  0.00     0.050 C 
BRANCH   9  11
ATOM     11  O   UNL d   1      28.466 -13.157   7.964  0.00  0.00    -0.335 OA
BRANCH  11  12
ATOM     12  C   UNL d   1      29.318 -13.867   8.783  0.00  0.00     0.091 C 
ATOM     13  C   UNL d   1      30.632 -14.173   8.414  0.00  0.00     0.040 C 
ATOM     14  C   UNL d   1      31.500 -14.879   9.247  0.00  0.00     0.026 C 
ATOM     15  C   UNL d   1      31.111 -15.177  10.540  0.00  0.00     0.035 C 
ATOM     16 CL   UNL d   1      32.232 -15.948  11.590  0.00  0.00    -0.084 Cl
ATOM     17  C   UNL d   1      29.848 -14.796  10.987  0.00  0.00     0.050 C 
ATOM     18  C   UNL d   1      28.952 -14.155  10.109  0.00  0.00     0.069 C 
ATOM     19 CL   UNL d   1      27.405 -13.702  10.730  0.00  0.00    -0.081 Cl
ENDBRANCH  11  12
ENDBRANCH   9  11
ENDBRANCH   6   9
ENDBRANCH   1   5
BRANCH   2  20
ATOM     20  C   UNL d   1      27.553 -15.554   1.200  0.00  0.00     0.105 C 
BRANCH  20  21
ATOM     21  C   UNL d   1      26.370 -15.407   0.224  0.00  0.00     0.019 C 
BRANCH  21  22
ATOM     22  C   UNL d   1      26.142 -16.598  -0.725  0.00  0.00     0.111 C 
BRANCH  22  23
ATOM     23  C   UNL d   1      26.059 -17.895   0.068  0.00  0.00     0.258 C 
ATOM     24  O   UNL d   1      26.803 -18.185   1.005  0.00  0.00    -0.265 OA
BRANCH  23  25
ATOM     25  O   UNL d   1      25.060 -18.708  -0.375  0.00  0.00    -0.321 OA
BRANCH  25  26
ATOM     26  C   UNL d   1      23.754 -18.087  -0.327  0.00  0.00     0.179 C 
BRANCH  26  27
ATOM     27  C   UNL d   1      22.702 -19.146  -0.592  0.00  0.00     0.031 C 
BRANCH  27  28
ATOM     28  C   UNL d   1      21.281 -18.578  -0.747  0.00  0.00     0.041 C 
BRANCH  28  29
ATOM     29  C   UNL d   1      20.269 -19.325   0.099  0.00  0.00    -0.058 A 
ATOM     30  C   UNL d   1      20.358 -19.355   1.498  0.00  0.00     0.007 A 
ATOM     31  C   UNL d   1      19.470 -20.144   2.240  0.00  0.00     0.001 A 
ATOM     32  C   UNL d   1      18.444 -20.844   1.604  0.00  0.00     0.000 A 
ATOM     33  C   UNL d   1      18.337 -20.808   0.223  0.00  0.00     0.001 A 
ATOM     34  C   UNL d   1      19.257 -20.076  -0.516  0.00  0.00     0.007 A 
ENDBRANCH  28  29
ENDBRANCH  27  28
ENDBRANCH  26  27
ENDBRANCH  25  26
ENDBRANCH  23  25
ENDBRANCH  22  23
ENDBRANCH  21  22
ENDBRANCH  20  21
ENDBRANCH   2  20
TORSDOF 13
ENDMDL
MODEL 2
REMARK VINA RESULT:    -9.056      7.824     10.706
REMARK INTER + INTRA:         -15.639
REMARK INTER:                 -12.934
REMARK INTRA:                  -2.706
REMARK CONF_INDEPENDENT:        3.878
REMARK UNBOUND:                -2.706
REMARK  13 active torsions:
REMARK  status: ('A' for Active; 'I' for Inactive)
REMARK    1  A    between atoms: C_2  and  O_3 
REMARK    2  A    between atoms: C_2  and  C_12 
REMARK    3  A    between atoms: O_3  and  C_4 
REMARK       I    between atoms: C_12  and  N_14 
REMARK    4  A    between atoms: N_14  and  N_15 
REMARK       I    between atoms: N_15  and  C_16 
REMARK    5  A    between atoms: C_16  and  C_18 
REMARK    6  A    between atoms: C_18  and  C_19 
REMARK    7  A    between atoms: C_19  and  C_20 
REMARK    8  A    between atoms: C_20  and  C_21 
REMARK    9  A    between atoms: C_21  and  O_23 
REMARK   10  A    between atoms: O_23  and  C_24 
REMARK   11  A    between atoms: C_24  and  C_25 
REMARK   12  A    between atoms: C_25  and  C_26 
REMARK   13  A    between atoms: C_26  and  C_27 
ROOT
ATOM      1  N   UNL d   1      27.898 -14.623  -5.068  0.00  0.00    -0.267 N 
ATOM      2  C   UNL d   1      26.592 -15.080  -5.013  0.00  0.00     0.236 C 
ATOM      3  O   UNL d   1      26.189 -15.952  -5.782  0.00  0.00    -0.272 OA
ATOM      4  H   UNL d   1      28.290 -13.913  -4.452  0.00  0.00     0.190 HD
ENDROOT
BRANCH   1   5
ATOM      5  N   UNL d   1      28.792 -15.190  -6.034  0.00  0.00    -0.265 N 
ATOM      6  C   UNL d   1      30.100 -14.743  -6.078  0.00  0.00     0.265 C 
ATOM      7  O   UNL d   1      30.469 -13.839  -5.319  0.00  0.00    -0.269 OA
ATOM      8  H   UNL d   1      28.428 -15.957  -6.600  0.00  0.00     0.190 HD
BRANCH   6   9
ATOM      9  C   UNL d   1      31.049 -15.379  -7.157  0.00  0.00     0.218 C 
ATOM     10  C   UNL d   1      32.430 -15.490  -6.491  0.00  0.00     0.050 C 
BRANCH   9  11
ATOM     11  O   UNL d   1      30.513 -16.638  -7.628  0.00  0.00    -0.335 OA
BRANCH  11  12
ATOM     12  C   UNL d   1      30.653 -17.769  -6.850  0.00  0.00     0.091 C 
ATOM     13  C   UNL d   1      30.272 -17.807  -5.505  0.00  0.00     0.040 C 
ATOM     14  C   UNL d   1      30.401 -18.954  -4.721  0.00  0.00     0.026 C 
ATOM     15  C   UNL d   1      30.790 -20.142  -5.313  0.00  0.00     0.035 C 
ATOM     16 CL   UNL d   1      30.835 -21.570  -4.357  0.00  0.00    -0.084 Cl
ATOM     17  C   UNL d   1      31.077 -20.176  -6.675  0.00  0.00     0.050 C 
ATOM     18  C   UNL d   1      31.020 -18.992  -7.437  0.00  0.00     0.069 C 
ATOM     19 CL   UNL d   1      31.379 -19.105  -9.123  0.00  0.00    -0.081 Cl
ENDBRANCH  11  12
ENDBRANCH   9  11
ENDBRANCH   6   9
ENDBRANCH   1   5
BRANCH   2  20
ATOM     20  C   UNL d   1      25.694 -14.429  -3.945  0.00  0.00     0.105 C 
BRANCH  20  21
ATOM     21  C   UNL d   1      25.224 -15.462  -2.902  0.00  0.00     0.019 C 
BRANCH  21  22
ATOM     22  C   UNL d   1      25.740 -15.238  -1.468  0.00  0.00     0.111 C 
BRANCH  22  23
ATOM     23  C   UNL d   1      25.519 -16.488  -0.628  0.00  0.00     0.258 C 
ATOM     24  O   UNL d   1      26.408 -17.077  -0.013  0.00  0.00    -0.265 OA
BRANCH  23  25
ATOM     25  O   UNL d   1      24.216 -16.885  -0.628  0.00  0.00    -0.321 OA
BRANCH  25  26
ATOM     26  C   UNL d   1      23.970 -18.037   0.212  0.00  0.00     0.179 C 
BRANCH  26  27
ATOM     27  C   UNL d   1      23.071 -19.001  -0.537  0.00  0.00     0.031 C 
BRANCH  27  28
ATOM     28  C   UNL d   1      21.669 -18.439  -0.827  0.00  0.00     0.041 C 
BRANCH  28  29
ATOM     29  C   UNL d   1      20.572 -19.289  -0.218  0.00  0.00    -0.058 A 
ATOM     30  C   UNL d   1      19.458 -19.700  -0.963  0.00  0.00     0.007 A 
ATOM     31  C   UNL d   1      18.412 -20.391  -0.339  0.00  0.00     0.001 A 
ATOM     32  C   UNL d   1      18.502 -20.745   1.007  0.00  0.00     0.000 A 
ATOM     33  C   UNL d   1      19.606 -20.358   1.750  0.00  0.00     0.001 A 
ATOM     34  C   UNL d   1      20.613 -19.618   1.146  0.00  0.00     0.007 A 
ENDBRANCH  28  29
ENDBRANCH  27  28
ENDBRANCH  26  27
ENDBRANCH  25  26
ENDBRANCH  23  25
ENDBRANCH  22  23
ENDBRANCH  21  22
ENDBRANCH  20  21
ENDBRANCH   2  20
TORSDOF 13
ENDMDL
MODEL 3
REMARK VINA RESULT:    -8.209      7.668     11.183
REMARK INTER + INTRA:         -15.763
REMARK INTER:                 -12.087
REMARK INTRA:                  -3.676
REMARK CONF_INDEPENDENT:        3.878
REMARK UNBOUND:                -3.676
REMARK  13 active torsions:
REMARK  status: ('A' for Active; 'I' for Inactive)
REMARK    1  A    between atoms: C_2  and  O_3 
REMARK    2  A    between atoms: C_2  and  C_12 
REMARK    3  A    between atoms: O_3  and  C_4 
REMARK       I    between atoms: C_12  and  N_14 
REMARK    4  A    between atoms: N_14  and  N_15 
REMARK       I    between atoms: N_15  and  C_16 
REMARK    5  A    between atoms: C_16  and  C_18 
REMARK    6  A    between atoms: C_18  and  C_19 
REMARK    7  A    between atoms: C_19  and  C_20 
REMARK    8  A    between atoms: C_20  and  C_21 
REMARK    9  A    between atoms: C_21  and  O_23 
REMARK   10  A    between atoms: O_23  and  C_24 
REMARK   11  A    between atoms: C_24  and  C_25 
REMARK   12  A    between atoms: C_25  and  C_26 
REMARK   13  A    between atoms: C_26  and  C_27 
ROOT
ATOM      1  N   UNL d   1      25.465 -11.726  -3.493  0.00  0.00    -0.267 N 
ATOM      2  C   UNL d   1      26.043 -10.532  -3.093  0.00  0.00     0.236 C 
ATOM      3  O   UNL d   1      26.943 -10.511  -2.254  0.00  0.00    -0.272 OA
ATOM      4  H   UNL d   1      24.727 -11.807  -4.190  0.00  0.00     0.190 HD
ENDROOT
BRANCH   1   5
ATOM      5  N   UNL d   1      25.939 -12.952  -2.923  0.00  0.00    -0.265 N 
ATOM      6  C   UNL d   1      25.446 -14.150  -3.409  0.00  0.00     0.265 C 
ATOM      7  O   UNL d   1      24.580 -14.147  -4.293  0.00  0.00    -0.269 OA
ATOM      8  H   UNL d   1      26.680 -12.878  -2.226  0.00  0.00     0.190 HD
BRANCH   6   9
ATOM      9  C   UNL d   1      25.979 -15.474  -2.753  0.00  0.00     0.218 C 
ATOM     10  C   UNL d   1      27.497 -15.481  -2.992  0.00  0.00     0.050 C 
BRANCH   9  11
ATOM     11  O   UNL d   1      25.596 -15.541  -1.359  0.00  0.00    -0.335 OA
BRANCH  11  12
ATOM     12  C   UNL d   1      24.578 -16.388  -0.974  0.00  0.00     0.091 C 
ATOM     13  C   UNL d   1      23.235 -16.131  -1.270  0.00  0.00     0.040 C 
ATOM     14  C   UNL d   1      22.205 -16.993  -0.894  0.00  0.00     0.026 C 
ATOM     15  C   UNL d   1      22.515 -18.217  -0.328  0.00  0.00     0.035 C 
ATOM     16 CL   UNL d   1      21.241 -19.315   0.027  0.00  0.00    -0.084 Cl
ATOM     17  C   UNL d   1      23.847 -18.562  -0.112  0.00  0.00     0.050 C 
ATOM     18  C   UNL d   1      24.872 -17.647  -0.422  0.00  0.00     0.069 C 
ATOM     19 CL   UNL d   1      26.503 -18.141  -0.138  0.00  0.00    -0.081 Cl
ENDBRANCH  11  12
ENDBRANCH   9  11
ENDBRANCH   6   9
ENDBRANCH   1   5
BRANCH   2  20
ATOM     20  C   UNL d   1      25.487  -9.258  -3.755  0.00  0.00     0.105 C 
BRANCH  20  21
ATOM     21  C   UNL d   1      26.101  -9.038  -5.151  0.00  0.00     0.019 C 
BRANCH  21  22
ATOM     22  C   UNL d   1      27.121 -10.101  -5.600  0.00  0.00     0.111 C 
BRANCH  22  23
ATOM     23  C   UNL d   1      26.420 -11.210  -6.373  0.00  0.00     0.258 C 
ATOM     24  O   UNL d   1      25.213 -11.444  -6.311  0.00  0.00    -0.265 OA
BRANCH  23  25
ATOM     25  O   UNL d   1      27.283 -11.921  -7.151  0.00  0.00    -0.321 OA
BRANCH  25  26
ATOM     26  C   UNL d   1      28.423 -12.432  -6.422  0.00  0.00     0.179 C 
BRANCH  26  27
ATOM     27  C   UNL d   1      28.495 -13.933  -6.623  0.00  0.00     0.031 C 
BRANCH  27  28
ATOM     28  C   UNL d   1      29.901 -14.438  -6.990  0.00  0.00     0.041 C 
BRANCH  28  29
ATOM     29  C   UNL d   1      30.153 -15.848  -6.492  0.00  0.00    -0.058 A 
ATOM     30  C   UNL d   1      29.691 -16.281  -5.242  0.00  0.00     0.007 A 
ATOM     31  C   UNL d   1      30.034 -17.554  -4.769  0.00  0.00     0.001 A 
ATOM     32  C   UNL d   1      30.773 -18.429  -5.566  0.00  0.00     0.000 A 
ATOM     33  C   UNL d   1      31.222 -18.017  -6.811  0.00  0.00     0.001 A 
ATOM     34  C   UNL d   1      30.933 -16.732  -7.252  0.00  0.00     0.007 A 
ENDBRANCH  28  29
ENDBRANCH  27  28
ENDBRANCH  26  27
ENDBRANCH  25  26
ENDBRANCH  23  25
ENDBRANCH  22  23
ENDBRANCH  21  22
ENDBRANCH  20  21
ENDBRANCH   2  20
TORSDOF 13
ENDMDL
MODEL 4
REMARK VINA RESULT:    -7.975      7.570     11.119
REMARK INTER + INTRA:         -15.465
REMARK INTER:                 -11.853
REMARK INTRA:                  -3.611
REMARK CONF_INDEPENDENT:        3.878
REMARK UNBOUND:                -3.611
REMARK  13 active torsions:
REMARK  status: ('A' for Active; 'I' for Inactive)
REMARK    1  A    between atoms: C_2  and  O_3 
REMARK    2  A    between atoms: C_2  and  C_12 
REMARK    3  A    between atoms: O_3  and  C_4 
REMARK       I    between atoms: C_12  and  N_14 
REMARK    4  A    between atoms: N_14  and  N_15 
REMARK       I    between atoms: N_15  and  C_16 
REMARK    5  A    between atoms: C_16  and  C_18 
REMARK    6  A    between atoms: C_18  and  C_19 
REMARK    7  A    between atoms: C_19  and  C_20 
REMARK    8  A    between atoms: C_20  and  C_21 
REMARK    9  A    between atoms: C_21  and  O_23 
REMARK   10  A    between atoms: O_23  and  C_24 
REMARK   11  A    between atoms: C_24  and  C_25 
REMARK   12  A    between atoms: C_25  and  C_26 
REMARK   13  A    between atoms: C_26  and  C_27 
ROOT
ATOM      1  N   UNL d   1      25.949 -12.976  -4.481  0.00  0.00    -0.267 N 
ATOM      2  C   UNL d   1      25.953 -11.609  -4.256  0.00  0.00     0.236 C 
ATOM      3  O   UNL d   1      26.112 -11.150  -3.126  0.00  0.00    -0.272 OA
ATOM      4  H   UNL d   1      25.833 -13.413  -5.394  0.00  0.00     0.190 HD
ENDROOT
BRANCH   1   5
ATOM      5  N   UNL d   1      26.148 -13.862  -3.372  0.00  0.00    -0.265 N 
ATOM      6  C   UNL d   1      26.158 -15.226  -3.600  0.00  0.00     0.265 C 
ATOM      7  O   UNL d   1      25.957 -15.663  -4.739  0.00  0.00    -0.269 OA
ATOM      8  H   UNL d   1      26.345 -13.430  -2.469  0.00  0.00     0.190 HD
BRANCH   6   9
ATOM      9  C   UNL d   1      26.366 -16.168  -2.359  0.00  0.00     0.218 C 
ATOM     10  C   UNL d   1      27.874 -16.144  -2.060  0.00  0.00     0.050 C 
BRANCH   9  11
ATOM     11  O   UNL d   1      25.534 -15.745  -1.253  0.00  0.00    -0.335 OA
BRANCH  11  12
ATOM     12  C   UNL d   1      24.481 -16.540  -0.852  0.00  0.00     0.091 C 
ATOM     13  C   UNL d   1      23.166 -16.311  -1.271  0.00  0.00     0.040 C 
ATOM     14  C   UNL d   1      22.102 -17.123  -0.877  0.00  0.00     0.026 C 
ATOM     15  C   UNL d   1      22.356 -18.278  -0.160  0.00  0.00     0.035 C 
ATOM     16 CL   UNL d   1      21.047 -19.325   0.220  0.00  0.00    -0.084 Cl
ATOM     17  C   UNL d   1      23.665 -18.603   0.187  0.00  0.00     0.050 C 
ATOM     18  C   UNL d   1      24.721 -17.732  -0.147  0.00  0.00     0.069 C 
ATOM     19 CL   UNL d   1      26.321 -18.199   0.305  0.00  0.00    -0.081 Cl
ENDBRANCH  11  12
ENDBRANCH   9  11
ENDBRANCH   6   9
ENDBRANCH   1   5
BRANCH   2  20
ATOM     20  C   UNL d   1      25.741 -10.722  -5.497  0.00  0.00     0.105 C 
BRANCH  20  21
ATOM     21  C   UNL d   1      26.606 -11.197  -6.680  0.00  0.00     0.019 C 
BRANCH  21  22
ATOM     22  C   UNL d   1      27.989 -11.763  -6.304  0.00  0.00     0.111 C 
BRANCH  22  23
ATOM     23  C   UNL d   1      28.186 -13.134  -6.935  0.00  0.00     0.258 C 
ATOM     24  O   UNL d   1      28.675 -13.323  -8.049  0.00  0.00    -0.265 OA
BRANCH  23  25
ATOM     25  O   UNL d   1      27.761 -14.142  -6.122  0.00  0.00    -0.321 OA
BRANCH  25  26
ATOM     26  C   UNL d   1      28.816 -14.706  -5.310  0.00  0.00     0.179 C 
BRANCH  26  27
ATOM     27  C   UNL d   1      29.541 -15.762  -6.119  0.00  0.00     0.031 C 
BRANCH  27  28
ATOM     28  C   UNL d   1      30.197 -16.855  -5.259  0.00  0.00     0.041 C 
BRANCH  28  29
ATOM     29  C   UNL d   1      30.479 -18.117  -6.050  0.00  0.00    -0.058 A 
ATOM     30  C   UNL d   1      30.420 -19.386  -5.458  0.00  0.00     0.007 A 
ATOM     31  C   UNL d   1      30.792 -20.521  -6.190  0.00  0.00     0.001 A 
ATOM     32  C   UNL d   1      31.150 -20.409  -7.534  0.00  0.00     0.000 A 
ATOM     33  C   UNL d   1      31.197 -19.161  -8.134  0.00  0.00     0.001 A 
ATOM     34  C   UNL d   1      30.889 -18.031  -7.389  0.00  0.00     0.007 A 
ENDBRANCH  28  29
ENDBRANCH  27  28
ENDBRANCH  26  27
ENDBRANCH  25  26
ENDBRANCH  23  25
ENDBRANCH  22  23
ENDBRANCH  21  22
ENDBRANCH  20  21
ENDBRANCH   2  20
TORSDOF 13
ENDMDL
MODEL 5
REMARK VINA RESULT:    -7.331      7.518     10.630
REMARK INTER + INTRA:         -15.513
REMARK INTER:                 -11.209
REMARK INTRA:                  -4.304
REMARK CONF_INDEPENDENT:        3.878
REMARK UNBOUND:                -4.304
REMARK  13 active torsions:
REMARK  status: ('A' for Active; 'I' for Inactive)
REMARK    1  A    between atoms: C_2  and  O_3 
REMARK    2  A    between atoms: C_2  and  C_12 
REMARK    3  A    between atoms: O_3  and  C_4 
REMARK       I    between atoms: C_12  and  N_14 
REMARK    4  A    between atoms: N_14  and  N_15 
REMARK       I    between atoms: N_15  and  C_16 
REMARK    5  A    between atoms: C_16  and  C_18 
REMARK    6  A    between atoms: C_18  and  C_19 
REMARK    7  A    between atoms: C_19  and  C_20 
REMARK    8  A    between atoms: C_20  and  C_21 
REMARK    9  A    between atoms: C_21  and  O_23 
REMARK   10  A    between atoms: O_23  and  C_24 
REMARK   11  A    between atoms: C_24  and  C_25 
REMARK   12  A    between atoms: C_25  and  C_26 
REMARK   13  A    between atoms: C_26  and  C_27 
ROOT
ATOM      1  N   UNL d   1      28.183 -14.824  -3.955  0.00  0.00    -0.267 N 
ATOM      2  C   UNL d   1      27.302 -14.659  -5.012  0.00  0.00     0.236 C 
ATOM      3  O   UNL d   1      27.192 -15.515  -5.888  0.00  0.00    -0.272 OA
ATOM      4  H   UNL d   1      28.309 -14.157  -3.196  0.00  0.00     0.190 HD
ENDROOT
BRANCH   1   5
ATOM      5  N   UNL d   1      28.966 -16.023  -3.885  0.00  0.00    -0.265 N 
ATOM      6  C   UNL d   1      30.032 -16.074  -3.005  0.00  0.00     0.265 C 
ATOM      7  O   UNL d   1      30.319 -15.082  -2.325  0.00  0.00    -0.269 OA
ATOM      8  H   UNL d   1      28.647 -16.812  -4.447  0.00  0.00     0.190 HD
BRANCH   6   9
ATOM      9  C   UNL d   1      30.875 -17.400  -2.963  0.00  0.00     0.218 C 
ATOM     10  C   UNL d   1      31.138 -17.685  -1.475  0.00  0.00     0.050 C 
BRANCH   9  11
ATOM     11  O   UNL d   1      30.185 -18.465  -3.659  0.00  0.00    -0.335 OA
BRANCH  11  12
ATOM     12  C   UNL d   1      30.439 -18.677  -4.998  0.00  0.00     0.091 C 
ATOM     13  C   UNL d   1      30.574 -17.628  -5.912  0.00  0.00     0.040 C 
ATOM     14  C   UNL d   1      30.845 -17.841  -7.264  0.00  0.00     0.026 C 
ATOM     15  C   UNL d   1      31.130 -19.120  -7.708  0.00  0.00     0.035 C 
ATOM     16 CL   UNL d   1      31.572 -19.350  -9.352  0.00  0.00    -0.084 Cl
ATOM     17  C   UNL d   1      31.113 -20.183  -6.809  0.00  0.00     0.050 C 
ATOM     18  C   UNL d   1      30.758 -19.965  -5.463  0.00  0.00     0.069 C 
ATOM     19 CL   UNL d   1      30.766 -21.326  -4.399  0.00  0.00    -0.081 Cl
ENDBRANCH  11  12
ENDBRANCH   9  11
ENDBRANCH   6   9
ENDBRANCH   1   5
BRANCH   2  20
ATOM     20  C   UNL d   1      26.491 -13.350  -5.015  0.00  0.00     0.105 C 
BRANCH  20  21
ATOM     21  C   UNL d   1      25.154 -13.518  -4.266  0.00  0.00     0.019 C 
BRANCH  21  22
ATOM     22  C   UNL d   1      25.182 -14.488  -3.070  0.00  0.00     0.111 C 
BRANCH  22  23
ATOM     23  C   UNL d   1      26.200 -14.023  -2.038  0.00  0.00     0.258 C 
ATOM     24  O   UNL d   1      26.268 -12.876  -1.597  0.00  0.00    -0.265 OA
BRANCH  23  25
ATOM     25  O   UNL d   1      27.036 -15.026  -1.650  0.00  0.00    -0.321 OA
BRANCH  25  26
ATOM     26  C   UNL d   1      27.229 -15.088  -0.218  0.00  0.00     0.179 C 
BRANCH  26  27
ATOM     27  C   UNL d   1      27.035 -16.520   0.238  0.00  0.00     0.031 C 
BRANCH  27  28
ATOM     28  C   UNL d   1      26.427 -17.434  -0.840  0.00  0.00     0.041 C 
BRANCH  28  29
ATOM     29  C   UNL d   1      24.923 -17.563  -0.702  0.00  0.00    -0.058 A 
ATOM     30  C   UNL d   1      24.072 -16.461  -0.857  0.00  0.00     0.007 A 
ATOM     31  C   UNL d   1      22.699 -16.595  -0.615  0.00  0.00     0.001 A 
ATOM     32  C   UNL d   1      22.155 -17.839  -0.293  0.00  0.00     0.000 A 
ATOM     33  C   UNL d   1      22.987 -18.940  -0.153  0.00  0.00     0.001 A 
ATOM     34  C   UNL d   1      24.355 -18.791  -0.332  0.00  0.00     0.007 A 
ENDBRANCH  28  29
ENDBRANCH  27  28
ENDBRANCH  26  27
ENDBRANCH  25  26
ENDBRANCH  23  25
ENDBRANCH  22  23
ENDBRANCH  21  22
ENDBRANCH  20  21
ENDBRANCH   2  20
TORSDOF 13
ENDMDL
MODEL 6
REMARK VINA RESULT:    -6.779      7.395     10.979
REMARK INTER + INTRA:         -15.401
REMARK INTER:                 -10.657
REMARK INTRA:                  -4.744
REMARK CONF_INDEPENDENT:        3.878
REMARK UNBOUND:                -4.744
REMARK  13 active torsions:
REMARK  status: ('A' for Active; 'I' for Inactive)
REMARK    1  A    between atoms: C_2  and  O_3 
REMARK    2  A    between atoms: C_2  and  C_12 
REMARK    3  A    between atoms: O_3  and  C_4 
REMARK       I    between atoms: C_12  and  N_14 
REMARK    4  A    between atoms: N_14  and  N_15 
REMARK       I    between atoms: N_15  and  C_16 
REMARK    5  A    between atoms: C_16  and  C_18 
REMARK    6  A    between atoms: C_18  and  C_19 
REMARK    7  A    between atoms: C_19  and  C_20 
REMARK    8  A    between atoms: C_20  and  C_21 
REMARK    9  A    between atoms: C_21  and  O_23 
REMARK   10  A    between atoms: O_23  and  C_24 
REMARK   11  A    between atoms: C_24  and  C_25 
REMARK   12  A    between atoms: C_25  and  C_26 
REMARK   13  A    between atoms: C_26  and  C_27 
ROOT
ATOM      1  N   UNL d   1      28.733 -14.156  -3.843  0.00  0.00    -0.267 N 
ATOM      2  C   UNL d   1      28.501 -12.790  -3.825  0.00  0.00     0.236 C 
ATOM      3  O   UNL d   1      27.979 -12.246  -2.854  0.00  0.00    -0.272 OA
ATOM      4  H   UNL d   1      29.171 -14.659  -4.613  0.00  0.00     0.190 HD
ENDROOT
BRANCH   1   5
ATOM      5  N   UNL d   1      28.366 -14.938  -2.700  0.00  0.00    -0.265 N 
ATOM      6  C   UNL d   1      28.797 -16.250  -2.620  0.00  0.00     0.265 C 
ATOM      7  O   UNL d   1      29.452 -16.741  -3.547  0.00  0.00    -0.269 OA
ATOM      8  H   UNL d   1      27.858 -14.455  -1.959  0.00  0.00     0.190 HD
BRANCH   6   9
ATOM      9  C   UNL d   1      28.366 -17.080  -1.358  0.00  0.00     0.218 C 
ATOM     10  C   UNL d   1      29.644 -17.276  -0.526  0.00  0.00     0.050 C 
BRANCH   9  11
ATOM     11  O   UNL d   1      27.294 -16.413  -0.651  0.00  0.00    -0.335 OA
BRANCH  11  12
ATOM     12  C   UNL d   1      26.033 -16.971  -0.646  0.00  0.00     0.091 C 
ATOM     13  C   UNL d   1      25.676 -18.011   0.219  0.00  0.00     0.040 C 
ATOM     14  C   UNL d   1      24.397 -18.568   0.234  0.00  0.00     0.026 C 
ATOM     15  C   UNL d   1      23.395 -17.994  -0.528  0.00  0.00     0.035 C 
ATOM     16 CL   UNL d   1      21.799 -18.621  -0.412  0.00  0.00    -0.084 Cl
ATOM     17  C   UNL d   1      23.680 -16.888  -1.324  0.00  0.00     0.050 C 
ATOM     18  C   UNL d   1      24.995 -16.386  -1.392  0.00  0.00     0.069 C 
ATOM     19 CL   UNL d   1      25.278 -15.006  -2.392  0.00  0.00    -0.081 Cl
ENDBRANCH  11  12
ENDBRANCH   9  11
ENDBRANCH   6   9
ENDBRANCH   1   5
BRANCH   2  20
ATOM     20  C   UNL d   1      28.929 -12.017  -5.087  0.00  0.00     0.105 C 
BRANCH  20  21
ATOM     21  C   UNL d   1      27.976 -12.297  -6.265  0.00  0.00     0.019 C 
BRANCH  21  22
ATOM     22  C   UNL d   1      28.419 -13.419  -7.223  0.00  0.00     0.111 C 
BRANCH  22  23
ATOM     23  C   UNL d   1      28.374 -14.766  -6.514  0.00  0.00     0.258 C 
ATOM     24  O   UNL d   1      27.392 -15.204  -5.916  0.00  0.00    -0.265 OA
BRANCH  23  25
ATOM     25  O   UNL d   1      29.553 -15.441  -6.616  0.00  0.00    -0.321 OA
BRANCH  25  26
ATOM     26  C   UNL d   1      30.640 -14.624  -7.108  0.00  0.00     0.179 C 
BRANCH  26  27
ATOM     27  C   UNL d   1      31.951 -15.221  -6.636  0.00  0.00     0.031 C 
BRANCH  27  28
ATOM     28  C   UNL d   1      31.778 -16.344  -5.599  0.00  0.00     0.041 C 
BRANCH  28  29
ATOM     29  C   UNL d   1      31.431 -17.672  -6.242  0.00  0.00    -0.058 A 
ATOM     30  C   UNL d   1      31.679 -17.920  -7.599  0.00  0.00     0.007 A 
ATOM     31  C   UNL d   1      31.246 -19.117  -8.184  0.00  0.00     0.001 A 
ATOM     32  C   UNL d   1      30.635 -20.103  -7.409  0.00  0.00     0.000 A 
ATOM     33  C   UNL d   1      30.400 -19.875  -6.062  0.00  0.00     0.001 A 
ATOM     34  C   UNL d   1      30.773 -18.663  -5.498  0.00  0.00     0.007 A 
ENDBRANCH  28  29
ENDBRANCH  27  28
ENDBRANCH  26  27
ENDBRANCH  25  26
ENDBRANCH  23  25
ENDBRANCH  22  23
ENDBRANCH  21  22
ENDBRANCH  20  21
ENDBRANCH   2  20
TORSDOF 13
ENDMDL
