MODEL 1
REMARK VINA RESULT:    -7.413      0.000      0.000
REMARK INTER + INTRA:         -10.546
REMARK INTER:                  -9.203
REMARK INTRA:                  -1.343
REMARK CONF_INDEPENDENT:        1.790
REMARK UNBOUND:                -1.343
REMARK  6 active torsions:
REMARK  status: ('A' for Active; 'I' for Inactive)
REMARK    1  A    between atoms: C_5  and  C_6 
REMARK    2  A    between atoms: C_9  and  C_10 
REMARK    3  A    between atoms: C_11  and  C_14 
REMARK       I    between atoms: C_14  and  N_16 
REMARK    4  A    between atoms: N_16  and  C_17 
REMARK    5  A    between atoms: C_19  and  C_20 
REMARK    6  A    between atoms: C_29  and  N_30 
ROOT
ATOM      1  C   UNL d   1      27.420 -13.261   4.439  0.00  0.00     0.064 C 
ATOM      2  C   UNL d   1      28.007 -13.818   3.345  0.00  0.00     0.101 C 
ATOM      3  C   UNL d   1      29.487 -14.147   3.454  0.00  0.00     0.025 C 
ATOM      4  N   UNL d   1      30.715 -14.419   3.544  0.00  0.00    -0.096 N 
ENDROOT
BRANCH   2   5
ATOM      5  C   UNL d   1      27.240 -14.076   2.078  0.00  0.00     0.265 C 
ATOM      6  O   UNL d   1      26.322 -13.310   1.778  0.00  0.00    -0.267 OA
ATOM      7  N   UNL d   1      27.556 -15.209   1.328  0.00  0.00    -0.321 N 
ATOM      8  H   UNL d   1      28.133 -15.950   1.720  0.00  0.00     0.169 HD
BRANCH   7   9
ATOM      9  C   UNL d   1      26.871 -15.544   0.115  0.00  0.00     0.057 A 
ATOM     10  C   UNL d   1      26.629 -14.556  -0.848  0.00  0.00     0.047 A 
ATOM     11  C   UNL d   1      25.960 -14.839  -2.054  0.00  0.00     0.050 A 
ATOM     12  C   UNL d   1      25.514 -16.144  -2.296  0.00  0.00     0.018 A 
ATOM     13  C   UNL d   1      25.752 -17.148  -1.354  0.00  0.00     0.027 A 
ATOM     14  C   UNL d   1      26.443 -16.855  -0.166  0.00  0.00     0.060 A 
ATOM     15 CL   UNL d   1      26.655 -18.130   0.980  0.00  0.00    -0.082 Cl
BRANCH  11  16
ATOM     16  C   UNL d   1      25.722 -13.744  -3.067  0.00  0.00     0.417 C 
ATOM     17  F   UNL d   1      26.552 -13.844  -4.142  0.00  0.00    -0.166 F 
ATOM     18  F   UNL d   1      24.456 -13.763  -3.565  0.00  0.00    -0.166 F 
ATOM     19  F   UNL d   1      25.912 -12.491  -2.567  0.00  0.00    -0.166 F 
ENDBRANCH  11  16
ENDBRANCH   7   9
ENDBRANCH   2   5
BRANCH   1  20
ATOM     20  C   UNL d   1      28.129 -13.000   5.681  0.00  0.00     0.077 A 
ATOM     21  C   UNL d   1      28.364 -11.801   6.352  0.00  0.00     0.040 A 
ATOM     22  C   UNL d   1      29.126 -11.992   7.487  0.00  0.00     0.041 A 
ATOM     23  C   UNL d   1      29.250 -13.342   7.589  0.00  0.00     0.088 A 
ATOM     24  O   UNL d   1      28.723 -13.979   6.496  0.00  0.00    -0.310 OA
BRANCH  23  25
ATOM     25  C   UNL d   1      29.797 -14.082   8.698  0.00  0.00     0.031 A 
ATOM     26  C   UNL d   1      31.062 -14.663   8.521  0.00  0.00     0.017 A 
ATOM     27  C   UNL d   1      31.758 -15.200   9.606  0.00  0.00     0.008 A 
ATOM     28  C   UNL d   1      31.207 -15.161  10.890  0.00  0.00    -0.060 A 
ATOM     29  C   UNL d   1      31.935 -15.743  12.063  0.00  0.00     0.048 C 
ATOM     30  C   UNL d   1      29.953 -14.569  11.081  0.00  0.00     0.043 A 
ATOM     31  C   UNL d   1      29.240 -14.029   9.998  0.00  0.00     0.116 A 
BRANCH  31  32
ATOM     32  N   UNL d   1      27.926 -13.405  10.302  0.00  0.00    -0.115 N 
ATOM     33  O   UNL d   1      27.752 -12.200  10.124  0.00  0.00    -0.532 OA
ATOM     34  O   UNL d   1      27.030 -14.159  10.728  0.00  0.00    -0.532 OA
ENDBRANCH  31  32
ENDBRANCH  23  25
ENDBRANCH   1  20
TORSDOF 6
ENDMDL
MODEL 2
REMARK VINA RESULT:    -7.272      5.371     10.632
REMARK INTER + INTRA:         -10.387
REMARK INTER:                  -9.062
REMARK INTRA:                  -1.325
REMARK CONF_INDEPENDENT:        1.790
REMARK UNBOUND:                -1.325
REMARK  6 active torsions:
REMARK  status: ('A' for Active; 'I' for Inactive)
REMARK    1  A    between atoms: C_5  and  C_6 
REMARK    2  A    between atoms: C_9  and  C_10 
REMARK    3  A    between atoms: C_11  and  C_14 
REMARK       I    between atoms: C_14  and  N_16 
REMARK    4  A    between atoms: N_16  and  C_17 
REMARK    5  A    between atoms: C_19  and  C_20 
REMARK    6  A    between atoms: C_29  and  N_30 
ROOT
ATOM      1  C   UNL d   1      28.934 -14.450   2.423  0.00  0.00     0.064 C 
ATOM      2  C   UNL d   1      28.304 -13.374   2.967  0.00  0.00     0.101 C 
ATOM      3  C   UNL d   1      27.024 -12.913   2.289  0.00  0.00     0.025 C 
ATOM      4  N   UNL d   1      25.962 -12.532   1.726  0.00  0.00    -0.096 N 
ENDROOT
BRANCH   2   5
ATOM      5  C   UNL d   1      28.856 -12.654   4.166  0.00  0.00     0.265 C 
ATOM      6  O   UNL d   1      30.059 -12.388   4.191  0.00  0.00    -0.267 OA
ATOM      7  N   UNL d   1      27.996 -12.376   5.229  0.00  0.00    -0.321 N 
ATOM      8  H   UNL d   1      27.085 -12.823   5.293  0.00  0.00     0.169 HD
BRANCH   7   9
ATOM      9  C   UNL d   1      28.436 -11.706   6.418  0.00  0.00     0.057 A 
ATOM     10  C   UNL d   1      28.428 -12.381   7.645  0.00  0.00     0.047 A 
ATOM     11  C   UNL d   1      28.851 -11.763   8.836  0.00  0.00     0.050 A 
ATOM     12  C   UNL d   1      29.282 -10.431   8.799  0.00  0.00     0.018 A 
ATOM     13  C   UNL d   1      29.306  -9.741   7.585  0.00  0.00     0.027 A 
ATOM     14  C   UNL d   1      28.905 -10.380   6.399  0.00  0.00     0.060 A 
ATOM     15 CL   UNL d   1      28.907  -9.452   4.941  0.00  0.00    -0.082 Cl
BRANCH  11  16
ATOM     16  C   UNL d   1      28.830 -12.528  10.139  0.00  0.00     0.417 C 
ATOM     17  F   UNL d   1      29.226 -13.822   9.986  0.00  0.00    -0.166 F 
ATOM     18  F   UNL d   1      29.661 -11.988  11.072  0.00  0.00    -0.166 F 
ATOM     19  F   UNL d   1      27.599 -12.583  10.717  0.00  0.00    -0.166 F 
ENDBRANCH  11  16
ENDBRANCH   7   9
ENDBRANCH   2   5
BRANCH   1  20
ATOM     20  C   UNL d   1      28.428 -15.173   1.267  0.00  0.00     0.077 A 
ATOM     21  C   UNL d   1      29.094 -15.655   0.141  0.00  0.00     0.040 A 
ATOM     22  C   UNL d   1      28.225 -16.251  -0.750  0.00  0.00     0.041 A 
ATOM     23  C   UNL d   1      27.028 -16.252  -0.106  0.00  0.00     0.088 A 
ATOM     24  O   UNL d   1      27.092 -15.561   1.075  0.00  0.00    -0.310 OA
BRANCH  23  25
ATOM     25  C   UNL d   1      25.821 -16.923  -0.520  0.00  0.00     0.031 A 
ATOM     26  C   UNL d   1      25.412 -18.034   0.232  0.00  0.00     0.017 A 
ATOM     27  C   UNL d   1      24.150 -18.600   0.041  0.00  0.00     0.008 A 
ATOM     28  C   UNL d   1      23.268 -18.061  -0.900  0.00  0.00    -0.060 A 
ATOM     29  C   UNL d   1      21.914 -18.662  -1.126  0.00  0.00     0.048 C 
ATOM     30  C   UNL d   1      23.659 -16.941  -1.645  0.00  0.00     0.043 A 
ATOM     31  C   UNL d   1      24.927 -16.366  -1.466  0.00  0.00     0.116 A 
BRANCH  31  32
ATOM     32  N   UNL d   1      25.244 -15.169  -2.289  0.00  0.00    -0.115 N 
ATOM     33  O   UNL d   1      25.093 -15.194  -3.509  0.00  0.00    -0.532 OA
ATOM     34  O   UNL d   1      25.652 -14.161  -1.681  0.00  0.00    -0.532 OA
ENDBRANCH  31  32
ENDBRANCH  23  25
ENDBRANCH   1  20
TORSDOF 6
ENDMDL
MODEL 3
REMARK VINA RESULT:    -7.251      2.019      2.515
REMARK INTER + INTRA:         -10.332
REMARK INTER:                  -9.040
REMARK INTRA:                  -1.292
REMARK CONF_INDEPENDENT:        1.790
REMARK UNBOUND:                -1.292
REMARK  6 active torsions:
REMARK  status: ('A' for Active; 'I' for Inactive)
REMARK    1  A    between atoms: C_5  and  C_6 
REMARK    2  A    between atoms: C_9  and  C_10 
REMARK    3  A    between atoms: C_11  and  C_14 
REMARK       I    between atoms: C_14  and  N_16 
REMARK    4  A    between atoms: N_16  and  C_17 
REMARK    5  A    between atoms: C_19  and  C_20 
REMARK    6  A    between atoms: C_29  and  N_30 
ROOT
ATOM      1  C   UNL d   1      28.108 -14.670   3.325  0.00  0.00     0.064 C 
ATOM      2  C   UNL d   1      27.627 -13.623   2.600  0.00  0.00     0.101 C 
ATOM      3  C   UNL d   1      27.776 -12.240   3.213  0.00  0.00     0.025 C 
ATOM      4  N   UNL d   1      27.899 -11.092   3.722  0.00  0.00    -0.096 N 
ENDROOT
BRANCH   2   5
ATOM      5  C   UNL d   1      26.959 -13.821   1.269  0.00  0.00     0.265 C 
ATOM      6  O   UNL d   1      26.280 -12.901   0.809  0.00  0.00    -0.267 OA
ATOM      7  N   UNL d   1      27.081 -15.060   0.641  0.00  0.00    -0.321 N 
ATOM      8  H   UNL d   1      27.426 -15.871   1.148  0.00  0.00     0.169 HD
BRANCH   7   9
ATOM      9  C   UNL d   1      26.467 -15.345  -0.623  0.00  0.00     0.057 A 
ATOM     10  C   UNL d   1      26.445 -14.368  -1.627  0.00  0.00     0.047 A 
ATOM     11  C   UNL d   1      25.854 -14.604  -2.882  0.00  0.00     0.050 A 
ATOM     12  C   UNL d   1      25.262 -15.847  -3.135  0.00  0.00     0.018 A 
ATOM     13  C   UNL d   1      25.280 -16.840  -2.152  0.00  0.00     0.027 A 
ATOM     14  C   UNL d   1      25.896 -16.598  -0.912  0.00  0.00     0.060 A 
ATOM     15 CL   UNL d   1      25.835 -17.849   0.278  0.00  0.00    -0.082 Cl
BRANCH  11  16
ATOM     16  C   UNL d   1      25.854 -13.523  -3.938  0.00  0.00     0.417 C 
ATOM     17  F   UNL d   1      26.319 -12.335  -3.463  0.00  0.00    -0.166 F 
ATOM     18  F   UNL d   1      26.642 -13.837  -5.003  0.00  0.00    -0.166 F 
ATOM     19  F   UNL d   1      24.619 -13.262  -4.447  0.00  0.00    -0.166 F 
ENDBRANCH  11  16
ENDBRANCH   7   9
ENDBRANCH   2   5
BRANCH   1  20
ATOM     20  C   UNL d   1      28.764 -14.517   4.614  0.00  0.00     0.077 A 
ATOM     21  C   UNL d   1      30.113 -14.597   4.955  0.00  0.00     0.040 A 
ATOM     22  C   UNL d   1      30.307 -14.432   6.312  0.00  0.00     0.041 A 
ATOM     23  C   UNL d   1      29.076 -14.116   6.794  0.00  0.00     0.088 A 
ATOM     24  O   UNL d   1      28.114 -14.218   5.823  0.00  0.00    -0.310 OA
BRANCH  23  25
ATOM     25  C   UNL d   1      28.755 -13.664   8.124  0.00  0.00     0.031 A 
ATOM     26  C   UNL d   1      28.959 -14.569   9.177  0.00  0.00     0.017 A 
ATOM     27  C   UNL d   1      28.889 -14.145  10.506  0.00  0.00     0.008 A 
ATOM     28  C   UNL d   1      28.620 -12.808  10.809  0.00  0.00    -0.060 A 
ATOM     29  C   UNL d   1      28.530 -12.338  12.229  0.00  0.00     0.048 C 
ATOM     30  C   UNL d   1      28.431 -11.892   9.766  0.00  0.00     0.043 A 
ATOM     31  C   UNL d   1      28.495 -12.306   8.426  0.00  0.00     0.116 A 
BRANCH  31  32
ATOM     32  N   UNL d   1      28.299 -11.259   7.389  0.00  0.00    -0.115 N 
ATOM     33  O   UNL d   1      27.545 -11.457   6.438  0.00  0.00    -0.532 OA
ATOM     34  O   UNL d   1      28.923 -10.191   7.543  0.00  0.00    -0.532 OA
ENDBRANCH  31  32
ENDBRANCH  23  25
ENDBRANCH   1  20
TORSDOF 6
ENDMDL
MODEL 4
REMARK VINA RESULT:    -7.240      1.971      2.334
REMARK INTER + INTRA:         -10.425
REMARK INTER:                  -9.030
REMARK INTRA:                  -1.396
REMARK CONF_INDEPENDENT:        1.790
REMARK UNBOUND:                -1.396
REMARK  6 active torsions:
REMARK  status: ('A' for Active; 'I' for Inactive)
REMARK    1  A    between atoms: C_5  and  C_6 
REMARK    2  A    between atoms: C_9  and  C_10 
REMARK    3  A    between atoms: C_11  and  C_14 
REMARK       I    between atoms: C_14  and  N_16 
REMARK    4  A    between atoms: N_16  and  C_17 
REMARK    5  A    between atoms: C_19  and  C_20 
REMARK    6  A    between atoms: C_29  and  N_30 
ROOT
ATOM      1  C   UNL d   1      27.551 -13.387   4.458  0.00  0.00     0.064 C 
ATOM      2  C   UNL d   1      28.167 -13.867   3.343  0.00  0.00     0.101 C 
ATOM      3  C   UNL d   1      29.670 -14.073   3.426  0.00  0.00     0.025 C 
ATOM      4  N   UNL d   1      30.919 -14.244   3.495  0.00  0.00    -0.096 N 
ENDROOT
BRANCH   2   5
ATOM      5  C   UNL d   1      27.406 -14.158   2.080  0.00  0.00     0.265 C 
ATOM      6  O   UNL d   1      26.508 -13.384   1.742  0.00  0.00    -0.267 OA
ATOM      7  N   UNL d   1      27.704 -15.325   1.378  0.00  0.00    -0.321 N 
ATOM      8  H   UNL d   1      28.261 -16.062   1.803  0.00  0.00     0.169 HD
BRANCH   7   9
ATOM      9  C   UNL d   1      27.023 -15.692   0.171  0.00  0.00     0.057 A 
ATOM     10  C   UNL d   1      25.910 -16.540   0.225  0.00  0.00     0.047 A 
ATOM     11  C   UNL d   1      25.211 -16.926  -0.933  0.00  0.00     0.050 A 
ATOM     12  C   UNL d   1      25.644 -16.457  -2.180  0.00  0.00     0.018 A 
ATOM     13  C   UNL d   1      26.746 -15.602  -2.257  0.00  0.00     0.027 A 
ATOM     14  C   UNL d   1      27.419 -15.205  -1.089  0.00  0.00     0.060 A 
ATOM     15 CL   UNL d   1      28.807 -14.191  -1.261  0.00  0.00    -0.082 Cl
BRANCH  11  16
ATOM     16  C   UNL d   1      24.013 -17.841  -0.830  0.00  0.00     0.417 C 
ATOM     17  F   UNL d   1      23.654 -18.362  -2.036  0.00  0.00    -0.166 F 
ATOM     18  F   UNL d   1      24.242 -18.905  -0.013  0.00  0.00    -0.166 F 
ATOM     19  F   UNL d   1      22.900 -17.225  -0.345  0.00  0.00    -0.166 F 
ENDBRANCH  11  16
ENDBRANCH   7   9
ENDBRANCH   2   5
BRANCH   1  20
ATOM     20  C   UNL d   1      28.254 -13.098   5.699  0.00  0.00     0.077 A 
ATOM     21  C   UNL d   1      28.511 -11.882   6.328  0.00  0.00     0.040 A 
ATOM     22  C   UNL d   1      29.256 -12.049   7.478  0.00  0.00     0.041 A 
ATOM     23  C   UNL d   1      29.347 -13.397   7.629  0.00  0.00     0.088 A 
ATOM     24  O   UNL d   1      28.816 -14.061   6.554  0.00  0.00    -0.310 OA
BRANCH  23  25
ATOM     25  C   UNL d   1      29.866 -14.109   8.769  0.00  0.00     0.031 A 
ATOM     26  C   UNL d   1      31.137 -14.691   8.641  0.00  0.00     0.017 A 
ATOM     27  C   UNL d   1      31.804 -15.200   9.757  0.00  0.00     0.008 A 
ATOM     28  C   UNL d   1      31.218 -15.133  11.024  0.00  0.00    -0.060 A 
ATOM     29  C   UNL d   1      31.916 -15.684  12.230  0.00  0.00     0.048 C 
ATOM     30  C   UNL d   1      29.957 -14.540  11.167  0.00  0.00     0.043 A 
ATOM     31  C   UNL d   1      29.274 -14.028  10.052  0.00  0.00     0.116 A 
BRANCH  31  32
ATOM     32  N   UNL d   1      27.950 -13.401  10.306  0.00  0.00    -0.115 N 
ATOM     33  O   UNL d   1      27.778 -12.201  10.097  0.00  0.00    -0.532 OA
ATOM     34  O   UNL d   1      27.044 -14.148  10.722  0.00  0.00    -0.532 OA
ENDBRANCH  31  32
ENDBRANCH  23  25
ENDBRANCH   1  20
TORSDOF 6
ENDMDL
MODEL 5
REMARK VINA RESULT:    -7.016      8.425     11.829
REMARK INTER + INTRA:         -10.106
REMARK INTER:                  -8.806
REMARK INTRA:                  -1.300
REMARK CONF_INDEPENDENT:        1.790
REMARK UNBOUND:                -1.300
REMARK  6 active torsions:
REMARK  status: ('A' for Active; 'I' for Inactive)
REMARK    1  A    between atoms: C_5  and  C_6 
REMARK    2  A    between atoms: C_9  and  C_10 
REMARK    3  A    between atoms: C_11  and  C_14 
REMARK       I    between atoms: C_14  and  N_16 
REMARK    4  A    between atoms: N_16  and  C_17 
REMARK    5  A    between atoms: C_19  and  C_20 
REMARK    6  A    between atoms: C_29  and  N_30 
ROOT
ATOM      1  C   UNL d   1      25.657 -12.173  -2.971  0.00  0.00     0.064 C 
ATOM      2  C   UNL d   1      25.989 -13.294  -3.667  0.00  0.00     0.101 C 
ATOM      3  C   UNL d   1      26.624 -13.090  -5.033  0.00  0.00     0.025 C 
ATOM      4  N   UNL d   1      27.151 -12.920  -6.167  0.00  0.00    -0.096 N 
ENDROOT
BRANCH   2   5
ATOM      5  C   UNL d   1      25.721 -14.671  -3.128  0.00  0.00     0.265 C 
ATOM      6  O   UNL d   1      25.645 -15.610  -3.922  0.00  0.00    -0.267 OA
ATOM      7  N   UNL d   1      25.504 -14.818  -1.758  0.00  0.00    -0.321 N 
ATOM      8  H   UNL d   1      25.322 -14.010  -1.169  0.00  0.00     0.169 HD
BRANCH   7   9
ATOM      9  C   UNL d   1      25.228 -16.090  -1.156  0.00  0.00     0.057 A 
ATOM     10  C   UNL d   1      23.924 -16.602  -1.169  0.00  0.00     0.047 A 
ATOM     11  C   UNL d   1      23.608 -17.846  -0.591  0.00  0.00     0.050 A 
ATOM     12  C   UNL d   1      24.622 -18.589   0.026  0.00  0.00     0.018 A 
ATOM     13  C   UNL d   1      25.931 -18.102   0.044  0.00  0.00     0.027 A 
ATOM     14  C   UNL d   1      26.236 -16.870  -0.561  0.00  0.00     0.060 A 
ATOM     15 CL   UNL d   1      27.864 -16.300  -0.455  0.00  0.00    -0.082 Cl
BRANCH  11  16
ATOM     16  C   UNL d   1      22.189 -18.364  -0.630  0.00  0.00     0.417 C 
ATOM     17  F   UNL d   1      21.286 -17.380  -0.895  0.00  0.00    -0.166 F 
ATOM     18  F   UNL d   1      22.008 -19.311  -1.590  0.00  0.00    -0.166 F 
ATOM     19  F   UNL d   1      21.787 -18.932   0.541  0.00  0.00    -0.166 F 
ENDBRANCH  11  16
ENDBRANCH   7   9
ENDBRANCH   2   5
BRANCH   1  20
ATOM     20  C   UNL d   1      25.905 -10.825  -3.458  0.00  0.00     0.077 A 
ATOM     21  C   UNL d   1      27.105 -10.150  -3.674  0.00  0.00     0.040 A 
ATOM     22  C   UNL d   1      26.893  -8.856  -4.105  0.00  0.00     0.041 A 
ATOM     23  C   UNL d   1      25.548  -8.775  -4.283  0.00  0.00     0.088 A 
ATOM     24  O   UNL d   1      24.914  -9.910  -3.848  0.00  0.00    -0.310 OA
BRANCH  23  25
ATOM     25  C   UNL d   1      24.817  -7.696  -4.899  0.00  0.00     0.031 A 
ATOM     26  C   UNL d   1      23.988  -8.016  -5.984  0.00  0.00     0.017 A 
ATOM     27  C   UNL d   1      23.082  -7.083  -6.490  0.00  0.00     0.008 A 
ATOM     28  C   UNL d   1      22.981  -5.812  -5.917  0.00  0.00    -0.060 A 
ATOM     29  C   UNL d   1      22.022  -4.794  -6.455  0.00  0.00     0.048 C 
ATOM     30  C   UNL d   1      23.792  -5.486  -4.823  0.00  0.00     0.043 A 
ATOM     31  C   UNL d   1      24.711  -6.414  -4.307  0.00  0.00     0.116 A 
BRANCH  31  32
ATOM     32  N   UNL d   1      25.514  -5.984  -3.133  0.00  0.00    -0.115 N 
ATOM     33  O   UNL d   1      25.101  -6.176  -1.991  0.00  0.00    -0.532 OA
ATOM     34  O   UNL d   1      26.610  -5.440  -3.370  0.00  0.00    -0.532 OA
ENDBRANCH  31  32
ENDBRANCH  23  25
ENDBRANCH   1  20
TORSDOF 6
ENDMDL
MODEL 6
REMARK VINA RESULT:    -7.003      4.960     10.292
REMARK INTER + INTRA:         -10.150
REMARK INTER:                  -8.792
REMARK INTRA:                  -1.358
REMARK CONF_INDEPENDENT:        1.790
REMARK UNBOUND:                -1.358
REMARK  6 active torsions:
REMARK  status: ('A' for Active; 'I' for Inactive)
REMARK    1  A    between atoms: C_5  and  C_6 
REMARK    2  A    between atoms: C_9  and  C_10 
REMARK    3  A    between atoms: C_11  and  C_14 
REMARK       I    between atoms: C_14  and  N_16 
REMARK    4  A    between atoms: N_16  and  C_17 
REMARK    5  A    between atoms: C_19  and  C_20 
REMARK    6  A    between atoms: C_29  and  N_30 
ROOT
ATOM      1  C   UNL d   1      29.085 -14.302   2.229  0.00  0.00     0.064 C 
ATOM      2  C   UNL d   1      28.400 -13.275   2.803  0.00  0.00     0.101 C 
ATOM      3  C   UNL d   1      27.037 -12.948   2.216  0.00  0.00     0.025 C 
ATOM      4  N   UNL d   1      25.905 -12.677   1.728  0.00  0.00    -0.096 N 
ENDROOT
BRANCH   2   5
ATOM      5  C   UNL d   1      28.970 -12.482   3.945  0.00  0.00     0.265 C 
ATOM      6  O   UNL d   1      30.076 -11.957   3.804  0.00  0.00    -0.267 OA
ATOM      7  N   UNL d   1      28.252 -12.426   5.140  0.00  0.00    -0.321 N 
ATOM      8  H   UNL d   1      27.479 -13.064   5.314  0.00  0.00     0.169 HD
BRANCH   7   9
ATOM      9  C   UNL d   1      28.722 -11.705   6.286  0.00  0.00     0.057 A 
ATOM     10  C   UNL d   1      28.825 -10.309   6.242  0.00  0.00     0.047 A 
ATOM     11  C   UNL d   1      29.281  -9.562   7.343  0.00  0.00     0.050 A 
ATOM     12  C   UNL d   1      29.653 -10.231   8.516  0.00  0.00     0.018 A 
ATOM     13  C   UNL d   1      29.549 -11.622   8.586  0.00  0.00     0.027 A 
ATOM     14  C   UNL d   1      29.068 -12.353   7.487  0.00  0.00     0.060 A 
ATOM     15 CL   UNL d   1      29.017 -14.075   7.621  0.00  0.00    -0.082 Cl
BRANCH  11  16
ATOM     16  C   UNL d   1      29.375  -8.056   7.254  0.00  0.00     0.417 C 
ATOM     17  F   UNL d   1      30.544  -7.643   6.692  0.00  0.00    -0.166 F 
ATOM     18  F   UNL d   1      28.381  -7.518   6.496  0.00  0.00    -0.166 F 
ATOM     19  F   UNL d   1      29.305  -7.435   8.464  0.00  0.00    -0.166 F 
ENDBRANCH  11  16
ENDBRANCH   7   9
ENDBRANCH   2   5
BRANCH   1  20
ATOM     20  C   UNL d   1      28.564 -15.093   1.126  0.00  0.00     0.077 A 
ATOM     21  C   UNL d   1      29.211 -15.625   0.013  0.00  0.00     0.040 A 
ATOM     22  C   UNL d   1      28.332 -16.281  -0.825  0.00  0.00     0.041 A 
ATOM     23  C   UNL d   1      27.150 -16.266  -0.153  0.00  0.00     0.088 A 
ATOM     24  O   UNL d   1      27.229 -15.511   0.988  0.00  0.00    -0.310 OA
BRANCH  23  25
ATOM     25  C   UNL d   1      25.945 -16.976  -0.501  0.00  0.00     0.031 A 
ATOM     26  C   UNL d   1      25.524 -17.995   0.366  0.00  0.00     0.017 A 
ATOM     27  C   UNL d   1      24.262 -18.575   0.228  0.00  0.00     0.008 A 
ATOM     28  C   UNL d   1      23.392 -18.144  -0.777  0.00  0.00    -0.060 A 
ATOM     29  C   UNL d   1      22.038 -18.763  -0.947  0.00  0.00     0.048 C 
ATOM     30  C   UNL d   1      23.793 -17.116  -1.639  0.00  0.00     0.043 A 
ATOM     31  C   UNL d   1      25.062 -16.527  -1.513  0.00  0.00     0.116 A 
BRANCH  31  32
ATOM     32  N   UNL d   1      25.391 -15.431  -2.461  0.00  0.00    -0.115 N 
ATOM     33  O   UNL d   1      25.539 -14.279  -2.056  0.00  0.00    -0.532 OA
ATOM     34  O   UNL d   1      25.516 -15.743  -3.661  0.00  0.00    -0.532 OA
ENDBRANCH  31  32
ENDBRANCH  23  25
ENDBRANCH   1  20
TORSDOF 6
ENDMDL
MODEL 7
REMARK VINA RESULT:    -6.996      8.539      9.568
REMARK INTER + INTRA:         -10.047
REMARK INTER:                  -8.786
REMARK INTRA:                  -1.261
REMARK CONF_INDEPENDENT:        1.790
REMARK UNBOUND:                -1.261
REMARK  6 active torsions:
REMARK  status: ('A' for Active; 'I' for Inactive)
REMARK    1  A    between atoms: C_5  and  C_6 
REMARK    2  A    between atoms: C_9  and  C_10 
REMARK    3  A    between atoms: C_11  and  C_14 
REMARK       I    between atoms: C_14  and  N_16 
REMARK    4  A    between atoms: N_16  and  C_17 
REMARK    5  A    between atoms: C_19  and  C_20 
REMARK    6  A    between atoms: C_29  and  N_30 
ROOT
ATOM      1  C   UNL d   1      32.551 -20.503   0.039  0.00  0.00     0.064 C 
ATOM      2  C   UNL d   1      31.444 -21.144  -0.424  0.00  0.00     0.101 C 
ATOM      3  C   UNL d   1      30.472 -21.674   0.618  0.00  0.00     0.025 C 
ATOM      4  N   UNL d   1      29.665 -22.113   1.483  0.00  0.00    -0.096 N 
ENDROOT
BRANCH   2   5
ATOM      5  C   UNL d   1      31.200 -21.345  -1.893  0.00  0.00     0.265 C 
ATOM      6  O   UNL d   1      30.578 -22.345  -2.256  0.00  0.00    -0.267 OA
ATOM      7  N   UNL d   1      31.745 -20.425  -2.790  0.00  0.00    -0.321 N 
ATOM      8  H   UNL d   1      32.455 -19.763  -2.490  0.00  0.00     0.169 HD
BRANCH   7   9
ATOM      9  C   UNL d   1      31.577 -20.542  -4.209  0.00  0.00     0.057 A 
ATOM     10  C   UNL d   1      32.024 -21.690  -4.874  0.00  0.00     0.047 A 
ATOM     11  C   UNL d   1      31.879 -21.848  -6.265  0.00  0.00     0.050 A 
ATOM     12  C   UNL d   1      31.280 -20.824  -7.010  0.00  0.00     0.018 A 
ATOM     13  C   UNL d   1      30.817 -19.674  -6.365  0.00  0.00     0.027 A 
ATOM     14  C   UNL d   1      30.946 -19.542  -4.972  0.00  0.00     0.060 A 
ATOM     15 CL   UNL d   1      30.403 -18.071  -4.247  0.00  0.00    -0.082 Cl
BRANCH  11  16
ATOM     16  C   UNL d   1      32.374 -23.104  -6.944  0.00  0.00     0.417 C 
ATOM     17  F   UNL d   1      32.233 -23.050  -8.297  0.00  0.00    -0.166 F 
ATOM     18  F   UNL d   1      33.695 -23.334  -6.711  0.00  0.00    -0.166 F 
ATOM     19  F   UNL d   1      31.719 -24.229  -6.547  0.00  0.00    -0.166 F 
ENDBRANCH  11  16
ENDBRANCH   7   9
ENDBRANCH   2   5
BRANCH   1  20
ATOM     20  C   UNL d   1      32.817 -20.287   1.453  0.00  0.00     0.077 A 
ATOM     21  C   UNL d   1      32.636 -19.153   2.242  0.00  0.00     0.040 A 
ATOM     22  C   UNL d   1      33.062 -19.360   3.539  0.00  0.00     0.041 A 
ATOM     23  C   UNL d   1      33.389 -20.678   3.581  0.00  0.00     0.088 A 
ATOM     24  O   UNL d   1      33.317 -21.255   2.340  0.00  0.00    -0.310 OA
BRANCH  23  25
ATOM     25  C   UNL d   1      33.718 -21.454   4.751  0.00  0.00     0.031 A 
ATOM     26  C   UNL d   1      35.054 -21.856   4.900  0.00  0.00     0.017 A 
ATOM     27  C   UNL d   1      35.502 -22.410   6.101  0.00  0.00     0.008 A 
ATOM     28  C   UNL d   1      34.626 -22.567   7.179  0.00  0.00    -0.060 A 
ATOM     29  C   UNL d   1      35.088 -23.170   8.470  0.00  0.00     0.048 C 
ATOM     30  C   UNL d   1      33.295 -22.153   7.047  0.00  0.00     0.043 A 
ATOM     31  C   UNL d   1      32.830 -21.599   5.843  0.00  0.00     0.116 A 
BRANCH  31  32
ATOM     32  N   UNL d   1      31.407 -21.172   5.805  0.00  0.00    -0.115 N 
ATOM     33  O   UNL d   1      30.889 -20.821   4.746  0.00  0.00    -0.532 OA
ATOM     34  O   UNL d   1      30.782 -21.202   6.882  0.00  0.00    -0.532 OA
ENDBRANCH  31  32
ENDBRANCH  23  25
ENDBRANCH   1  20
TORSDOF 6
ENDMDL
MODEL 8
REMARK VINA RESULT:    -6.967      8.102     10.593
REMARK INTER + INTRA:         -10.125
REMARK INTER:                  -8.757
REMARK INTRA:                  -1.368
REMARK CONF_INDEPENDENT:        1.790
REMARK UNBOUND:                -1.368
REMARK  6 active torsions:
REMARK  status: ('A' for Active; 'I' for Inactive)
REMARK    1  A    between atoms: C_5  and  C_6 
REMARK    2  A    between atoms: C_9  and  C_10 
REMARK    3  A    between atoms: C_11  and  C_14 
REMARK       I    between atoms: C_14  and  N_16 
REMARK    4  A    between atoms: N_16  and  C_17 
REMARK    5  A    between atoms: C_19  and  C_20 
REMARK    6  A    between atoms: C_29  and  N_30 
ROOT
ATOM      1  C   UNL d   1      27.928 -14.913  -3.971  0.00  0.00     0.064 C 
ATOM      2  C   UNL d   1      27.394 -14.264  -5.042  0.00  0.00     0.101 C 
ATOM      3  C   UNL d   1      25.971 -13.751  -4.893  0.00  0.00     0.025 C 
ATOM      4  N   UNL d   1      24.790 -13.325  -4.769  0.00  0.00    -0.096 N 
ENDROOT
BRANCH   2   5
ATOM      5  C   UNL d   1      28.161 -14.083  -6.322  0.00  0.00     0.265 C 
ATOM      6  O   UNL d   1      28.496 -15.086  -6.955  0.00  0.00    -0.267 OA
ATOM      7  N   UNL d   1      28.517 -12.790  -6.707  0.00  0.00    -0.321 N 
ATOM      8  H   UNL d   1      28.452 -12.015  -6.052  0.00  0.00     0.169 HD
BRANCH   7   9
ATOM      9  C   UNL d   1      29.258 -12.521  -7.904  0.00  0.00     0.057 A 
ATOM     10  C   UNL d   1      30.616 -12.858  -7.977  0.00  0.00     0.047 A 
ATOM     11  C   UNL d   1      31.382 -12.613  -9.132  0.00  0.00     0.050 A 
ATOM     12  C   UNL d   1      30.775 -12.005 -10.237  0.00  0.00     0.018 A 
ATOM     13  C   UNL d   1      29.420 -11.668 -10.190  0.00  0.00     0.027 A 
ATOM     14  C   UNL d   1      28.661 -11.942  -9.039  0.00  0.00     0.060 A 
ATOM     15 CL   UNL d   1      27.006 -11.450  -9.027  0.00  0.00    -0.082 Cl
BRANCH  11  16
ATOM     16  C   UNL d   1      32.843 -12.995  -9.170  0.00  0.00     0.417 C 
ATOM     17  F   UNL d   1      33.032 -14.276  -9.589  0.00  0.00    -0.166 F 
ATOM     18  F   UNL d   1      33.563 -12.211 -10.019  0.00  0.00    -0.166 F 
ATOM     19  F   UNL d   1      33.460 -12.905  -7.959  0.00  0.00    -0.166 F 
ENDBRANCH  11  16
ENDBRANCH   7   9
ENDBRANCH   2   5
BRANCH   1  20
ATOM     20  C   UNL d   1      27.218 -15.103  -2.716  0.00  0.00     0.077 A 
ATOM     21  C   UNL d   1      27.307 -14.405  -1.514  0.00  0.00     0.040 A 
ATOM     22  C   UNL d   1      26.482 -14.944  -0.547  0.00  0.00     0.041 A 
ATOM     23  C   UNL d   1      25.779 -15.906  -1.201  0.00  0.00     0.088 A 
ATOM     24  O   UNL d   1      26.232 -16.077  -2.483  0.00  0.00    -0.310 OA
BRANCH  23  25
ATOM     25  C   UNL d   1      24.651 -16.650  -0.698  0.00  0.00     0.031 A 
ATOM     26  C   UNL d   1      23.378 -16.273  -1.152  0.00  0.00     0.017 A 
ATOM     27  C   UNL d   1      22.263 -17.073  -0.895  0.00  0.00     0.008 A 
ATOM     28  C   UNL d   1      22.399 -18.269  -0.185  0.00  0.00    -0.060 A 
ATOM     29  C   UNL d   1      21.212 -19.134   0.109  0.00  0.00     0.048 C 
ATOM     30  C   UNL d   1      23.668 -18.664   0.258  0.00  0.00     0.043 A 
ATOM     31  C   UNL d   1      24.796 -17.866   0.010  0.00  0.00     0.116 A 
BRANCH  31  32
ATOM     32  N   UNL d   1      26.102 -18.377   0.504  0.00  0.00    -0.115 N 
ATOM     33  O   UNL d   1      27.029 -18.577  -0.279  0.00  0.00    -0.532 OA
ATOM     34  O   UNL d   1      26.202 -18.575   1.730  0.00  0.00    -0.532 OA
ENDBRANCH  31  32
ENDBRANCH  23  25
ENDBRANCH   1  20
TORSDOF 6
ENDMDL
MODEL 9
REMARK VINA RESULT:    -6.655      8.541     12.708
REMARK INTER + INTRA:          -9.866
REMARK INTER:                  -8.445
REMARK INTRA:                  -1.422
REMARK CONF_INDEPENDENT:        1.790
REMARK UNBOUND:                -1.422
REMARK  6 active torsions:
REMARK  status: ('A' for Active; 'I' for Inactive)
REMARK    1  A    between atoms: C_5  and  C_6 
REMARK    2  A    between atoms: C_9  and  C_10 
REMARK    3  A    between atoms: C_11  and  C_14 
REMARK       I    between atoms: C_14  and  N_16 
REMARK    4  A    between atoms: N_16  and  C_17 
REMARK    5  A    between atoms: C_19  and  C_20 
REMARK    6  A    between atoms: C_29  and  N_30 
ROOT
ATOM      1  C   UNL d   1      25.573 -12.428  -3.434  0.00  0.00     0.064 C 
ATOM      2  C   UNL d   1      26.059 -13.604  -3.917  0.00  0.00     0.101 C 
ATOM      3  C   UNL d   1      26.967 -13.521  -5.134  0.00  0.00     0.025 C 
ATOM      4  N   UNL d   1      27.720 -13.452  -6.144  0.00  0.00    -0.096 N 
ENDROOT
BRANCH   2   5
ATOM      5  C   UNL d   1      25.701 -14.925  -3.298  0.00  0.00     0.265 C 
ATOM      6  O   UNL d   1      25.529 -15.896  -4.039  0.00  0.00    -0.267 OA
ATOM      7  N   UNL d   1      25.513 -14.984  -1.917  0.00  0.00    -0.321 N 
ATOM      8  H   UNL d   1      25.412 -14.134  -1.368  0.00  0.00     0.169 HD
BRANCH   7   9
ATOM      9  C   UNL d   1      25.157 -16.197  -1.240  0.00  0.00     0.057 A 
ATOM     10  C   UNL d   1      23.831 -16.648  -1.264  0.00  0.00     0.047 A 
ATOM     11  C   UNL d   1      23.437 -17.832  -0.614  0.00  0.00     0.050 A 
ATOM     12  C   UNL d   1      24.394 -18.578   0.085  0.00  0.00     0.018 A 
ATOM     13  C   UNL d   1      25.724 -18.152   0.114  0.00  0.00     0.027 A 
ATOM     14  C   UNL d   1      26.108 -16.981  -0.560  0.00  0.00     0.060 A 
ATOM     15 CL   UNL d   1      27.757 -16.481  -0.438  0.00  0.00    -0.082 Cl
BRANCH  11  16
ATOM     16  C   UNL d   1      21.997 -18.285  -0.666  0.00  0.00     0.417 C 
ATOM     17  F   UNL d   1      21.551 -18.732   0.540  0.00  0.00    -0.166 F 
ATOM     18  F   UNL d   1      21.151 -17.284  -1.034  0.00  0.00    -0.166 F 
ATOM     19  F   UNL d   1      21.779 -19.304  -1.543  0.00  0.00    -0.166 F 
ENDBRANCH  11  16
ENDBRANCH   7   9
ENDBRANCH   2   5
BRANCH   1  20
ATOM     20  C   UNL d   1      25.901 -11.131  -4.004  0.00  0.00     0.077 A 
ATOM     21  C   UNL d   1      26.643 -10.076  -3.478  0.00  0.00     0.040 A 
ATOM     22  C   UNL d   1      26.676  -8.996  -4.337  0.00  0.00     0.041 A 
ATOM     23  C   UNL d   1      26.057  -9.441  -5.463  0.00  0.00     0.088 A 
ATOM     24  O   UNL d   1      25.522 -10.690  -5.283  0.00  0.00    -0.310 OA
BRANCH  23  25
ATOM     25  C   UNL d   1      25.983  -8.768  -6.735  0.00  0.00     0.031 A 
ATOM     26  C   UNL d   1      25.447  -7.472  -6.748  0.00  0.00     0.017 A 
ATOM     27  C   UNL d   1      25.544  -6.671  -7.887  0.00  0.00     0.008 A 
ATOM     28  C   UNL d   1      26.185  -7.146  -9.035  0.00  0.00    -0.060 A 
ATOM     29  C   UNL d   1      26.288  -6.304 -10.269  0.00  0.00     0.048 C 
ATOM     30  C   UNL d   1      26.738  -8.433  -9.028  0.00  0.00     0.043 A 
ATOM     31  C   UNL d   1      26.643  -9.250  -7.891  0.00  0.00     0.116 A 
BRANCH  31  32
ATOM     32  N   UNL d   1      27.276 -10.593  -7.973  0.00  0.00    -0.115 N 
ATOM     33  O   UNL d   1      28.325 -10.825  -7.373  0.00  0.00    -0.532 OA
ATOM     34  O   UNL d   1      26.690 -11.450  -8.661  0.00  0.00    -0.532 OA
ENDBRANCH  31  32
ENDBRANCH  23  25
ENDBRANCH   1  20
TORSDOF 6
ENDMDL
