MODEL 1
REMARK VINA RESULT:   -22.262      0.000      0.000
REMARK INTER + INTRA:         -27.529
REMARK INTER:                 -25.245
REMARK INTRA:                  -2.284
REMARK CONF_INDEPENDENT:        2.983
REMARK UNBOUND:                -2.284
REMARK  10 active torsions:
REMARK  status: ('A' for Active; 'I' for Inactive)
REMARK    1  A    between atoms: C_2  and  N_1 
REMARK    2  A    between atoms: C_2  and  C_26 
REMARK    3  A    between atoms: C_2  and  C_3 
REMARK    4  A    between atoms: C_3  and  O_4 
REMARK    5  A    between atoms: O_4  and  C_5 
REMARK    6  A    between atoms: C_9  and  C_10 
REMARK    7  A    between atoms: C_11  and  C_12 
REMARK    8  A    between atoms: C_16  and  O_17 
REMARK    9  A    between atoms: O_17  and  C_18 
REMARK   10  A    between atoms: C_26  and  C_27 
ROOT
ATOM      1  C   UNL d   1      28.299 -16.462  -1.266  0.00  0.00     0.087 A 
ATOM      2  C   UNL d   1      28.554 -15.145  -0.921  0.00  0.00     0.152 A 
ATOM      3  N   UNL d   1      27.587 -14.233  -0.688  0.00  0.00    -0.269 NA
ATOM      4  C   UNL d   1      26.303 -14.657  -0.784  0.00  0.00     0.127 A 
ATOM      5  C   UNL d   1      25.933 -15.957  -1.115  0.00  0.00    -0.016 A 
ATOM      6  C   UNL d   1      26.972 -16.866  -1.346  0.00  0.00     0.051 A 
ENDROOT
BRANCH   1   7
ATOM      7  O   UNL d   1      29.362 -17.303  -1.432  0.00  0.00    -0.348 OA
BRANCH   7   8
ATOM      8  C   UNL d   1      30.633 -16.671  -1.295  0.00  0.00     0.208 C 
BRANCH   8   9
ATOM      9  C   UNL d   1      31.664 -17.784  -1.028  0.00  0.00     0.211 C 
BRANCH   9  10
ATOM     10  C   UNL d   1      32.115 -18.429  -2.332  0.00  0.00     0.071 C 
BRANCH  10  11
ATOM     11  C   UNL d   1      31.363 -18.095  -3.588  0.00  0.00    -0.048 A 
ATOM     12  C   UNL d   1      31.479 -16.882  -4.132  0.00  0.00    -0.006 A 
ATOM     13  C   UNL d   1      32.235 -15.738  -3.753  0.00  0.00     0.014 A 
ATOM     14  C   UNL d   1      30.604 -16.875  -5.312  0.00  0.00     0.038 A 
ATOM     15  C   UNL d   1      32.069 -14.615  -4.461  0.00  0.00     0.001 A 
ATOM     16  C   UNL d   1      31.206 -14.575  -5.631  0.00  0.00     0.002 A 
ATOM     17  C   UNL d   1      30.479 -15.624  -6.067  0.00  0.00     0.030 A 
ATOM     18  N   UNL d   1      30.050 -18.016  -5.506  0.00  0.00    -0.385 N 
ATOM     19  C   UNL d   1      30.466 -18.958  -4.444  0.00  0.00     0.155 A 
ATOM     20  H   UNL d   1      29.411 -18.185  -6.280  0.00  0.00     0.160 HD
ENDBRANCH  10  11
ENDBRANCH   9  10
BRANCH   9  21
ATOM     21  N   UNL d   1      31.032 -18.826  -0.150  0.00  0.00    -0.073 N 
ATOM     22  H   UNL d   1      31.598 -19.659   0.012  0.00  0.00     0.274 HD
ATOM     23  H   UNL d   1      30.128 -19.152  -0.528  0.00  0.00     0.274 HD
ATOM     24  H   UNL d   1      30.844 -18.434   0.786  0.00  0.00     0.274 HD
ENDBRANCH   9  21
ENDBRANCH   8   9
ENDBRANCH   7   8
ENDBRANCH   1   7
BRANCH   5  25
ATOM     25  C   UNL d   1      24.514 -16.329  -1.212  0.00  0.00     0.014 C 
ATOM     26  C   UNL d   1      23.961 -17.371  -0.573  0.00  0.00     0.012 C 
BRANCH  26  27
ATOM     27  C   UNL d   1      22.551 -17.734  -0.686  0.00  0.00    -0.031 A 
ATOM     28  C   UNL d   1      21.586 -16.868  -1.183  0.00  0.00     0.031 A 
ATOM     29  C   UNL d   1      20.286 -17.333  -1.269  0.00  0.00     0.120 A 
ATOM     30  N   UNL d   1      19.904 -18.575  -0.896  0.00  0.00    -0.237 NA
ATOM     31  C   UNL d   1      20.857 -19.410  -0.426  0.00  0.00     0.170 A 
ATOM     32  C   UNL d   1      22.188 -19.032  -0.346  0.00  0.00     0.069 A 
BRANCH  31  33
ATOM     33  O   UNL d   1      20.409 -20.678  -0.111  0.00  0.00    -0.292 OA
BRANCH  33  34
ATOM     34  C   UNL d   1      19.285 -20.832   0.670  0.00  0.00     0.077 A 
ATOM     35  C   UNL d   1      18.231 -21.568   0.128  0.00  0.00     0.037 A 
ATOM     36  C   UNL d   1      17.029 -21.682   0.830  0.00  0.00     0.003 A 
ATOM     37  C   UNL d   1      16.906 -21.125   2.104  0.00  0.00     0.000 A 
ATOM     38  C   UNL d   1      17.964 -20.407   2.656  0.00  0.00     0.003 A 
ATOM     39  C   UNL d   1      19.136 -20.223   1.922  0.00  0.00     0.037 A 
ENDBRANCH  33  34
ENDBRANCH  31  33
ENDBRANCH  26  27
ENDBRANCH   5  25
TORSDOF 10
ENDMDL
MODEL 2
REMARK VINA RESULT:   -21.867      2.263      3.927
REMARK INTER + INTRA:         -26.540
REMARK INTER:                 -24.850
REMARK INTRA:                  -1.689
REMARK CONF_INDEPENDENT:        2.983
REMARK UNBOUND:                -1.689
REMARK  10 active torsions:
REMARK  status: ('A' for Active; 'I' for Inactive)
REMARK    1  A    between atoms: C_2  and  N_1 
REMARK    2  A    between atoms: C_2  and  C_26 
REMARK    3  A    between atoms: C_2  and  C_3 
REMARK    4  A    between atoms: C_3  and  O_4 
REMARK    5  A    between atoms: O_4  and  C_5 
REMARK    6  A    between atoms: C_9  and  C_10 
REMARK    7  A    between atoms: C_11  and  C_12 
REMARK    8  A    between atoms: C_16  and  O_17 
REMARK    9  A    between atoms: O_17  and  C_18 
REMARK   10  A    between atoms: C_26  and  C_27 
ROOT
ATOM      1  C   UNL d   1      28.307 -16.670  -0.954  0.00  0.00     0.087 A 
ATOM      2  C   UNL d   1      28.646 -15.406  -1.409  0.00  0.00     0.152 A 
ATOM      3  N   UNL d   1      27.745 -14.502  -1.843  0.00  0.00    -0.269 NA
ATOM      4  C   UNL d   1      26.439 -14.864  -1.806  0.00  0.00     0.127 A 
ATOM      5  C   UNL d   1      25.986 -16.102  -1.361  0.00  0.00    -0.016 A 
ATOM      6  C   UNL d   1      26.959 -17.006  -0.920  0.00  0.00     0.051 A 
ENDROOT
BRANCH   1   7
ATOM      7  O   UNL d   1      29.305 -17.481  -0.497  0.00  0.00    -0.348 OA
BRANCH   7   8
ATOM      8  C   UNL d   1      30.492 -17.449  -1.287  0.00  0.00     0.208 C 
BRANCH   8   9
ATOM      9  C   UNL d   1      31.673 -17.244  -0.320  0.00  0.00     0.211 C 
BRANCH   9  10
ATOM     10  C   UNL d   1      32.027 -18.547   0.386  0.00  0.00     0.071 C 
BRANCH  10  11
ATOM     11  C   UNL d   1      32.144 -19.795  -0.441  0.00  0.00    -0.048 A 
ATOM     12  C   UNL d   1      32.383 -20.967   0.150  0.00  0.00    -0.006 A 
ATOM     13  C   UNL d   1      32.558 -21.325   1.516  0.00  0.00     0.014 A 
ATOM     14  C   UNL d   1      32.469 -21.962  -0.927  0.00  0.00     0.038 A 
ATOM     15  C   UNL d   1      32.885 -22.592   1.794  0.00  0.00     0.001 A 
ATOM     16  C   UNL d   1      32.981 -23.598   0.749  0.00  0.00     0.002 A 
ATOM     17  C   UNL d   1      32.803 -23.342  -0.563  0.00  0.00     0.030 A 
ATOM     18  N   UNL d   1      32.234 -21.444  -2.078  0.00  0.00    -0.385 N 
ATOM     19  C   UNL d   1      31.980 -19.995  -1.929  0.00  0.00     0.155 A 
ATOM     20  H   UNL d   1      32.254 -21.994  -2.935  0.00  0.00     0.160 HD
ENDBRANCH  10  11
ENDBRANCH   9  10
BRANCH   9  21
ATOM     21  N   UNL d   1      31.286 -16.214   0.702  0.00  0.00    -0.073 N 
ATOM     22  H   UNL d   1      30.539 -16.493   1.338  0.00  0.00     0.274 HD
ATOM     23  H   UNL d   1      30.986 -15.329   0.263  0.00  0.00     0.274 HD
ATOM     24  H   UNL d   1      32.093 -15.992   1.305  0.00  0.00     0.274 HD
ENDBRANCH   9  21
ENDBRANCH   8   9
ENDBRANCH   7   8
ENDBRANCH   1   7
BRANCH   5  25
ATOM     25  C   UNL d   1      24.550 -16.420  -1.369  0.00  0.00     0.014 C 
ATOM     26  C   UNL d   1      24.020 -17.534  -0.842  0.00  0.00     0.012 C 
BRANCH  26  27
ATOM     27  C   UNL d   1      22.592 -17.840  -0.864  0.00  0.00    -0.031 A 
ATOM     28  C   UNL d   1      21.630 -16.925  -1.269  0.00  0.00     0.031 A 
ATOM     29  C   UNL d   1      20.310 -17.337  -1.274  0.00  0.00     0.120 A 
ATOM     30  N   UNL d   1      19.906 -18.575  -0.907  0.00  0.00    -0.237 NA
ATOM     31  C   UNL d   1      20.856 -19.459  -0.528  0.00  0.00     0.170 A 
ATOM     32  C   UNL d   1      22.203 -19.133  -0.533  0.00  0.00     0.069 A 
BRANCH  31  33
ATOM     33  O   UNL d   1      20.382 -20.718  -0.216  0.00  0.00    -0.292 OA
BRANCH  33  34
ATOM     34  C   UNL d   1      19.277 -20.850   0.597  0.00  0.00     0.077 A 
ATOM     35  C   UNL d   1      18.170 -21.508   0.061  0.00  0.00     0.037 A 
ATOM     36  C   UNL d   1      16.987 -21.593   0.798  0.00  0.00     0.003 A 
ATOM     37  C   UNL d   1      16.934 -21.088   2.099  0.00  0.00     0.000 A 
ATOM     38  C   UNL d   1      18.045 -20.448   2.644  0.00  0.00     0.003 A 
ATOM     39  C   UNL d   1      19.200 -20.290   1.877  0.00  0.00     0.037 A 
ENDBRANCH  33  34
ENDBRANCH  31  33
ENDBRANCH  26  27
ENDBRANCH   5  25
TORSDOF 10
ENDMDL
MODEL 3
REMARK VINA RESULT:   -21.369      3.600      6.018
REMARK INTER + INTRA:         -25.787
REMARK INTER:                 -24.352
REMARK INTRA:                  -1.435
REMARK CONF_INDEPENDENT:        2.983
REMARK UNBOUND:                -1.435
REMARK  10 active torsions:
REMARK  status: ('A' for Active; 'I' for Inactive)
REMARK    1  A    between atoms: C_2  and  N_1 
REMARK    2  A    between atoms: C_2  and  C_26 
REMARK    3  A    between atoms: C_2  and  C_3 
REMARK    4  A    between atoms: C_3  and  O_4 
REMARK    5  A    between atoms: O_4  and  C_5 
REMARK    6  A    between atoms: C_9  and  C_10 
REMARK    7  A    between atoms: C_11  and  C_12 
REMARK    8  A    between atoms: C_16  and  O_17 
REMARK    9  A    between atoms: O_17  and  C_18 
REMARK   10  A    between atoms: C_26  and  C_27 
ROOT
ATOM      1  C   UNL d   1      27.962 -14.994  -0.019  0.00  0.00     0.087 A 
ATOM      2  C   UNL d   1      28.807 -16.012  -0.430  0.00  0.00     0.152 A 
ATOM      3  N   UNL d   1      28.373 -17.176  -0.955  0.00  0.00    -0.269 NA
ATOM      4  C   UNL d   1      27.034 -17.330  -1.095  0.00  0.00     0.127 A 
ATOM      5  C   UNL d   1      26.096 -16.371  -0.725  0.00  0.00    -0.016 A 
ATOM      6  C   UNL d   1      26.595 -15.179  -0.186  0.00  0.00     0.051 A 
ENDROOT
BRANCH   1   7
ATOM      7  O   UNL d   1      28.522 -13.841   0.454  0.00  0.00    -0.348 OA
BRANCH   7   8
ATOM      8  C   UNL d   1      29.095 -13.962   1.754  0.00  0.00     0.208 C 
BRANCH   8   9
ATOM      9  C   UNL d   1      27.948 -14.304   2.723  0.00  0.00     0.211 C 
BRANCH   9  10
ATOM     10  C   UNL d   1      27.123 -13.064   3.045  0.00  0.00     0.071 C 
BRANCH  10  11
ATOM     11  C   UNL d   1      27.849 -11.809   3.437  0.00  0.00    -0.048 A 
ATOM     12  C   UNL d   1      27.675 -10.690   2.730  0.00  0.00    -0.006 A 
ATOM     13  C   UNL d   1      26.873 -10.399   1.592  0.00  0.00     0.014 A 
ATOM     14  C   UNL d   1      28.538  -9.675   3.349  0.00  0.00     0.038 A 
ATOM     15  C   UNL d   1      26.984  -9.184   1.042  0.00  0.00     0.001 A 
ATOM     16  C   UNL d   1      27.833  -8.160   1.628  0.00  0.00     0.002 A 
ATOM     17  C   UNL d   1      28.601  -8.352   2.720  0.00  0.00     0.030 A 
ATOM     18  N   UNL d   1      29.139 -10.125   4.390  0.00  0.00    -0.385 N 
ATOM     19  C   UNL d   1      28.774 -11.543   4.600  0.00  0.00     0.155 A 
ATOM     20  H   UNL d   1      29.778  -9.552   4.938  0.00  0.00     0.160 HD
ENDBRANCH  10  11
ENDBRANCH   9  10
BRANCH   9  21
ATOM     21  N   UNL d   1      28.536 -14.852   3.992  0.00  0.00    -0.073 N 
ATOM     22  H   UNL d   1      28.961 -15.776   3.909  0.00  0.00     0.274 HD
ATOM     23  H   UNL d   1      27.834 -14.916   4.747  0.00  0.00     0.274 HD
ATOM     24  H   UNL d   1      29.288 -14.233   4.330  0.00  0.00     0.274 HD
ENDBRANCH   9  21
ENDBRANCH   8   9
ENDBRANCH   7   8
ENDBRANCH   1   7
BRANCH   5  25
ATOM     25  C   UNL d   1      24.658 -16.624  -0.898  0.00  0.00     0.014 C 
ATOM     26  C   UNL d   1      24.026 -17.722  -0.454  0.00  0.00     0.012 C 
BRANCH  26  27
ATOM     27  C   UNL d   1      22.598 -17.964  -0.642  0.00  0.00    -0.031 A 
ATOM     28  C   UNL d   1      21.723 -16.995  -1.113  0.00  0.00     0.031 A 
ATOM     29  C   UNL d   1      20.396 -17.349  -1.276  0.00  0.00     0.120 A 
ATOM     30  N   UNL d   1      19.905 -18.579  -1.001  0.00  0.00    -0.237 NA
ATOM     31  C   UNL d   1      20.772 -19.515  -0.555  0.00  0.00     0.170 A 
ATOM     32  C   UNL d   1      22.124 -19.248  -0.403  0.00  0.00     0.069 A 
BRANCH  31  33
ATOM     33  O   UNL d   1      20.217 -20.761  -0.343  0.00  0.00    -0.292 OA
BRANCH  33  34
ATOM     34  C   UNL d   1      19.145 -20.896   0.513  0.00  0.00     0.077 A 
ATOM     35  C   UNL d   1      18.036 -21.596   0.038  0.00  0.00     0.037 A 
ATOM     36  C   UNL d   1      16.883 -21.687   0.820  0.00  0.00     0.003 A 
ATOM     37  C   UNL d   1      16.864 -21.145   2.106  0.00  0.00     0.000 A 
ATOM     38  C   UNL d   1      17.977 -20.463   2.591  0.00  0.00     0.003 A 
ATOM     39  C   UNL d   1      19.100 -20.300   1.779  0.00  0.00     0.037 A 
ENDBRANCH  33  34
ENDBRANCH  31  33
ENDBRANCH  26  27
ENDBRANCH   5  25
TORSDOF 10
ENDMDL
MODEL 4
REMARK VINA RESULT:   -21.291      1.489      2.289
REMARK INTER + INTRA:         -26.194
REMARK INTER:                 -24.274
REMARK INTRA:                  -1.920
REMARK CONF_INDEPENDENT:        2.983
REMARK UNBOUND:                -1.920
REMARK  10 active torsions:
REMARK  status: ('A' for Active; 'I' for Inactive)
REMARK    1  A    between atoms: C_2  and  N_1 
REMARK    2  A    between atoms: C_2  and  C_26 
REMARK    3  A    between atoms: C_2  and  C_3 
REMARK    4  A    between atoms: C_3  and  O_4 
REMARK    5  A    between atoms: O_4  and  C_5 
REMARK    6  A    between atoms: C_9  and  C_10 
REMARK    7  A    between atoms: C_11  and  C_12 
REMARK    8  A    between atoms: C_16  and  O_17 
REMARK    9  A    between atoms: O_17  and  C_18 
REMARK   10  A    between atoms: C_26  and  C_27 
ROOT
ATOM      1  C   UNL d   1      28.300 -16.650  -1.102  0.00  0.00     0.087 A 
ATOM      2  C   UNL d   1      28.618 -15.303  -1.156  0.00  0.00     0.152 A 
ATOM      3  N   UNL d   1      27.698 -14.320  -1.227  0.00  0.00    -0.269 NA
ATOM      4  C   UNL d   1      26.395 -14.693  -1.224  0.00  0.00     0.127 A 
ATOM      5  C   UNL d   1      25.961 -16.014  -1.164  0.00  0.00    -0.016 A 
ATOM      6  C   UNL d   1      26.954 -16.998  -1.091  0.00  0.00     0.051 A 
ENDROOT
BRANCH   1   7
ATOM      7  O   UNL d   1      29.320 -17.551  -0.986  0.00  0.00    -0.348 OA
BRANCH   7   8
ATOM      8  C   UNL d   1      30.175 -17.615  -2.126  0.00  0.00     0.208 C 
BRANCH   8   9
ATOM      9  C   UNL d   1      31.154 -18.779  -1.891  0.00  0.00     0.211 C 
BRANCH   9  10
ATOM     10  C   UNL d   1      31.264 -19.653  -3.135  0.00  0.00     0.071 C 
BRANCH  10  11
ATOM     11  C   UNL d   1      31.267 -18.981  -4.478  0.00  0.00    -0.048 A 
ATOM     12  C   UNL d   1      31.405 -19.709  -5.588  0.00  0.00    -0.006 A 
ATOM     13  C   UNL d   1      31.554 -21.109  -5.794  0.00  0.00     0.014 A 
ATOM     14  C   UNL d   1      31.397 -18.758  -6.707  0.00  0.00     0.038 A 
ATOM     15  C   UNL d   1      31.768 -21.538  -7.043  0.00  0.00     0.001 A 
ATOM     16  C   UNL d   1      31.771 -20.620  -8.171  0.00  0.00     0.002 A 
ATOM     17  C   UNL d   1      31.610 -19.286  -8.058  0.00  0.00     0.030 A 
ATOM     18  N   UNL d   1      31.203 -17.553  -6.312  0.00  0.00    -0.385 N 
ATOM     19  C   UNL d   1      31.080 -17.526  -4.839  0.00  0.00     0.155 A 
ATOM     20  H   UNL d   1      31.171 -16.768  -6.960  0.00  0.00     0.160 HD
ENDBRANCH  10  11
ENDBRANCH   9  10
BRANCH   9  21
ATOM     21  N   UNL d   1      30.652 -19.608  -0.744  0.00  0.00    -0.073 N 
ATOM     22  H   UNL d   1      30.358 -19.080   0.078  0.00  0.00     0.274 HD
ATOM     23  H   UNL d   1      31.358 -20.288  -0.421  0.00  0.00     0.274 HD
ATOM     24  H   UNL d   1      29.823 -20.149  -1.034  0.00  0.00     0.274 HD
ENDBRANCH   9  21
ENDBRANCH   8   9
ENDBRANCH   7   8
ENDBRANCH   1   7
BRANCH   5  25
ATOM     25  C   UNL d   1      24.526 -16.333  -1.181  0.00  0.00     0.014 C 
ATOM     26  C   UNL d   1      24.017 -17.541  -0.898  0.00  0.00     0.012 C 
BRANCH  26  27
ATOM     27  C   UNL d   1      22.589 -17.845  -0.927  0.00  0.00    -0.031 A 
ATOM     28  C   UNL d   1      21.622 -16.900  -1.243  0.00  0.00     0.031 A 
ATOM     29  C   UNL d   1      20.302 -17.311  -1.266  0.00  0.00     0.120 A 
ATOM     30  N   UNL d   1      19.902 -18.575  -0.996  0.00  0.00    -0.237 NA
ATOM     31  C   UNL d   1      20.856 -19.486  -0.703  0.00  0.00     0.170 A 
ATOM     32  C   UNL d   1      22.203 -19.161  -0.698  0.00  0.00     0.069 A 
BRANCH  31  33
ATOM     33  O   UNL d   1      20.385 -20.767  -0.490  0.00  0.00    -0.292 OA
BRANCH  33  34
ATOM     34  C   UNL d   1      19.360 -20.977   0.407  0.00  0.00     0.077 A 
ATOM     35  C   UNL d   1      18.131 -21.381  -0.115  0.00  0.00     0.037 A 
ATOM     36  C   UNL d   1      17.028 -21.520   0.729  0.00  0.00     0.003 A 
ATOM     37  C   UNL d   1      17.170 -21.331   2.105  0.00  0.00     0.000 A 
ATOM     38  C   UNL d   1      18.401 -20.948   2.632  0.00  0.00     0.003 A 
ATOM     39  C   UNL d   1      19.483 -20.728   1.780  0.00  0.00     0.037 A 
ENDBRANCH  33  34
ENDBRANCH  31  33
ENDBRANCH  26  27
ENDBRANCH   5  25
TORSDOF 10
ENDMDL
MODEL 5
REMARK VINA RESULT:   -20.979      2.704      3.877
REMARK INTER + INTRA:         -26.272
REMARK INTER:                 -23.962
REMARK INTRA:                  -2.310
REMARK CONF_INDEPENDENT:        2.983
REMARK UNBOUND:                -2.310
REMARK  10 active torsions:
REMARK  status: ('A' for Active; 'I' for Inactive)
REMARK    1  A    between atoms: C_2  and  N_1 
REMARK    2  A    between atoms: C_2  and  C_26 
REMARK    3  A    between atoms: C_2  and  C_3 
REMARK    4  A    between atoms: C_3  and  O_4 
REMARK    5  A    between atoms: O_4  and  C_5 
REMARK    6  A    between atoms: C_9  and  C_10 
REMARK    7  A    between atoms: C_11  and  C_12 
REMARK    8  A    between atoms: C_16  and  O_17 
REMARK    9  A    between atoms: O_17  and  C_18 
REMARK   10  A    between atoms: C_26  and  C_27 
ROOT
ATOM      1  C   UNL d   1      28.379 -16.348  -1.802  0.00  0.00     0.087 A 
ATOM      2  C   UNL d   1      28.923 -16.355  -0.528  0.00  0.00     0.152 A 
ATOM      3  N   UNL d   1      28.191 -16.494   0.596  0.00  0.00    -0.269 NA
ATOM      4  C   UNL d   1      26.853 -16.651   0.447  0.00  0.00     0.127 A 
ATOM      5  C   UNL d   1      26.202 -16.667  -0.783  0.00  0.00    -0.016 A 
ATOM      6  C   UNL d   1      27.004 -16.521  -1.921  0.00  0.00     0.051 A 
ENDROOT
BRANCH   1   7
ATOM      7  O   UNL d   1      29.228 -16.246  -2.867  0.00  0.00    -0.348 OA
BRANCH   7   8
ATOM      8  C   UNL d   1      30.179 -15.190  -2.756  0.00  0.00     0.208 C 
BRANCH   8   9
ATOM      9  C   UNL d   1      29.791 -14.122  -3.795  0.00  0.00     0.211 C 
BRANCH   9  10
ATOM     10  C   UNL d   1      28.889 -13.063  -3.173  0.00  0.00     0.071 C 
BRANCH  10  11
ATOM     11  C   UNL d   1      27.662 -12.641  -3.929  0.00  0.00    -0.048 A 
ATOM     12  C   UNL d   1      27.780 -12.088  -5.137  0.00  0.00    -0.006 A 
ATOM     13  C   UNL d   1      28.917 -11.794  -5.941  0.00  0.00     0.014 A 
ATOM     14  C   UNL d   1      26.416 -11.768  -5.579  0.00  0.00     0.038 A 
ATOM     15  C   UNL d   1      28.718 -11.139  -7.091  0.00  0.00     0.001 A 
ATOM     16  C   UNL d   1      27.380 -10.805  -7.553  0.00  0.00     0.002 A 
ATOM     17  C   UNL d   1      26.254 -11.074  -6.860  0.00  0.00     0.030 A 
ATOM     18  N   UNL d   1      25.534 -12.157  -4.732  0.00  0.00    -0.385 N 
ATOM     19  C   UNL d   1      26.202 -12.779  -3.569  0.00  0.00     0.155 A 
ATOM     20  H   UNL d   1      24.537 -12.012  -4.882  0.00  0.00     0.160 HD
ENDBRANCH  10  11
ENDBRANCH   9  10
BRANCH   9  21
ATOM     21  N   UNL d   1      29.065 -14.791  -4.927  0.00  0.00    -0.073 N 
ATOM     22  H   UNL d   1      28.821 -14.182  -5.708  0.00  0.00     0.274 HD
ATOM     23  H   UNL d   1      28.186 -15.234  -4.613  0.00  0.00     0.274 HD
ATOM     24  H   UNL d   1      29.650 -15.537  -5.332  0.00  0.00     0.274 HD
ENDBRANCH   9  21
ENDBRANCH   8   9
ENDBRANCH   7   8
ENDBRANCH   1   7
BRANCH   5  25
ATOM     25  C   UNL d   1      24.743 -16.828  -0.855  0.00  0.00     0.014 C 
ATOM     26  C   UNL d   1      24.102 -17.996  -0.689  0.00  0.00     0.012 C 
BRANCH  26  27
ATOM     27  C   UNL d   1      22.651 -18.142  -0.772  0.00  0.00    -0.031 A 
ATOM     28  C   UNL d   1      21.814 -17.124  -1.208  0.00  0.00     0.031 A 
ATOM     29  C   UNL d   1      20.457 -17.388  -1.270  0.00  0.00     0.120 A 
ATOM     30  N   UNL d   1      19.904 -18.575  -0.930  0.00  0.00    -0.237 NA
ATOM     31  C   UNL d   1      20.735 -19.559  -0.520  0.00  0.00     0.170 A 
ATOM     32  C   UNL d   1      22.109 -19.385  -0.467  0.00  0.00     0.069 A 
BRANCH  31  33
ATOM     33  O   UNL d   1      20.112 -20.759  -0.238  0.00  0.00    -0.292 OA
BRANCH  33  34
ATOM     34  C   UNL d   1      19.031 -20.784   0.616  0.00  0.00     0.077 A 
ATOM     35  C   UNL d   1      18.915 -19.732   1.525  0.00  0.00     0.037 A 
ATOM     36  C   UNL d   1      17.895 -19.746   2.480  0.00  0.00     0.003 A 
ATOM     37  C   UNL d   1      16.948 -20.771   2.478  0.00  0.00     0.000 A 
ATOM     38  C   UNL d   1      17.050 -21.813   1.558  0.00  0.00     0.003 A 
ATOM     39  C   UNL d   1      18.115 -21.842   0.658  0.00  0.00     0.037 A 
ENDBRANCH  33  34
ENDBRANCH  31  33
ENDBRANCH  26  27
ENDBRANCH   5  25
TORSDOF 10
ENDMDL
MODEL 6
REMARK VINA RESULT:   -20.960      2.745      3.828
REMARK INTER + INTRA:         -25.608
REMARK INTER:                 -23.943
REMARK INTRA:                  -1.665
REMARK CONF_INDEPENDENT:        2.983
REMARK UNBOUND:                -1.665
REMARK  10 active torsions:
REMARK  status: ('A' for Active; 'I' for Inactive)
REMARK    1  A    between atoms: C_2  and  N_1 
REMARK    2  A    between atoms: C_2  and  C_26 
REMARK    3  A    between atoms: C_2  and  C_3 
REMARK    4  A    between atoms: C_3  and  O_4 
REMARK    5  A    between atoms: O_4  and  C_5 
REMARK    6  A    between atoms: C_9  and  C_10 
REMARK    7  A    between atoms: C_11  and  C_12 
REMARK    8  A    between atoms: C_16  and  O_17 
REMARK    9  A    between atoms: O_17  and  C_18 
REMARK   10  A    between atoms: C_26  and  C_27 
ROOT
ATOM      1  C   UNL d   1      27.973 -15.500  -0.504  0.00  0.00     0.087 A 
ATOM      2  C   UNL d   1      28.438 -14.950  -1.688  0.00  0.00     0.152 A 
ATOM      3  N   UNL d   1      27.680 -14.806  -2.793  0.00  0.00    -0.269 NA
ATOM      4  C   UNL d   1      26.389 -15.212  -2.714  0.00  0.00     0.127 A 
ATOM      5  C   UNL d   1      25.815 -15.770  -1.575  0.00  0.00    -0.016 A 
ATOM      6  C   UNL d   1      26.642 -15.897  -0.453  0.00  0.00     0.051 A 
ENDROOT
BRANCH   1   7
ATOM      7  O   UNL d   1      28.824 -15.551   0.563  0.00  0.00    -0.348 OA
BRANCH   7   8
ATOM      8  C   UNL d   1      30.053 -14.857   0.363  0.00  0.00     0.208 C 
BRANCH   8   9
ATOM      9  C   UNL d   1      30.240 -13.913   1.565  0.00  0.00     0.211 C 
BRANCH   9  10
ATOM     10  C   UNL d   1      31.703 -13.518   1.721  0.00  0.00     0.071 C 
BRANCH  10  11
ATOM     11  C   UNL d   1      32.688 -14.021   0.705  0.00  0.00    -0.048 A 
ATOM     12  C   UNL d   1      32.930 -15.330   0.603  0.00  0.00    -0.006 A 
ATOM     13  C   UNL d   1      32.405 -16.451   1.302  0.00  0.00     0.014 A 
ATOM     14  C   UNL d   1      33.948 -15.479  -0.446  0.00  0.00     0.038 A 
ATOM     15  C   UNL d   1      32.923 -17.655   1.033  0.00  0.00     0.001 A 
ATOM     16  C   UNL d   1      33.935 -17.834   0.004  0.00  0.00     0.002 A 
ATOM     17  C   UNL d   1      34.462 -16.824  -0.718  0.00  0.00     0.030 A 
ATOM     18  N   UNL d   1      34.251 -14.353  -0.984  0.00  0.00    -0.385 N 
ATOM     19  C   UNL d   1      33.482 -13.269  -0.336  0.00  0.00     0.155 A 
ATOM     20  H   UNL d   1      34.943 -14.276  -1.727  0.00  0.00     0.160 HD
ENDBRANCH  10  11
ENDBRANCH   9  10
BRANCH   9  21
ATOM     21  N   UNL d   1      29.780 -14.619   2.808  0.00  0.00    -0.073 N 
ATOM     22  H   UNL d   1      29.064 -14.130   3.345  0.00  0.00     0.274 HD
ATOM     23  H   UNL d   1      30.561 -14.805   3.457  0.00  0.00     0.274 HD
ATOM     24  H   UNL d   1      29.366 -15.532   2.565  0.00  0.00     0.274 HD
ENDBRANCH   9  21
ENDBRANCH   8   9
ENDBRANCH   7   8
ENDBRANCH   1   7
BRANCH   5  25
ATOM     25  C   UNL d   1      24.409 -16.198  -1.579  0.00  0.00     0.014 C 
ATOM     26  C   UNL d   1      23.924 -17.208  -0.841  0.00  0.00     0.012 C 
BRANCH  26  27
ATOM     27  C   UNL d   1      22.525 -17.627  -0.862  0.00  0.00    -0.031 A 
ATOM     28  C   UNL d   1      21.493 -16.794  -1.271  0.00  0.00     0.031 A 
ATOM     29  C   UNL d   1      20.210 -17.311  -1.275  0.00  0.00     0.120 A 
ATOM     30  N   UNL d   1      19.906 -18.575  -0.902  0.00  0.00    -0.237 NA
ATOM     31  C   UNL d   1      20.924 -19.378  -0.519  0.00  0.00     0.170 A 
ATOM     32  C   UNL d   1      22.241 -18.945  -0.525  0.00  0.00     0.069 A 
BRANCH  31  33
ATOM     33  O   UNL d   1      20.552 -20.670  -0.202  0.00  0.00    -0.292 OA
BRANCH  33  34
ATOM     34  C   UNL d   1      19.397 -20.891   0.516  0.00  0.00     0.077 A 
ATOM     35  C   UNL d   1      18.884 -19.816   1.242  0.00  0.00     0.037 A 
ATOM     36  C   UNL d   1      17.770 -20.000   2.065  0.00  0.00     0.003 A 
ATOM     37  C   UNL d   1      17.124 -21.236   2.104  0.00  0.00     0.000 A 
ATOM     38  C   UNL d   1      17.622 -22.307   1.364  0.00  0.00     0.003 A 
ATOM     39  C   UNL d   1      18.783 -22.146   0.607  0.00  0.00     0.037 A 
ENDBRANCH  33  34
ENDBRANCH  31  33
ENDBRANCH  26  27
ENDBRANCH   5  25
TORSDOF 10
ENDMDL
MODEL 7
REMARK VINA RESULT:   -20.702      1.551      2.855
REMARK INTER + INTRA:         -26.101
REMARK INTER:                 -23.685
REMARK INTRA:                  -2.416
REMARK CONF_INDEPENDENT:        2.983
REMARK UNBOUND:                -2.416
REMARK  10 active torsions:
REMARK  status: ('A' for Active; 'I' for Inactive)
REMARK    1  A    between atoms: C_2  and  N_1 
REMARK    2  A    between atoms: C_2  and  C_26 
REMARK    3  A    between atoms: C_2  and  C_3 
REMARK    4  A    between atoms: C_3  and  O_4 
REMARK    5  A    between atoms: O_4  and  C_5 
REMARK    6  A    between atoms: C_9  and  C_10 
REMARK    7  A    between atoms: C_11  and  C_12 
REMARK    8  A    between atoms: C_16  and  O_17 
REMARK    9  A    between atoms: O_17  and  C_18 
REMARK   10  A    between atoms: C_26  and  C_27 
ROOT
ATOM      1  C   UNL d   1      28.586 -16.888  -0.895  0.00  0.00     0.087 A 
ATOM      2  C   UNL d   1      28.658 -15.637  -0.305  0.00  0.00     0.152 A 
ATOM      3  N   UNL d   1      27.576 -14.915   0.050  0.00  0.00    -0.269 NA
ATOM      4  C   UNL d   1      26.361 -15.472  -0.174  0.00  0.00     0.127 A 
ATOM      5  C   UNL d   1      26.172 -16.724  -0.752  0.00  0.00    -0.016 A 
ATOM      6  C   UNL d   1      27.325 -17.435  -1.102  0.00  0.00     0.051 A 
ENDROOT
BRANCH   1   7
ATOM      7  O   UNL d   1      29.754 -17.542  -1.168  0.00  0.00    -0.348 OA
BRANCH   7   8
ATOM      8  C   UNL d   1      30.779 -16.707  -1.702  0.00  0.00     0.208 C 
BRANCH   8   9
ATOM      9  C   UNL d   1      32.036 -16.929  -0.841  0.00  0.00     0.211 C 
BRANCH   9  10
ATOM     10  C   UNL d   1      32.967 -17.944  -1.493  0.00  0.00     0.071 C 
BRANCH  10  11
ATOM     11  C   UNL d   1      32.456 -18.723  -2.671  0.00  0.00    -0.048 A 
ATOM     12  C   UNL d   1      31.986 -19.960  -2.500  0.00  0.00    -0.006 A 
ATOM     13  C   UNL d   1      31.841 -20.770  -1.340  0.00  0.00     0.014 A 
ATOM     14  C   UNL d   1      31.603 -20.443  -3.833  0.00  0.00     0.038 A 
ATOM     15  C   UNL d   1      31.416 -22.028  -1.503  0.00  0.00     0.001 A 
ATOM     16  C   UNL d   1      31.034 -22.536  -2.811  0.00  0.00     0.002 A 
ATOM     17  C   UNL d   1      31.118 -21.821  -3.951  0.00  0.00     0.030 A 
ATOM     18  N   UNL d   1      31.767 -19.544  -4.735  0.00  0.00    -0.385 N 
ATOM     19  C   UNL d   1      32.320 -18.318  -4.120  0.00  0.00     0.155 A 
ATOM     20  H   UNL d   1      31.552 -19.713  -5.715  0.00  0.00     0.160 HD
ENDBRANCH  10  11
ENDBRANCH   9  10
BRANCH   9  21
ATOM     21  N   UNL d   1      31.613 -17.436   0.508  0.00  0.00    -0.073 N 
ATOM     22  H   UNL d   1      31.112 -16.763   1.088  0.00  0.00     0.274 HD
ATOM     23  H   UNL d   1      32.417 -17.766   1.066  0.00  0.00     0.274 HD
ATOM     24  H   UNL d   1      30.972 -18.237   0.400  0.00  0.00     0.274 HD
ENDBRANCH   9  21
ENDBRANCH   8   9
ENDBRANCH   7   8
ENDBRANCH   1   7
BRANCH   5  25
ATOM     25  C   UNL d   1      24.816 -17.248  -0.974  0.00  0.00     0.014 C 
ATOM     26  C   UNL d   1      23.739 -16.883  -0.263  0.00  0.00     0.012 C 
BRANCH  26  27
ATOM     27  C   UNL d   1      22.399 -17.419  -0.489  0.00  0.00    -0.031 A 
ATOM     28  C   UNL d   1      21.414 -16.724  -1.177  0.00  0.00     0.031 A 
ATOM     29  C   UNL d   1      20.191 -17.346  -1.354  0.00  0.00     0.120 A 
ATOM     30  N   UNL d   1      19.902 -18.585  -0.895  0.00  0.00    -0.237 NA
ATOM     31  C   UNL d   1      20.876 -19.253  -0.238  0.00  0.00     0.170 A 
ATOM     32  C   UNL d   1      22.140 -18.714  -0.054  0.00  0.00     0.069 A 
BRANCH  31  33
ATOM     33  O   UNL d   1      20.533 -20.531   0.159  0.00  0.00    -0.292 OA
BRANCH  33  34
ATOM     34  C   UNL d   1      19.309 -20.757   0.749  0.00  0.00     0.077 A 
ATOM     35  C   UNL d   1      18.919 -19.879   1.761  0.00  0.00     0.037 A 
ATOM     36  C   UNL d   1      17.735 -20.108   2.464  0.00  0.00     0.003 A 
ATOM     37  C   UNL d   1      16.902 -21.170   2.106  0.00  0.00     0.000 A 
ATOM     38  C   UNL d   1      17.278 -22.037   1.083  0.00  0.00     0.003 A 
ATOM     39  C   UNL d   1      18.501 -21.857   0.436  0.00  0.00     0.037 A 
ENDBRANCH  33  34
ENDBRANCH  31  33
ENDBRANCH  26  27
ENDBRANCH   5  25
TORSDOF 10
ENDMDL
MODEL 8
REMARK VINA RESULT:   -20.615      2.612      5.159
REMARK INTER + INTRA:         -26.329
REMARK INTER:                 -23.598
REMARK INTRA:                  -2.731
REMARK CONF_INDEPENDENT:        2.983
REMARK UNBOUND:                -2.731
REMARK  10 active torsions:
REMARK  status: ('A' for Active; 'I' for Inactive)
REMARK    1  A    between atoms: C_2  and  N_1 
REMARK    2  A    between atoms: C_2  and  C_26 
REMARK    3  A    between atoms: C_2  and  C_3 
REMARK    4  A    between atoms: C_3  and  O_4 
REMARK    5  A    between atoms: O_4  and  C_5 
REMARK    6  A    between atoms: C_9  and  C_10 
REMARK    7  A    between atoms: C_11  and  C_12 
REMARK    8  A    between atoms: C_16  and  O_17 
REMARK    9  A    between atoms: O_17  and  C_18 
REMARK   10  A    between atoms: C_26  and  C_27 
ROOT
ATOM      1  C   UNL d   1      28.328 -15.715  -1.534  0.00  0.00     0.087 A 
ATOM      2  C   UNL d   1      28.991 -16.678  -0.791  0.00  0.00     0.152 A 
ATOM      3  N   UNL d   1      28.367 -17.679  -0.138  0.00  0.00    -0.269 NA
ATOM      4  C   UNL d   1      27.017 -17.738  -0.243  0.00  0.00     0.127 A 
ATOM      5  C   UNL d   1      26.251 -16.830  -0.968  0.00  0.00    -0.016 A 
ATOM      6  C   UNL d   1      26.944 -15.810  -1.629  0.00  0.00     0.051 A 
ENDROOT
BRANCH   1   7
ATOM      7  O   UNL d   1      29.074 -14.777  -2.188  0.00  0.00    -0.348 OA
BRANCH   7   8
ATOM      8  C   UNL d   1      29.998 -14.081  -1.355  0.00  0.00     0.208 C 
BRANCH   8   9
ATOM      9  C   UNL d   1      29.843 -12.580  -1.662  0.00  0.00     0.211 C 
BRANCH   9  10
ATOM     10  C   UNL d   1      29.525 -11.798  -0.394  0.00  0.00     0.071 C 
BRANCH  10  11
ATOM     11  C   UNL d   1      29.810 -12.446   0.931  0.00  0.00    -0.048 A 
ATOM     12  C   UNL d   1      28.806 -12.727   1.765  0.00  0.00    -0.006 A 
ATOM     13  C   UNL d   1      27.400 -12.539   1.658  0.00  0.00     0.014 A 
ATOM     14  C   UNL d   1      29.419 -13.316   2.963  0.00  0.00     0.038 A 
ATOM     15  C   UNL d   1      26.646 -12.842   2.720  0.00  0.00     0.001 A 
ATOM     16  C   UNL d   1      27.224 -13.421   3.922  0.00  0.00     0.002 A 
ATOM     17  C   UNL d   1      28.542 -13.654   4.087  0.00  0.00     0.030 A 
ATOM     18  N   UNL d   1      30.691 -13.442   2.838  0.00  0.00    -0.385 N 
ATOM     19  C   UNL d   1      31.116 -12.919   1.522  0.00  0.00     0.155 A 
ATOM     20  H   UNL d   1      31.272 -13.832   3.578  0.00  0.00     0.160 HD
ENDBRANCH  10  11
ENDBRANCH   9  10
BRANCH   9  21
ATOM     21  N   UNL d   1      28.723 -12.404  -2.649  0.00  0.00    -0.073 N 
ATOM     22  H   UNL d   1      28.633 -11.466  -3.039  0.00  0.00     0.274 HD
ATOM     23  H   UNL d   1      27.806 -12.643  -2.238  0.00  0.00     0.274 HD
ATOM     24  H   UNL d   1      28.863 -13.027  -3.459  0.00  0.00     0.274 HD
ENDBRANCH   9  21
ENDBRANCH   8   9
ENDBRANCH   7   8
ENDBRANCH   1   7
BRANCH   5  25
ATOM     25  C   UNL d   1      24.787 -16.958  -1.018  0.00  0.00     0.014 C 
ATOM     26  C   UNL d   1      24.118 -18.088  -0.743  0.00  0.00     0.012 C 
BRANCH  26  27
ATOM     27  C   UNL d   1      22.663 -18.202  -0.805  0.00  0.00    -0.031 A 
ATOM     28  C   UNL d   1      21.841 -17.166  -1.226  0.00  0.00     0.031 A 
ATOM     29  C   UNL d   1      20.479 -17.399  -1.269  0.00  0.00     0.120 A 
ATOM     30  N   UNL d   1      19.905 -18.575  -0.924  0.00  0.00    -0.237 NA
ATOM     31  C   UNL d   1      20.720 -19.578  -0.528  0.00  0.00     0.170 A 
ATOM     32  C   UNL d   1      22.098 -19.433  -0.495  0.00  0.00     0.069 A 
BRANCH  31  33
ATOM     33  O   UNL d   1      20.075 -20.765  -0.239  0.00  0.00    -0.292 OA
BRANCH  33  34
ATOM     34  C   UNL d   1      18.994 -20.765   0.616  0.00  0.00     0.077 A 
ATOM     35  C   UNL d   1      18.901 -19.709   1.523  0.00  0.00     0.037 A 
ATOM     36  C   UNL d   1      17.883 -19.700   2.479  0.00  0.00     0.003 A 
ATOM     37  C   UNL d   1      16.914 -20.705   2.480  0.00  0.00     0.000 A 
ATOM     38  C   UNL d   1      16.993 -21.750   1.562  0.00  0.00     0.003 A 
ATOM     39  C   UNL d   1      18.056 -21.804   0.661  0.00  0.00     0.037 A 
ENDBRANCH  33  34
ENDBRANCH  31  33
ENDBRANCH  26  27
ENDBRANCH   5  25
TORSDOF 10
ENDMDL
MODEL 9
REMARK VINA RESULT:   -20.486      1.511      2.553
REMARK INTER + INTRA:         -25.777
REMARK INTER:                 -23.469
REMARK INTRA:                  -2.308
REMARK CONF_INDEPENDENT:        2.983
REMARK UNBOUND:                -2.308
REMARK  10 active torsions:
REMARK  status: ('A' for Active; 'I' for Inactive)
REMARK    1  A    between atoms: C_2  and  N_1 
REMARK    2  A    between atoms: C_2  and  C_26 
REMARK    3  A    between atoms: C_2  and  C_3 
REMARK    4  A    between atoms: C_3  and  O_4 
REMARK    5  A    between atoms: O_4  and  C_5 
REMARK    6  A    between atoms: C_9  and  C_10 
REMARK    7  A    between atoms: C_11  and  C_12 
REMARK    8  A    between atoms: C_16  and  O_17 
REMARK    9  A    between atoms: O_17  and  C_18 
REMARK   10  A    between atoms: C_26  and  C_27 
ROOT
ATOM      1  C   UNL d   1      28.224 -15.732  -1.529  0.00  0.00     0.087 A 
ATOM      2  C   UNL d   1      28.938 -16.548  -0.667  0.00  0.00     0.152 A 
ATOM      3  N   UNL d   1      28.402 -17.604  -0.021  0.00  0.00    -0.269 NA
ATOM      4  C   UNL d   1      27.096 -17.874  -0.258  0.00  0.00     0.127 A 
ATOM      5  C   UNL d   1      26.287 -17.128  -1.110  0.00  0.00    -0.016 A 
ATOM      6  C   UNL d   1      26.888 -16.043  -1.758  0.00  0.00     0.051 A 
ENDROOT
BRANCH   1   7
ATOM      7  O   UNL d   1      28.888 -14.719  -2.159  0.00  0.00    -0.348 OA
BRANCH   7   8
ATOM      8  C   UNL d   1      28.792 -14.756  -3.582  0.00  0.00     0.208 C 
BRANCH   8   9
ATOM      9  C   UNL d   1      29.972 -13.935  -4.135  0.00  0.00     0.211 C 
BRANCH   9  10
ATOM     10  C   UNL d   1      31.111 -14.849  -4.570  0.00  0.00     0.071 C 
BRANCH  10  11
ATOM     11  C   UNL d   1      30.907 -16.334  -4.475  0.00  0.00    -0.048 A 
ATOM     12  C   UNL d   1      31.063 -17.099  -5.558  0.00  0.00    -0.006 A 
ATOM     13  C   UNL d   1      31.421 -16.787  -6.898  0.00  0.00     0.014 A 
ATOM     14  C   UNL d   1      30.764 -18.474  -5.136  0.00  0.00     0.038 A 
ATOM     15  C   UNL d   1      31.403 -17.777  -7.798  0.00  0.00     0.001 A 
ATOM     16  C   UNL d   1      31.107 -19.148  -7.412  0.00  0.00     0.002 A 
ATOM     17  C   UNL d   1      30.784 -19.525  -6.158  0.00  0.00     0.030 A 
ATOM     18  N   UNL d   1      30.510 -18.546  -3.880  0.00  0.00    -0.385 N 
ATOM     19  C   UNL d   1      30.579 -17.197  -3.280  0.00  0.00     0.155 A 
ATOM     20  H   UNL d   1      30.281 -19.427  -3.423  0.00  0.00     0.160 HD
ENDBRANCH  10  11
ENDBRANCH   9  10
BRANCH   9  21
ATOM     21  N   UNL d   1      30.461 -13.008  -3.059  0.00  0.00    -0.073 N 
ATOM     22  H   UNL d   1      29.866 -12.951  -2.232  0.00  0.00     0.274 HD
ATOM     23  H   UNL d   1      30.578 -12.042  -3.406  0.00  0.00     0.274 HD
ATOM     24  H   UNL d   1      31.382 -13.319  -2.715  0.00  0.00     0.274 HD
ENDBRANCH   9  21
ENDBRANCH   8   9
ENDBRANCH   7   8
ENDBRANCH   1   7
BRANCH   5  25
ATOM     25  C   UNL d   1      24.873 -17.482  -1.300  0.00  0.00     0.014 C 
ATOM     26  C   UNL d   1      23.933 -17.376  -0.348  0.00  0.00     0.012 C 
BRANCH  26  27
ATOM     27  C   UNL d   1      22.533 -17.740  -0.548  0.00  0.00    -0.031 A 
ATOM     28  C   UNL d   1      21.600 -16.876  -1.103  0.00  0.00     0.031 A 
ATOM     29  C   UNL d   1      20.308 -17.341  -1.270  0.00  0.00     0.120 A 
ATOM     30  N   UNL d   1      19.905 -18.585  -0.922  0.00  0.00    -0.237 NA
ATOM     31  C   UNL d   1      20.828 -19.419  -0.395  0.00  0.00     0.170 A 
ATOM     32  C   UNL d   1      22.151 -19.039  -0.232  0.00  0.00     0.069 A 
BRANCH  31  33
ATOM     33  O   UNL d   1      20.364 -20.688  -0.110  0.00  0.00    -0.292 OA
BRANCH  33  34
ATOM     34  C   UNL d   1      19.240 -20.845   0.672  0.00  0.00     0.077 A 
ATOM     35  C   UNL d   1      18.232 -21.672   0.175  0.00  0.00     0.037 A 
ATOM     36  C   UNL d   1      17.029 -21.798   0.874  0.00  0.00     0.003 A 
ATOM     37  C   UNL d   1      16.862 -21.161   2.104  0.00  0.00     0.000 A 
ATOM     38  C   UNL d   1      17.876 -20.351   2.612  0.00  0.00     0.003 A 
ATOM     39  C   UNL d   1      19.045 -20.158   1.876  0.00  0.00     0.037 A 
ENDBRANCH  33  34
ENDBRANCH  31  33
ENDBRANCH  26  27
ENDBRANCH   5  25
TORSDOF 10
ENDMDL
