MODEL 1
REMARK VINA RESULT:   -11.610      0.000      0.000
REMARK INTER + INTRA:         -17.345
REMARK INTER:                 -14.593
REMARK INTRA:                  -2.752
REMARK CONF_INDEPENDENT:        2.983
REMARK UNBOUND:                -2.752
REMARK  10 active torsions:
REMARK  status: ('A' for Active; 'I' for Inactive)
REMARK    1  A    between atoms: C_6  and  C_7 
REMARK    2  A    between atoms: C_7  and  O_8 
REMARK    3  A    between atoms: O_8  and  C_9 
REMARK    4  A    between atoms: C_12  and  C_13 
REMARK    5  A    between atoms: N_14  and  N_15 
REMARK       I    between atoms: N_15  and  C_16 
REMARK    6  A    between atoms: C_16  and  C_18 
REMARK    7  A    between atoms: C_19  and  C_20 
REMARK    8  A    between atoms: C_20  and  N_21 
REMARK    9  A    between atoms: N_29  and  C_30 
REMARK   10  A    between atoms: C_34  and  N_35 
ROOT
ATOM      1  C   UNL d   1      30.990 -15.853   0.419  0.00  0.00     0.153 C 
ATOM      2  C   UNL d   1      31.498 -14.958   1.378  0.00  0.00     0.112 C 
ATOM      3  N   UNL d   1      32.866 -15.052   1.366  0.00  0.00    -0.160 NA
ATOM      4  N   UNL d   1      33.221 -15.981   0.491  0.00  0.00     0.012 NA
ATOM      5  N   UNL d   1      32.118 -16.407  -0.165  0.00  0.00    -0.207 N 
ENDROOT
BRANCH   1   6
ATOM      6  C   UNL d   1      29.665 -16.120  -0.103  0.00  0.00     0.292 C 
ATOM      7  N   UNL d   1      29.179 -17.433  -0.187  0.00  0.00    -0.242 N 
ATOM      8  H   UNL d   1      29.777 -18.254  -0.145  0.00  0.00     0.192 HD
ATOM      9  O   UNL d   1      28.987 -15.171  -0.507  0.00  0.00    -0.264 OA
BRANCH   7  10
ATOM     10  N   UNL d   1      27.836 -17.599  -0.513  0.00  0.00    -0.183 NA
ATOM     11  C   UNL d   1      26.917 -17.245   0.337  0.00  0.00     0.150 C 
BRANCH  11  12
ATOM     12  C   UNL d   1      25.449 -17.386   0.041  0.00  0.00    -0.017 A 
ATOM     13  C   UNL d   1      24.757 -18.571   0.329  0.00  0.00     0.015 A 
ATOM     14  C   UNL d   1      23.378 -18.686   0.072  0.00  0.00     0.037 A 
ATOM     15  C   UNL d   1      22.669 -17.614  -0.463  0.00  0.00     0.069 A 
ATOM     16  C   UNL d   1      23.359 -16.447  -0.799  0.00  0.00     0.037 A 
ATOM     17  C   UNL d   1      24.739 -16.325  -0.539  0.00  0.00     0.015 A 
BRANCH  15  18
ATOM     18  O   UNL d   1      21.339 -17.650  -0.775  0.00  0.00    -0.347 OA
BRANCH  18  19
ATOM     19  C   UNL d   1      20.821 -18.895  -1.276  0.00  0.00     0.214 C 
BRANCH  19  20
ATOM     20  C   UNL d   1      20.012 -19.612  -0.207  0.00  0.00    -0.034 A 
ATOM     21  C   UNL d   1      18.768 -20.184  -0.519  0.00  0.00     0.009 A 
ATOM     22  C   UNL d   1      18.012 -20.827   0.466  0.00  0.00     0.001 A 
ATOM     23  C   UNL d   1      18.489 -20.913   1.775  0.00  0.00     0.007 A 
ATOM     24  C   UNL d   1      19.727 -20.357   2.106  0.00  0.00    -0.061 A 
ATOM     25  C   UNL d   1      20.280 -20.450   3.496  0.00  0.00     0.048 C 
ATOM     26  C   UNL d   1      20.474 -19.709   1.114  0.00  0.00     0.016 A 
ENDBRANCH  19  20
ENDBRANCH  18  19
ENDBRANCH  15  18
ENDBRANCH  11  12
ENDBRANCH   7  10
ENDBRANCH   1   6
BRANCH   2  27
ATOM     27  C   UNL d   1      30.888 -13.994   2.385  0.00  0.00     0.297 C 
BRANCH  27  28
ATOM     28  N   UNL d   1      29.787 -14.513   3.301  0.00  0.00    -0.066 N 
ATOM     29  C   UNL d   1      30.277 -14.580   4.736  0.00  0.00     0.235 C 
ATOM     30  C   UNL d   1      29.134 -14.784   5.720  0.00  0.00     0.028 C 
ATOM     31  C   UNL d   1      27.896 -13.939   5.460  0.00  0.00     0.003 C 
ATOM     32  C   UNL d   1      27.405 -14.174   4.046  0.00  0.00     0.028 C 
ATOM     33  C   UNL d   1      28.464 -13.824   3.021  0.00  0.00     0.235 C 
ATOM     34  H   UNL d   1      29.633 -15.497   3.044  0.00  0.00     0.280 HD
ENDBRANCH  27  28
ENDBRANCH   2  27
BRANCH   5  35
ATOM     35  C   UNL d   1      32.123 -17.205  -1.323  0.00  0.00     0.225 A 
ATOM     36  N   UNL d   1      31.372 -18.302  -1.384  0.00  0.00    -0.081 NA
ATOM     37  O   UNL d   1      31.522 -18.721  -2.714  0.00  0.00    -0.103 OA
ATOM     38  N   UNL d   1      32.344 -17.853  -3.430  0.00  0.00    -0.083 NA
ATOM     39  C   UNL d   1      32.725 -16.922  -2.560  0.00  0.00     0.201 A 
BRANCH  39  40
ATOM     40  N   UNL d   1      33.564 -15.908  -2.832  0.00  0.00    -0.379 N 
ATOM     41  H   UNL d   1      34.165 -15.951  -3.649  0.00  0.00     0.158 HD
ATOM     42  H   UNL d   1      33.622 -15.022  -2.340  0.00  0.00     0.158 HD
ENDBRANCH  39  40
ENDBRANCH   5  35
TORSDOF 10
ENDMDL
MODEL 2
REMARK VINA RESULT:   -11.026      2.092      4.428
REMARK INTER + INTRA:         -16.067
REMARK INTER:                 -14.009
REMARK INTRA:                  -2.057
REMARK CONF_INDEPENDENT:        2.983
REMARK UNBOUND:                -2.057
REMARK  10 active torsions:
REMARK  status: ('A' for Active; 'I' for Inactive)
REMARK    1  A    between atoms: C_6  and  C_7 
REMARK    2  A    between atoms: C_7  and  O_8 
REMARK    3  A    between atoms: O_8  and  C_9 
REMARK    4  A    between atoms: C_12  and  C_13 
REMARK    5  A    between atoms: N_14  and  N_15 
REMARK       I    between atoms: N_15  and  C_16 
REMARK    6  A    between atoms: C_16  and  C_18 
REMARK    7  A    between atoms: C_19  and  C_20 
REMARK    8  A    between atoms: C_20  and  N_21 
REMARK    9  A    between atoms: N_29  and  C_30 
REMARK   10  A    between atoms: C_34  and  N_35 
ROOT
ATOM      1  C   UNL d   1      30.408 -15.904  -0.313  0.00  0.00     0.153 C 
ATOM      2  C   UNL d   1      31.669 -16.513  -0.178  0.00  0.00     0.112 C 
ATOM      3  N   UNL d   1      32.513 -15.616   0.427  0.00  0.00    -0.160 NA
ATOM      4  N   UNL d   1      31.857 -14.483   0.628  0.00  0.00     0.012 NA
ATOM      5  N   UNL d   1      30.561 -14.662   0.285  0.00  0.00    -0.207 N 
ENDROOT
BRANCH   1   6
ATOM      6  C   UNL d   1      29.110 -16.370  -0.756  0.00  0.00     0.292 C 
ATOM      7  N   UNL d   1      28.509 -17.488  -0.160  0.00  0.00    -0.242 N 
ATOM      8  H   UNL d   1      29.021 -18.167   0.398  0.00  0.00     0.192 HD
ATOM      9  O   UNL d   1      28.560 -15.784  -1.693  0.00  0.00    -0.264 OA
BRANCH   7  10
ATOM     10  N   UNL d   1      27.187 -17.761  -0.498  0.00  0.00    -0.183 NA
ATOM     11  C   UNL d   1      26.221 -17.186   0.157  0.00  0.00     0.150 C 
BRANCH  11  12
ATOM     12  C   UNL d   1      24.772 -17.427  -0.167  0.00  0.00    -0.017 A 
ATOM     13  C   UNL d   1      24.214 -18.711  -0.105  0.00  0.00     0.015 A 
ATOM     14  C   UNL d   1      22.852 -18.924  -0.385  0.00  0.00     0.037 A 
ATOM     15  C   UNL d   1      22.025 -17.856  -0.719  0.00  0.00     0.069 A 
ATOM     16  C   UNL d   1      22.582 -16.579  -0.832  0.00  0.00     0.037 A 
ATOM     17  C   UNL d   1      23.945 -16.360  -0.547  0.00  0.00     0.015 A 
BRANCH  15  18
ATOM     18  O   UNL d   1      20.702 -17.976  -1.039  0.00  0.00    -0.347 OA
BRANCH  18  19
ATOM     19  C   UNL d   1      20.227 -19.296  -1.358  0.00  0.00     0.214 C 
BRANCH  19  20
ATOM     20  C   UNL d   1      19.580 -19.945  -0.145  0.00  0.00    -0.034 A 
ATOM     21  C   UNL d   1      18.358 -20.625  -0.269  0.00  0.00     0.009 A 
ATOM     22  C   UNL d   1      17.750 -21.206   0.849  0.00  0.00     0.001 A 
ATOM     23  C   UNL d   1      18.356 -21.121   2.103  0.00  0.00     0.007 A 
ATOM     24  C   UNL d   1      19.575 -20.455   2.248  0.00  0.00    -0.061 A 
ATOM     25  C   UNL d   1      20.264 -20.363   3.576  0.00  0.00     0.048 C 
ATOM     26  C   UNL d   1      20.172 -19.869   1.124  0.00  0.00     0.016 A 
ENDBRANCH  19  20
ENDBRANCH  18  19
ENDBRANCH  15  18
ENDBRANCH  11  12
ENDBRANCH   7  10
ENDBRANCH   1   6
BRANCH   2  27
ATOM     27  C   UNL d   1      32.266 -17.858  -0.565  0.00  0.00     0.297 C 
BRANCH  27  28
ATOM     28  N   UNL d   1      31.876 -19.080   0.258  0.00  0.00    -0.066 N 
ATOM     29  C   UNL d   1      31.727 -20.297  -0.636  0.00  0.00     0.235 C 
ATOM     30  C   UNL d   1      31.655 -21.589   0.164  0.00  0.00     0.028 C 
ATOM     31  C   UNL d   1      32.654 -21.700   1.307  0.00  0.00     0.003 C 
ATOM     32  C   UNL d   1      32.503 -20.510   2.233  0.00  0.00     0.028 C 
ATOM     33  C   UNL d   1      32.732 -19.202   1.505  0.00  0.00     0.235 C 
ATOM     34  H   UNL d   1      30.924 -18.907   0.606  0.00  0.00     0.280 HD
ENDBRANCH  27  28
ENDBRANCH   2  27
BRANCH   5  35
ATOM     35  C   UNL d   1      29.514 -13.770   0.581  0.00  0.00     0.225 A 
ATOM     36  N   UNL d   1      29.272 -12.733  -0.216  0.00  0.00    -0.081 NA
ATOM     37  O   UNL d   1      28.089 -12.193   0.309  0.00  0.00    -0.103 OA
ATOM     38  N   UNL d   1      27.636 -12.932   1.401  0.00  0.00    -0.083 NA
ATOM     39  C   UNL d   1      28.530 -13.900   1.574  0.00  0.00     0.201 A 
BRANCH  39  40
ATOM     40  N   UNL d   1      28.492 -14.820   2.553  0.00  0.00    -0.379 N 
ATOM     41  H   UNL d   1      29.214 -14.833   3.267  0.00  0.00     0.158 HD
ATOM     42  H   UNL d   1      27.752 -15.494   2.722  0.00  0.00     0.158 HD
ENDBRANCH  39  40
ENDBRANCH   5  35
TORSDOF 10
ENDMDL
MODEL 3
REMARK VINA RESULT:   -10.451      6.723      9.888
REMARK INTER + INTRA:         -15.648
REMARK INTER:                 -13.434
REMARK INTRA:                  -2.213
REMARK CONF_INDEPENDENT:        2.983
REMARK UNBOUND:                -2.213
REMARK  10 active torsions:
REMARK  status: ('A' for Active; 'I' for Inactive)
REMARK    1  A    between atoms: C_6  and  C_7 
REMARK    2  A    between atoms: C_7  and  O_8 
REMARK    3  A    between atoms: O_8  and  C_9 
REMARK    4  A    between atoms: C_12  and  C_13 
REMARK    5  A    between atoms: N_14  and  N_15 
REMARK       I    between atoms: N_15  and  C_16 
REMARK    6  A    between atoms: C_16  and  C_18 
REMARK    7  A    between atoms: C_19  and  C_20 
REMARK    8  A    between atoms: C_20  and  N_21 
REMARK    9  A    between atoms: N_29  and  C_30 
REMARK   10  A    between atoms: C_34  and  N_35 
ROOT
ATOM      1  C   UNL d   1      26.219 -16.666  -0.665  0.00  0.00     0.153 C 
ATOM      2  C   UNL d   1      27.339 -17.470  -0.381  0.00  0.00     0.112 C 
ATOM      3  N   UNL d   1      26.898 -18.608   0.247  0.00  0.00    -0.160 NA
ATOM      4  N   UNL d   1      25.585 -18.526   0.403  0.00  0.00     0.012 NA
ATOM      5  N   UNL d   1      25.139 -17.416  -0.227  0.00  0.00    -0.207 N 
ENDROOT
BRANCH   1   6
ATOM      6  C   UNL d   1      26.029 -15.432  -1.399  0.00  0.00     0.292 C 
ATOM      7  N   UNL d   1      25.662 -15.455  -2.753  0.00  0.00    -0.242 N 
ATOM      8  H   UNL d   1      25.760 -16.275  -3.346  0.00  0.00     0.192 HD
ATOM      9  O   UNL d   1      26.233 -14.362  -0.819  0.00  0.00    -0.264 OA
BRANCH   7  10
ATOM     10  N   UNL d   1      25.309 -14.243  -3.340  0.00  0.00    -0.183 NA
ATOM     11  C   UNL d   1      26.209 -13.319  -3.506  0.00  0.00     0.150 C 
BRANCH  11  12
ATOM     12  C   UNL d   1      25.895 -11.994  -4.145  0.00  0.00    -0.017 A 
ATOM     13  C   UNL d   1      25.850 -11.848  -5.538  0.00  0.00     0.015 A 
ATOM     14  C   UNL d   1      25.531 -10.610  -6.128  0.00  0.00     0.037 A 
ATOM     15  C   UNL d   1      25.240  -9.505  -5.334  0.00  0.00     0.069 A 
ATOM     16  C   UNL d   1      25.330  -9.628  -3.945  0.00  0.00     0.037 A 
ATOM     17  C   UNL d   1      25.644 -10.866  -3.350  0.00  0.00     0.015 A 
BRANCH  15  18
ATOM     18  O   UNL d   1      24.955  -8.261  -5.821  0.00  0.00    -0.347 OA
BRANCH  18  19
ATOM     19  C   UNL d   1      24.052  -7.451  -5.048  0.00  0.00     0.214 C 
BRANCH  19  20
ATOM     20  C   UNL d   1      22.941  -6.894  -5.924  0.00  0.00    -0.034 A 
ATOM     21  C   UNL d   1      21.798  -6.320  -5.345  0.00  0.00     0.009 A 
ATOM     22  C   UNL d   1      20.765  -5.825  -6.148  0.00  0.00     0.001 A 
ATOM     23  C   UNL d   1      20.862  -5.891  -7.538  0.00  0.00     0.007 A 
ATOM     24  C   UNL d   1      21.993  -6.452  -8.135  0.00  0.00    -0.061 A 
ATOM     25  C   UNL d   1      22.139  -6.520  -9.626  0.00  0.00     0.048 C 
ATOM     26  C   UNL d   1      23.018  -6.952  -7.323  0.00  0.00     0.016 A 
ENDBRANCH  19  20
ENDBRANCH  18  19
ENDBRANCH  15  18
ENDBRANCH  11  12
ENDBRANCH   7  10
ENDBRANCH   1   6
BRANCH   2  27
ATOM     27  C   UNL d   1      28.841 -17.338  -0.580  0.00  0.00     0.297 C 
BRANCH  27  28
ATOM     28  N   UNL d   1      29.624 -16.484   0.411  0.00  0.00    -0.066 N 
ATOM     29  C   UNL d   1      31.088 -16.420   0.016  0.00  0.00     0.235 C 
ATOM     30  C   UNL d   1      31.838 -15.337   0.777  0.00  0.00     0.028 C 
ATOM     31  C   UNL d   1      31.106 -14.009   0.904  0.00  0.00     0.003 C 
ATOM     32  C   UNL d   1      29.746 -14.234   1.534  0.00  0.00     0.028 C 
ATOM     33  C   UNL d   1      28.900 -15.185   0.714  0.00  0.00     0.235 C 
ATOM     34  H   UNL d   1      29.628 -16.999   1.301  0.00  0.00     0.280 HD
ENDBRANCH  27  28
ENDBRANCH   2  27
BRANCH   5  35
ATOM     35  C   UNL d   1      23.788 -17.120  -0.485  0.00  0.00     0.225 A 
ATOM     36  N   UNL d   1      23.450 -15.953  -1.027  0.00  0.00    -0.081 NA
ATOM     37  O   UNL d   1      22.076 -16.098  -1.270  0.00  0.00    -0.103 OA
ATOM     38  N   UNL d   1      21.623 -17.359  -0.886  0.00  0.00    -0.083 NA
ATOM     39  C   UNL d   1      22.686 -17.984  -0.388  0.00  0.00     0.201 A 
BRANCH  39  40
ATOM     40  N   UNL d   1      22.677 -19.222   0.136  0.00  0.00    -0.379 N 
ATOM     41  H   UNL d   1      23.515 -19.595   0.572  0.00  0.00     0.158 HD
ATOM     42  H   UNL d   1      21.874 -19.836   0.224  0.00  0.00     0.158 HD
ENDBRANCH  39  40
ENDBRANCH   5  35
TORSDOF 10
ENDMDL
MODEL 4
REMARK VINA RESULT:   -10.398      3.796      5.508
REMARK INTER + INTRA:         -15.568
REMARK INTER:                 -13.381
REMARK INTRA:                  -2.187
REMARK CONF_INDEPENDENT:        2.983
REMARK UNBOUND:                -2.187
REMARK  10 active torsions:
REMARK  status: ('A' for Active; 'I' for Inactive)
REMARK    1  A    between atoms: C_6  and  C_7 
REMARK    2  A    between atoms: C_7  and  O_8 
REMARK    3  A    between atoms: O_8  and  C_9 
REMARK    4  A    between atoms: C_12  and  C_13 
REMARK    5  A    between atoms: N_14  and  N_15 
REMARK       I    between atoms: N_15  and  C_16 
REMARK    6  A    between atoms: C_16  and  C_18 
REMARK    7  A    between atoms: C_19  and  C_20 
REMARK    8  A    between atoms: C_20  and  N_21 
REMARK    9  A    between atoms: N_29  and  C_30 
REMARK   10  A    between atoms: C_34  and  N_35 
ROOT
ATOM      1  C   UNL d   1      28.923 -11.962   3.214  0.00  0.00     0.153 C 
ATOM      2  C   UNL d   1      30.117 -12.058   3.952  0.00  0.00     0.112 C 
ATOM      3  N   UNL d   1      30.632 -10.795   4.094  0.00  0.00    -0.160 NA
ATOM      4  N   UNL d   1      29.850  -9.941   3.450  0.00  0.00     0.012 NA
ATOM      5  N   UNL d   1      28.761 -10.603   2.998  0.00  0.00    -0.207 N 
ENDROOT
BRANCH   1   6
ATOM      6  C   UNL d   1      27.890 -12.910   2.848  0.00  0.00     0.292 C 
ATOM      7  N   UNL d   1      27.861 -13.479   1.566  0.00  0.00    -0.242 N 
ATOM      8  H   UNL d   1      28.365 -13.093   0.771  0.00  0.00     0.192 HD
ATOM      9  O   UNL d   1      27.014 -13.178   3.676  0.00  0.00    -0.264 OA
BRANCH   7  10
ATOM     10  N   UNL d   1      26.964 -14.520   1.348  0.00  0.00    -0.183 NA
ATOM     11  C   UNL d   1      26.838 -15.025   0.156  0.00  0.00     0.150 C 
BRANCH  11  12
ATOM     12  C   UNL d   1      25.896 -16.159  -0.144  0.00  0.00    -0.017 A 
ATOM     13  C   UNL d   1      26.113 -17.444   0.374  0.00  0.00     0.015 A 
ATOM     14  C   UNL d   1      25.215 -18.494   0.110  0.00  0.00     0.037 A 
ATOM     15  C   UNL d   1      24.080 -18.272  -0.664  0.00  0.00     0.069 A 
ATOM     16  C   UNL d   1      23.880 -17.008  -1.225  0.00  0.00     0.037 A 
ATOM     17  C   UNL d   1      24.775 -15.952  -0.959  0.00  0.00     0.015 A 
BRANCH  15  18
ATOM     18  O   UNL d   1      23.174 -19.239  -0.999  0.00  0.00    -0.347 OA
BRANCH  18  19
ATOM     19  C   UNL d   1      21.830 -18.806  -1.271  0.00  0.00     0.214 C 
BRANCH  19  20
ATOM     20  C   UNL d   1      20.882 -19.267  -0.175  0.00  0.00    -0.034 A 
ATOM     21  C   UNL d   1      21.140 -18.950   1.169  0.00  0.00     0.009 A 
ATOM     22  C   UNL d   1      20.281 -19.389   2.182  0.00  0.00     0.001 A 
ATOM     23  C   UNL d   1      19.151 -20.145   1.867  0.00  0.00     0.007 A 
ATOM     24  C   UNL d   1      18.871 -20.465   0.537  0.00  0.00    -0.061 A 
ATOM     25  C   UNL d   1      17.655 -21.257   0.161  0.00  0.00     0.048 C 
ATOM     26  C   UNL d   1      19.741 -20.028  -0.470  0.00  0.00     0.016 A 
ENDBRANCH  19  20
ENDBRANCH  18  19
ENDBRANCH  15  18
ENDBRANCH  11  12
ENDBRANCH   7  10
ENDBRANCH   1   6
BRANCH   2  27
ATOM     27  C   UNL d   1      30.923 -13.197   4.559  0.00  0.00     0.297 C 
BRANCH  27  28
ATOM     28  N   UNL d   1      30.662 -13.565   6.015  0.00  0.00    -0.066 N 
ATOM     29  C   UNL d   1      31.137 -12.457   6.936  0.00  0.00     0.235 C 
ATOM     30  C   UNL d   1      30.616 -12.632   8.355  0.00  0.00     0.028 C 
ATOM     31  C   UNL d   1      29.151 -13.029   8.464  0.00  0.00     0.003 C 
ATOM     32  C   UNL d   1      28.905 -14.293   7.665  0.00  0.00     0.028 C 
ATOM     33  C   UNL d   1      29.258 -14.109   6.204  0.00  0.00     0.235 C 
ATOM     34  H   UNL d   1      31.283 -14.355   6.232  0.00  0.00     0.280 HD
ENDBRANCH  27  28
ENDBRANCH   2  27
BRANCH   5  35
ATOM     35  C   UNL d   1      27.601  -9.996   2.481  0.00  0.00     0.225 A 
ATOM     36  N   UNL d   1      27.387  -9.969   1.169  0.00  0.00    -0.081 NA
ATOM     37  O   UNL d   1      26.092  -9.441   1.065  0.00  0.00    -0.103 OA
ATOM     38  N   UNL d   1      25.548  -9.180   2.322  0.00  0.00    -0.083 NA
ATOM     39  C   UNL d   1      26.493  -9.514   3.196  0.00  0.00     0.201 A 
BRANCH  39  40
ATOM     40  N   UNL d   1      26.393  -9.380   4.530  0.00  0.00    -0.379 N 
ATOM     41  H   UNL d   1      26.906  -8.646   5.007  0.00  0.00     0.158 HD
ATOM     42  H   UNL d   1      25.776  -9.901   5.146  0.00  0.00     0.158 HD
ENDBRANCH  39  40
ENDBRANCH   5  35
TORSDOF 10
ENDMDL
MODEL 5
REMARK VINA RESULT:   -10.206      4.739      7.022
REMARK INTER + INTRA:         -16.357
REMARK INTER:                 -13.189
REMARK INTRA:                  -3.168
REMARK CONF_INDEPENDENT:        2.983
REMARK UNBOUND:                -3.168
REMARK  10 active torsions:
REMARK  status: ('A' for Active; 'I' for Inactive)
REMARK    1  A    between atoms: C_6  and  C_7 
REMARK    2  A    between atoms: C_7  and  O_8 
REMARK    3  A    between atoms: O_8  and  C_9 
REMARK    4  A    between atoms: C_12  and  C_13 
REMARK    5  A    between atoms: N_14  and  N_15 
REMARK       I    between atoms: N_15  and  C_16 
REMARK    6  A    between atoms: C_16  and  C_18 
REMARK    7  A    between atoms: C_19  and  C_20 
REMARK    8  A    between atoms: C_20  and  N_21 
REMARK    9  A    between atoms: N_29  and  C_30 
REMARK   10  A    between atoms: C_34  and  N_35 
ROOT
ATOM      1  C   UNL d   1      28.372 -13.421  -5.953  0.00  0.00     0.153 C 
ATOM      2  C   UNL d   1      29.577 -13.556  -6.667  0.00  0.00     0.112 C 
ATOM      3  N   UNL d   1      30.005 -12.301  -7.020  0.00  0.00    -0.160 NA
ATOM      4  N   UNL d   1      29.112 -11.414  -6.605  0.00  0.00     0.012 NA
ATOM      5  N   UNL d   1      28.172 -12.052  -5.872  0.00  0.00    -0.207 N 
ENDROOT
BRANCH   1   6
ATOM      6  C   UNL d   1      27.520 -14.349  -5.237  0.00  0.00     0.292 C 
ATOM      7  N   UNL d   1      27.101 -14.071  -3.928  0.00  0.00    -0.242 N 
ATOM      8  H   UNL d   1      27.551 -13.382  -3.331  0.00  0.00     0.192 HD
ATOM      9  O   UNL d   1      27.200 -15.405  -5.791  0.00  0.00    -0.264 OA
BRANCH   7  10
ATOM     10  N   UNL d   1      26.133 -14.905  -3.376  0.00  0.00    -0.183 NA
ATOM     11  C   UNL d   1      26.295 -15.376  -2.174  0.00  0.00     0.150 C 
BRANCH  11  12
ATOM     12  C   UNL d   1      25.280 -16.270  -1.515  0.00  0.00    -0.017 A 
ATOM     13  C   UNL d   1      25.671 -17.395  -0.775  0.00  0.00     0.015 A 
ATOM     14  C   UNL d   1      24.717 -18.213  -0.141  0.00  0.00     0.037 A 
ATOM     15  C   UNL d   1      23.361 -17.911  -0.226  0.00  0.00     0.069 A 
ATOM     16  C   UNL d   1      22.959 -16.820  -1.002  0.00  0.00     0.037 A 
ATOM     17  C   UNL d   1      23.911 -15.996  -1.634  0.00  0.00     0.015 A 
BRANCH  15  18
ATOM     18  O   UNL d   1      22.367 -18.667   0.328  0.00  0.00    -0.347 OA
BRANCH  18  19
ATOM     19  C   UNL d   1      21.153 -18.804  -0.431  0.00  0.00     0.214 C 
BRANCH  19  20
ATOM     20  C   UNL d   1      20.120 -19.606   0.343  0.00  0.00    -0.034 A 
ATOM     21  C   UNL d   1      18.981 -20.112  -0.304  0.00  0.00     0.009 A 
ATOM     22  C   UNL d   1      18.018 -20.834   0.409  0.00  0.00     0.001 A 
ATOM     23  C   UNL d   1      18.182 -21.065   1.776  0.00  0.00     0.007 A 
ATOM     24  C   UNL d   1      19.310 -20.576   2.438  0.00  0.00    -0.061 A 
ATOM     25  C   UNL d   1      19.529 -20.824   3.900  0.00  0.00     0.048 C 
ATOM     26  C   UNL d   1      20.265 -19.848   1.717  0.00  0.00     0.016 A 
ENDBRANCH  19  20
ENDBRANCH  18  19
ENDBRANCH  15  18
ENDBRANCH  11  12
ENDBRANCH   7  10
ENDBRANCH   1   6
BRANCH   2  27
ATOM     27  C   UNL d   1      30.434 -14.725  -7.129  0.00  0.00     0.297 C 
BRANCH  27  28
ATOM     28  N   UNL d   1      30.124 -16.108  -6.567  0.00  0.00    -0.066 N 
ATOM     29  C   UNL d   1      30.848 -17.178  -7.363  0.00  0.00     0.235 C 
ATOM     30  C   UNL d   1      30.828 -18.525  -6.657  0.00  0.00     0.028 C 
ATOM     31  C   UNL d   1      31.110 -18.478  -5.162  0.00  0.00     0.003 C 
ATOM     32  C   UNL d   1      30.138 -17.530  -4.489  0.00  0.00     0.028 C 
ATOM     33  C   UNL d   1      30.243 -16.128  -5.054  0.00  0.00     0.235 C 
ATOM     34  H   UNL d   1      29.130 -16.284  -6.757  0.00  0.00     0.280 HD
ENDBRANCH  27  28
ENDBRANCH   2  27
BRANCH   5  35
ATOM     35  C   UNL d   1      27.203 -11.420  -5.071  0.00  0.00     0.225 A 
ATOM     36  N   UNL d   1      27.416 -11.254  -3.768  0.00  0.00    -0.081 NA
ATOM     37  O   UNL d   1      26.328 -10.466  -3.363  0.00  0.00    -0.103 OA
ATOM     38  N   UNL d   1      25.496 -10.159  -4.438  0.00  0.00    -0.083 NA
ATOM     39  C   UNL d   1      26.036 -10.764  -5.492  0.00  0.00     0.201 A 
BRANCH  39  40
ATOM     40  N   UNL d   1      25.521 -10.756  -6.734  0.00  0.00    -0.379 N 
ATOM     41  H   UNL d   1      24.524 -10.893  -6.872  0.00  0.00     0.158 HD
ATOM     42  H   UNL d   1      26.017 -10.543  -7.594  0.00  0.00     0.158 HD
ENDBRANCH  39  40
ENDBRANCH   5  35
TORSDOF 10
ENDMDL
MODEL 6
REMARK VINA RESULT:    -9.893      4.804      9.801
REMARK INTER + INTRA:         -15.468
REMARK INTER:                 -12.876
REMARK INTRA:                  -2.593
REMARK CONF_INDEPENDENT:        2.983
REMARK UNBOUND:                -2.593
REMARK  10 active torsions:
REMARK  status: ('A' for Active; 'I' for Inactive)
REMARK    1  A    between atoms: C_6  and  C_7 
REMARK    2  A    between atoms: C_7  and  O_8 
REMARK    3  A    between atoms: O_8  and  C_9 
REMARK    4  A    between atoms: C_12  and  C_13 
REMARK    5  A    between atoms: N_14  and  N_15 
REMARK       I    between atoms: N_15  and  C_16 
REMARK    6  A    between atoms: C_16  and  C_18 
REMARK    7  A    between atoms: C_19  and  C_20 
REMARK    8  A    between atoms: C_20  and  N_21 
REMARK    9  A    between atoms: N_29  and  C_30 
REMARK   10  A    between atoms: C_34  and  N_35 
ROOT
ATOM      1  C   UNL d   1      28.131 -15.505  -3.889  0.00  0.00     0.153 C 
ATOM      2  C   UNL d   1      29.043 -15.492  -4.961  0.00  0.00     0.112 C 
ATOM      3  N   UNL d   1      28.337 -15.275  -6.118  0.00  0.00    -0.160 NA
ATOM      4  N   UNL d   1      27.048 -15.200  -5.822  0.00  0.00     0.012 NA
ATOM      5  N   UNL d   1      26.906 -15.234  -4.478  0.00  0.00    -0.207 N 
ENDROOT
BRANCH   1   6
ATOM      6  C   UNL d   1      28.276 -15.572  -2.449  0.00  0.00     0.292 C 
ATOM      7  N   UNL d   1      28.088 -14.430  -1.658  0.00  0.00    -0.242 N 
ATOM      8  H   UNL d   1      28.103 -13.483  -2.029  0.00  0.00     0.192 HD
ATOM      9  O   UNL d   1      28.603 -16.646  -1.938  0.00  0.00    -0.264 OA
BRANCH   7  10
ATOM     10  N   UNL d   1      28.050 -14.607  -0.278  0.00  0.00    -0.183 NA
ATOM     11  C   UNL d   1      28.618 -13.734   0.502  0.00  0.00     0.150 C 
BRANCH  11  12
ATOM     12  C   UNL d   1      28.601 -13.860   2.001  0.00  0.00    -0.017 A 
ATOM     13  C   UNL d   1      27.405 -13.778   2.727  0.00  0.00     0.015 A 
ATOM     14  C   UNL d   1      27.395 -13.922   4.127  0.00  0.00     0.037 A 
ATOM     15  C   UNL d   1      28.578 -14.164   4.819  0.00  0.00     0.069 A 
ATOM     16  C   UNL d   1      29.781 -14.199   4.110  0.00  0.00     0.037 A 
ATOM     17  C   UNL d   1      29.796 -14.060   2.707  0.00  0.00     0.015 A 
BRANCH  15  18
ATOM     18  O   UNL d   1      28.664 -14.282   6.177  0.00  0.00    -0.347 OA
BRANCH  18  19
ATOM     19  C   UNL d   1      28.631 -13.063   6.940  0.00  0.00     0.214 C 
BRANCH  19  20
ATOM     20  C   UNL d   1      28.765 -13.353   8.426  0.00  0.00    -0.034 A 
ATOM     21  C   UNL d   1      28.155 -12.513   9.373  0.00  0.00     0.009 A 
ATOM     22  C   UNL d   1      28.293 -12.766  10.742  0.00  0.00     0.001 A 
ATOM     23  C   UNL d   1      29.036 -13.861  11.184  0.00  0.00     0.007 A 
ATOM     24  C   UNL d   1      29.645 -14.713  10.260  0.00  0.00    -0.061 A 
ATOM     25  C   UNL d   1      30.432 -15.911  10.699  0.00  0.00     0.048 C 
ATOM     26  C   UNL d   1      29.508 -14.448   8.892  0.00  0.00     0.016 A 
ENDBRANCH  19  20
ENDBRANCH  18  19
ENDBRANCH  15  18
ENDBRANCH  11  12
ENDBRANCH   7  10
ENDBRANCH   1   6
BRANCH   2  27
ATOM     27  C   UNL d   1      30.545 -15.687  -5.105  0.00  0.00     0.297 C 
BRANCH  27  28
ATOM     28  N   UNL d   1      31.055 -17.069  -5.498  0.00  0.00    -0.066 N 
ATOM     29  C   UNL d   1      30.641 -18.101  -4.465  0.00  0.00     0.235 C 
ATOM     30  C   UNL d   1      30.846 -19.523  -4.966  0.00  0.00     0.028 C 
ATOM     31  C   UNL d   1      30.402 -19.776  -6.399  0.00  0.00     0.003 C 
ATOM     32  C   UNL d   1      31.095 -18.798  -7.328  0.00  0.00     0.028 C 
ATOM     33  C   UNL d   1      30.782 -17.362  -6.961  0.00  0.00     0.235 C 
ATOM     34  H   UNL d   1      32.079 -17.035  -5.421  0.00  0.00     0.280 HD
ENDBRANCH  27  28
ENDBRANCH   2  27
BRANCH   5  35
ATOM     35  C   UNL d   1      25.720 -14.939  -3.781  0.00  0.00     0.225 A 
ATOM     36  N   UNL d   1      24.836 -14.086  -4.293  0.00  0.00    -0.081 NA
ATOM     37  O   UNL d   1      23.751 -14.178  -3.408  0.00  0.00    -0.103 OA
ATOM     38  N   UNL d   1      24.000 -15.102  -2.394  0.00  0.00    -0.083 NA
ATOM     39  C   UNL d   1      25.227 -15.560  -2.622  0.00  0.00     0.201 A 
BRANCH  39  40
ATOM     40  N   UNL d   1      25.875 -16.448  -1.848  0.00  0.00    -0.379 N 
ATOM     41  H   UNL d   1      26.602 -16.133  -1.212  0.00  0.00     0.158 HD
ATOM     42  H   UNL d   1      25.668 -17.438  -1.759  0.00  0.00     0.158 HD
ENDBRANCH  39  40
ENDBRANCH   5  35
TORSDOF 10
ENDMDL
MODEL 7
REMARK VINA RESULT:    -9.474      4.921     10.138
REMARK INTER + INTRA:         -15.531
REMARK INTER:                 -12.457
REMARK INTRA:                  -3.074
REMARK CONF_INDEPENDENT:        2.983
REMARK UNBOUND:                -3.074
REMARK  10 active torsions:
REMARK  status: ('A' for Active; 'I' for Inactive)
REMARK    1  A    between atoms: C_6  and  C_7 
REMARK    2  A    between atoms: C_7  and  O_8 
REMARK    3  A    between atoms: O_8  and  C_9 
REMARK    4  A    between atoms: C_12  and  C_13 
REMARK    5  A    between atoms: N_14  and  N_15 
REMARK       I    between atoms: N_15  and  C_16 
REMARK    6  A    between atoms: C_16  and  C_18 
REMARK    7  A    between atoms: C_19  and  C_20 
REMARK    8  A    between atoms: C_20  and  N_21 
REMARK    9  A    between atoms: N_29  and  C_30 
REMARK   10  A    between atoms: C_34  and  N_35 
ROOT
ATOM      1  C   UNL d   1      26.108 -14.124  -2.002  0.00  0.00     0.153 C 
ATOM      2  C   UNL d   1      25.858 -13.261  -3.085  0.00  0.00     0.112 C 
ATOM      3  N   UNL d   1      25.272 -13.994  -4.086  0.00  0.00    -0.160 NA
ATOM      4  N   UNL d   1      25.190 -15.257  -3.697  0.00  0.00     0.012 NA
ATOM      5  N   UNL d   1      25.592 -15.345  -2.410  0.00  0.00    -0.207 N 
ENDROOT
BRANCH   1   6
ATOM      6  C   UNL d   1      26.590 -13.925  -0.650  0.00  0.00     0.292 C 
ATOM      7  N   UNL d   1      26.999 -15.016   0.131  0.00  0.00    -0.242 N 
ATOM      8  H   UNL d   1      26.750 -15.979  -0.079  0.00  0.00     0.192 HD
ATOM      9  O   UNL d   1      26.599 -12.781  -0.189  0.00  0.00    -0.264 OA
BRANCH   7  10
ATOM     10  N   UNL d   1      27.629 -14.736   1.340  0.00  0.00    -0.183 NA
ATOM     11  C   UNL d   1      27.042 -13.970   2.213  0.00  0.00     0.150 C 
BRANCH  11  12
ATOM     12  C   UNL d   1      27.664 -13.640   3.542  0.00  0.00    -0.017 A 
ATOM     13  C   UNL d   1      28.038 -14.646   4.444  0.00  0.00     0.015 A 
ATOM     14  C   UNL d   1      28.641 -14.330   5.675  0.00  0.00     0.037 A 
ATOM     15  C   UNL d   1      28.892 -13.004   6.017  0.00  0.00     0.069 A 
ATOM     16  C   UNL d   1      28.479 -11.991   5.147  0.00  0.00     0.037 A 
ATOM     17  C   UNL d   1      27.879 -12.304   3.910  0.00  0.00     0.015 A 
BRANCH  15  18
ATOM     18  O   UNL d   1      29.441 -12.605   7.202  0.00  0.00    -0.347 OA
BRANCH  18  19
ATOM     19  C   UNL d   1      28.528 -12.262   8.260  0.00  0.00     0.214 C 
BRANCH  19  20
ATOM     20  C   UNL d   1      28.730 -13.169   9.463  0.00  0.00    -0.034 A 
ATOM     21  C   UNL d   1      28.031 -12.933  10.658  0.00  0.00     0.009 A 
ATOM     22  C   UNL d   1      28.229 -13.754  11.773  0.00  0.00     0.001 A 
ATOM     23  C   UNL d   1      29.122 -14.824  11.709  0.00  0.00     0.007 A 
ATOM     24  C   UNL d   1      29.823 -15.081  10.528  0.00  0.00    -0.061 A 
ATOM     25  C   UNL d   1      30.774 -16.235  10.417  0.00  0.00     0.048 C 
ATOM     26  C   UNL d   1      29.624 -14.249   9.419  0.00  0.00     0.016 A 
ENDBRANCH  19  20
ENDBRANCH  18  19
ENDBRANCH  15  18
ENDBRANCH  11  12
ENDBRANCH   7  10
ENDBRANCH   1   6
BRANCH   2  27
ATOM     27  C   UNL d   1      26.114 -11.790  -3.375  0.00  0.00     0.297 C 
BRANCH  27  28
ATOM     28  N   UNL d   1      25.633 -11.227  -4.707  0.00  0.00    -0.066 N 
ATOM     29  C   UNL d   1      25.158  -9.796  -4.538  0.00  0.00     0.235 C 
ATOM     30  C   UNL d   1      24.972  -9.094  -5.875  0.00  0.00     0.028 C 
ATOM     31  C   UNL d   1      26.081  -9.330  -6.891  0.00  0.00     0.003 C 
ATOM     32  C   UNL d   1      26.263 -10.818  -7.111  0.00  0.00     0.028 C 
ATOM     33  C   UNL d   1      26.614 -11.535  -5.823  0.00  0.00     0.235 C 
ATOM     34  H   UNL d   1      24.781 -11.746  -4.953  0.00  0.00     0.280 HD
ENDBRANCH  27  28
ENDBRANCH   2  27
BRANCH   5  35
ATOM     35  C   UNL d   1      25.421 -16.470  -1.582  0.00  0.00     0.225 A 
ATOM     36  N   UNL d   1      26.455 -17.257  -1.299  0.00  0.00    -0.081 NA
ATOM     37  O   UNL d   1      25.932 -18.145  -0.348  0.00  0.00    -0.103 OA
ATOM     38  N   UNL d   1      24.597 -17.858  -0.066  0.00  0.00    -0.083 NA
ATOM     39  C   UNL d   1      24.281 -16.827  -0.844  0.00  0.00     0.201 A 
BRANCH  39  40
ATOM     40  N   UNL d   1      23.066 -16.256  -0.913  0.00  0.00    -0.379 N 
ATOM     41  H   UNL d   1      22.795 -15.553  -0.233  0.00  0.00     0.158 HD
ATOM     42  H   UNL d   1      22.375 -16.392  -1.645  0.00  0.00     0.158 HD
ENDBRANCH  39  40
ENDBRANCH   5  35
TORSDOF 10
ENDMDL
MODEL 8
REMARK VINA RESULT:    -9.432      5.017      8.736
REMARK INTER + INTRA:         -15.845
REMARK INTER:                 -12.415
REMARK INTRA:                  -3.430
REMARK CONF_INDEPENDENT:        2.983
REMARK UNBOUND:                -3.430
REMARK  10 active torsions:
REMARK  status: ('A' for Active; 'I' for Inactive)
REMARK    1  A    between atoms: C_6  and  C_7 
REMARK    2  A    between atoms: C_7  and  O_8 
REMARK    3  A    between atoms: O_8  and  C_9 
REMARK    4  A    between atoms: C_12  and  C_13 
REMARK    5  A    between atoms: N_14  and  N_15 
REMARK       I    between atoms: N_15  and  C_16 
REMARK    6  A    between atoms: C_16  and  C_18 
REMARK    7  A    between atoms: C_19  and  C_20 
REMARK    8  A    between atoms: C_20  and  N_21 
REMARK    9  A    between atoms: N_29  and  C_30 
REMARK   10  A    between atoms: C_34  and  N_35 
ROOT
ATOM      1  C   UNL d   1      31.681 -13.065   8.602  0.00  0.00     0.153 C 
ATOM      2  C   UNL d   1      33.050 -12.904   8.886  0.00  0.00     0.112 C 
ATOM      3  N   UNL d   1      33.226 -13.064  10.237  0.00  0.00    -0.160 NA
ATOM      4  N   UNL d   1      32.045 -13.269  10.800  0.00  0.00     0.012 NA
ATOM      5  N   UNL d   1      31.111 -13.376   9.828  0.00  0.00    -0.207 N 
ENDROOT
BRANCH   1   6
ATOM      6  C   UNL d   1      30.909 -13.126   7.378  0.00  0.00     0.292 C 
ATOM      7  N   UNL d   1      29.873 -14.059   7.230  0.00  0.00    -0.242 N 
ATOM      8  H   UNL d   1      29.771 -14.881   7.821  0.00  0.00     0.192 HD
ATOM      9  O   UNL d   1      31.207 -12.364   6.454  0.00  0.00    -0.264 OA
BRANCH   7  10
ATOM     10  N   UNL d   1      29.052 -13.932   6.113  0.00  0.00    -0.183 NA
ATOM     11  C   UNL d   1      29.549 -14.105   4.924  0.00  0.00     0.150 C 
BRANCH  11  12
ATOM     12  C   UNL d   1      28.713 -13.995   3.677  0.00  0.00    -0.017 A 
ATOM     13  C   UNL d   1      27.421 -13.452   3.710  0.00  0.00     0.015 A 
ATOM     14  C   UNL d   1      26.655 -13.330   2.536  0.00  0.00     0.037 A 
ATOM     15  C   UNL d   1      27.175 -13.736   1.311  0.00  0.00     0.069 A 
ATOM     16  C   UNL d   1      28.442 -14.323   1.274  0.00  0.00     0.037 A 
ATOM     17  C   UNL d   1      29.215 -14.442   2.447  0.00  0.00     0.015 A 
BRANCH  15  18
ATOM     18  O   UNL d   1      26.490 -13.685   0.129  0.00  0.00    -0.347 OA
BRANCH  18  19
ATOM     19  C   UNL d   1      26.814 -14.685  -0.853  0.00  0.00     0.214 C 
BRANCH  19  20
ATOM     20  C   UNL d   1      26.155 -16.011  -0.511  0.00  0.00    -0.034 A 
ATOM     21  C   UNL d   1      26.915 -17.070   0.013  0.00  0.00     0.009 A 
ATOM     22  C   UNL d   1      26.315 -18.298   0.311  0.00  0.00     0.001 A 
ATOM     23  C   UNL d   1      24.949 -18.484   0.096  0.00  0.00     0.007 A 
ATOM     24  C   UNL d   1      24.173 -17.443  -0.418  0.00  0.00    -0.061 A 
ATOM     25  C   UNL d   1      22.699 -17.602  -0.642  0.00  0.00     0.048 C 
ATOM     26  C   UNL d   1      24.783 -16.219  -0.721  0.00  0.00     0.016 A 
ENDBRANCH  19  20
ENDBRANCH  18  19
ENDBRANCH  15  18
ENDBRANCH  11  12
ENDBRANCH   7  10
ENDBRANCH   1   6
BRANCH   2  27
ATOM     27  C   UNL d   1      34.290 -12.576   8.068  0.00  0.00     0.297 C 
BRANCH  27  28
ATOM     28  N   UNL d   1      34.106 -12.199   6.603  0.00  0.00    -0.066 N 
ATOM     29  C   UNL d   1      33.587 -10.778   6.483  0.00  0.00     0.235 C 
ATOM     30  C   UNL d   1      33.689 -10.252   5.059  0.00  0.00     0.028 C 
ATOM     31  C   UNL d   1      34.996 -10.564   4.345  0.00  0.00     0.003 C 
ATOM     32  C   UNL d   1      35.242 -12.059   4.361  0.00  0.00     0.028 C 
ATOM     33  C   UNL d   1      35.311 -12.600   5.774  0.00  0.00     0.235 C 
ATOM     34  H   UNL d   1      33.335 -12.778   6.247  0.00  0.00     0.280 HD
ENDBRANCH  27  28
ENDBRANCH   2  27
BRANCH   5  35
ATOM     35  C   UNL d   1      29.793 -13.829  10.017  0.00  0.00     0.225 A 
ATOM     36  N   UNL d   1      29.481 -15.100   9.778  0.00  0.00    -0.081 NA
ATOM     37  O   UNL d   1      28.154 -15.195  10.225  0.00  0.00    -0.103 OA
ATOM     38  N   UNL d   1      27.705 -13.981  10.742  0.00  0.00    -0.083 NA
ATOM     39  C   UNL d   1      28.721 -13.134  10.598  0.00  0.00     0.201 A 
BRANCH  39  40
ATOM     40  N   UNL d   1      28.694 -11.833  10.936  0.00  0.00    -0.379 N 
ATOM     41  H   UNL d   1      28.900 -11.123  10.240  0.00  0.00     0.158 HD
ATOM     42  H   UNL d   1      28.405 -11.445  11.828  0.00  0.00     0.158 HD
ENDBRANCH  39  40
ENDBRANCH   5  35
TORSDOF 10
ENDMDL
MODEL 9
REMARK VINA RESULT:    -9.292      7.768      9.804
REMARK INTER + INTRA:         -15.760
REMARK INTER:                 -12.275
REMARK INTRA:                  -3.485
REMARK CONF_INDEPENDENT:        2.983
REMARK UNBOUND:                -3.485
REMARK  10 active torsions:
REMARK  status: ('A' for Active; 'I' for Inactive)
REMARK    1  A    between atoms: C_6  and  C_7 
REMARK    2  A    between atoms: C_7  and  O_8 
REMARK    3  A    between atoms: O_8  and  C_9 
REMARK    4  A    between atoms: C_12  and  C_13 
REMARK    5  A    between atoms: N_14  and  N_15 
REMARK       I    between atoms: N_15  and  C_16 
REMARK    6  A    between atoms: C_16  and  C_18 
REMARK    7  A    between atoms: C_19  and  C_20 
REMARK    8  A    between atoms: C_20  and  N_21 
REMARK    9  A    between atoms: N_29  and  C_30 
REMARK   10  A    between atoms: C_34  and  N_35 
ROOT
ATOM      1  C   UNL d   1      26.954 -14.064  -1.108  0.00  0.00     0.153 C 
ATOM      2  C   UNL d   1      27.482 -14.431   0.144  0.00  0.00     0.112 C 
ATOM      3  N   UNL d   1      27.656 -15.792   0.150  0.00  0.00    -0.160 NA
ATOM      4  N   UNL d   1      27.227 -16.282  -1.003  0.00  0.00     0.012 NA
ATOM      5  N   UNL d   1      26.894 -15.254  -1.817  0.00  0.00    -0.207 N 
ENDROOT
BRANCH   1   6
ATOM      6  C   UNL d   1      26.671 -12.794  -1.745  0.00  0.00     0.292 C 
ATOM      7  N   UNL d   1      25.957 -12.742  -2.951  0.00  0.00    -0.242 N 
ATOM      8  H   UNL d   1      25.830 -13.545  -3.561  0.00  0.00     0.192 HD
ATOM      9  O   UNL d   1      27.103 -11.763  -1.224  0.00  0.00    -0.264 OA
BRANCH   7  10
ATOM     10  N   UNL d   1      25.554 -11.489  -3.402  0.00  0.00    -0.183 NA
ATOM     11  C   UNL d   1      25.940 -11.068  -4.571  0.00  0.00     0.150 C 
BRANCH  11  12
ATOM     12  C   UNL d   1      25.530  -9.730  -5.122  0.00  0.00    -0.017 A 
ATOM     13  C   UNL d   1      24.780  -8.825  -4.359  0.00  0.00     0.015 A 
ATOM     14  C   UNL d   1      24.421  -7.565  -4.872  0.00  0.00     0.037 A 
ATOM     15  C   UNL d   1      24.819  -7.186  -6.151  0.00  0.00     0.069 A 
ATOM     16  C   UNL d   1      25.525  -8.099  -6.938  0.00  0.00     0.037 A 
ATOM     17  C   UNL d   1      25.891  -9.361  -6.426  0.00  0.00     0.015 A 
BRANCH  15  18
ATOM     18  O   UNL d   1      24.486  -5.999  -6.741  0.00  0.00    -0.347 OA
BRANCH  18  19
ATOM     19  C   UNL d   1      23.625  -6.063  -7.891  0.00  0.00     0.214 C 
BRANCH  19  20
ATOM     20  C   UNL d   1      22.164  -6.028  -7.473  0.00  0.00    -0.034 A 
ATOM     21  C   UNL d   1      21.787  -5.455  -6.247  0.00  0.00     0.009 A 
ATOM     22  C   UNL d   1      20.446  -5.439  -5.850  0.00  0.00     0.001 A 
ATOM     23  C   UNL d   1      19.462  -5.988  -6.674  0.00  0.00     0.007 A 
ATOM     24  C   UNL d   1      19.813  -6.556  -7.900  0.00  0.00    -0.061 A 
ATOM     25  C   UNL d   1      18.780  -7.136  -8.819  0.00  0.00     0.048 C 
ATOM     26  C   UNL d   1      21.160  -6.575  -8.286  0.00  0.00     0.016 A 
ENDBRANCH  19  20
ENDBRANCH  18  19
ENDBRANCH  15  18
ENDBRANCH  11  12
ENDBRANCH   7  10
ENDBRANCH   1   6
BRANCH   2  27
ATOM     27  C   UNL d   1      27.845 -13.690   1.422  0.00  0.00     0.297 C 
BRANCH  27  28
ATOM     28  N   UNL d   1      28.568 -14.462   2.519  0.00  0.00    -0.066 N 
ATOM     29  C   UNL d   1      30.035 -14.075   2.562  0.00  0.00     0.235 C 
ATOM     30  C   UNL d   1      30.719 -14.571   3.827  0.00  0.00     0.028 C 
ATOM     31  C   UNL d   1      29.925 -14.381   5.111  0.00  0.00     0.003 C 
ATOM     32  C   UNL d   1      28.565 -15.035   4.971  0.00  0.00     0.028 C 
ATOM     33  C   UNL d   1      27.780 -14.450   3.815  0.00  0.00     0.235 C 
ATOM     34  H   UNL d   1      28.578 -15.447   2.225  0.00  0.00     0.280 HD
ENDBRANCH  27  28
ENDBRANCH   2  27
BRANCH   5  35
ATOM     35  C   UNL d   1      26.627 -15.365  -3.194  0.00  0.00     0.225 A 
ATOM     36  N   UNL d   1      25.374 -15.312  -3.640  0.00  0.00    -0.081 NA
ATOM     37  O   UNL d   1      25.530 -15.296  -5.033  0.00  0.00    -0.103 OA
ATOM     38  N   UNL d   1      26.877 -15.320  -5.394  0.00  0.00    -0.083 NA
ATOM     39  C   UNL d   1      27.552 -15.376  -4.250  0.00  0.00     0.201 A 
BRANCH  39  40
ATOM     40  N   UNL d   1      28.890 -15.455  -4.146  0.00  0.00    -0.379 N 
ATOM     41  H   UNL d   1      29.312 -15.863  -3.318  0.00  0.00     0.158 HD
ATOM     42  H   UNL d   1      29.567 -15.214  -4.863  0.00  0.00     0.158 HD
ENDBRANCH  39  40
ENDBRANCH   5  35
TORSDOF 10
ENDMDL
