MODEL 1
REMARK VINA RESULT:    -8.076      0.000      0.000
REMARK INTER + INTRA:         -11.078
REMARK INTER:                  -9.866
REMARK INTRA:                  -1.212
REMARK CONF_INDEPENDENT:        1.790
REMARK UNBOUND:                -1.212
REMARK  6 active torsions:
REMARK  status: ('A' for Active; 'I' for Inactive)
REMARK    1  A    between atoms: C_2  and  C_19 
REMARK    2  A    between atoms: N_3  and  N_4 
REMARK       I    between atoms: N_4  and  C_5 
REMARK    3  A    between atoms: C_5  and  C_7 
REMARK    4  A    between atoms: C_7  and  O_8 
REMARK    5  A    between atoms: O_8  and  C_9 
REMARK    6  A    between atoms: C_23  and  O_24 
ROOT
ATOM      1  N   UNL d   1      27.284 -15.092  -3.967  0.00  0.00    -0.245 N 
ATOM      2  C   UNL d   1      25.931 -15.218  -4.285  0.00  0.00     0.261 C 
ATOM      3  O   UNL d   1      25.527 -15.644  -5.371  0.00  0.00    -0.269 OA
ATOM      4  H   UNL d   1      27.568 -14.659  -3.097  0.00  0.00     0.192 HD
ENDROOT
BRANCH   2   5
ATOM      5  C   UNL d   1      24.961 -14.776  -3.164  0.00  0.00     0.280 C 
BRANCH   5   6
ATOM      6  O   UNL d   1      25.669 -14.686  -1.916  0.00  0.00    -0.341 OA
BRANCH   6   7
ATOM      7  C   UNL d   1      25.898 -15.862  -1.239  0.00  0.00     0.080 A 
ATOM      8  C   UNL d   1      27.185 -16.237  -0.843  0.00  0.00     0.037 A 
ATOM      9  C   UNL d   1      27.389 -17.433  -0.155  0.00  0.00     0.004 A 
ATOM     10  C   UNL d   1      26.308 -18.250   0.165  0.00  0.00     0.012 A 
ATOM     11  C   UNL d   1      25.000 -17.864  -0.153  0.00  0.00    -0.023 A 
ATOM     12  C   UNL d   1      23.915 -18.673   0.230  0.00  0.00     0.012 A 
ATOM     13  C   UNL d   1      24.777 -16.651  -0.856  0.00  0.00     0.007 A 
ATOM     14  C   UNL d   1      22.605 -18.300  -0.066  0.00  0.00     0.001 A 
ATOM     15  C   UNL d   1      22.368 -17.110  -0.744  0.00  0.00     0.001 A 
ATOM     16  C   UNL d   1      23.439 -16.296  -1.134  0.00  0.00     0.015 A 
ENDBRANCH   6   7
ENDBRANCH   5   6
ENDBRANCH   2   5
BRANCH   1  17
ATOM     17  N   UNL d   1      28.247 -15.504  -4.870  0.00  0.00    -0.176 NA
ATOM     18  C   UNL d   1      28.584 -14.770  -5.894  0.00  0.00     0.061 C 
ATOM     19  C   UNL d   1      29.615 -15.330  -6.869  0.00  0.00     0.073 C 
BRANCH  18  20
ATOM     20  C   UNL d   1      28.065 -13.411  -6.205  0.00  0.00    -0.008 A 
ATOM     21  C   UNL d   1      28.330 -12.812  -7.440  0.00  0.00     0.013 A 
ATOM     22  C   UNL d   1      27.759 -11.573  -7.745  0.00  0.00     0.004 A 
ATOM     23  C   UNL d   1      26.910 -10.945  -6.829  0.00  0.00     0.036 A 
ATOM     24  C   UNL d   1      26.667 -11.546  -5.601  0.00  0.00     0.066 A 
ATOM     25  C   UNL d   1      27.273 -12.747  -5.265  0.00  0.00     0.050 A 
BRANCH  24  26
ATOM     26  O   UNL d   1      25.812 -11.014  -4.683  0.00  0.00    -0.361 OA
ATOM     27  H   UNL d   1      24.908 -11.019  -5.040  0.00  0.00     0.217 HD
ENDBRANCH  24  26
ENDBRANCH  18  20
ENDBRANCH   1  17
TORSDOF 6
ENDMDL
MODEL 2
REMARK VINA RESULT:    -7.725      2.327      4.045
REMARK INTER + INTRA:         -11.556
REMARK INTER:                  -9.515
REMARK INTRA:                  -2.041
REMARK CONF_INDEPENDENT:        1.790
REMARK UNBOUND:                -2.041
REMARK  6 active torsions:
REMARK  status: ('A' for Active; 'I' for Inactive)
REMARK    1  A    between atoms: C_2  and  C_19 
REMARK    2  A    between atoms: N_3  and  N_4 
REMARK       I    between atoms: N_4  and  C_5 
REMARK    3  A    between atoms: C_5  and  C_7 
REMARK    4  A    between atoms: C_7  and  O_8 
REMARK    5  A    between atoms: O_8  and  C_9 
REMARK    6  A    between atoms: C_23  and  O_24 
ROOT
ATOM      1  N   UNL d   1      27.275 -15.122  -4.046  0.00  0.00    -0.245 N 
ATOM      2  C   UNL d   1      25.905 -15.173  -4.306  0.00  0.00     0.261 C 
ATOM      3  O   UNL d   1      25.433 -15.575  -5.373  0.00  0.00    -0.269 OA
ATOM      4  H   UNL d   1      27.619 -14.706  -3.189  0.00  0.00     0.192 HD
ENDROOT
BRANCH   2   5
ATOM      5  C   UNL d   1      25.009 -14.679  -3.145  0.00  0.00     0.280 C 
BRANCH   5   6
ATOM      6  O   UNL d   1      25.771 -14.637  -1.927  0.00  0.00    -0.341 OA
BRANCH   6   7
ATOM      7  C   UNL d   1      25.949 -15.826  -1.258  0.00  0.00     0.080 A 
ATOM      8  C   UNL d   1      27.216 -16.251  -0.850  0.00  0.00     0.037 A 
ATOM      9  C   UNL d   1      27.367 -17.460  -0.170  0.00  0.00     0.004 A 
ATOM     10  C   UNL d   1      26.254 -18.240   0.131  0.00  0.00     0.012 A 
ATOM     11  C   UNL d   1      24.965 -17.803  -0.200  0.00  0.00    -0.023 A 
ATOM     12  C   UNL d   1      23.846 -18.575   0.163  0.00  0.00     0.012 A 
ATOM     13  C   UNL d   1      24.795 -16.576  -0.894  0.00  0.00     0.007 A 
ATOM     14  C   UNL d   1      22.555 -18.152  -0.144  0.00  0.00     0.001 A 
ATOM     15  C   UNL d   1      22.369 -16.948  -0.814  0.00  0.00     0.001 A 
ATOM     16  C   UNL d   1      23.474 -16.171  -1.185  0.00  0.00     0.015 A 
ENDBRANCH   6   7
ENDBRANCH   5   6
ENDBRANCH   2   5
BRANCH   1  17
ATOM     17  N   UNL d   1      28.174 -15.586  -4.988  0.00  0.00    -0.176 NA
ATOM     18  C   UNL d   1      29.352 -16.034  -4.648  0.00  0.00     0.061 C 
ATOM     19  C   UNL d   1      30.299 -16.474  -5.759  0.00  0.00     0.073 C 
BRANCH  18  20
ATOM     20  C   UNL d   1      29.867 -16.174  -3.260  0.00  0.00    -0.008 A 
ATOM     21  C   UNL d   1      30.128 -15.044  -2.479  0.00  0.00     0.013 A 
ATOM     22  C   UNL d   1      30.527 -15.200  -1.148  0.00  0.00     0.004 A 
ATOM     23  C   UNL d   1      30.644 -16.477  -0.593  0.00  0.00     0.036 A 
ATOM     24  C   UNL d   1      30.395 -17.590  -1.385  0.00  0.00     0.066 A 
ATOM     25  C   UNL d   1      30.053 -17.450  -2.722  0.00  0.00     0.050 A 
BRANCH  24  26
ATOM     26  O   UNL d   1      30.441 -18.861  -0.895  0.00  0.00    -0.361 OA
ATOM     27  H   UNL d   1      30.312 -18.842   0.068  0.00  0.00     0.217 HD
ENDBRANCH  24  26
ENDBRANCH  18  20
ENDBRANCH   1  17
TORSDOF 6
ENDMDL
MODEL 3
REMARK VINA RESULT:    -7.137      1.778      2.934
REMARK INTER + INTRA:         -10.612
REMARK INTER:                  -8.927
REMARK INTRA:                  -1.684
REMARK CONF_INDEPENDENT:        1.790
REMARK UNBOUND:                -1.684
REMARK  6 active torsions:
REMARK  status: ('A' for Active; 'I' for Inactive)
REMARK    1  A    between atoms: C_2  and  C_19 
REMARK    2  A    between atoms: N_3  and  N_4 
REMARK       I    between atoms: N_4  and  C_5 
REMARK    3  A    between atoms: C_5  and  C_7 
REMARK    4  A    between atoms: C_7  and  O_8 
REMARK    5  A    between atoms: O_8  and  C_9 
REMARK    6  A    between atoms: C_23  and  O_24 
ROOT
ATOM      1  N   UNL d   1      25.318 -11.943  -4.171  0.00  0.00    -0.245 N 
ATOM      2  C   UNL d   1      25.499 -12.870  -3.143  0.00  0.00     0.261 C 
ATOM      3  O   UNL d   1      26.384 -12.770  -2.288  0.00  0.00    -0.269 OA
ATOM      4  H   UNL d   1      24.633 -12.110  -4.898  0.00  0.00     0.192 HD
ENDROOT
BRANCH   2   5
ATOM      5  C   UNL d   1      24.499 -14.050  -3.156  0.00  0.00     0.280 C 
BRANCH   5   6
ATOM      6  O   UNL d   1      25.166 -15.249  -3.587  0.00  0.00    -0.341 OA
BRANCH   6   7
ATOM      7  C   UNL d   1      26.010 -15.855  -2.684  0.00  0.00     0.080 A 
ATOM      8  C   UNL d   1      27.379 -15.578  -2.667  0.00  0.00     0.037 A 
ATOM      9  C   UNL d   1      28.212 -16.204  -1.739  0.00  0.00     0.004 A 
ATOM     10  C   UNL d   1      27.680 -17.090  -0.805  0.00  0.00     0.012 A 
ATOM     11  C   UNL d   1      26.301 -17.329  -0.751  0.00  0.00    -0.023 A 
ATOM     12  C   UNL d   1      25.774 -18.182   0.236  0.00  0.00     0.012 A 
ATOM     13  C   UNL d   1      25.442 -16.701  -1.691  0.00  0.00     0.007 A 
ATOM     14  C   UNL d   1      24.404 -18.422   0.315  0.00  0.00     0.001 A 
ATOM     15  C   UNL d   1      23.546 -17.807  -0.590  0.00  0.00     0.001 A 
ATOM     16  C   UNL d   1      24.058 -16.959  -1.580  0.00  0.00     0.015 A 
ENDBRANCH   6   7
ENDBRANCH   5   6
ENDBRANCH   2   5
BRANCH   1  17
ATOM     17  N   UNL d   1      26.117 -10.817  -4.233  0.00  0.00    -0.176 NA
ATOM     18  C   UNL d   1      27.257 -10.820  -4.868  0.00  0.00     0.061 C 
ATOM     19  C   UNL d   1      28.099  -9.549  -4.837  0.00  0.00     0.073 C 
BRANCH  18  20
ATOM     20  C   UNL d   1      27.821 -11.956  -5.645  0.00  0.00    -0.008 A 
ATOM     21  C   UNL d   1      28.892 -11.759  -6.521  0.00  0.00     0.013 A 
ATOM     22  C   UNL d   1      29.464 -12.855  -7.174  0.00  0.00     0.004 A 
ATOM     23  C   UNL d   1      28.982 -14.145  -6.938  0.00  0.00     0.036 A 
ATOM     24  C   UNL d   1      27.908 -14.324  -6.075  0.00  0.00     0.066 A 
ATOM     25  C   UNL d   1      27.297 -13.239  -5.466  0.00  0.00     0.050 A 
BRANCH  24  26
ATOM     26  O   UNL d   1      27.420 -15.557  -5.761  0.00  0.00    -0.361 OA
ATOM     27  H   UNL d   1      26.594 -15.461  -5.259  0.00  0.00     0.217 HD
ENDBRANCH  24  26
ENDBRANCH  18  20
ENDBRANCH   1  17
TORSDOF 6
ENDMDL
MODEL 4
REMARK VINA RESULT:    -7.018      2.143      7.401
REMARK INTER + INTRA:         -10.421
REMARK INTER:                  -8.808
REMARK INTRA:                  -1.614
REMARK CONF_INDEPENDENT:        1.790
REMARK UNBOUND:                -1.614
REMARK  6 active torsions:
REMARK  status: ('A' for Active; 'I' for Inactive)
REMARK    1  A    between atoms: C_2  and  C_19 
REMARK    2  A    between atoms: N_3  and  N_4 
REMARK       I    between atoms: N_4  and  C_5 
REMARK    3  A    between atoms: C_5  and  C_7 
REMARK    4  A    between atoms: C_7  and  O_8 
REMARK    5  A    between atoms: O_8  and  C_9 
REMARK    6  A    between atoms: C_23  and  O_24 
ROOT
ATOM      1  N   UNL d   1      25.792 -15.875  -3.438  0.00  0.00    -0.245 N 
ATOM      2  C   UNL d   1      25.457 -14.667  -4.053  0.00  0.00     0.261 C 
ATOM      3  O   UNL d   1      24.394 -14.074  -3.849  0.00  0.00    -0.269 OA
ATOM      4  H   UNL d   1      26.637 -16.366  -3.700  0.00  0.00     0.192 HD
ENDROOT
BRANCH   2   5
ATOM      5  C   UNL d   1      26.529 -14.121  -5.026  0.00  0.00     0.280 C 
BRANCH   5   6
ATOM      6  O   UNL d   1      27.352 -15.199  -5.499  0.00  0.00    -0.341 OA
BRANCH   6   7
ATOM      7  C   UNL d   1      28.522 -14.860  -6.141  0.00  0.00     0.080 A 
ATOM      8  C   UNL d   1      28.635 -13.675  -6.873  0.00  0.00     0.037 A 
ATOM      9  C   UNL d   1      29.833 -13.354  -7.510  0.00  0.00     0.004 A 
ATOM     10  C   UNL d   1      30.935 -14.199  -7.400  0.00  0.00     0.012 A 
ATOM     11  C   UNL d   1      30.873 -15.356  -6.612  0.00  0.00    -0.023 A 
ATOM     12  C   UNL d   1      32.012 -16.168  -6.465  0.00  0.00     0.012 A 
ATOM     13  C   UNL d   1      29.659 -15.697  -5.960  0.00  0.00     0.007 A 
ATOM     14  C   UNL d   1      31.975 -17.315  -5.675  0.00  0.00     0.001 A 
ATOM     15  C   UNL d   1      30.798 -17.658  -5.019  0.00  0.00     0.001 A 
ATOM     16  C   UNL d   1      29.655 -16.861  -5.160  0.00  0.00     0.015 A 
ENDBRANCH   6   7
ENDBRANCH   5   6
ENDBRANCH   2   5
BRANCH   1  17
ATOM     17  N   UNL d   1      24.937 -16.435  -2.508  0.00  0.00    -0.176 NA
ATOM     18  C   UNL d   1      25.296 -16.614  -1.267  0.00  0.00     0.061 C 
ATOM     19  C   UNL d   1      24.307 -17.291  -0.324  0.00  0.00     0.073 C 
BRANCH  18  20
ATOM     20  C   UNL d   1      26.593 -16.204  -0.665  0.00  0.00    -0.008 A 
ATOM     21  C   UNL d   1      26.668 -15.090   0.177  0.00  0.00     0.013 A 
ATOM     22  C   UNL d   1      27.878 -14.775   0.802  0.00  0.00     0.004 A 
ATOM     23  C   UNL d   1      29.003 -15.580   0.604  0.00  0.00     0.036 A 
ATOM     24  C   UNL d   1      28.917 -16.675  -0.246  0.00  0.00     0.066 A 
ATOM     25  C   UNL d   1      27.738 -16.965  -0.916  0.00  0.00     0.050 A 
BRANCH  24  26
ATOM     26  O   UNL d   1      29.960 -17.529  -0.446  0.00  0.00    -0.361 OA
ATOM     27  H   UNL d   1      30.030 -18.137   0.309  0.00  0.00     0.217 HD
ENDBRANCH  24  26
ENDBRANCH  18  20
ENDBRANCH   1  17
TORSDOF 6
ENDMDL
MODEL 5
REMARK VINA RESULT:    -6.935      1.995      3.659
REMARK INTER + INTRA:         -10.529
REMARK INTER:                  -8.725
REMARK INTRA:                  -1.804
REMARK CONF_INDEPENDENT:        1.790
REMARK UNBOUND:                -1.804
REMARK  6 active torsions:
REMARK  status: ('A' for Active; 'I' for Inactive)
REMARK    1  A    between atoms: C_2  and  C_19 
REMARK    2  A    between atoms: N_3  and  N_4 
REMARK       I    between atoms: N_4  and  C_5 
REMARK    3  A    between atoms: C_5  and  C_7 
REMARK    4  A    between atoms: C_7  and  O_8 
REMARK    5  A    between atoms: O_8  and  C_9 
REMARK    6  A    between atoms: C_23  and  O_24 
ROOT
ATOM      1  N   UNL d   1      27.413 -14.023  -4.630  0.00  0.00    -0.245 N 
ATOM      2  C   UNL d   1      26.561 -15.076  -4.967  0.00  0.00     0.261 C 
ATOM      3  O   UNL d   1      26.514 -15.575  -6.095  0.00  0.00    -0.269 OA
ATOM      4  H   UNL d   1      27.356 -13.590  -3.717  0.00  0.00     0.192 HD
ENDROOT
BRANCH   2   5
ATOM      5  C   UNL d   1      25.664 -15.575  -3.810  0.00  0.00     0.280 C 
BRANCH   5   6
ATOM      6  O   UNL d   1      26.241 -15.197  -2.549  0.00  0.00    -0.341 OA
BRANCH   6   7
ATOM      7  C   UNL d   1      26.395 -16.190  -1.608  0.00  0.00     0.080 A 
ATOM      8  C   UNL d   1      27.655 -16.541  -1.118  0.00  0.00     0.037 A 
ATOM      9  C   UNL d   1      27.783 -17.548  -0.162  0.00  0.00     0.004 A 
ATOM     10  C   UNL d   1      26.652 -18.194   0.332  0.00  0.00     0.012 A 
ATOM     11  C   UNL d   1      25.371 -17.811  -0.086  0.00  0.00    -0.023 A 
ATOM     12  C   UNL d   1      24.237 -18.434   0.466  0.00  0.00     0.012 A 
ATOM     13  C   UNL d   1      25.226 -16.789  -1.061  0.00  0.00     0.007 A 
ATOM     14  C   UNL d   1      22.953 -18.059   0.074  0.00  0.00     0.001 A 
ATOM     15  C   UNL d   1      22.792 -17.052  -0.872  0.00  0.00     0.001 A 
ATOM     16  C   UNL d   1      23.912 -16.427  -1.432  0.00  0.00     0.015 A 
ENDBRANCH   6   7
ENDBRANCH   5   6
ENDBRANCH   2   5
BRANCH   1  17
ATOM     17  N   UNL d   1      28.300 -13.526  -5.567  0.00  0.00    -0.176 NA
ATOM     18  C   UNL d   1      29.381 -14.176  -5.898  0.00  0.00     0.061 C 
ATOM     19  C   UNL d   1      30.330 -13.525  -6.899  0.00  0.00     0.073 C 
BRANCH  18  20
ATOM     20  C   UNL d   1      29.782 -15.518  -5.399  0.00  0.00    -0.008 A 
ATOM     21  C   UNL d   1      29.739 -15.813  -4.033  0.00  0.00     0.013 A 
ATOM     22  C   UNL d   1      30.034 -17.107  -3.595  0.00  0.00     0.004 A 
ATOM     23  C   UNL d   1      30.351 -18.108  -4.518  0.00  0.00     0.036 A 
ATOM     24  C   UNL d   1      30.404 -17.797  -5.871  0.00  0.00     0.066 A 
ATOM     25  C   UNL d   1      30.168 -16.503  -6.312  0.00  0.00     0.050 A 
BRANCH  24  26
ATOM     26  O   UNL d   1      30.658 -18.733  -6.827  0.00  0.00    -0.361 OA
ATOM     27  H   UNL d   1      29.922 -19.368  -6.863  0.00  0.00     0.217 HD
ENDBRANCH  24  26
ENDBRANCH  18  20
ENDBRANCH   1  17
TORSDOF 6
ENDMDL
MODEL 6
REMARK VINA RESULT:    -6.735      2.124      3.870
REMARK INTER + INTRA:         -11.292
REMARK INTER:                  -8.524
REMARK INTRA:                  -2.768
REMARK CONF_INDEPENDENT:        1.790
REMARK UNBOUND:                -2.768
REMARK  6 active torsions:
REMARK  status: ('A' for Active; 'I' for Inactive)
REMARK    1  A    between atoms: C_2  and  C_19 
REMARK    2  A    between atoms: N_3  and  N_4 
REMARK       I    between atoms: N_4  and  C_5 
REMARK    3  A    between atoms: C_5  and  C_7 
REMARK    4  A    between atoms: C_7  and  O_8 
REMARK    5  A    between atoms: O_8  and  C_9 
REMARK    6  A    between atoms: C_23  and  O_24 
ROOT
ATOM      1  N   UNL d   1      26.762 -15.111  -4.842  0.00  0.00    -0.245 N 
ATOM      2  C   UNL d   1      26.414 -13.759  -4.865  0.00  0.00     0.261 C 
ATOM      3  O   UNL d   1      27.007 -12.919  -5.548  0.00  0.00    -0.269 OA
ATOM      4  H   UNL d   1      26.302 -15.748  -4.204  0.00  0.00     0.192 HD
ENDROOT
BRANCH   2   5
ATOM      5  C   UNL d   1      25.218 -13.386  -3.958  0.00  0.00     0.280 C 
BRANCH   5   6
ATOM      6  O   UNL d   1      24.779 -14.545  -3.230  0.00  0.00    -0.341 OA
BRANCH   6   7
ATOM      7  C   UNL d   1      25.483 -14.876  -2.095  0.00  0.00     0.080 A 
ATOM      8  C   UNL d   1      26.390 -13.986  -1.513  0.00  0.00     0.037 A 
ATOM      9  C   UNL d   1      27.088 -14.346  -0.361  0.00  0.00     0.004 A 
ATOM     10  C   UNL d   1      26.868 -15.585   0.235  0.00  0.00     0.012 A 
ATOM     11  C   UNL d   1      25.910 -16.467  -0.283  0.00  0.00    -0.023 A 
ATOM     12  C   UNL d   1      25.658 -17.690   0.364  0.00  0.00     0.012 A 
ATOM     13  C   UNL d   1      25.194 -16.115  -1.457  0.00  0.00     0.007 A 
ATOM     14  C   UNL d   1      24.700 -18.575  -0.127  0.00  0.00     0.001 A 
ATOM     15  C   UNL d   1      23.981 -18.242  -1.270  0.00  0.00     0.001 A 
ATOM     16  C   UNL d   1      24.225 -17.030  -1.927  0.00  0.00     0.015 A 
ENDBRANCH   6   7
ENDBRANCH   5   6
ENDBRANCH   2   5
BRANCH   1  17
ATOM     17  N   UNL d   1      27.782 -15.575  -5.652  0.00  0.00    -0.176 NA
ATOM     18  C   UNL d   1      28.960 -15.864  -5.172  0.00  0.00     0.061 C 
ATOM     19  C   UNL d   1      30.040 -16.316  -6.149  0.00  0.00     0.073 C 
BRANCH  18  20
ATOM     20  C   UNL d   1      29.358 -15.808  -3.741  0.00  0.00    -0.008 A 
ATOM     21  C   UNL d   1      29.758 -14.601  -3.158  0.00  0.00     0.013 A 
ATOM     22  C   UNL d   1      30.043 -14.554  -1.790  0.00  0.00     0.004 A 
ATOM     23  C   UNL d   1      29.909 -15.700  -1.003  0.00  0.00     0.036 A 
ATOM     24  C   UNL d   1      29.524 -16.895  -1.598  0.00  0.00     0.066 A 
ATOM     25  C   UNL d   1      29.293 -16.967  -2.964  0.00  0.00     0.050 A 
BRANCH  24  26
ATOM     26  O   UNL d   1      29.325 -18.038  -0.883  0.00  0.00    -0.361 OA
ATOM     27  H   UNL d   1      29.655 -17.915   0.023  0.00  0.00     0.217 HD
ENDBRANCH  24  26
ENDBRANCH  18  20
ENDBRANCH   1  17
TORSDOF 6
ENDMDL
MODEL 7
REMARK VINA RESULT:    -6.313      2.688      4.852
REMARK INTER + INTRA:         -10.653
REMARK INTER:                  -8.103
REMARK INTRA:                  -2.550
REMARK CONF_INDEPENDENT:        1.790
REMARK UNBOUND:                -2.550
REMARK  6 active torsions:
REMARK  status: ('A' for Active; 'I' for Inactive)
REMARK    1  A    between atoms: C_2  and  C_19 
REMARK    2  A    between atoms: N_3  and  N_4 
REMARK       I    between atoms: N_4  and  C_5 
REMARK    3  A    between atoms: C_5  and  C_7 
REMARK    4  A    between atoms: C_7  and  O_8 
REMARK    5  A    between atoms: O_8  and  C_9 
REMARK    6  A    between atoms: C_23  and  O_24 
ROOT
ATOM      1  N   UNL d   1      26.312 -12.551  -2.773  0.00  0.00    -0.245 N 
ATOM      2  C   UNL d   1      26.111 -12.896  -4.111  0.00  0.00     0.261 C 
ATOM      3  O   UNL d   1      26.592 -12.261  -5.054  0.00  0.00    -0.269 OA
ATOM      4  H   UNL d   1      25.829 -13.051  -2.037  0.00  0.00     0.192 HD
ENDROOT
BRANCH   2   5
ATOM      5  C   UNL d   1      25.227 -14.146  -4.329  0.00  0.00     0.280 C 
BRANCH   5   6
ATOM      6  O   UNL d   1      24.698 -14.594  -3.069  0.00  0.00    -0.341 OA
BRANCH   6   7
ATOM      7  C   UNL d   1      25.452 -15.501  -2.360  0.00  0.00     0.080 A 
ATOM      8  C   UNL d   1      26.847 -15.501  -2.428  0.00  0.00     0.037 A 
ATOM      9  C   UNL d   1      27.587 -16.428  -1.695  0.00  0.00     0.004 A 
ATOM     10  C   UNL d   1      26.942 -17.345  -0.869  0.00  0.00     0.012 A 
ATOM     11  C   UNL d   1      25.549 -17.320  -0.724  0.00  0.00    -0.023 A 
ATOM     12  C   UNL d   1      24.918 -18.215   0.159  0.00  0.00     0.012 A 
ATOM     13  C   UNL d   1      24.783 -16.383  -1.465  0.00  0.00     0.007 A 
ATOM     14  C   UNL d   1      23.535 -18.197   0.328  0.00  0.00     0.001 A 
ATOM     15  C   UNL d   1      22.770 -17.278  -0.381  0.00  0.00     0.001 A 
ATOM     16  C   UNL d   1      23.384 -16.384  -1.267  0.00  0.00     0.015 A 
ENDBRANCH   6   7
ENDBRANCH   5   6
ENDBRANCH   2   5
BRANCH   1  17
ATOM     17  N   UNL d   1      27.128 -11.483  -2.451  0.00  0.00    -0.176 NA
ATOM     18  C   UNL d   1      27.763 -11.425  -1.313  0.00  0.00     0.061 C 
ATOM     19  C   UNL d   1      28.597 -10.182  -1.020  0.00  0.00     0.073 C 
BRANCH  18  20
ATOM     20  C   UNL d   1      27.767 -12.476  -0.260  0.00  0.00    -0.008 A 
ATOM     21  C   UNL d   1      26.660 -12.651   0.576  0.00  0.00     0.013 A 
ATOM     22  C   UNL d   1      26.649 -13.700   1.500  0.00  0.00     0.004 A 
ATOM     23  C   UNL d   1      27.729 -14.584   1.574  0.00  0.00     0.036 A 
ATOM     24  C   UNL d   1      28.828 -14.389   0.746  0.00  0.00     0.066 A 
ATOM     25  C   UNL d   1      28.874 -13.318  -0.134  0.00  0.00     0.050 A 
BRANCH  24  26
ATOM     26  O   UNL d   1      29.892 -15.240   0.731  0.00  0.00    -0.361 OA
ATOM     27  H   UNL d   1      29.726 -15.979   1.340  0.00  0.00     0.217 HD
ENDBRANCH  24  26
ENDBRANCH  18  20
ENDBRANCH   1  17
TORSDOF 6
ENDMDL
MODEL 8
REMARK VINA RESULT:    -5.922      2.758      6.556
REMARK INTER + INTRA:         -10.616
REMARK INTER:                  -7.712
REMARK INTRA:                  -2.904
REMARK CONF_INDEPENDENT:        1.790
REMARK UNBOUND:                -2.904
REMARK  6 active torsions:
REMARK  status: ('A' for Active; 'I' for Inactive)
REMARK    1  A    between atoms: C_2  and  C_19 
REMARK    2  A    between atoms: N_3  and  N_4 
REMARK       I    between atoms: N_4  and  C_5 
REMARK    3  A    between atoms: C_5  and  C_7 
REMARK    4  A    between atoms: C_7  and  O_8 
REMARK    5  A    between atoms: O_8  and  C_9 
REMARK    6  A    between atoms: C_23  and  O_24 
ROOT
ATOM      1  N   UNL d   1      25.824 -15.802  -3.640  0.00  0.00    -0.245 N 
ATOM      2  C   UNL d   1      25.530 -14.674  -4.408  0.00  0.00     0.261 C 
ATOM      3  O   UNL d   1      24.452 -14.075  -4.347  0.00  0.00    -0.269 OA
ATOM      4  H   UNL d   1      26.687 -16.310  -3.785  0.00  0.00     0.192 HD
ENDROOT
BRANCH   2   5
ATOM      5  C   UNL d   1      26.666 -14.226  -5.357  0.00  0.00     0.280 C 
BRANCH   5   6
ATOM      6  O   UNL d   1      27.722 -15.202  -5.347  0.00  0.00    -0.341 OA
BRANCH   6   7
ATOM      7  C   UNL d   1      28.685 -15.072  -4.372  0.00  0.00     0.080 A 
ATOM      8  C   UNL d   1      28.681 -13.997  -3.481  0.00  0.00     0.037 A 
ATOM      9  C   UNL d   1      29.668 -13.891  -2.500  0.00  0.00     0.004 A 
ATOM     10  C   UNL d   1      30.650 -14.872  -2.386  0.00  0.00     0.012 A 
ATOM     11  C   UNL d   1      30.635 -15.999  -3.217  0.00  0.00    -0.023 A 
ATOM     12  C   UNL d   1      31.600 -17.009  -3.049  0.00  0.00     0.012 A 
ATOM     13  C   UNL d   1      29.639 -16.118  -4.221  0.00  0.00     0.007 A 
ATOM     14  C   UNL d   1      31.595 -18.144  -3.857  0.00  0.00     0.001 A 
ATOM     15  C   UNL d   1      30.620 -18.283  -4.838  0.00  0.00     0.001 A 
ATOM     16  C   UNL d   1      29.655 -17.284  -5.019  0.00  0.00     0.015 A 
ENDBRANCH   6   7
ENDBRANCH   5   6
ENDBRANCH   2   5
BRANCH   1  17
ATOM     17  N   UNL d   1      24.906 -16.266  -2.716  0.00  0.00    -0.176 NA
ATOM     18  C   UNL d   1      25.231 -16.468  -1.469  0.00  0.00     0.061 C 
ATOM     19  C   UNL d   1      24.168 -17.035  -0.534  0.00  0.00     0.073 C 
BRANCH  18  20
ATOM     20  C   UNL d   1      26.555 -16.184  -0.854  0.00  0.00    -0.008 A 
ATOM     21  C   UNL d   1      26.740 -15.056  -0.049  0.00  0.00     0.013 A 
ATOM     22  C   UNL d   1      27.966 -14.855   0.591  0.00  0.00     0.004 A 
ATOM     23  C   UNL d   1      28.998 -15.786   0.444  0.00  0.00     0.036 A 
ATOM     24  C   UNL d   1      28.805 -16.894  -0.371  0.00  0.00     0.066 A 
ATOM     25  C   UNL d   1      27.612 -17.075  -1.055  0.00  0.00     0.050 A 
BRANCH  24  26
ATOM     26  O   UNL d   1      29.749 -17.866  -0.520  0.00  0.00    -0.361 OA
ATOM     27  H   UNL d   1      30.033 -18.179   0.355  0.00  0.00     0.217 HD
ENDBRANCH  24  26
ENDBRANCH  18  20
ENDBRANCH   1  17
TORSDOF 6
ENDMDL
MODEL 9
REMARK VINA RESULT:    -5.855      2.514      4.598
REMARK INTER + INTRA:         -10.546
REMARK INTER:                  -7.645
REMARK INTRA:                  -2.901
REMARK CONF_INDEPENDENT:        1.790
REMARK UNBOUND:                -2.901
REMARK  6 active torsions:
REMARK  status: ('A' for Active; 'I' for Inactive)
REMARK    1  A    between atoms: C_2  and  C_19 
REMARK    2  A    between atoms: N_3  and  N_4 
REMARK       I    between atoms: N_4  and  C_5 
REMARK    3  A    between atoms: C_5  and  C_7 
REMARK    4  A    between atoms: C_7  and  O_8 
REMARK    5  A    between atoms: O_8  and  C_9 
REMARK    6  A    between atoms: C_23  and  O_24 
ROOT
ATOM      1  N   UNL d   1      27.342 -14.893  -4.724  0.00  0.00    -0.245 N 
ATOM      2  C   UNL d   1      25.982 -15.157  -4.894  0.00  0.00     0.261 C 
ATOM      3  O   UNL d   1      25.546 -15.950  -5.733  0.00  0.00    -0.269 OA
ATOM      4  H   UNL d   1      27.648 -14.173  -4.082  0.00  0.00     0.192 HD
ENDROOT
BRANCH   2   5
ATOM      5  C   UNL d   1      25.049 -14.370  -3.943  0.00  0.00     0.280 C 
BRANCH   5   6
ATOM      6  O   UNL d   1      25.758 -14.025  -2.741  0.00  0.00    -0.341 OA
BRANCH   6   7
ATOM      7  C   UNL d   1      25.944 -15.026  -1.815  0.00  0.00     0.080 A 
ATOM      8  C   UNL d   1      25.423 -16.307  -2.010  0.00  0.00     0.037 A 
ATOM      9  C   UNL d   1      25.629 -17.304  -1.056  0.00  0.00     0.004 A 
ATOM     10  C   UNL d   1      26.380 -17.037   0.086  0.00  0.00     0.012 A 
ATOM     11  C   UNL d   1      26.977 -15.783   0.272  0.00  0.00    -0.023 A 
ATOM     12  C   UNL d   1      27.780 -15.548   1.403  0.00  0.00     0.012 A 
ATOM     13  C   UNL d   1      26.773 -14.759  -0.689  0.00  0.00     0.007 A 
ATOM     14  C   UNL d   1      28.394 -14.313   1.600  0.00  0.00     0.001 A 
ATOM     15  C   UNL d   1      28.214 -13.301   0.663  0.00  0.00     0.001 A 
ATOM     16  C   UNL d   1      27.414 -13.520  -0.465  0.00  0.00     0.015 A 
ENDBRANCH   6   7
ENDBRANCH   5   6
ENDBRANCH   2   5
BRANCH   1  17
ATOM     17  N   UNL d   1      28.277 -15.575  -5.480  0.00  0.00    -0.176 NA
ATOM     18  C   UNL d   1      29.380 -16.034  -4.955  0.00  0.00     0.061 C 
ATOM     19  C   UNL d   1      30.379 -16.725  -5.876  0.00  0.00     0.073 C 
BRANCH  18  20
ATOM     20  C   UNL d   1      29.760 -15.962  -3.519  0.00  0.00    -0.008 A 
ATOM     21  C   UNL d   1      30.278 -14.782  -2.976  0.00  0.00     0.013 A 
ATOM     22  C   UNL d   1      30.545 -14.709  -1.606  0.00  0.00     0.004 A 
ATOM     23  C   UNL d   1      30.277 -15.802  -0.777  0.00  0.00     0.036 A 
ATOM     24  C   UNL d   1      29.776 -16.972  -1.333  0.00  0.00     0.066 A 
ATOM     25  C   UNL d   1      29.560 -17.076  -2.698  0.00  0.00     0.050 A 
BRANCH  24  26
ATOM     26  O   UNL d   1      29.446 -18.057  -0.577  0.00  0.00    -0.361 OA
ATOM     27  H   UNL d   1      29.761 -17.927   0.333  0.00  0.00     0.217 HD
ENDBRANCH  24  26
ENDBRANCH  18  20
ENDBRANCH   1  17
TORSDOF 6
ENDMDL
