MODEL 1
REMARK VINA RESULT:   -10.530      0.000      0.000
REMARK INTER + INTRA:         -15.176
REMARK INTER:                 -13.513
REMARK INTRA:                  -1.663
REMARK CONF_INDEPENDENT:        2.983
REMARK UNBOUND:                -1.663
REMARK  10 active torsions:
REMARK  status: ('A' for Active; 'I' for Inactive)
REMARK    1  A    between atoms: O_2  and  C_3 
REMARK    2  A    between atoms: C_5  and  C_6 
REMARK    3  A    between atoms: C_6  and  O_8 
REMARK    4  A    between atoms: O_8  and  C_9 
REMARK    5  A    between atoms: C_9  and  C_10 
REMARK    6  A    between atoms: C_10  and  C_12 
REMARK    7  A    between atoms: C_24  and  O_25 
REMARK    8  A    between atoms: O_25  and  C_26 
REMARK    9  A    between atoms: C_26  and  C_27 
REMARK       I    between atoms: C_27  and  N_29 
REMARK   10  A    between atoms: N_29  and  C_30 
ROOT
ATOM      1  C   UNL d   1      25.481 -16.167  -1.224  0.00  0.00     0.102 A 
ATOM      2  C   UNL d   1      26.732 -15.537  -1.059  0.00  0.00     0.057 A 
ATOM      3  C   UNL d   1      27.719 -16.068  -0.207  0.00  0.00     0.042 A 
ATOM      4  C   UNL d   1      27.425 -17.173   0.588  0.00  0.00     0.020 A 
ATOM      5  C   UNL d   1      26.198 -17.806   0.435  0.00  0.00     0.040 A 
ATOM      6  C   UNL d   1      25.232 -17.345  -0.483  0.00  0.00     0.102 A 
ENDROOT
BRANCH   3   7
ATOM      7  C   UNL d   1      29.093 -15.536  -0.253  0.00  0.00     0.293 C 
ATOM      8  O   UNL d   1      29.865 -15.656  -1.225  0.00  0.00    -0.259 OA
BRANCH   7   9
ATOM      9  O   UNL d   1      29.431 -14.961   0.920  0.00  0.00    -0.310 OA
BRANCH   9  10
ATOM     10  C   UNL d   1      28.304 -14.461   1.624  0.00  0.00     0.262 C 
BRANCH  10  11
ATOM     11  C   UNL d   1      28.395 -12.983   1.933  0.00  0.00     0.182 C 
ATOM     12  O   UNL d   1      28.845 -12.278   1.026  0.00  0.00    -0.290 OA
BRANCH  11  13
ATOM     13  C   UNL d   1      28.008 -12.353   3.270  0.00  0.00     0.025 C 
ATOM     14  C   UNL d   1      28.436 -13.009   4.364  0.00  0.00     0.002 C 
ATOM     15  C   UNL d   1      29.199 -14.204   4.534  0.00  0.00     0.014 C 
ATOM     16  C   UNL d   1      27.997 -12.249   5.547  0.00  0.00     0.039 C 
ATOM     17  C   UNL d   1      29.365 -14.751   5.736  0.00  0.00     0.001 C 
ATOM     18  C   UNL d   1      28.906 -14.073   6.921  0.00  0.00     0.002 C 
ATOM     19  C   UNL d   1      28.233 -12.900   6.886  0.00  0.00     0.030 C 
ATOM     20  N   UNL d   1      27.486 -11.115   5.206  0.00  0.00    -0.381 N 
ATOM     21  C   UNL d   1      27.407 -11.007   3.663  0.00  0.00     0.115 C 
ATOM     22  H   UNL d   1      27.025 -10.538   5.919  0.00  0.00     0.160 HD
ATOM     23  C   UNL d   1      26.925 -10.214   2.447  0.00  0.00     0.037 C 
ENDBRANCH  11  13
ENDBRANCH  10  11
ENDBRANCH   9  10
ENDBRANCH   7   9
ENDBRANCH   3   7
BRANCH   1  24
ATOM     24  O   UNL d   1      24.778 -15.678  -2.305  0.00  0.00    -0.353 OA
ATOM     25  C   UNL d   1      25.037 -14.368  -2.810  0.00  0.00     0.210 C 
ENDBRANCH   1  24
BRANCH   6  26
ATOM     26  O   UNL d   1      24.188 -18.238  -0.531  0.00  0.00    -0.339 OA
BRANCH  26  27
ATOM     27  C   UNL d   1      23.061 -17.821  -1.247  0.00  0.00     0.278 C 
BRANCH  27  28
ATOM     28  C   UNL d   1      21.673 -18.247  -0.814  0.00  0.00     0.246 C 
ATOM     29  O   UNL d   1      20.684 -17.679  -1.270  0.00  0.00    -0.271 OA
ATOM     30  N   UNL d   1      21.633 -19.324   0.091  0.00  0.00    -0.325 N 
ATOM     31  H   UNL d   1      22.455 -19.638   0.596  0.00  0.00     0.169 HD
BRANCH  30  32
ATOM     32  C   UNL d   1      20.388 -19.874   0.470  0.00  0.00     0.035 A 
ATOM     33  C   UNL d   1      19.417 -20.227  -0.474  0.00  0.00     0.032 A 
ATOM     34  C   UNL d   1      18.217 -20.810  -0.036  0.00  0.00     0.044 A 
ATOM     35  C   UNL d   1      18.016 -21.055   1.322  0.00  0.00     0.116 A 
ATOM     36  F   UNL d   1      16.905 -21.680   1.730  0.00  0.00    -0.206 F 
ATOM     37  C   UNL d   1      18.960 -20.675   2.259  0.00  0.00     0.044 A 
ATOM     38  C   UNL d   1      20.135 -20.075   1.830  0.00  0.00     0.032 A 
ENDBRANCH  30  32
ENDBRANCH  27  28
ENDBRANCH  26  27
ENDBRANCH   6  26
TORSDOF 10
ENDMDL
MODEL 2
REMARK VINA RESULT:   -10.211      4.367      7.184
REMARK INTER + INTRA:         -15.242
REMARK INTER:                 -13.194
REMARK INTRA:                  -2.048
REMARK CONF_INDEPENDENT:        2.983
REMARK UNBOUND:                -2.048
REMARK  10 active torsions:
REMARK  status: ('A' for Active; 'I' for Inactive)
REMARK    1  A    between atoms: O_2  and  C_3 
REMARK    2  A    between atoms: C_5  and  C_6 
REMARK    3  A    between atoms: C_6  and  O_8 
REMARK    4  A    between atoms: O_8  and  C_9 
REMARK    5  A    between atoms: C_9  and  C_10 
REMARK    6  A    between atoms: C_10  and  C_12 
REMARK    7  A    between atoms: C_24  and  O_25 
REMARK    8  A    between atoms: O_25  and  C_26 
REMARK    9  A    between atoms: C_26  and  C_27 
REMARK       I    between atoms: C_27  and  N_29 
REMARK   10  A    between atoms: N_29  and  C_30 
ROOT
ATOM      1  C   UNL d   1      25.793 -16.591  -1.697  0.00  0.00     0.102 A 
ATOM      2  C   UNL d   1      27.158 -16.241  -1.758  0.00  0.00     0.057 A 
ATOM      3  C   UNL d   1      28.123 -16.891  -0.965  0.00  0.00     0.042 A 
ATOM      4  C   UNL d   1      27.719 -17.818  -0.008  0.00  0.00     0.020 A 
ATOM      5  C   UNL d   1      26.379 -18.175   0.063  0.00  0.00     0.040 A 
ATOM      6  C   UNL d   1      25.411 -17.605  -0.789  0.00  0.00     0.102 A 
ENDROOT
BRANCH   3   7
ATOM      7  C   UNL d   1      29.557 -16.684  -1.236  0.00  0.00     0.293 C 
ATOM      8  O   UNL d   1      30.374 -16.230  -0.411  0.00  0.00    -0.259 OA
BRANCH   7   9
ATOM      9  O   UNL d   1      29.858 -16.986  -2.516  0.00  0.00    -0.310 OA
BRANCH   9  10
ATOM     10  C   UNL d   1      29.977 -15.830  -3.332  0.00  0.00     0.262 C 
BRANCH  10  11
ATOM     11  C   UNL d   1      29.445 -16.027  -4.735  0.00  0.00     0.182 C 
ATOM     12  O   UNL d   1      28.238 -15.818  -4.880  0.00  0.00    -0.290 OA
BRANCH  11  13
ATOM     13  C   UNL d   1      30.288 -16.490  -5.922  0.00  0.00     0.025 C 
ATOM     14  C   UNL d   1      30.532 -17.812  -5.979  0.00  0.00     0.002 C 
ATOM     15  C   UNL d   1      30.151 -18.899  -5.134  0.00  0.00     0.014 C 
ATOM     16  C   UNL d   1      31.326 -18.074  -7.191  0.00  0.00     0.039 C 
ATOM     17  C   UNL d   1      30.652 -20.119  -5.311  0.00  0.00     0.001 C 
ATOM     18  C   UNL d   1      31.480 -20.414  -6.453  0.00  0.00     0.002 C 
ATOM     19  C   UNL d   1      31.848 -19.479  -7.359  0.00  0.00     0.030 C 
ATOM     20  N   UNL d   1      31.419 -17.015  -7.922  0.00  0.00    -0.381 N 
ATOM     21  C   UNL d   1      30.761 -15.811  -7.204  0.00  0.00     0.115 C 
ATOM     22  H   UNL d   1      32.049 -17.020  -8.732  0.00  0.00     0.160 HD
ATOM     23  C   UNL d   1      30.485 -14.306  -7.194  0.00  0.00     0.037 C 
ENDBRANCH  11  13
ENDBRANCH  10  11
ENDBRANCH   9  10
ENDBRANCH   7   9
ENDBRANCH   3   7
BRANCH   1  24
ATOM     24  O   UNL d   1      25.062 -16.068  -2.743  0.00  0.00    -0.353 OA
ATOM     25  C   UNL d   1      25.530 -14.923  -3.457  0.00  0.00     0.210 C 
ENDBRANCH   1  24
BRANCH   6  26
ATOM     26  O   UNL d   1      24.208 -18.244  -0.602  0.00  0.00    -0.339 OA
BRANCH  26  27
ATOM     27  C   UNL d   1      23.081 -17.578  -1.096  0.00  0.00     0.278 C 
BRANCH  27  28
ATOM     28  C   UNL d   1      21.688 -18.060  -0.745  0.00  0.00     0.246 C 
ATOM     29  O   UNL d   1      20.707 -17.546  -1.276  0.00  0.00    -0.271 OA
ATOM     30  N   UNL d   1      21.636 -19.122   0.176  0.00  0.00    -0.325 N 
ATOM     31  H   UNL d   1      22.437 -19.389   0.740  0.00  0.00     0.169 HD
BRANCH  30  32
ATOM     32  C   UNL d   1      20.395 -19.723   0.484  0.00  0.00     0.035 A 
ATOM     33  C   UNL d   1      19.480 -20.083  -0.511  0.00  0.00     0.032 A 
ATOM     34  C   UNL d   1      18.282 -20.716  -0.143  0.00  0.00     0.044 A 
ATOM     35  C   UNL d   1      18.029 -21.003   1.198  0.00  0.00     0.116 A 
ATOM     36  F   UNL d   1      16.922 -21.674   1.539  0.00  0.00    -0.206 F 
ATOM     37  C   UNL d   1      18.916 -20.616   2.186  0.00  0.00     0.044 A 
ATOM     38  C   UNL d   1      20.088 -19.967   1.826  0.00  0.00     0.032 A 
ENDBRANCH  30  32
ENDBRANCH  27  28
ENDBRANCH  26  27
ENDBRANCH   6  26
TORSDOF 10
ENDMDL
MODEL 3
REMARK VINA RESULT:   -10.135      1.451      2.176
REMARK INTER + INTRA:         -14.836
REMARK INTER:                 -13.118
REMARK INTRA:                  -1.718
REMARK CONF_INDEPENDENT:        2.983
REMARK UNBOUND:                -1.718
REMARK  10 active torsions:
REMARK  status: ('A' for Active; 'I' for Inactive)
REMARK    1  A    between atoms: O_2  and  C_3 
REMARK    2  A    between atoms: C_5  and  C_6 
REMARK    3  A    between atoms: C_6  and  O_8 
REMARK    4  A    between atoms: O_8  and  C_9 
REMARK    5  A    between atoms: C_9  and  C_10 
REMARK    6  A    between atoms: C_10  and  C_12 
REMARK    7  A    between atoms: C_24  and  O_25 
REMARK    8  A    between atoms: O_25  and  C_26 
REMARK    9  A    between atoms: C_26  and  C_27 
REMARK       I    between atoms: C_27  and  N_29 
REMARK   10  A    between atoms: N_29  and  C_30 
ROOT
ATOM      1  C   UNL d   1      26.489 -16.302  -1.577  0.00  0.00     0.102 A 
ATOM      2  C   UNL d   1      27.292 -15.146  -1.670  0.00  0.00     0.057 A 
ATOM      3  C   UNL d   1      26.784 -13.934  -2.175  0.00  0.00     0.042 A 
ATOM      4  C   UNL d   1      25.498 -13.892  -2.709  0.00  0.00     0.020 A 
ATOM      5  C   UNL d   1      24.695 -15.021  -2.621  0.00  0.00     0.040 A 
ATOM      6  C   UNL d   1      25.154 -16.217  -2.032  0.00  0.00     0.102 A 
ENDROOT
BRANCH   3   7
ATOM      7  C   UNL d   1      27.562 -12.691  -2.022  0.00  0.00     0.293 C 
ATOM      8  O   UNL d   1      28.437 -12.302  -2.821  0.00  0.00    -0.259 OA
BRANCH   7   9
ATOM      9  O   UNL d   1      27.253 -12.063  -0.869  0.00  0.00    -0.310 OA
BRANCH   9  10
ATOM     10  C   UNL d   1      27.966 -12.587   0.242  0.00  0.00     0.262 C 
BRANCH  10  11
ATOM     11  C   UNL d   1      27.087 -12.874   1.439  0.00  0.00     0.182 C 
ATOM     12  O   UNL d   1      26.205 -13.719   1.261  0.00  0.00    -0.290 OA
BRANCH  11  13
ATOM     13  C   UNL d   1      27.207 -12.170   2.790  0.00  0.00     0.025 C 
ATOM     14  C   UNL d   1      27.723 -12.914   3.786  0.00  0.00     0.002 C 
ATOM     15  C   UNL d   1      28.194 -14.261   3.838  0.00  0.00     0.014 C 
ATOM     16  C   UNL d   1      27.788 -12.071   4.992  0.00  0.00     0.039 C 
ATOM     17  C   UNL d   1      28.518 -14.834   4.995  0.00  0.00     0.001 C 
ATOM     18  C   UNL d   1      28.544 -14.065   6.213  0.00  0.00     0.002 C 
ATOM     19  C   UNL d   1      28.185 -12.762   6.272  0.00  0.00     0.030 C 
ATOM     20  N   UNL d   1      27.495 -10.845   4.717  0.00  0.00    -0.381 N 
ATOM     21  C   UNL d   1      27.064 -10.718   3.235  0.00  0.00     0.115 C 
ATOM     22  H   UNL d   1      27.379 -10.173   5.484  0.00  0.00     0.160 HD
ATOM     23  C   UNL d   1      26.500  -9.829   2.125  0.00  0.00     0.037 C 
ENDBRANCH  11  13
ENDBRANCH  10  11
ENDBRANCH   9  10
ENDBRANCH   7   9
ENDBRANCH   3   7
BRANCH   1  24
ATOM     24  O   UNL d   1      27.060 -17.283  -0.793  0.00  0.00    -0.353 OA
ATOM     25  C   UNL d   1      26.714 -17.405   0.587  0.00  0.00     0.210 C 
ENDBRANCH   1  24
BRANCH   6  26
ATOM     26  O   UNL d   1      24.113 -17.112  -1.948  0.00  0.00    -0.339 OA
BRANCH  26  27
ATOM     27  C   UNL d   1      23.579 -17.309  -0.671  0.00  0.00     0.278 C 
BRANCH  27  28
ATOM     28  C   UNL d   1      22.164 -17.823  -0.498  0.00  0.00     0.246 C 
ATOM     29  O   UNL d   1      21.264 -17.404  -1.222  0.00  0.00    -0.271 OA
ATOM     30  N   UNL d   1      22.001 -18.802   0.499  0.00  0.00    -0.325 N 
ATOM     31  H   UNL d   1      22.709 -18.980   1.204  0.00  0.00     0.169 HD
BRANCH  30  32
ATOM     32  C   UNL d   1      20.746 -19.430   0.664  0.00  0.00     0.035 A 
ATOM     33  C   UNL d   1      19.950 -19.791  -0.428  0.00  0.00     0.032 A 
ATOM     34  C   UNL d   1      18.733 -20.452  -0.198  0.00  0.00     0.044 A 
ATOM     35  C   UNL d   1      18.344 -20.765   1.104  0.00  0.00     0.116 A 
ATOM     36  F   UNL d   1      17.221 -21.463   1.315  0.00  0.00    -0.206 F 
ATOM     37  C   UNL d   1      19.113 -20.378   2.187  0.00  0.00     0.044 A 
ATOM     38  C   UNL d   1      20.303 -19.701   1.963  0.00  0.00     0.032 A 
ENDBRANCH  30  32
ENDBRANCH  27  28
ENDBRANCH  26  27
ENDBRANCH   6  26
TORSDOF 10
ENDMDL
MODEL 4
REMARK VINA RESULT:    -9.969      1.565      2.442
REMARK INTER + INTRA:         -14.847
REMARK INTER:                 -12.952
REMARK INTRA:                  -1.895
REMARK CONF_INDEPENDENT:        2.983
REMARK UNBOUND:                -1.895
REMARK  10 active torsions:
REMARK  status: ('A' for Active; 'I' for Inactive)
REMARK    1  A    between atoms: O_2  and  C_3 
REMARK    2  A    between atoms: C_5  and  C_6 
REMARK    3  A    between atoms: C_6  and  O_8 
REMARK    4  A    between atoms: O_8  and  C_9 
REMARK    5  A    between atoms: C_9  and  C_10 
REMARK    6  A    between atoms: C_10  and  C_12 
REMARK    7  A    between atoms: C_24  and  O_25 
REMARK    8  A    between atoms: O_25  and  C_26 
REMARK    9  A    between atoms: C_26  and  C_27 
REMARK       I    between atoms: C_27  and  N_29 
REMARK   10  A    between atoms: N_29  and  C_30 
ROOT
ATOM      1  C   UNL d   1      25.664 -15.597  -1.973  0.00  0.00     0.102 A 
ATOM      2  C   UNL d   1      27.070 -15.696  -2.023  0.00  0.00     0.057 A 
ATOM      3  C   UNL d   1      27.791 -16.444  -1.073  0.00  0.00     0.042 A 
ATOM      4  C   UNL d   1      27.125 -17.007   0.013  0.00  0.00     0.020 A 
ATOM      5  C   UNL d   1      25.741 -16.921   0.074  0.00  0.00     0.040 A 
ATOM      6  C   UNL d   1      24.992 -16.256  -0.919  0.00  0.00     0.102 A 
ENDROOT
BRANCH   3   7
ATOM      7  C   UNL d   1      29.218 -16.737  -1.298  0.00  0.00     0.293 C 
ATOM      8  O   UNL d   1      29.645 -17.621  -2.068  0.00  0.00    -0.259 OA
BRANCH   7   9
ATOM      9  O   UNL d   1      30.001 -15.972  -0.511  0.00  0.00    -0.310 OA
BRANCH   9  10
ATOM     10  C   UNL d   1      29.830 -14.585  -0.758  0.00  0.00     0.262 C 
BRANCH  10  11
ATOM     11  C   UNL d   1      29.473 -13.793   0.481  0.00  0.00     0.182 C 
ATOM     12  O   UNL d   1      28.748 -12.813   0.295  0.00  0.00    -0.290 OA
BRANCH  11  13
ATOM     13  C   UNL d   1      29.978 -14.114   1.887  0.00  0.00     0.025 C 
ATOM     14  C   UNL d   1      29.045 -14.090   2.856  0.00  0.00     0.002 C 
ATOM     15  C   UNL d   1      27.642 -13.821   2.838  0.00  0.00     0.014 C 
ATOM     16  C   UNL d   1      29.702 -14.447   4.125  0.00  0.00     0.039 C 
ATOM     17  C   UNL d   1      26.948 -13.701   3.966  0.00  0.00     0.001 C 
ATOM     18  C   UNL d   1      27.560 -13.985   5.239  0.00  0.00     0.002 C 
ATOM     19  C   UNL d   1      28.865 -14.319   5.372  0.00  0.00     0.030 C 
ATOM     20  N   UNL d   1      30.917 -14.831   3.926  0.00  0.00    -0.381 N 
ATOM     21  C   UNL d   1      31.290 -14.668   2.432  0.00  0.00     0.115 C 
ATOM     22  H   UNL d   1      31.532 -14.989   4.732  0.00  0.00     0.160 HD
ATOM     23  C   UNL d   1      32.377 -14.735   1.357  0.00  0.00     0.037 C 
ENDBRANCH  11  13
ENDBRANCH  10  11
ENDBRANCH   9  10
ENDBRANCH   7   9
ENDBRANCH   3   7
BRANCH   1  24
ATOM     24  O   UNL d   1      25.126 -15.085  -3.136  0.00  0.00    -0.353 OA
ATOM     25  C   UNL d   1      25.120 -13.678  -3.377  0.00  0.00     0.210 C 
ENDBRANCH   1  24
BRANCH   6  26
ATOM     26  O   UNL d   1      23.651 -16.453  -0.686  0.00  0.00    -0.339 OA
BRANCH  26  27
ATOM     27  C   UNL d   1      23.102 -17.618  -1.229  0.00  0.00     0.278 C 
BRANCH  27  28
ATOM     28  C   UNL d   1      21.755 -18.127  -0.757  0.00  0.00     0.246 C 
ATOM     29  O   UNL d   1      20.722 -17.690  -1.258  0.00  0.00    -0.271 OA
ATOM     30  N   UNL d   1      21.805 -19.121   0.237  0.00  0.00    -0.325 N 
ATOM     31  H   UNL d   1      22.650 -19.316   0.765  0.00  0.00     0.169 HD
BRANCH  30  32
ATOM     32  C   UNL d   1      20.612 -19.745   0.665  0.00  0.00     0.035 A 
ATOM     33  C   UNL d   1      20.273 -19.845   2.019  0.00  0.00     0.032 A 
ATOM     34  C   UNL d   1      19.052 -20.438   2.376  0.00  0.00     0.044 A 
ATOM     35  C   UNL d   1      18.182 -20.894   1.386  0.00  0.00     0.116 A 
ATOM     36  F   UNL d   1      16.986 -21.389   1.726  0.00  0.00    -0.206 F 
ATOM     37  C   UNL d   1      18.531 -20.827   0.049  0.00  0.00     0.044 A 
ATOM     38  C   UNL d   1      19.749 -20.266  -0.304  0.00  0.00     0.032 A 
ENDBRANCH  30  32
ENDBRANCH  27  28
ENDBRANCH  26  27
ENDBRANCH   6  26
TORSDOF 10
ENDMDL
MODEL 5
REMARK VINA RESULT:    -9.857      4.239      6.958
REMARK INTER + INTRA:         -14.601
REMARK INTER:                 -12.840
REMARK INTRA:                  -1.761
REMARK CONF_INDEPENDENT:        2.983
REMARK UNBOUND:                -1.761
REMARK  10 active torsions:
REMARK  status: ('A' for Active; 'I' for Inactive)
REMARK    1  A    between atoms: O_2  and  C_3 
REMARK    2  A    between atoms: C_5  and  C_6 
REMARK    3  A    between atoms: C_6  and  O_8 
REMARK    4  A    between atoms: O_8  and  C_9 
REMARK    5  A    between atoms: C_9  and  C_10 
REMARK    6  A    between atoms: C_10  and  C_12 
REMARK    7  A    between atoms: C_24  and  O_25 
REMARK    8  A    between atoms: O_25  and  C_26 
REMARK    9  A    between atoms: C_26  and  C_27 
REMARK       I    between atoms: C_27  and  N_29 
REMARK   10  A    between atoms: N_29  and  C_30 
ROOT
ATOM      1  C   UNL d   1      26.903 -16.325  -1.124  0.00  0.00     0.102 A 
ATOM      2  C   UNL d   1      27.143 -15.025  -1.616  0.00  0.00     0.057 A 
ATOM      3  C   UNL d   1      26.131 -14.276  -2.245  0.00  0.00     0.042 A 
ATOM      4  C   UNL d   1      24.894 -14.862  -2.500  0.00  0.00     0.020 A 
ATOM      5  C   UNL d   1      24.642 -16.141  -2.019  0.00  0.00     0.040 A 
ATOM      6  C   UNL d   1      25.612 -16.871  -1.303  0.00  0.00     0.102 A 
ENDROOT
BRANCH   3   7
ATOM      7  C   UNL d   1      26.338 -12.841  -2.513  0.00  0.00     0.293 C 
ATOM      8  O   UNL d   1      27.013 -12.078  -1.794  0.00  0.00    -0.259 OA
BRANCH   7   9
ATOM      9  O   UNL d   1      25.645 -12.445  -3.601  0.00  0.00    -0.310 OA
BRANCH   9  10
ATOM     10  C   UNL d   1      26.310 -11.419  -4.324  0.00  0.00     0.262 C 
BRANCH  10  11
ATOM     11  C   UNL d   1      26.282 -11.626  -5.822  0.00  0.00     0.182 C 
ATOM     12  O   UNL d   1      25.250 -11.261  -6.390  0.00  0.00    -0.290 OA
BRANCH  11  13
ATOM     13  C   UNL d   1      27.408 -12.274  -6.627  0.00  0.00     0.025 C 
ATOM     14  C   UNL d   1      27.836 -13.465  -6.170  0.00  0.00     0.002 C 
ATOM     15  C   UNL d   1      27.439 -14.269  -5.058  0.00  0.00     0.014 C 
ATOM     16  C   UNL d   1      28.893 -13.944  -7.077  0.00  0.00     0.039 C 
ATOM     17  C   UNL d   1      28.127 -15.353  -4.711  0.00  0.00     0.001 C 
ATOM     18  C   UNL d   1      29.207 -15.833  -5.536  0.00  0.00     0.002 C 
ATOM     19  C   UNL d   1      29.625 -15.192  -6.651  0.00  0.00     0.030 C 
ATOM     20  N   UNL d   1      28.991 -13.186  -8.115  0.00  0.00    -0.381 N 
ATOM     21  C   UNL d   1      28.040 -11.971  -7.982  0.00  0.00     0.115 C 
ATOM     22  H   UNL d   1      29.770 -13.329  -8.769  0.00  0.00     0.160 HD
ATOM     23  C   UNL d   1      27.566 -10.633  -8.553  0.00  0.00     0.037 C 
ENDBRANCH  11  13
ENDBRANCH  10  11
ENDBRANCH   9  10
ENDBRANCH   7   9
ENDBRANCH   3   7
BRANCH   1  24
ATOM     24  O   UNL d   1      27.907 -16.771  -0.289  0.00  0.00    -0.353 OA
ATOM     25  C   UNL d   1      29.084 -17.376  -0.824  0.00  0.00     0.210 C 
ENDBRANCH   1  24
BRANCH   6  26
ATOM     26  O   UNL d   1      25.048 -18.031  -0.825  0.00  0.00    -0.339 OA
BRANCH  26  27
ATOM     27  C   UNL d   1      23.940 -17.870   0.014  0.00  0.00     0.278 C 
BRANCH  27  28
ATOM     28  C   UNL d   1      22.666 -18.650  -0.235  0.00  0.00     0.246 C 
ATOM     29  O   UNL d   1      22.538 -19.309  -1.264  0.00  0.00    -0.271 OA
ATOM     30  N   UNL d   1      21.707 -18.575   0.792  0.00  0.00    -0.325 N 
ATOM     31  H   UNL d   1      21.755 -17.876   1.526  0.00  0.00     0.169 HD
BRANCH  30  32
ATOM     32  C   UNL d   1      20.534 -19.356   0.713  0.00  0.00     0.035 A 
ATOM     33  C   UNL d   1      19.833 -19.521  -0.487  0.00  0.00     0.032 A 
ATOM     34  C   UNL d   1      18.697 -20.346  -0.509  0.00  0.00     0.044 A 
ATOM     35  C   UNL d   1      18.296 -21.011   0.649  0.00  0.00     0.116 A 
ATOM     36  F   UNL d   1      17.259 -21.857   0.608  0.00  0.00    -0.206 F 
ATOM     37  C   UNL d   1      18.967 -20.822   1.845  0.00  0.00     0.044 A 
ATOM     38  C   UNL d   1      20.074 -19.986   1.874  0.00  0.00     0.032 A 
ENDBRANCH  30  32
ENDBRANCH  27  28
ENDBRANCH  26  27
ENDBRANCH   6  26
TORSDOF 10
ENDMDL
MODEL 6
REMARK VINA RESULT:    -9.254      3.895      6.318
REMARK INTER + INTRA:         -14.722
REMARK INTER:                 -12.237
REMARK INTRA:                  -2.485
REMARK CONF_INDEPENDENT:        2.983
REMARK UNBOUND:                -2.485
REMARK  10 active torsions:
REMARK  status: ('A' for Active; 'I' for Inactive)
REMARK    1  A    between atoms: O_2  and  C_3 
REMARK    2  A    between atoms: C_5  and  C_6 
REMARK    3  A    between atoms: C_6  and  O_8 
REMARK    4  A    between atoms: O_8  and  C_9 
REMARK    5  A    between atoms: C_9  and  C_10 
REMARK    6  A    between atoms: C_10  and  C_12 
REMARK    7  A    between atoms: C_24  and  O_25 
REMARK    8  A    between atoms: O_25  and  C_26 
REMARK    9  A    between atoms: C_26  and  C_27 
REMARK       I    between atoms: C_27  and  N_29 
REMARK   10  A    between atoms: N_29  and  C_30 
ROOT
ATOM      1  C   UNL d   1      25.904 -15.665  -1.467  0.00  0.00     0.102 A 
ATOM      2  C   UNL d   1      27.293 -15.426  -1.530  0.00  0.00     0.057 A 
ATOM      3  C   UNL d   1      28.192 -16.066  -0.657  0.00  0.00     0.042 A 
ATOM      4  C   UNL d   1      27.703 -16.865   0.375  0.00  0.00     0.020 A 
ATOM      5  C   UNL d   1      26.339 -17.111   0.448  0.00  0.00     0.040 A 
ATOM      6  C   UNL d   1      25.431 -16.555  -0.476  0.00  0.00     0.102 A 
ENDROOT
BRANCH   3   7
ATOM      7  C   UNL d   1      29.641 -15.995  -0.913  0.00  0.00     0.293 C 
ATOM      8  O   UNL d   1      30.491 -16.733  -0.375  0.00  0.00    -0.259 OA
BRANCH   7   9
ATOM      9  O   UNL d   1      29.937 -14.981  -1.752  0.00  0.00    -0.310 OA
BRANCH   9  10
ATOM     10  C   UNL d   1      30.623 -15.422  -2.915  0.00  0.00     0.262 C 
BRANCH  10  11
ATOM     11  C   UNL d   1      29.707 -16.013  -3.964  0.00  0.00     0.182 C 
ATOM     12  O   UNL d   1      29.292 -17.151  -3.727  0.00  0.00    -0.290 OA
BRANCH  11  13
ATOM     13  C   UNL d   1      29.319 -15.314  -5.266  0.00  0.00     0.025 C 
ATOM     14  C   UNL d   1      28.621 -14.173  -5.125  0.00  0.00     0.002 C 
ATOM     15  C   UNL d   1      28.159 -13.462  -3.975  0.00  0.00     0.014 C 
ATOM     16  C   UNL d   1      28.362 -13.632  -6.470  0.00  0.00     0.039 C 
ATOM     17  C   UNL d   1      27.339 -12.420  -4.092  0.00  0.00     0.001 C 
ATOM     18  C   UNL d   1      27.010 -11.886  -5.389  0.00  0.00     0.002 C 
ATOM     19  C   UNL d   1      27.448 -12.435  -6.546  0.00  0.00     0.030 C 
ATOM     20  N   UNL d   1      29.002 -14.299  -7.369  0.00  0.00    -0.381 N 
ATOM     21  C   UNL d   1      29.723 -15.508  -6.724  0.00  0.00     0.115 C 
ATOM     22  H   UNL d   1      28.815 -14.111  -8.361  0.00  0.00     0.160 HD
ATOM     23  C   UNL d   1      30.539 -16.786  -6.931  0.00  0.00     0.037 C 
ENDBRANCH  11  13
ENDBRANCH  10  11
ENDBRANCH   9  10
ENDBRANCH   7   9
ENDBRANCH   3   7
BRANCH   1  24
ATOM     24  O   UNL d   1      25.232 -15.191  -2.575  0.00  0.00    -0.353 OA
ATOM     25  C   UNL d   1      25.717 -15.460  -3.891  0.00  0.00     0.210 C 
ENDBRANCH   1  24
BRANCH   6  26
ATOM     26  O   UNL d   1      24.179 -17.081  -0.258  0.00  0.00    -0.339 OA
BRANCH  26  27
ATOM     27  C   UNL d   1      23.639 -17.828  -1.310  0.00  0.00     0.278 C 
BRANCH  27  28
ATOM     28  C   UNL d   1      22.350 -18.601  -1.122  0.00  0.00     0.246 C 
ATOM     29  O   UNL d   1      21.929 -19.324  -2.021  0.00  0.00    -0.271 OA
ATOM     30  N   UNL d   1      21.733 -18.441   0.133  0.00  0.00    -0.325 N 
ATOM     31  H   UNL d   1      21.992 -17.695   0.771  0.00  0.00     0.169 HD
BRANCH  30  32
ATOM     32  C   UNL d   1      20.590 -19.205   0.453  0.00  0.00     0.035 A 
ATOM     33  C   UNL d   1      19.681 -19.624  -0.525  0.00  0.00     0.032 A 
ATOM     34  C   UNL d   1      18.587 -20.418  -0.147  0.00  0.00     0.044 A 
ATOM     35  C   UNL d   1      18.431 -20.803   1.184  0.00  0.00     0.116 A 
ATOM     36  F   UNL d   1      17.431 -21.623   1.529  0.00  0.00    -0.206 F 
ATOM     37  C   UNL d   1      19.309 -20.362   2.158  0.00  0.00     0.044 A 
ATOM     38  C   UNL d   1      20.376 -19.555   1.791  0.00  0.00     0.032 A 
ENDBRANCH  30  32
ENDBRANCH  27  28
ENDBRANCH  26  27
ENDBRANCH   6  26
TORSDOF 10
ENDMDL
MODEL 7
REMARK VINA RESULT:    -8.989      3.501      5.862
REMARK INTER + INTRA:         -14.629
REMARK INTER:                 -11.972
REMARK INTRA:                  -2.657
REMARK CONF_INDEPENDENT:        2.983
REMARK UNBOUND:                -2.657
REMARK  10 active torsions:
REMARK  status: ('A' for Active; 'I' for Inactive)
REMARK    1  A    between atoms: O_2  and  C_3 
REMARK    2  A    between atoms: C_5  and  C_6 
REMARK    3  A    between atoms: C_6  and  O_8 
REMARK    4  A    between atoms: O_8  and  C_9 
REMARK    5  A    between atoms: C_9  and  C_10 
REMARK    6  A    between atoms: C_10  and  C_12 
REMARK    7  A    between atoms: C_24  and  O_25 
REMARK    8  A    between atoms: O_25  and  C_26 
REMARK    9  A    between atoms: C_26  and  C_27 
REMARK       I    between atoms: C_27  and  N_29 
REMARK   10  A    between atoms: N_29  and  C_30 
ROOT
ATOM      1  C   UNL d   1      26.769 -15.584   0.250  0.00  0.00     0.102 A 
ATOM      2  C   UNL d   1      28.113 -15.389  -0.131  0.00  0.00     0.057 A 
ATOM      3  C   UNL d   1      28.918 -16.456  -0.570  0.00  0.00     0.042 A 
ATOM      4  C   UNL d   1      28.427 -17.759  -0.520  0.00  0.00     0.020 A 
ATOM      5  C   UNL d   1      27.105 -17.966  -0.151  0.00  0.00     0.040 A 
ATOM      6  C   UNL d   1      26.253 -16.899   0.201  0.00  0.00     0.102 A 
ENDROOT
BRANCH   3   7
ATOM      7  C   UNL d   1      30.223 -16.182  -1.197  0.00  0.00     0.293 C 
ATOM      8  O   UNL d   1      31.323 -16.289  -0.618  0.00  0.00    -0.259 OA
BRANCH   7   9
ATOM      9  O   UNL d   1      30.071 -15.734  -2.460  0.00  0.00    -0.310 OA
BRANCH   9  10
ATOM     10  C   UNL d   1      29.779 -16.779  -3.376  0.00  0.00     0.262 C 
BRANCH  10  11
ATOM     11  C   UNL d   1      29.343 -16.281  -4.737  0.00  0.00     0.182 C 
ATOM     12  O   UNL d   1      29.655 -16.999  -5.690  0.00  0.00    -0.290 OA
BRANCH  11  13
ATOM     13  C   UNL d   1      28.601 -14.967  -4.981  0.00  0.00     0.025 C 
ATOM     14  C   UNL d   1      27.460 -14.810  -4.285  0.00  0.00     0.002 C 
ATOM     15  C   UNL d   1      26.786 -15.640  -3.339  0.00  0.00     0.014 C 
ATOM     16  C   UNL d   1      26.904 -13.489  -4.624  0.00  0.00     0.039 C 
ATOM     17  C   UNL d   1      25.569 -15.333  -2.896  0.00  0.00     0.001 C 
ATOM     18  C   UNL d   1      24.957 -14.076  -3.243  0.00  0.00     0.002 C 
ATOM     19  C   UNL d   1      25.534 -13.179  -4.075  0.00  0.00     0.030 C 
ATOM     20  N   UNL d   1      27.730 -12.809  -5.344  0.00  0.00    -0.381 N 
ATOM     21  C   UNL d   1      28.967 -13.671  -5.696  0.00  0.00     0.115 C 
ATOM     22  H   UNL d   1      27.422 -11.921  -5.757  0.00  0.00     0.160 HD
ATOM     23  C   UNL d   1      30.272 -13.796  -6.485  0.00  0.00     0.037 C 
ENDBRANCH  11  13
ENDBRANCH  10  11
ENDBRANCH   9  10
ENDBRANCH   7   9
ENDBRANCH   3   7
BRANCH   1  24
ATOM     24  O   UNL d   1      26.069 -14.400   0.357  0.00  0.00    -0.353 OA
ATOM     25  C   UNL d   1      26.662 -13.165  -0.045  0.00  0.00     0.210 C 
ENDBRANCH   1  24
BRANCH   6  26
ATOM     26  O   UNL d   1      24.975 -17.375   0.375  0.00  0.00    -0.339 OA
BRANCH  26  27
ATOM     27  C   UNL d   1      24.230 -17.567  -0.793  0.00  0.00     0.278 C 
BRANCH  27  28
ATOM     28  C   UNL d   1      22.976 -18.417  -0.776  0.00  0.00     0.246 C 
ATOM     29  O   UNL d   1      22.786 -19.251  -1.657  0.00  0.00    -0.271 OA
ATOM     30  N   UNL d   1      22.114 -18.188   0.312  0.00  0.00    -0.325 N 
ATOM     31  H   UNL d   1      22.196 -17.369   0.905  0.00  0.00     0.169 HD
BRANCH  30  32
ATOM     32  C   UNL d   1      20.975 -19.006   0.486  0.00  0.00     0.035 A 
ATOM     33  C   UNL d   1      20.590 -19.482   1.744  0.00  0.00     0.032 A 
ATOM     34  C   UNL d   1      19.423 -20.254   1.857  0.00  0.00     0.044 A 
ATOM     35  C   UNL d   1      18.649 -20.516   0.727  0.00  0.00     0.116 A 
ATOM     36  F   UNL d   1      17.498 -21.187   0.848  0.00  0.00    -0.206 F 
ATOM     37  C   UNL d   1      19.046 -20.076  -0.524  0.00  0.00     0.044 A 
ATOM     38  C   UNL d   1      20.213 -19.335  -0.640  0.00  0.00     0.032 A 
ENDBRANCH  30  32
ENDBRANCH  27  28
ENDBRANCH  26  27
ENDBRANCH   6  26
TORSDOF 10
ENDMDL
MODEL 8
REMARK VINA RESULT:    -8.684      2.116      2.992
REMARK INTER + INTRA:         -14.634
REMARK INTER:                 -11.667
REMARK INTRA:                  -2.967
REMARK CONF_INDEPENDENT:        2.983
REMARK UNBOUND:                -2.967
REMARK  10 active torsions:
REMARK  status: ('A' for Active; 'I' for Inactive)
REMARK    1  A    between atoms: O_2  and  C_3 
REMARK    2  A    between atoms: C_5  and  C_6 
REMARK    3  A    between atoms: C_6  and  O_8 
REMARK    4  A    between atoms: O_8  and  C_9 
REMARK    5  A    between atoms: C_9  and  C_10 
REMARK    6  A    between atoms: C_10  and  C_12 
REMARK    7  A    between atoms: C_24  and  O_25 
REMARK    8  A    between atoms: O_25  and  C_26 
REMARK    9  A    between atoms: C_26  and  C_27 
REMARK       I    between atoms: C_27  and  N_29 
REMARK   10  A    between atoms: N_29  and  C_30 
ROOT
ATOM      1  C   UNL d   1      25.833 -16.363  -1.579  0.00  0.00     0.102 A 
ATOM      2  C   UNL d   1      27.204 -16.179  -1.859  0.00  0.00     0.057 A 
ATOM      3  C   UNL d   1      28.198 -16.926  -1.199  0.00  0.00     0.042 A 
ATOM      4  C   UNL d   1      27.843 -17.783  -0.160  0.00  0.00     0.020 A 
ATOM      5  C   UNL d   1      26.498 -17.976   0.125  0.00  0.00     0.040 A 
ATOM      6  C   UNL d   1      25.482 -17.309  -0.590  0.00  0.00     0.102 A 
ENDROOT
BRANCH   3   7
ATOM      7  C   UNL d   1      29.587 -16.896  -1.691  0.00  0.00     0.293 C 
ATOM      8  O   UNL d   1      29.915 -16.649  -2.869  0.00  0.00    -0.259 OA
BRANCH   7   9
ATOM      9  O   UNL d   1      30.455 -17.239  -0.717  0.00  0.00    -0.310 OA
BRANCH   9  10
ATOM     10  C   UNL d   1      30.653 -16.195   0.226  0.00  0.00     0.262 C 
BRANCH  10  11
ATOM     11  C   UNL d   1      30.570 -14.813  -0.382  0.00  0.00     0.182 C 
ATOM     12  O   UNL d   1      31.645 -14.324  -0.740  0.00  0.00    -0.290 OA
BRANCH  11  13
ATOM     13  C   UNL d   1      29.278 -14.010  -0.534  0.00  0.00     0.025 C 
ATOM     14  C   UNL d   1      28.577 -13.823   0.599  0.00  0.00     0.002 C 
ATOM     15  C   UNL d   1      28.800 -14.231   1.949  0.00  0.00     0.014 C 
ATOM     16  C   UNL d   1      27.390 -13.015   0.267  0.00  0.00     0.039 C 
ATOM     17  C   UNL d   1      27.869 -14.059   2.884  0.00  0.00     0.001 C 
ATOM     18  C   UNL d   1      26.666 -13.322   2.596  0.00  0.00     0.002 C 
ATOM     19  C   UNL d   1      26.379 -12.827   1.370  0.00  0.00     0.030 C 
ATOM     20  N   UNL d   1      27.446 -12.587  -0.948  0.00  0.00    -0.381 N 
ATOM     21  C   UNL d   1      28.686 -13.176  -1.666  0.00  0.00     0.115 C 
ATOM     22  H   UNL d   1      26.628 -12.117  -1.352  0.00  0.00     0.160 HD
ATOM     23  C   UNL d   1      29.466 -13.340  -2.972  0.00  0.00     0.037 C 
ENDBRANCH  11  13
ENDBRANCH  10  11
ENDBRANCH   9  10
ENDBRANCH   7   9
ENDBRANCH   3   7
BRANCH   1  24
ATOM     24  O   UNL d   1      25.015 -15.773  -2.521  0.00  0.00    -0.353 OA
ATOM     25  C   UNL d   1      25.572 -15.039  -3.611  0.00  0.00     0.210 C 
ENDBRANCH   1  24
BRANCH   6  26
ATOM     26  O   UNL d   1      24.256 -17.797  -0.202  0.00  0.00    -0.339 OA
BRANCH  26  27
ATOM     27  C   UNL d   1      23.176 -17.456  -1.022  0.00  0.00     0.278 C 
BRANCH  27  28
ATOM     28  C   UNL d   1      21.781 -17.951  -0.702  0.00  0.00     0.246 C 
ATOM     29  O   UNL d   1      20.808 -17.461  -1.270  0.00  0.00    -0.271 OA
ATOM     30  N   UNL d   1      21.717 -18.997   0.238  0.00  0.00    -0.325 N 
ATOM     31  H   UNL d   1      22.505 -19.241   0.829  0.00  0.00     0.169 HD
BRANCH  30  32
ATOM     32  C   UNL d   1      20.477 -19.609   0.521  0.00  0.00     0.035 A 
ATOM     33  C   UNL d   1      19.617 -20.045  -0.493  0.00  0.00     0.032 A 
ATOM     34  C   UNL d   1      18.417 -20.686  -0.145  0.00  0.00     0.044 A 
ATOM     35  C   UNL d   1      18.107 -20.904   1.196  0.00  0.00     0.116 A 
ATOM     36  F   UNL d   1      17.001 -21.583   1.524  0.00  0.00    -0.206 F 
ATOM     37  C   UNL d   1      18.939 -20.443   2.202  0.00  0.00     0.044 A 
ATOM     38  C   UNL d   1      20.112 -19.786   1.860  0.00  0.00     0.032 A 
ENDBRANCH  30  32
ENDBRANCH  27  28
ENDBRANCH  26  27
ENDBRANCH   6  26
TORSDOF 10
ENDMDL
