MODEL 1
REMARK VINA RESULT:    -9.115      0.000      0.000
REMARK INTER + INTRA:         -12.619
REMARK INTER:                 -10.905
REMARK INTRA:                  -1.714
REMARK CONF_INDEPENDENT:        1.790
REMARK UNBOUND:                -1.714
REMARK  6 active torsions:
REMARK  status: ('A' for Active; 'I' for Inactive)
REMARK    1  A    between atoms: C_2  and  N_3 
REMARK    2  A    between atoms: C_4  and  S_5 
REMARK    3  A    between atoms: S_5  and  C_6 
REMARK    4  A    between atoms: C_6  and  C_7 
REMARK       I    between atoms: C_7  and  N_9 
REMARK    5  A    between atoms: N_9  and  C_10 
REMARK    6  A    between atoms: C_21  and  C_22 
ROOT
ATOM      1  N   UNL d   1      28.465 -14.983  -1.577  0.00  0.00    -0.291 N 
ATOM      2  C   UNL d   1      27.123 -14.698  -1.872  0.00  0.00     0.172 A 
ATOM      3  N   UNL d   1      26.113 -15.460  -1.517  0.00  0.00    -0.221 NA
ATOM      4  C   UNL d   1      26.437 -16.621  -0.789  0.00  0.00     0.104 A 
ATOM      5  C   UNL d   1      25.606 -17.647  -0.249  0.00  0.00     0.021 A 
ATOM      6  C   UNL d   1      26.454 -18.550   0.379  0.00  0.00     0.103 A 
ATOM      7  N   UNL d   1      27.743 -18.095   0.231  0.00  0.00    -0.359 N 
ATOM      8  C   UNL d   1      27.719 -16.924  -0.475  0.00  0.00     0.131 A 
ATOM      9  C   UNL d   1      28.840 -16.130  -0.850  0.00  0.00     0.278 A 
ATOM     10  O   UNL d   1      29.970 -16.430  -0.572  0.00  0.00    -0.265 OA
ATOM     11  H   UNL d   1      28.581 -18.545   0.577  0.00  0.00     0.165 HD
ENDROOT
BRANCH   2  12
ATOM     12  S   UNL d   1      26.628 -13.242  -2.795  0.00  0.00    -0.082 SA
BRANCH  12  13
ATOM     13  C   UNL d   1      26.404 -13.532  -4.578  0.00  0.00     0.185 C 
BRANCH  13  14
ATOM     14  C   UNL d   1      27.205 -14.667  -5.145  0.00  0.00     0.231 C 
ATOM     15  O   UNL d   1      26.685 -15.574  -5.791  0.00  0.00    -0.272 OA
ATOM     16  N   UNL d   1      28.599 -14.591  -4.868  0.00  0.00    -0.326 N 
ATOM     17  H   UNL d   1      29.028 -13.845  -4.330  0.00  0.00     0.169 HD
BRANCH  16  18
ATOM     18  C   UNL d   1      29.456 -15.332  -5.689  0.00  0.00     0.037 C 
ATOM     19  C   UNL d   1      30.057 -14.971  -6.897  0.00  0.00     0.032 C 
ATOM     20  C   UNL d   1      31.226 -15.711  -7.253  0.00  0.00     0.042 C 
ATOM     21  C   UNL d   1      31.360 -16.956  -6.652  0.00  0.00     0.105 C 
ATOM     22  C   UNL d   1      30.236 -17.443  -6.093  0.00  0.00     0.107 C 
ATOM     23  O   UNL d   1      32.346 -17.870  -6.358  0.00  0.00    -0.323 OA
ATOM     24  C   UNL d   1      29.656 -16.600  -5.241  0.00  0.00     0.069 C 
ATOM     25  O   UNL d   1      30.232 -18.763  -5.828  0.00  0.00    -0.323 OA
ATOM     26  C   UNL d   1      31.591 -18.770  -5.442  0.00  0.00     0.352 C 
ENDBRANCH  16  18
ENDBRANCH  13  14
ENDBRANCH  12  13
ENDBRANCH   2  12
BRANCH   1  27
ATOM     27  C   UNL d   1      29.606 -14.222  -2.028  0.00  0.00     0.130 C 
ATOM     28  C   UNL d   1      30.313 -13.545  -0.857  0.00  0.00     0.027 C 
ENDBRANCH   1  27
BRANCH   5  29
ATOM     29  C   UNL d   1      24.170 -17.826  -0.306  0.00  0.00    -0.022 C 
ATOM     30  C   UNL d   1      23.311 -16.736  -0.474  0.00  0.00     0.012 C 
ATOM     31  C   UNL d   1      21.999 -16.958  -0.895  0.00  0.00     0.001 C 
ATOM     32  C   UNL d   1      21.473 -18.250  -0.883  0.00  0.00     0.000 C 
ATOM     33  C   UNL d   1      22.282 -19.325  -0.523  0.00  0.00     0.001 C 
ATOM     34  C   UNL d   1      23.644 -19.120  -0.306  0.00  0.00     0.012 C 
ENDBRANCH   5  29
TORSDOF 6
ENDMDL
MODEL 2
REMARK VINA RESULT:    -8.644      2.486      7.110
REMARK INTER + INTRA:         -12.565
REMARK INTER:                 -10.434
REMARK INTRA:                  -2.131
REMARK CONF_INDEPENDENT:        1.790
REMARK UNBOUND:                -2.131
REMARK  6 active torsions:
REMARK  status: ('A' for Active; 'I' for Inactive)
REMARK    1  A    between atoms: C_2  and  N_3 
REMARK    2  A    between atoms: C_4  and  S_5 
REMARK    3  A    between atoms: S_5  and  C_6 
REMARK    4  A    between atoms: C_6  and  C_7 
REMARK       I    between atoms: C_7  and  N_9 
REMARK    5  A    between atoms: N_9  and  C_10 
REMARK    6  A    between atoms: C_21  and  C_22 
ROOT
ATOM      1  N   UNL d   1      31.337 -16.967  -6.199  0.00  0.00    -0.291 N 
ATOM      2  C   UNL d   1      30.417 -17.180  -5.161  0.00  0.00     0.172 A 
ATOM      3  N   UNL d   1      29.347 -16.443  -4.961  0.00  0.00    -0.221 NA
ATOM      4  C   UNL d   1      29.142 -15.389  -5.870  0.00  0.00     0.104 A 
ATOM      5  C   UNL d   1      28.101 -14.416  -5.953  0.00  0.00     0.021 A 
ATOM      6  C   UNL d   1      28.394 -13.619  -7.052  0.00  0.00     0.103 A 
ATOM      7  N   UNL d   1      29.559 -14.083  -7.614  0.00  0.00    -0.359 N 
ATOM      8  C   UNL d   1      30.000 -15.158  -6.892  0.00  0.00     0.131 A 
ATOM      9  C   UNL d   1      31.173 -15.927  -7.136  0.00  0.00     0.278 A 
ATOM     10  O   UNL d   1      31.928 -15.691  -8.041  0.00  0.00    -0.265 OA
ATOM     11  H   UNL d   1      30.028 -13.700  -8.425  0.00  0.00     0.165 HD
ENDROOT
BRANCH   2  12
ATOM     12  S   UNL d   1      30.609 -18.499  -3.960  0.00  0.00    -0.082 SA
BRANCH  12  13
ATOM     13  C   UNL d   1      30.770 -17.923  -2.242  0.00  0.00     0.185 C 
BRANCH  13  14
ATOM     14  C   UNL d   1      29.659 -17.037  -1.759  0.00  0.00     0.231 C 
ATOM     15  O   UNL d   1      29.345 -16.006  -2.349  0.00  0.00    -0.272 OA
ATOM     16  N   UNL d   1      29.018 -17.499  -0.575  0.00  0.00    -0.326 N 
ATOM     17  H   UNL d   1      29.281 -18.347  -0.085  0.00  0.00     0.169 HD
BRANCH  16  18
ATOM     18  C   UNL d   1      27.740 -16.999  -0.304  0.00  0.00     0.037 C 
ATOM     19  C   UNL d   1      27.359 -15.723   0.117  0.00  0.00     0.032 C 
ATOM     20  C   UNL d   1      26.002 -15.362  -0.148  0.00  0.00     0.042 C 
ATOM     21  C   UNL d   1      25.122 -16.419  -0.343  0.00  0.00     0.105 C 
ATOM     22  C   UNL d   1      25.571 -17.618   0.072  0.00  0.00     0.107 C 
ATOM     23  O   UNL d   1      23.900 -16.662  -0.928  0.00  0.00    -0.323 OA
ATOM     24  C   UNL d   1      26.766 -17.940  -0.422  0.00  0.00     0.069 C 
ATOM     25  O   UNL d   1      24.638 -18.575   0.230  0.00  0.00    -0.323 OA
ATOM     26  C   UNL d   1      23.898 -18.151  -0.896  0.00  0.00     0.352 C 
ENDBRANCH  16  18
ENDBRANCH  13  14
ENDBRANCH  12  13
ENDBRANCH   2  12
BRANCH   1  27
ATOM     27  C   UNL d   1      32.568 -17.694  -6.396  0.00  0.00     0.130 C 
ATOM     28  C   UNL d   1      32.341 -18.939  -7.249  0.00  0.00     0.027 C 
ENDBRANCH   1  27
BRANCH   5  29
ATOM     29  C   UNL d   1      26.945 -14.197  -5.108  0.00  0.00    -0.022 C 
ATOM     30  C   UNL d   1      26.298 -15.263  -4.476  0.00  0.00     0.012 C 
ATOM     31  C   UNL d   1      25.449 -15.004  -3.398  0.00  0.00     0.001 C 
ATOM     32  C   UNL d   1      25.040 -13.698  -3.132  0.00  0.00     0.000 C 
ATOM     33  C   UNL d   1      25.537 -12.645  -3.895  0.00  0.00     0.001 C 
ATOM     34  C   UNL d   1      26.542 -12.888  -4.831  0.00  0.00     0.012 C 
ENDBRANCH   5  29
TORSDOF 6
ENDMDL
MODEL 3
REMARK VINA RESULT:    -8.322      2.313      6.505
REMARK INTER + INTRA:         -12.584
REMARK INTER:                 -10.112
REMARK INTRA:                  -2.472
REMARK CONF_INDEPENDENT:        1.790
REMARK UNBOUND:                -2.472
REMARK  6 active torsions:
REMARK  status: ('A' for Active; 'I' for Inactive)
REMARK    1  A    between atoms: C_2  and  N_3 
REMARK    2  A    between atoms: C_4  and  S_5 
REMARK    3  A    between atoms: S_5  and  C_6 
REMARK    4  A    between atoms: C_6  and  C_7 
REMARK       I    between atoms: C_7  and  N_9 
REMARK    5  A    between atoms: N_9  and  C_10 
REMARK    6  A    between atoms: C_21  and  C_22 
ROOT
ATOM      1  N   UNL d   1      28.435 -14.143  -0.789  0.00  0.00    -0.291 N 
ATOM      2  C   UNL d   1      28.434 -14.189  -2.192  0.00  0.00     0.172 A 
ATOM      3  N   UNL d   1      28.963 -15.162  -2.898  0.00  0.00    -0.221 NA
ATOM      4  C   UNL d   1      29.551 -16.211  -2.166  0.00  0.00     0.104 A 
ATOM      5  C   UNL d   1      30.198 -17.406  -2.602  0.00  0.00     0.021 A 
ATOM      6  C   UNL d   1      30.584 -18.085  -1.454  0.00  0.00     0.103 A 
ATOM      7  N   UNL d   1      30.191 -17.340  -0.367  0.00  0.00    -0.359 N 
ATOM      8  C   UNL d   1      29.563 -16.209  -0.812  0.00  0.00     0.131 A 
ATOM      9  C   UNL d   1      29.009 -15.169  -0.013  0.00  0.00     0.278 A 
ATOM     10  O   UNL d   1      29.047 -15.184   1.189  0.00  0.00    -0.265 OA
ATOM     11  H   UNL d   1      30.340 -17.574   0.605  0.00  0.00     0.165 HD
ENDROOT
BRANCH   2  12
ATOM     12  S   UNL d   1      27.706 -12.893  -3.196  0.00  0.00    -0.082 SA
BRANCH  12  13
ATOM     13  C   UNL d   1      26.148 -13.366  -4.007  0.00  0.00     0.185 C 
BRANCH  13  14
ATOM     14  C   UNL d   1      25.537 -14.646  -3.517  0.00  0.00     0.231 C 
ATOM     15  O   UNL d   1      25.155 -15.524  -4.288  0.00  0.00    -0.272 OA
ATOM     16  N   UNL d   1      25.447 -14.744  -2.100  0.00  0.00    -0.326 N 
ATOM     17  H   UNL d   1      25.757 -14.018  -1.463  0.00  0.00     0.169 HD
BRANCH  16  18
ATOM     18  C   UNL d   1      25.304 -16.025  -1.554  0.00  0.00     0.037 C 
ATOM     19  C   UNL d   1      26.285 -16.901  -1.086  0.00  0.00     0.032 C 
ATOM     20  C   UNL d   1      25.837 -17.899  -0.167  0.00  0.00     0.042 C 
ATOM     21  C   UNL d   1      24.479 -18.188  -0.203  0.00  0.00     0.105 C 
ATOM     22  C   UNL d   1      23.833 -17.757  -1.303  0.00  0.00     0.107 C 
ATOM     23  O   UNL d   1      23.509 -18.737   0.605  0.00  0.00    -0.323 OA
ATOM     24  C   UNL d   1      24.017 -16.462  -1.555  0.00  0.00     0.069 C 
ATOM     25  O   UNL d   1      22.632 -18.316  -1.540  0.00  0.00    -0.323 OA
ATOM     26  C   UNL d   1      22.293 -18.360  -0.169  0.00  0.00     0.352 C 
ENDBRANCH  16  18
ENDBRANCH  13  14
ENDBRANCH  12  13
ENDBRANCH   2  12
BRANCH   1  27
ATOM     27  C   UNL d   1      27.949 -13.051   0.019  0.00  0.00     0.130 C 
ATOM     28  C   UNL d   1      26.655 -13.430   0.734  0.00  0.00     0.027 C 
ENDBRANCH   1  27
BRANCH   5  29
ATOM     29  C   UNL d   1      30.472 -17.897  -3.936  0.00  0.00    -0.022 C 
ATOM     30  C   UNL d   1      30.792 -19.239  -4.163  0.00  0.00     0.012 C 
ATOM     31  C   UNL d   1      30.682 -19.760  -5.453  0.00  0.00     0.001 C 
ATOM     32  C   UNL d   1      30.527 -18.899  -6.540  0.00  0.00     0.000 C 
ATOM     33  C   UNL d   1      30.405 -17.529  -6.328  0.00  0.00     0.001 C 
ATOM     34  C   UNL d   1      30.305 -17.039  -5.026  0.00  0.00     0.012 C 
ENDBRANCH   5  29
TORSDOF 6
ENDMDL
MODEL 4
REMARK VINA RESULT:    -8.056      2.236      3.416
REMARK INTER + INTRA:         -13.512
REMARK INTER:                  -9.846
REMARK INTRA:                  -3.666
REMARK CONF_INDEPENDENT:        1.790
REMARK UNBOUND:                -3.666
REMARK  6 active torsions:
REMARK  status: ('A' for Active; 'I' for Inactive)
REMARK    1  A    between atoms: C_2  and  N_3 
REMARK    2  A    between atoms: C_4  and  S_5 
REMARK    3  A    between atoms: S_5  and  C_6 
REMARK    4  A    between atoms: C_6  and  C_7 
REMARK       I    between atoms: C_7  and  N_9 
REMARK    5  A    between atoms: N_9  and  C_10 
REMARK    6  A    between atoms: C_21  and  C_22 
ROOT
ATOM      1  N   UNL d   1      29.231 -14.240   0.699  0.00  0.00    -0.291 N 
ATOM      2  C   UNL d   1      27.882 -13.854   0.746  0.00  0.00     0.172 A 
ATOM      3  N   UNL d   1      26.874 -14.672   0.539  0.00  0.00    -0.221 NA
ATOM      4  C   UNL d   1      27.209 -16.011   0.265  0.00  0.00     0.104 A 
ATOM      5  C   UNL d   1      26.382 -17.145   0.004  0.00  0.00     0.021 A 
ATOM      6  C   UNL d   1      27.240 -18.219  -0.194  0.00  0.00     0.103 A 
ATOM      7  N   UNL d   1      28.530 -17.763  -0.059  0.00  0.00    -0.359 N 
ATOM      8  C   UNL d   1      28.497 -16.425   0.222  0.00  0.00     0.131 A 
ATOM      9  C   UNL d   1      29.616 -15.569   0.431  0.00  0.00     0.278 A 
ATOM     10  O   UNL d   1      30.751 -15.958   0.373  0.00  0.00    -0.265 OA
ATOM     11  H   UNL d   1      29.373 -18.313  -0.156  0.00  0.00     0.165 HD
ENDROOT
BRANCH   2  12
ATOM     12  S   UNL d   1      27.375 -12.168   1.088  0.00  0.00    -0.082 SA
BRANCH  12  13
ATOM     13  C   UNL d   1      27.405 -11.074  -0.366  0.00  0.00     0.185 C 
BRANCH  13  14
ATOM     14  C   UNL d   1      27.092 -11.741  -1.673  0.00  0.00     0.231 C 
ATOM     15  O   UNL d   1      27.537 -11.325  -2.740  0.00  0.00    -0.272 OA
ATOM     16  N   UNL d   1      26.245 -12.879  -1.558  0.00  0.00    -0.326 N 
ATOM     17  H   UNL d   1      25.873 -13.219  -0.678  0.00  0.00     0.169 HD
BRANCH  16  18
ATOM     18  C   UNL d   1      26.251 -13.791  -2.620  0.00  0.00     0.037 C 
ATOM     19  C   UNL d   1      25.184 -14.261  -3.389  0.00  0.00     0.032 C 
ATOM     20  C   UNL d   1      25.530 -14.786  -4.672  0.00  0.00     0.042 C 
ATOM     21  C   UNL d   1      26.847 -15.200  -4.821  0.00  0.00     0.105 C 
ATOM     22  C   UNL d   1      27.525 -15.372  -3.671  0.00  0.00     0.107 C 
ATOM     23  O   UNL d   1      27.759 -15.429  -5.827  0.00  0.00    -0.323 OA
ATOM     24  C   UNL d   1      27.482 -14.313  -2.864  0.00  0.00     0.069 C 
ATOM     25  O   UNL d   1      28.655 -16.099  -3.754  0.00  0.00    -0.323 OA
ATOM     26  C   UNL d   1      29.001 -15.563  -5.015  0.00  0.00     0.352 C 
ENDBRANCH  16  18
ENDBRANCH  13  14
ENDBRANCH  12  13
ENDBRANCH   2  12
BRANCH   1  27
ATOM     27  C   UNL d   1      30.365 -13.357   0.829  0.00  0.00     0.130 C 
ATOM     28  C   UNL d   1      30.695 -12.686  -0.502  0.00  0.00     0.027 C 
ENDBRANCH   1  27
BRANCH   5  29
ATOM     29  C   UNL d   1      24.942 -17.262  -0.086  0.00  0.00    -0.022 C 
ATOM     30  C   UNL d   1      24.148 -16.172  -0.458  0.00  0.00     0.012 C 
ATOM     31  C   UNL d   1      22.842 -16.396  -0.895  0.00  0.00     0.001 C 
ATOM     32  C   UNL d   1      22.248 -17.643  -0.703  0.00  0.00     0.000 C 
ATOM     33  C   UNL d   1      22.984 -18.685  -0.145  0.00  0.00     0.001 C 
ATOM     34  C   UNL d   1      24.347 -18.513   0.094  0.00  0.00     0.012 C 
ENDBRANCH   5  29
TORSDOF 6
ENDMDL
MODEL 5
REMARK VINA RESULT:    -7.919      2.224      4.814
REMARK INTER + INTRA:         -12.576
REMARK INTER:                  -9.709
REMARK INTRA:                  -2.867
REMARK CONF_INDEPENDENT:        1.790
REMARK UNBOUND:                -2.867
REMARK  6 active torsions:
REMARK  status: ('A' for Active; 'I' for Inactive)
REMARK    1  A    between atoms: C_2  and  N_3 
REMARK    2  A    between atoms: C_4  and  S_5 
REMARK    3  A    between atoms: S_5  and  C_6 
REMARK    4  A    between atoms: C_6  and  C_7 
REMARK       I    between atoms: C_7  and  N_9 
REMARK    5  A    between atoms: N_9  and  C_10 
REMARK    6  A    between atoms: C_21  and  C_22 
ROOT
ATOM      1  N   UNL d   1      28.760 -15.722  -3.220  0.00  0.00    -0.291 N 
ATOM      2  C   UNL d   1      27.403 -15.575  -3.543  0.00  0.00     0.172 A 
ATOM      3  N   UNL d   1      26.416 -16.046  -2.814  0.00  0.00    -0.221 NA
ATOM      4  C   UNL d   1      26.784 -16.727  -1.639  0.00  0.00     0.104 A 
ATOM      5  C   UNL d   1      25.986 -17.347  -0.631  0.00  0.00     0.021 A 
ATOM      6  C   UNL d   1      26.871 -17.864   0.308  0.00  0.00     0.103 A 
ATOM      7  N   UNL d   1      28.148 -17.572  -0.108  0.00  0.00    -0.359 N 
ATOM      8  C   UNL d   1      28.082 -16.880  -1.286  0.00  0.00     0.131 A 
ATOM      9  C   UNL d   1      29.178 -16.393  -2.053  0.00  0.00     0.278 A 
ATOM     10  O   UNL d   1      30.323 -16.556  -1.726  0.00  0.00    -0.265 OA
ATOM     11  H   UNL d   1      29.005 -17.826   0.366  0.00  0.00     0.165 HD
ENDROOT
BRANCH   2  12
ATOM     12  S   UNL d   1      26.853 -14.722  -5.023  0.00  0.00    -0.082 SA
BRANCH  12  13
ATOM     13  C   UNL d   1      26.297 -13.014  -4.733  0.00  0.00     0.185 C 
BRANCH  13  14
ATOM     14  C   UNL d   1      26.216 -12.605  -3.292  0.00  0.00     0.231 C 
ATOM     15  O   UNL d   1      25.155 -12.611  -2.671  0.00  0.00    -0.272 OA
ATOM     16  N   UNL d   1      27.463 -12.220  -2.725  0.00  0.00    -0.326 N 
ATOM     17  H   UNL d   1      28.338 -12.210  -3.238  0.00  0.00     0.169 HD
BRANCH  16  18
ATOM     18  C   UNL d   1      27.566 -12.242  -1.329  0.00  0.00     0.037 C 
ATOM     19  C   UNL d   1      27.405 -11.201  -0.413  0.00  0.00     0.032 C 
ATOM     20  C   UNL d   1      27.093 -11.595   0.924  0.00  0.00     0.042 C 
ATOM     21  C   UNL d   1      27.437 -12.896   1.268  0.00  0.00     0.105 C 
ATOM     22  C   UNL d   1      28.309 -13.493   0.434  0.00  0.00     0.107 C 
ATOM     23  O   UNL d   1      27.096 -13.854   2.196  0.00  0.00    -0.323 OA
ATOM     24  C   UNL d   1      27.934 -13.457  -0.844  0.00  0.00     0.069 C 
ATOM     25  O   UNL d   1      28.930 -14.587   0.913  0.00  0.00    -0.323 OA
ATOM     26  C   UNL d   1      27.780 -15.035   1.602  0.00  0.00     0.352 C 
ENDBRANCH  16  18
ENDBRANCH  13  14
ENDBRANCH  12  13
ENDBRANCH   2  12
BRANCH   1  27
ATOM     27  C   UNL d   1      29.872 -15.302  -4.038  0.00  0.00     0.130 C 
ATOM     28  C   UNL d   1      30.102 -16.272  -5.194  0.00  0.00     0.027 C 
ENDBRANCH   1  27
BRANCH   5  29
ATOM     29  C   UNL d   1      24.550 -17.490  -0.519  0.00  0.00    -0.022 C 
ATOM     30  C   UNL d   1      23.701 -16.385  -0.632  0.00  0.00     0.012 C 
ATOM     31  C   UNL d   1      22.345 -16.588  -0.895  0.00  0.00     0.001 C 
ATOM     32  C   UNL d   1      21.796 -17.864  -0.773  0.00  0.00     0.000 C 
ATOM     33  C   UNL d   1      22.617 -18.946  -0.464  0.00  0.00     0.001 C 
ATOM     34  C   UNL d   1      23.998 -18.769  -0.410  0.00  0.00     0.012 C 
ENDBRANCH   5  29
TORSDOF 6
ENDMDL
MODEL 6
REMARK VINA RESULT:    -7.836      3.351      6.390
REMARK INTER + INTRA:         -12.560
REMARK INTER:                  -9.626
REMARK INTRA:                  -2.934
REMARK CONF_INDEPENDENT:        1.790
REMARK UNBOUND:                -2.934
REMARK  6 active torsions:
REMARK  status: ('A' for Active; 'I' for Inactive)
REMARK    1  A    between atoms: C_2  and  N_3 
REMARK    2  A    between atoms: C_4  and  S_5 
REMARK    3  A    between atoms: S_5  and  C_6 
REMARK    4  A    between atoms: C_6  and  C_7 
REMARK       I    between atoms: C_7  and  N_9 
REMARK    5  A    between atoms: N_9  and  C_10 
REMARK    6  A    between atoms: C_21  and  C_22 
ROOT
ATOM      1  N   UNL d   1      28.991 -14.467  -2.259  0.00  0.00    -0.291 N 
ATOM      2  C   UNL d   1      28.240 -13.296  -2.078  0.00  0.00     0.172 A 
ATOM      3  N   UNL d   1      27.926 -12.796  -0.904  0.00  0.00    -0.221 NA
ATOM      4  C   UNL d   1      28.400 -13.503   0.217  0.00  0.00     0.104 A 
ATOM      5  C   UNL d   1      28.255 -13.244   1.613  0.00  0.00     0.021 A 
ATOM      6  C   UNL d   1      28.930 -14.263   2.274  0.00  0.00     0.103 A 
ATOM      7  N   UNL d   1      29.463 -15.104   1.325  0.00  0.00    -0.359 N 
ATOM      8  C   UNL d   1      29.138 -14.630   0.084  0.00  0.00     0.131 A 
ATOM      9  C   UNL d   1      29.489 -15.208  -1.169  0.00  0.00     0.278 A 
ATOM     10  O   UNL d   1      30.132 -16.219  -1.260  0.00  0.00    -0.265 OA
ATOM     11  H   UNL d   1      30.003 -15.941   1.502  0.00  0.00     0.165 HD
ENDROOT
BRANCH   2  12
ATOM     12  S   UNL d   1      27.600 -12.340  -3.454  0.00  0.00    -0.082 SA
BRANCH  12  13
ATOM     13  C   UNL d   1      25.859 -12.688  -3.856  0.00  0.00     0.185 C 
BRANCH  13  14
ATOM     14  C   UNL d   1      25.351 -14.021  -3.390  0.00  0.00     0.231 C 
ATOM     15  O   UNL d   1      24.829 -14.824  -4.159  0.00  0.00    -0.272 OA
ATOM     16  N   UNL d   1      25.530 -14.259  -1.998  0.00  0.00    -0.326 N 
ATOM     17  H   UNL d   1      25.956 -13.593  -1.362  0.00  0.00     0.169 HD
BRANCH  16  18
ATOM     18  C   UNL d   1      25.492 -15.589  -1.567  0.00  0.00     0.037 C 
ATOM     19  C   UNL d   1      26.546 -16.477  -1.341  0.00  0.00     0.032 C 
ATOM     20  C   UNL d   1      26.259 -17.571  -0.468  0.00  0.00     0.042 C 
ATOM     21  C   UNL d   1      24.916 -17.895  -0.326  0.00  0.00     0.105 C 
ATOM     22  C   UNL d   1      24.103 -17.381  -1.267  0.00  0.00     0.107 C 
ATOM     23  O   UNL d   1      24.090 -18.547   0.562  0.00  0.00    -0.323 OA
ATOM     24  C   UNL d   1      24.227 -16.062  -1.415  0.00  0.00     0.069 C 
ATOM     25  O   UNL d   1      22.888 -17.949  -1.374  0.00  0.00    -0.323 OA
ATOM     26  C   UNL d   1      22.765 -18.134   0.022  0.00  0.00     0.352 C 
ENDBRANCH  16  18
ENDBRANCH  13  14
ENDBRANCH  12  13
ENDBRANCH   2  12
BRANCH   1  27
ATOM     27  C   UNL d   1      29.277 -15.098  -3.526  0.00  0.00     0.130 C 
ATOM     28  C   UNL d   1      27.995 -15.573  -4.205  0.00  0.00     0.027 C 
ENDBRANCH   1  27
BRANCH   5  29
ATOM     29  C   UNL d   1      27.553 -12.186   2.309  0.00  0.00    -0.022 C 
ATOM     30  C   UNL d   1      27.802 -11.917   3.659  0.00  0.00     0.012 C 
ATOM     31  C   UNL d   1      27.408 -10.689   4.194  0.00  0.00     0.001 C 
ATOM     32  C   UNL d   1      26.543  -9.863   3.478  0.00  0.00     0.000 C 
ATOM     33  C   UNL d   1      26.134 -10.228   2.199  0.00  0.00     0.001 C 
ATOM     34  C   UNL d   1      26.695 -11.350   1.590  0.00  0.00     0.012 C 
ENDBRANCH   5  29
TORSDOF 6
ENDMDL
MODEL 7
REMARK VINA RESULT:    -7.341      2.366      5.785
REMARK INTER + INTRA:         -12.549
REMARK INTER:                  -9.131
REMARK INTRA:                  -3.419
REMARK CONF_INDEPENDENT:        1.790
REMARK UNBOUND:                -3.419
REMARK  6 active torsions:
REMARK  status: ('A' for Active; 'I' for Inactive)
REMARK    1  A    between atoms: C_2  and  N_3 
REMARK    2  A    between atoms: C_4  and  S_5 
REMARK    3  A    between atoms: S_5  and  C_6 
REMARK    4  A    between atoms: C_6  and  C_7 
REMARK       I    between atoms: C_7  and  N_9 
REMARK    5  A    between atoms: N_9  and  C_10 
REMARK    6  A    between atoms: C_21  and  C_22 
ROOT
ATOM      1  N   UNL d   1      30.134 -17.227  -4.252  0.00  0.00    -0.291 N 
ATOM      2  C   UNL d   1      29.355 -16.064  -4.168  0.00  0.00     0.172 A 
ATOM      3  N   UNL d   1      29.073 -15.445  -3.043  0.00  0.00    -0.221 NA
ATOM      4  C   UNL d   1      29.612 -16.011  -1.873  0.00  0.00     0.104 A 
ATOM      5  C   UNL d   1      29.515 -15.603  -0.508  0.00  0.00     0.021 A 
ATOM      6  C   UNL d   1      30.246 -16.524   0.230  0.00  0.00     0.103 A 
ATOM      7  N   UNL d   1      30.767 -17.451  -0.642  0.00  0.00    -0.359 N 
ATOM      8  C   UNL d   1      30.378 -17.126  -1.913  0.00  0.00     0.131 A 
ATOM      9  C   UNL d   1      30.697 -17.830  -3.109  0.00  0.00     0.278 A 
ATOM     10  O   UNL d   1      31.367 -18.828  -3.117  0.00  0.00    -0.265 OA
ATOM     11  H   UNL d   1      31.338 -18.249  -0.399  0.00  0.00     0.165 HD
ENDROOT
BRANCH   2  12
ATOM     12  S   UNL d   1      28.632 -15.283  -5.612  0.00  0.00    -0.082 SA
BRANCH  12  13
ATOM     13  C   UNL d   1      27.261 -14.147  -5.235  0.00  0.00     0.185 C 
BRANCH  13  14
ATOM     14  C   UNL d   1      26.187 -14.714  -4.354  0.00  0.00     0.231 C 
ATOM     15  O   UNL d   1      25.155 -15.199  -4.812  0.00  0.00    -0.272 OA
ATOM     16  N   UNL d   1      26.476 -14.638  -2.962  0.00  0.00    -0.326 N 
ATOM     17  H   UNL d   1      27.326 -14.234  -2.583  0.00  0.00     0.169 HD
BRANCH  16  18
ATOM     18  C   UNL d   1      25.770 -15.499  -2.114  0.00  0.00     0.037 C 
ATOM     19  C   UNL d   1      24.393 -15.712  -2.016  0.00  0.00     0.032 C 
ATOM     20  C   UNL d   1      23.998 -16.955  -1.433  0.00  0.00     0.042 C 
ATOM     21  C   UNL d   1      24.947 -17.574  -0.630  0.00  0.00     0.105 C 
ATOM     22  C   UNL d   1      25.961 -16.784  -0.233  0.00  0.00     0.107 C 
ATOM     23  O   UNL d   1      25.242 -18.829  -0.145  0.00  0.00    -0.323 OA
ATOM     24  C   UNL d   1      26.572 -16.157  -1.237  0.00  0.00     0.069 C 
ATOM     25  O   UNL d   1      26.685 -17.231   0.810  0.00  0.00    -0.323 OA
ATOM     26  C   UNL d   1      26.610 -18.578   0.387  0.00  0.00     0.352 C 
ENDBRANCH  16  18
ENDBRANCH  13  14
ENDBRANCH  12  13
ENDBRANCH   2  12
BRANCH   1  27
ATOM     27  C   UNL d   1      30.388 -17.986  -5.453  0.00  0.00     0.130 C 
ATOM     28  C   UNL d   1      31.311 -17.225  -6.400  0.00  0.00     0.027 C 
ENDBRANCH   1  27
BRANCH   5  29
ATOM     29  C   UNL d   1      28.809 -14.493   0.097  0.00  0.00    -0.022 C 
ATOM     30  C   UNL d   1      28.508 -13.340  -0.635  0.00  0.00     0.012 C 
ATOM     31  C   UNL d   1      27.526 -12.468  -0.163  0.00  0.00     0.001 C 
ATOM     32  C   UNL d   1      27.051 -12.595   1.142  0.00  0.00     0.000 C 
ATOM     33  C   UNL d   1      27.502 -13.638   1.946  0.00  0.00     0.001 C 
ATOM     34  C   UNL d   1      28.322 -14.624   1.400  0.00  0.00     0.012 C 
ENDBRANCH   5  29
TORSDOF 6
ENDMDL
MODEL 8
REMARK VINA RESULT:    -7.246      2.443      6.016
REMARK INTER + INTRA:         -12.638
REMARK INTER:                  -9.036
REMARK INTRA:                  -3.601
REMARK CONF_INDEPENDENT:        1.790
REMARK UNBOUND:                -3.601
REMARK  6 active torsions:
REMARK  status: ('A' for Active; 'I' for Inactive)
REMARK    1  A    between atoms: C_2  and  N_3 
REMARK    2  A    between atoms: C_4  and  S_5 
REMARK    3  A    between atoms: S_5  and  C_6 
REMARK    4  A    between atoms: C_6  and  C_7 
REMARK       I    between atoms: C_7  and  N_9 
REMARK    5  A    between atoms: N_9  and  C_10 
REMARK    6  A    between atoms: C_21  and  C_22 
ROOT
ATOM      1  N   UNL d   1      28.117 -15.236   0.062  0.00  0.00    -0.291 N 
ATOM      2  C   UNL d   1      27.948 -16.499  -0.525  0.00  0.00     0.172 A 
ATOM      3  N   UNL d   1      28.482 -16.856  -1.672  0.00  0.00    -0.221 NA
ATOM      4  C   UNL d   1      29.273 -15.887  -2.316  0.00  0.00     0.104 A 
ATOM      5  C   UNL d   1      29.995 -15.937  -3.546  0.00  0.00     0.021 A 
ATOM      6  C   UNL d   1      30.607 -14.700  -3.694  0.00  0.00     0.103 A 
ATOM      7  N   UNL d   1      30.275 -13.929  -2.605  0.00  0.00    -0.359 N 
ATOM      8  C   UNL d   1      29.470 -14.661  -1.776  0.00  0.00     0.131 A 
ATOM      9  C   UNL d   1      28.902 -14.234  -0.542  0.00  0.00     0.278 A 
ATOM     10  O   UNL d   1      29.079 -13.133  -0.092  0.00  0.00    -0.265 OA
ATOM     11  H   UNL d   1      30.566 -12.975  -2.435  0.00  0.00     0.165 HD
ENDROOT
BRANCH   2  12
ATOM     12  S   UNL d   1      26.955 -17.787   0.231  0.00  0.00    -0.082 SA
BRANCH  12  13
ATOM     13  C   UNL d   1      25.169 -17.626  -0.077  0.00  0.00     0.185 C 
BRANCH  13  14
ATOM     14  C   UNL d   1      24.794 -16.667  -1.168  0.00  0.00     0.231 C 
ATOM     15  O   UNL d   1      23.798 -15.950  -1.092  0.00  0.00    -0.272 OA
ATOM     16  N   UNL d   1      25.685 -16.669  -2.277  0.00  0.00    -0.326 N 
ATOM     17  H   UNL d   1      26.503 -17.265  -2.342  0.00  0.00     0.169 HD
BRANCH  16  18
ATOM     18  C   UNL d   1      25.670 -15.547  -3.113  0.00  0.00     0.037 C 
ATOM     19  C   UNL d   1      24.776 -14.474  -3.138  0.00  0.00     0.032 C 
ATOM     20  C   UNL d   1      25.264 -13.275  -3.741  0.00  0.00     0.042 C 
ATOM     21  C   UNL d   1      26.329 -13.429  -4.620  0.00  0.00     0.105 C 
ATOM     22  C   UNL d   1      26.537 -14.688  -5.047  0.00  0.00     0.107 C 
ATOM     23  O   UNL d   1      27.346 -12.680  -5.165  0.00  0.00    -0.323 OA
ATOM     24  C   UNL d   1      26.646 -15.575  -4.058  0.00  0.00     0.069 C 
ATOM     25  O   UNL d   1      27.303 -14.821  -6.145  0.00  0.00    -0.323 OA
ATOM     26  C   UNL d   1      28.166 -13.768  -5.767  0.00  0.00     0.352 C 
ENDBRANCH  16  18
ENDBRANCH  13  14
ENDBRANCH  12  13
ENDBRANCH   2  12
BRANCH   1  27
ATOM     27  C   UNL d   1      27.475 -14.775   1.269  0.00  0.00     0.130 C 
ATOM     28  C   UNL d   1      26.443 -13.692   0.965  0.00  0.00     0.027 C 
ENDBRANCH   1  27
BRANCH   5  29
ATOM     29  C   UNL d   1      30.115 -16.996  -4.527  0.00  0.00    -0.022 C 
ATOM     30  C   UNL d   1      30.057 -16.724  -5.897  0.00  0.00     0.012 C 
ATOM     31  C   UNL d   1      30.539 -17.671  -6.802  0.00  0.00     0.001 C 
ATOM     32  C   UNL d   1      30.816 -18.968  -6.372  0.00  0.00     0.000 C 
ATOM     33  C   UNL d   1      30.684 -19.296  -5.025  0.00  0.00     0.001 C 
ATOM     34  C   UNL d   1      30.405 -18.294  -4.097  0.00  0.00     0.012 C 
ENDBRANCH   5  29
TORSDOF 6
ENDMDL
MODEL 9
REMARK VINA RESULT:    -7.173      2.504      5.810
REMARK INTER + INTRA:         -12.699
REMARK INTER:                  -8.963
REMARK INTRA:                  -3.736
REMARK CONF_INDEPENDENT:        1.790
REMARK UNBOUND:                -3.736
REMARK  6 active torsions:
REMARK  status: ('A' for Active; 'I' for Inactive)
REMARK    1  A    between atoms: C_2  and  N_3 
REMARK    2  A    between atoms: C_4  and  S_5 
REMARK    3  A    between atoms: S_5  and  C_6 
REMARK    4  A    between atoms: C_6  and  C_7 
REMARK       I    between atoms: C_7  and  N_9 
REMARK    5  A    between atoms: N_9  and  C_10 
REMARK    6  A    between atoms: C_21  and  C_22 
ROOT
ATOM      1  N   UNL d   1      28.290 -14.459  -5.416  0.00  0.00    -0.291 N 
ATOM      2  C   UNL d   1      28.378 -15.576  -4.572  0.00  0.00     0.172 A 
ATOM      3  N   UNL d   1      27.458 -15.912  -3.696  0.00  0.00    -0.221 NA
ATOM      4  C   UNL d   1      26.325 -15.080  -3.636  0.00  0.00     0.104 A 
ATOM      5  C   UNL d   1      25.155 -15.152  -2.822  0.00  0.00     0.021 A 
ATOM      6  C   UNL d   1      24.356 -14.075  -3.185  0.00  0.00     0.103 A 
ATOM      7  N   UNL d   1      25.008 -13.378  -4.175  0.00  0.00    -0.359 N 
ATOM      8  C   UNL d   1      26.197 -13.998  -4.441  0.00  0.00     0.131 A 
ATOM      9  C   UNL d   1      27.175 -13.597  -5.395  0.00  0.00     0.278 A 
ATOM     10  O   UNL d   1      27.045 -12.623  -6.088  0.00  0.00    -0.265 OA
ATOM     11  H   UNL d   1      24.678 -12.539  -4.634  0.00  0.00     0.165 HD
ENDROOT
BRANCH   2  12
ATOM     12  S   UNL d   1      29.788 -16.684  -4.587  0.00  0.00    -0.082 SA
BRANCH  12  13
ATOM     13  C   UNL d   1      31.061 -16.284  -3.350  0.00  0.00     0.185 C 
BRANCH  13  14
ATOM     14  C   UNL d   1      30.537 -15.859  -2.010  0.00  0.00     0.231 C 
ATOM     15  O   UNL d   1      31.177 -15.120  -1.264  0.00  0.00    -0.272 OA
ATOM     16  N   UNL d   1      29.252 -16.383  -1.694  0.00  0.00    -0.326 N 
ATOM     17  H   UNL d   1      28.727 -16.997  -2.307  0.00  0.00     0.169 HD
BRANCH  16  18
ATOM     18  C   UNL d   1      28.518 -15.722  -0.703  0.00  0.00     0.037 C 
ATOM     19  C   UNL d   1      28.068 -16.197   0.531  0.00  0.00     0.032 C 
ATOM     20  C   UNL d   1      27.780 -15.198   1.511  0.00  0.00     0.042 C 
ATOM     21  C   UNL d   1      27.524 -13.924   1.020  0.00  0.00     0.105 C 
ATOM     22  C   UNL d   1      27.246 -13.866  -0.295  0.00  0.00     0.107 C 
ATOM     23  O   UNL d   1      27.541 -12.618   1.455  0.00  0.00    -0.323 OA
ATOM     24  C   UNL d   1      28.161 -14.460  -1.060  0.00  0.00     0.069 C 
ATOM     25  O   UNL d   1      26.653 -12.736  -0.724  0.00  0.00    -0.323 OA
ATOM     26  C   UNL d   1      27.406 -11.917   0.148  0.00  0.00     0.352 C 
ENDBRANCH  16  18
ENDBRANCH  13  14
ENDBRANCH  12  13
ENDBRANCH   2  12
BRANCH   1  27
ATOM     27  C   UNL d   1      29.316 -14.004  -6.323  0.00  0.00     0.130 C 
ATOM     28  C   UNL d   1      30.535 -13.491  -5.562  0.00  0.00     0.027 C 
ENDBRANCH   1  27
BRANCH   5  29
ATOM     29  C   UNL d   1      24.783 -16.093  -1.786  0.00  0.00    -0.022 C 
ATOM     30  C   UNL d   1      23.491 -16.109  -1.251  0.00  0.00     0.012 C 
ATOM     31  C   UNL d   1      23.056 -17.234  -0.550  0.00  0.00     0.001 C 
ATOM     32  C   UNL d   1      23.975 -18.204  -0.151  0.00  0.00     0.000 C 
ATOM     33  C   UNL d   1      25.313 -18.086  -0.519  0.00  0.00     0.001 C 
ATOM     34  C   UNL d   1      25.699 -17.072  -1.394  0.00  0.00     0.012 C 
ENDBRANCH   5  29
TORSDOF 6
ENDMDL
