MODEL 1
REMARK VINA RESULT:    -8.656      0.000      0.000
REMARK INTER + INTRA:         -11.407
REMARK INTER:                 -10.446
REMARK INTRA:                  -0.962
REMARK CONF_INDEPENDENT:        1.790
REMARK UNBOUND:                -0.962
REMARK  6 active torsions:
REMARK  status: ('A' for Active; 'I' for Inactive)
REMARK    1  A    between atoms: O_2  and  C_3 
REMARK    2  A    between atoms: C_3  and  C_5 
REMARK    3  A    between atoms: C_8  and  C_9 
REMARK    4  A    between atoms: C_12  and  C_13 
REMARK       I    between atoms: C_13  and  N_15 
REMARK    5  A    between atoms: N_15  and  C_16 
REMARK    6  A    between atoms: C_20  and  N_21 
REMARK       I    between atoms: N_21  and  C_22 
REMARK       I    between atoms: C_22  and  N_23 
ROOT
ATOM      1  C   UNL d   1      29.669 -14.919   0.287  0.00  0.00     0.256 C 
ATOM      2  O   UNL d   1      29.948 -13.948  -0.417  0.00  0.00    -0.267 OA
ATOM      3  N   UNL d   1      30.543 -15.502   1.217  0.00  0.00    -0.323 N 
ATOM      4  H   UNL d   1      30.276 -16.328   1.729  0.00  0.00     0.169 HD
ENDROOT
BRANCH   1   5
ATOM      5  C   UNL d   1      28.305 -15.501   0.105  0.00  0.00     0.032 A 
ATOM      6  C   UNL d   1      28.189 -16.894  -0.057  0.00  0.00     0.018 A 
ATOM      7  C   UNL d   1      26.948 -17.486  -0.329  0.00  0.00     0.013 A 
ATOM      8  C   UNL d   1      25.776 -16.716  -0.361  0.00  0.00    -0.026 A 
ATOM      9  C   UNL d   1      25.900 -15.331  -0.181  0.00  0.00     0.013 A 
ATOM     10  C   UNL d   1      27.146 -14.729   0.047  0.00  0.00     0.018 A 
BRANCH   8  11
ATOM     11  C   UNL d   1      24.458 -17.354  -0.528  0.00  0.00    -0.026 A 
ATOM     12  C   UNL d   1      23.327 -16.572  -0.819  0.00  0.00     0.013 A 
ATOM     13  C   UNL d   1      22.048 -17.141  -0.887  0.00  0.00     0.018 A 
ATOM     14  C   UNL d   1      21.885 -18.523  -0.746  0.00  0.00     0.039 A 
ATOM     15  C   UNL d   1      23.005 -19.323  -0.502  0.00  0.00     0.018 A 
ATOM     16  C   UNL d   1      24.280 -18.741  -0.399  0.00  0.00     0.013 A 
BRANCH  14  17
ATOM     17  C   UNL d   1      20.546 -19.116  -1.013  0.00  0.00     0.292 C 
ATOM     18  O   UNL d   1      20.291 -19.714  -2.038  0.00  0.00    -0.259 OA
BRANCH  17  19
ATOM     19  O   UNL d   1      19.685 -18.885   0.016  0.00  0.00    -0.323 OA
ATOM     20  C   UNL d   1      19.827 -19.813   1.102  0.00  0.00     0.213 C 
ENDBRANCH  17  19
ENDBRANCH  14  17
ENDBRANCH   8  11
ENDBRANCH   1   5
BRANCH   3  21
ATOM     21  C   UNL d   1      31.805 -14.950   1.564  0.00  0.00     0.037 A 
ATOM     22  C   UNL d   1      32.982 -15.671   1.607  0.00  0.00     0.029 A 
ATOM     23  C   UNL d   1      34.160 -15.028   2.036  0.00  0.00     0.004 A 
ATOM     24  C   UNL d   1      34.154 -13.676   2.450  0.00  0.00     0.029 A 
ATOM     25  C   UNL d   1      32.954 -12.965   2.451  0.00  0.00     0.038 A 
ATOM     26  C   UNL d   1      31.853 -13.625   1.947  0.00  0.00     0.059 A 
BRANCH  25  27
ATOM     27  N   UNL d   1      32.845 -11.645   2.947  0.00  0.00    -0.309 N 
ATOM     28  C   UNL d   1      33.015 -11.095   4.186  0.00  0.00     0.318 C 
ATOM     29  N   UNL d   1      33.346 -11.820   5.273  0.00  0.00    -0.352 N 
ATOM     30  O   UNL d   1      32.851  -9.885   4.344  0.00  0.00    -0.247 OA
ATOM     31  H   UNL d   1      33.727 -12.743   5.330  0.00  0.00     0.160 HD
ATOM     32  H   UNL d   1      33.422 -11.338   6.154  0.00  0.00     0.160 HD
ATOM     33  H   UNL d   1      32.614 -10.927   2.269  0.00  0.00     0.170 HD
ENDBRANCH  25  27
ENDBRANCH   3  21
TORSDOF 6
ENDMDL
MODEL 2
REMARK VINA RESULT:    -7.917      2.180      2.931
REMARK INTER + INTRA:         -10.568
REMARK INTER:                  -9.707
REMARK INTRA:                  -0.861
REMARK CONF_INDEPENDENT:        1.790
REMARK UNBOUND:                -0.861
REMARK  6 active torsions:
REMARK  status: ('A' for Active; 'I' for Inactive)
REMARK    1  A    between atoms: O_2  and  C_3 
REMARK    2  A    between atoms: C_3  and  C_5 
REMARK    3  A    between atoms: C_8  and  C_9 
REMARK    4  A    between atoms: C_12  and  C_13 
REMARK       I    between atoms: C_13  and  N_15 
REMARK    5  A    between atoms: N_15  and  C_16 
REMARK    6  A    between atoms: C_20  and  N_21 
REMARK       I    between atoms: N_21  and  C_22 
REMARK       I    between atoms: C_22  and  N_23 
ROOT
ATOM      1  C   UNL d   1      29.641 -14.974  -0.018  0.00  0.00     0.256 C 
ATOM      2  O   UNL d   1      29.924 -14.039  -0.767  0.00  0.00    -0.267 OA
ATOM      3  N   UNL d   1      30.528 -15.548   0.906  0.00  0.00    -0.323 N 
ATOM      4  H   UNL d   1      30.254 -16.347   1.456  0.00  0.00     0.169 HD
ENDROOT
BRANCH   1   5
ATOM      5  C   UNL d   1      28.255 -15.523  -0.135  0.00  0.00     0.032 A 
ATOM      6  C   UNL d   1      28.051 -16.887   0.143  0.00  0.00     0.018 A 
ATOM      7  C   UNL d   1      26.795 -17.478  -0.045  0.00  0.00     0.013 A 
ATOM      8  C   UNL d   1      25.688 -16.709  -0.431  0.00  0.00    -0.026 A 
ATOM      9  C   UNL d   1      25.898 -15.347  -0.691  0.00  0.00     0.013 A 
ATOM     10  C   UNL d   1      27.164 -14.760  -0.548  0.00  0.00     0.018 A 
BRANCH   8  11
ATOM     11  C   UNL d   1      24.343 -17.307  -0.513  0.00  0.00    -0.026 A 
ATOM     12  C   UNL d   1      24.176 -18.693  -0.351  0.00  0.00     0.013 A 
ATOM     13  C   UNL d   1      22.923 -19.298  -0.519  0.00  0.00     0.018 A 
ATOM     14  C   UNL d   1      21.792 -18.514  -0.776  0.00  0.00     0.039 A 
ATOM     15  C   UNL d   1      21.933 -17.129  -0.895  0.00  0.00     0.018 A 
ATOM     16  C   UNL d   1      23.197 -16.533  -0.760  0.00  0.00     0.013 A 
BRANCH  14  17
ATOM     17  C   UNL d   1      20.454 -19.165  -0.759  0.00  0.00     0.292 C 
ATOM     18  O   UNL d   1      19.977 -19.700  -1.739  0.00  0.00    -0.259 OA
BRANCH  17  19
ATOM     19  O   UNL d   1      19.867 -19.065   0.465  0.00  0.00    -0.323 OA
ATOM     20  C   UNL d   1      19.929 -20.276   1.233  0.00  0.00     0.213 C 
ENDBRANCH  17  19
ENDBRANCH  14  17
ENDBRANCH   8  11
ENDBRANCH   1   5
BRANCH   3  21
ATOM     21  C   UNL d   1      31.814 -15.021   1.192  0.00  0.00     0.037 A 
ATOM     22  C   UNL d   1      32.354 -13.912   0.569  0.00  0.00     0.029 A 
ATOM     23  C   UNL d   1      33.672 -13.525   0.887  0.00  0.00     0.004 A 
ATOM     24  C   UNL d   1      34.457 -14.265   1.800  0.00  0.00     0.029 A 
ATOM     25  C   UNL d   1      33.926 -15.412   2.391  0.00  0.00     0.038 A 
ATOM     26  C   UNL d   1      32.607 -15.693   2.100  0.00  0.00     0.059 A 
BRANCH  25  27
ATOM     27  N   UNL d   1      34.681 -16.262   3.232  0.00  0.00    -0.309 N 
ATOM     28  C   UNL d   1      35.208 -17.512   3.068  0.00  0.00     0.318 C 
ATOM     29  N   UNL d   1      35.064 -18.227   1.935  0.00  0.00    -0.352 N 
ATOM     30  O   UNL d   1      35.837 -18.033   3.989  0.00  0.00    -0.247 OA
ATOM     31  H   UNL d   1      34.791 -17.924   1.022  0.00  0.00     0.160 HD
ATOM     32  H   UNL d   1      35.461 -19.153   1.911  0.00  0.00     0.160 HD
ATOM     33  H   UNL d   1      34.916 -15.895   4.147  0.00  0.00     0.170 HD
ENDBRANCH  25  27
ENDBRANCH   3  21
TORSDOF 6
ENDMDL
MODEL 3
REMARK VINA RESULT:    -7.833      5.345      7.027
REMARK INTER + INTRA:         -10.491
REMARK INTER:                  -9.622
REMARK INTRA:                  -0.869
REMARK CONF_INDEPENDENT:        1.790
REMARK UNBOUND:                -0.869
REMARK  6 active torsions:
REMARK  status: ('A' for Active; 'I' for Inactive)
REMARK    1  A    between atoms: O_2  and  C_3 
REMARK    2  A    between atoms: C_3  and  C_5 
REMARK    3  A    between atoms: C_8  and  C_9 
REMARK    4  A    between atoms: C_12  and  C_13 
REMARK       I    between atoms: C_13  and  N_15 
REMARK    5  A    between atoms: N_15  and  C_16 
REMARK    6  A    between atoms: C_20  and  N_21 
REMARK       I    between atoms: N_21  and  C_22 
REMARK       I    between atoms: C_22  and  N_23 
ROOT
ATOM      1  C   UNL d   1      27.956 -12.562   5.191  0.00  0.00     0.256 C 
ATOM      2  O   UNL d   1      27.696 -11.389   5.458  0.00  0.00    -0.267 OA
ATOM      3  N   UNL d   1      28.471 -13.491   6.108  0.00  0.00    -0.323 N 
ATOM      4  H   UNL d   1      28.713 -14.425   5.817  0.00  0.00     0.169 HD
ENDROOT
BRANCH   1   5
ATOM      5  C   UNL d   1      27.707 -12.993   3.781  0.00  0.00     0.032 A 
ATOM      6  C   UNL d   1      27.033 -12.107   2.920  0.00  0.00     0.018 A 
ATOM      7  C   UNL d   1      26.685 -12.494   1.619  0.00  0.00     0.013 A 
ATOM      8  C   UNL d   1      27.076 -13.741   1.111  0.00  0.00    -0.026 A 
ATOM      9  C   UNL d   1      27.762 -14.611   1.971  0.00  0.00     0.013 A 
ATOM     10  C   UNL d   1      28.073 -14.245   3.289  0.00  0.00     0.018 A 
BRANCH   8  11
ATOM     11  C   UNL d   1      26.815 -14.100  -0.295  0.00  0.00    -0.026 A 
ATOM     12  C   UNL d   1      26.659 -13.094  -1.263  0.00  0.00     0.013 A 
ATOM     13  C   UNL d   1      26.314 -13.405  -2.585  0.00  0.00     0.018 A 
ATOM     14  C   UNL d   1      26.197 -14.741  -2.986  0.00  0.00     0.039 A 
ATOM     15  C   UNL d   1      26.394 -15.756  -2.046  0.00  0.00     0.018 A 
ATOM     16  C   UNL d   1      26.704 -15.436  -0.714  0.00  0.00     0.013 A 
BRANCH  14  17
ATOM     17  C   UNL d   1      26.020 -15.039  -4.433  0.00  0.00     0.292 C 
ATOM     18  O   UNL d   1      24.979 -14.825  -5.020  0.00  0.00    -0.259 OA
BRANCH  17  19
ATOM     19  O   UNL d   1      27.150 -15.575  -4.973  0.00  0.00    -0.323 OA
ATOM     20  C   UNL d   1      27.869 -14.666  -5.819  0.00  0.00     0.213 C 
ENDBRANCH  17  19
ENDBRANCH  14  17
ENDBRANCH   8  11
ENDBRANCH   1   5
BRANCH   3  21
ATOM     21  C   UNL d   1      28.616 -13.226   7.496  0.00  0.00     0.037 A 
ATOM     22  C   UNL d   1      28.545 -11.966   8.057  0.00  0.00     0.029 A 
ATOM     23  C   UNL d   1      28.777 -11.820   9.439  0.00  0.00     0.004 A 
ATOM     24  C   UNL d   1      29.111 -12.929  10.251  0.00  0.00     0.029 A 
ATOM     25  C   UNL d   1      29.230 -14.193   9.672  0.00  0.00     0.038 A 
ATOM     26  C   UNL d   1      28.914 -14.282   8.333  0.00  0.00     0.059 A 
BRANCH  25  27
ATOM     27  N   UNL d   1      29.661 -15.330  10.394  0.00  0.00    -0.309 N 
ATOM     28  C   UNL d   1      30.829 -16.039  10.413  0.00  0.00     0.318 C 
ATOM     29  N   UNL d   1      31.887 -15.731   9.636  0.00  0.00    -0.352 N 
ATOM     30  O   UNL d   1      30.938 -17.015  11.155  0.00  0.00    -0.247 OA
ATOM     31  H   UNL d   1      32.089 -14.886   9.141  0.00  0.00     0.160 HD
ATOM     32  H   UNL d   1      32.698 -16.326   9.691  0.00  0.00     0.160 HD
ATOM     33  H   UNL d   1      29.002 -15.715  11.061  0.00  0.00     0.170 HD
ENDBRANCH  25  27
ENDBRANCH   3  21
TORSDOF 6
ENDMDL
MODEL 4
REMARK VINA RESULT:    -7.764      1.830      2.140
REMARK INTER + INTRA:         -11.067
REMARK INTER:                  -9.554
REMARK INTRA:                  -1.513
REMARK CONF_INDEPENDENT:        1.790
REMARK UNBOUND:                -1.513
REMARK  6 active torsions:
REMARK  status: ('A' for Active; 'I' for Inactive)
REMARK    1  A    between atoms: O_2  and  C_3 
REMARK    2  A    between atoms: C_3  and  C_5 
REMARK    3  A    between atoms: C_8  and  C_9 
REMARK    4  A    between atoms: C_12  and  C_13 
REMARK       I    between atoms: C_13  and  N_15 
REMARK    5  A    between atoms: N_15  and  C_16 
REMARK    6  A    between atoms: C_20  and  N_21 
REMARK       I    between atoms: N_21  and  C_22 
REMARK       I    between atoms: C_22  and  N_23 
ROOT
ATOM      1  C   UNL d   1      29.569 -14.763   0.208  0.00  0.00     0.256 C 
ATOM      2  O   UNL d   1      29.797 -13.746  -0.448  0.00  0.00    -0.267 OA
ATOM      3  N   UNL d   1      30.490 -15.371   1.076  0.00  0.00    -0.323 N 
ATOM      4  H   UNL d   1      30.263 -16.232   1.547  0.00  0.00     0.169 HD
ENDROOT
BRANCH   1   5
ATOM      5  C   UNL d   1      28.217 -15.376   0.035  0.00  0.00     0.032 A 
ATOM      6  C   UNL d   1      28.120 -16.779  -0.014  0.00  0.00     0.018 A 
ATOM      7  C   UNL d   1      26.894 -17.407  -0.273  0.00  0.00     0.013 A 
ATOM      8  C   UNL d   1      25.716 -16.657  -0.402  0.00  0.00    -0.026 A 
ATOM      9  C   UNL d   1      25.820 -15.260  -0.335  0.00  0.00     0.013 A 
ATOM     10  C   UNL d   1      27.052 -14.626  -0.122  0.00  0.00     0.018 A 
BRANCH   8  11
ATOM     11  C   UNL d   1      24.410 -17.323  -0.555  0.00  0.00    -0.026 A 
ATOM     12  C   UNL d   1      23.260 -16.566  -0.838  0.00  0.00     0.013 A 
ATOM     13  C   UNL d   1      21.993 -17.162  -0.892  0.00  0.00     0.018 A 
ATOM     14  C   UNL d   1      21.861 -18.548  -0.743  0.00  0.00     0.039 A 
ATOM     15  C   UNL d   1      23.000 -19.322  -0.507  0.00  0.00     0.018 A 
ATOM     16  C   UNL d   1      24.262 -18.714  -0.418  0.00  0.00     0.013 A 
BRANCH  14  17
ATOM     17  C   UNL d   1      20.532 -19.169  -0.996  0.00  0.00     0.292 C 
ATOM     18  O   UNL d   1      20.256 -19.713  -2.045  0.00  0.00    -0.259 OA
BRANCH  17  19
ATOM     19  O   UNL d   1      19.706 -19.032   0.078  0.00  0.00    -0.323 OA
ATOM     20  C   UNL d   1      19.905 -20.034   1.086  0.00  0.00     0.213 C 
ENDBRANCH  17  19
ENDBRANCH  14  17
ENDBRANCH   8  11
ENDBRANCH   1   5
BRANCH   3  21
ATOM     21  C   UNL d   1      31.745 -14.801   1.414  0.00  0.00     0.037 A 
ATOM     22  C   UNL d   1      32.424 -15.062   2.588  0.00  0.00     0.029 A 
ATOM     23  C   UNL d   1      33.630 -14.380   2.845  0.00  0.00     0.004 A 
ATOM     24  C   UNL d   1      34.137 -13.415   1.944  0.00  0.00     0.029 A 
ATOM     25  C   UNL d   1      33.424 -13.118   0.783  0.00  0.00     0.038 A 
ATOM     26  C   UNL d   1      32.294 -13.875   0.551  0.00  0.00     0.059 A 
BRANCH  25  27
ATOM     27  N   UNL d   1      33.809 -12.095  -0.114  0.00  0.00    -0.309 N 
ATOM     28  C   UNL d   1      33.147 -11.414  -1.096  0.00  0.00     0.318 C 
ATOM     29  N   UNL d   1      31.858 -11.650  -1.412  0.00  0.00    -0.352 N 
ATOM     30  O   UNL d   1      33.738 -10.550  -1.745  0.00  0.00    -0.247 OA
ATOM     31  H   UNL d   1      31.153 -12.132  -0.892  0.00  0.00     0.160 HD
ATOM     32  H   UNL d   1      31.457 -11.123  -2.171  0.00  0.00     0.160 HD
ATOM     33  H   UNL d   1      34.760 -11.755  -0.027  0.00  0.00     0.170 HD
ENDBRANCH  25  27
ENDBRANCH   3  21
TORSDOF 6
ENDMDL
MODEL 5
REMARK VINA RESULT:    -7.620      4.937      6.719
REMARK INTER + INTRA:         -10.314
REMARK INTER:                  -9.410
REMARK INTRA:                  -0.904
REMARK CONF_INDEPENDENT:        1.790
REMARK UNBOUND:                -0.904
REMARK  6 active torsions:
REMARK  status: ('A' for Active; 'I' for Inactive)
REMARK    1  A    between atoms: O_2  and  C_3 
REMARK    2  A    between atoms: C_3  and  C_5 
REMARK    3  A    between atoms: C_8  and  C_9 
REMARK    4  A    between atoms: C_12  and  C_13 
REMARK       I    between atoms: C_13  and  N_15 
REMARK    5  A    between atoms: N_15  and  C_16 
REMARK    6  A    between atoms: C_20  and  N_21 
REMARK       I    between atoms: N_21  and  C_22 
REMARK       I    between atoms: C_22  and  N_23 
ROOT
ATOM      1  C   UNL d   1      28.216 -13.073   5.480  0.00  0.00     0.256 C 
ATOM      2  O   UNL d   1      27.553 -12.172   5.994  0.00  0.00    -0.267 OA
ATOM      3  N   UNL d   1      29.218 -13.799   6.142  0.00  0.00    -0.323 N 
ATOM      4  H   UNL d   1      29.763 -14.492   5.653  0.00  0.00     0.169 HD
ENDROOT
BRANCH   1   5
ATOM      5  C   UNL d   1      27.918 -13.383   4.048  0.00  0.00     0.032 A 
ATOM      6  C   UNL d   1      27.351 -12.372   3.250  0.00  0.00     0.018 A 
ATOM      7  C   UNL d   1      26.960 -12.633   1.930  0.00  0.00     0.013 A 
ATOM      8  C   UNL d   1      27.203 -13.883   1.342  0.00  0.00    -0.026 A 
ATOM      9  C   UNL d   1      27.783 -14.879   2.141  0.00  0.00     0.013 A 
ATOM     10  C   UNL d   1      28.135 -14.636   3.477  0.00  0.00     0.018 A 
BRANCH   8  11
ATOM     11  C   UNL d   1      26.900 -14.120  -0.081  0.00  0.00    -0.026 A 
ATOM     12  C   UNL d   1      26.487 -15.392  -0.513  0.00  0.00     0.013 A 
ATOM     13  C   UNL d   1      26.287 -15.669  -1.872  0.00  0.00     0.018 A 
ATOM     14  C   UNL d   1      26.419 -14.651  -2.823  0.00  0.00     0.039 A 
ATOM     15  C   UNL d   1      26.784 -13.368  -2.407  0.00  0.00     0.018 A 
ATOM     16  C   UNL d   1      27.018 -13.107  -1.046  0.00  0.00     0.013 A 
BRANCH  14  17
ATOM     17  C   UNL d   1      26.015 -14.930  -4.228  0.00  0.00     0.292 C 
ATOM     18  O   UNL d   1      24.929 -14.614  -4.669  0.00  0.00    -0.259 OA
BRANCH  17  19
ATOM     19  O   UNL d   1      27.001 -15.575  -4.911  0.00  0.00    -0.323 OA
ATOM     20  C   UNL d   1      27.749 -14.718  -5.786  0.00  0.00     0.213 C 
ENDBRANCH  17  19
ENDBRANCH  14  17
ENDBRANCH   8  11
ENDBRANCH   1   5
BRANCH   3  21
ATOM     21  C   UNL d   1      29.487 -13.679   7.531  0.00  0.00     0.037 A 
ATOM     22  C   UNL d   1      28.542 -13.332   8.477  0.00  0.00     0.029 A 
ATOM     23  C   UNL d   1      28.945 -13.175   9.818  0.00  0.00     0.004 A 
ATOM     24  C   UNL d   1      30.296 -13.334  10.206  0.00  0.00     0.029 A 
ATOM     25  C   UNL d   1      31.255 -13.637   9.240  0.00  0.00     0.038 A 
ATOM     26  C   UNL d   1      30.786 -13.855   7.961  0.00  0.00     0.059 A 
BRANCH  25  27
ATOM     27  N   UNL d   1      32.638 -13.709   9.528  0.00  0.00    -0.309 N 
ATOM     28  C   UNL d   1      33.448 -14.712   9.981  0.00  0.00     0.318 C 
ATOM     29  N   UNL d   1      32.994 -15.948  10.271  0.00  0.00    -0.352 N 
ATOM     30  O   UNL d   1      34.648 -14.497  10.151  0.00  0.00    -0.247 OA
ATOM     31  H   UNL d   1      32.134 -16.388  10.010  0.00  0.00     0.160 HD
ATOM     32  H   UNL d   1      33.655 -16.619  10.628  0.00  0.00     0.160 HD
ATOM     33  H   UNL d   1      33.178 -12.868   9.356  0.00  0.00     0.170 HD
ENDBRANCH  25  27
ENDBRANCH   3  21
TORSDOF 6
ENDMDL
MODEL 6
REMARK VINA RESULT:    -7.608      1.998      2.789
REMARK INTER + INTRA:         -10.232
REMARK INTER:                  -9.397
REMARK INTRA:                  -0.835
REMARK CONF_INDEPENDENT:        1.790
REMARK UNBOUND:                -0.835
REMARK  6 active torsions:
REMARK  status: ('A' for Active; 'I' for Inactive)
REMARK    1  A    between atoms: O_2  and  C_3 
REMARK    2  A    between atoms: C_3  and  C_5 
REMARK    3  A    between atoms: C_8  and  C_9 
REMARK    4  A    between atoms: C_12  and  C_13 
REMARK       I    between atoms: C_13  and  N_15 
REMARK    5  A    between atoms: N_15  and  C_16 
REMARK    6  A    between atoms: C_20  and  N_21 
REMARK       I    between atoms: N_21  and  C_22 
REMARK       I    between atoms: C_22  and  N_23 
ROOT
ATOM      1  C   UNL d   1      28.171 -16.509  -1.293  0.00  0.00     0.256 C 
ATOM      2  O   UNL d   1      28.342 -15.607  -2.113  0.00  0.00    -0.267 OA
ATOM      3  N   UNL d   1      29.198 -17.114  -0.552  0.00  0.00    -0.323 N 
ATOM      4  H   UNL d   1      29.002 -17.884   0.068  0.00  0.00     0.169 HD
ENDROOT
BRANCH   1   5
ATOM      5  C   UNL d   1      26.764 -16.980  -1.107  0.00  0.00     0.032 A 
ATOM      6  C   UNL d   1      26.472 -17.790   0.005  0.00  0.00     0.018 A 
ATOM      7  C   UNL d   1      25.196 -18.342   0.178  0.00  0.00     0.013 A 
ATOM      8  C   UNL d   1      24.152 -18.031  -0.706  0.00  0.00    -0.026 A 
ATOM      9  C   UNL d   1      24.450 -17.209  -1.803  0.00  0.00     0.013 A 
ATOM     10  C   UNL d   1      25.737 -16.691  -2.005  0.00  0.00     0.018 A 
BRANCH   8  11
ATOM     11  C   UNL d   1      22.782 -18.514  -0.458  0.00  0.00    -0.026 A 
ATOM     12  C   UNL d   1      21.983 -18.951  -1.528  0.00  0.00     0.013 A 
ATOM     13  C   UNL d   1      20.647 -19.324  -1.332  0.00  0.00     0.018 A 
ATOM     14  C   UNL d   1      20.105 -19.344  -0.042  0.00  0.00     0.039 A 
ATOM     15  C   UNL d   1      20.899 -18.957   1.040  0.00  0.00     0.018 A 
ATOM     16  C   UNL d   1      22.228 -18.550   0.832  0.00  0.00     0.013 A 
BRANCH  14  17
ATOM     17  C   UNL d   1      18.748 -19.926   0.153  0.00  0.00     0.292 C 
ATOM     18  O   UNL d   1      18.133 -20.461  -0.746  0.00  0.00    -0.259 OA
BRANCH  17  19
ATOM     19  O   UNL d   1      18.317 -19.763   1.434  0.00  0.00    -0.323 OA
ATOM     20  C   UNL d   1      18.841 -20.740   2.345  0.00  0.00     0.213 C 
ENDBRANCH  17  19
ENDBRANCH  14  17
ENDBRANCH   8  11
ENDBRANCH   1   5
BRANCH   3  21
ATOM     21  C   UNL d   1      30.541 -16.655  -0.552  0.00  0.00     0.037 A 
ATOM     22  C   UNL d   1      31.578 -17.289  -1.209  0.00  0.00     0.029 A 
ATOM     23  C   UNL d   1      32.884 -16.778  -1.076  0.00  0.00     0.004 A 
ATOM     24  C   UNL d   1      33.157 -15.654  -0.261  0.00  0.00     0.029 A 
ATOM     25  C   UNL d   1      32.115 -15.046   0.440  0.00  0.00     0.038 A 
ATOM     26  C   UNL d   1      30.850 -15.544   0.207  0.00  0.00     0.059 A 
BRANCH  25  27
ATOM     27  N   UNL d   1      32.321 -13.987   1.354  0.00  0.00    -0.309 N 
ATOM     28  C   UNL d   1      32.018 -13.820   2.676  0.00  0.00     0.318 C 
ATOM     29  N   UNL d   1      31.382 -14.757   3.408  0.00  0.00    -0.352 N 
ATOM     30  O   UNL d   1      32.317 -12.769   3.242  0.00  0.00    -0.247 OA
ATOM     31  H   UNL d   1      31.247 -15.730   3.218  0.00  0.00     0.160 HD
ATOM     32  H   UNL d   1      31.171 -14.539   4.368  0.00  0.00     0.160 HD
ATOM     33  H   UNL d   1      32.811 -13.174   0.998  0.00  0.00     0.170 HD
ENDBRANCH  25  27
ENDBRANCH   3  21
TORSDOF 6
ENDMDL
MODEL 7
REMARK VINA RESULT:    -7.291      5.119      7.018
REMARK INTER + INTRA:         -10.563
REMARK INTER:                  -9.080
REMARK INTRA:                  -1.483
REMARK CONF_INDEPENDENT:        1.790
REMARK UNBOUND:                -1.483
REMARK  6 active torsions:
REMARK  status: ('A' for Active; 'I' for Inactive)
REMARK    1  A    between atoms: O_2  and  C_3 
REMARK    2  A    between atoms: C_3  and  C_5 
REMARK    3  A    between atoms: C_8  and  C_9 
REMARK    4  A    between atoms: C_12  and  C_13 
REMARK       I    between atoms: C_13  and  N_15 
REMARK    5  A    between atoms: N_15  and  C_16 
REMARK    6  A    between atoms: C_20  and  N_21 
REMARK       I    between atoms: N_21  and  C_22 
REMARK       I    between atoms: C_22  and  N_23 
ROOT
ATOM      1  C   UNL d   1      28.325 -13.113   5.416  0.00  0.00     0.256 C 
ATOM      2  O   UNL d   1      28.571 -14.087   6.129  0.00  0.00    -0.267 OA
ATOM      3  N   UNL d   1      28.342 -11.781   5.857  0.00  0.00    -0.323 N 
ATOM      4  H   UNL d   1      28.081 -11.030   5.239  0.00  0.00     0.169 HD
ENDROOT
BRANCH   1   5
ATOM      5  C   UNL d   1      27.975 -13.405   3.992  0.00  0.00     0.032 A 
ATOM      6  C   UNL d   1      27.368 -12.388   3.232  0.00  0.00     0.018 A 
ATOM      7  C   UNL d   1      26.928 -12.633   1.924  0.00  0.00     0.013 A 
ATOM      8  C   UNL d   1      27.159 -13.872   1.308  0.00  0.00    -0.026 A 
ATOM      9  C   UNL d   1      27.780 -14.873   2.068  0.00  0.00     0.013 A 
ATOM     10  C   UNL d   1      28.182 -14.646   3.393  0.00  0.00     0.018 A 
BRANCH   8  11
ATOM     11  C   UNL d   1      26.804 -14.090  -0.106  0.00  0.00    -0.026 A 
ATOM     12  C   UNL d   1      26.335 -15.345  -0.530  0.00  0.00     0.013 A 
ATOM     13  C   UNL d   1      26.082 -15.607  -1.883  0.00  0.00     0.018 A 
ATOM     14  C   UNL d   1      26.218 -14.589  -2.833  0.00  0.00     0.039 A 
ATOM     15  C   UNL d   1      26.639 -13.321  -2.423  0.00  0.00     0.018 A 
ATOM     16  C   UNL d   1      26.925 -13.075  -1.070  0.00  0.00     0.013 A 
BRANCH  14  17
ATOM     17  C   UNL d   1      25.760 -14.846  -4.226  0.00  0.00     0.292 C 
ATOM     18  O   UNL d   1      24.693 -14.447  -4.646  0.00  0.00    -0.259 OA
BRANCH  17  19
ATOM     19  O   UNL d   1      26.674 -15.575  -4.924  0.00  0.00    -0.323 OA
ATOM     20  C   UNL d   1      27.857 -14.837  -5.265  0.00  0.00     0.213 C 
ENDBRANCH  17  19
ENDBRANCH  14  17
ENDBRANCH   8  11
ENDBRANCH   1   5
BRANCH   3  21
ATOM     21  C   UNL d   1      28.790 -11.386   7.145  0.00  0.00     0.037 A 
ATOM     22  C   UNL d   1      29.466 -10.209   7.404  0.00  0.00     0.029 A 
ATOM     23  C   UNL d   1      29.923  -9.960   8.713  0.00  0.00     0.004 A 
ATOM     24  C   UNL d   1      29.733 -10.899   9.753  0.00  0.00     0.029 A 
ATOM     25  C   UNL d   1      29.093 -12.108   9.477  0.00  0.00     0.038 A 
ATOM     26  C   UNL d   1      28.600 -12.258   8.197  0.00  0.00     0.059 A 
BRANCH  25  27
ATOM     27  N   UNL d   1      28.958 -13.140  10.433  0.00  0.00    -0.309 N 
ATOM     28  C   UNL d   1      28.783 -14.492  10.332  0.00  0.00     0.318 C 
ATOM     29  N   UNL d   1      28.690 -15.134   9.151  0.00  0.00    -0.352 N 
ATOM     30  O   UNL d   1      28.691 -15.172  11.354  0.00  0.00    -0.247 OA
ATOM     31  H   UNL d   1      28.946 -14.823   8.236  0.00  0.00     0.160 HD
ATOM     32  H   UNL d   1      28.531 -16.129   9.169  0.00  0.00     0.160 HD
ATOM     33  H   UNL d   1      29.018 -12.862  11.406  0.00  0.00     0.170 HD
ENDBRANCH  25  27
ENDBRANCH   3  21
TORSDOF 6
ENDMDL
MODEL 8
REMARK VINA RESULT:    -7.145      1.908      2.212
REMARK INTER + INTRA:         -10.449
REMARK INTER:                  -8.935
REMARK INTRA:                  -1.514
REMARK CONF_INDEPENDENT:        1.790
REMARK UNBOUND:                -1.514
REMARK  6 active torsions:
REMARK  status: ('A' for Active; 'I' for Inactive)
REMARK    1  A    between atoms: O_2  and  C_3 
REMARK    2  A    between atoms: C_3  and  C_5 
REMARK    3  A    between atoms: C_8  and  C_9 
REMARK    4  A    between atoms: C_12  and  C_13 
REMARK       I    between atoms: C_13  and  N_15 
REMARK    5  A    between atoms: N_15  and  C_16 
REMARK    6  A    between atoms: C_20  and  N_21 
REMARK       I    between atoms: N_21  and  C_22 
REMARK       I    between atoms: C_22  and  N_23 
ROOT
ATOM      1  C   UNL d   1      29.441 -14.475  -0.022  0.00  0.00     0.256 C 
ATOM      2  O   UNL d   1      30.152 -14.884   0.896  0.00  0.00    -0.267 OA
ATOM      3  N   UNL d   1      29.793 -13.436  -0.897  0.00  0.00    -0.323 N 
ATOM      4  H   UNL d   1      29.146 -13.110  -1.599  0.00  0.00     0.169 HD
ENDROOT
BRANCH   1   5
ATOM      5  C   UNL d   1      28.112 -15.142  -0.181  0.00  0.00     0.032 A 
ATOM      6  C   UNL d   1      27.953 -16.444   0.328  0.00  0.00     0.018 A 
ATOM      7  C   UNL d   1      26.763 -17.156   0.123  0.00  0.00     0.013 A 
ATOM      8  C   UNL d   1      25.669 -16.558  -0.519  0.00  0.00    -0.026 A 
ATOM      9  C   UNL d   1      25.832 -15.253  -1.008  0.00  0.00     0.013 A 
ATOM     10  C   UNL d   1      27.036 -14.553  -0.844  0.00  0.00     0.018 A 
BRANCH   8  11
ATOM     11  C   UNL d   1      24.379 -17.263  -0.629  0.00  0.00    -0.026 A 
ATOM     12  C   UNL d   1      23.200 -16.542  -0.882  0.00  0.00     0.013 A 
ATOM     13  C   UNL d   1      21.950 -17.176  -0.895  0.00  0.00     0.018 A 
ATOM     14  C   UNL d   1      21.864 -18.564  -0.735  0.00  0.00     0.039 A 
ATOM     15  C   UNL d   1      23.032 -19.303  -0.529  0.00  0.00     0.018 A 
ATOM     16  C   UNL d   1      24.278 -18.656  -0.480  0.00  0.00     0.013 A 
BRANCH  14  17
ATOM     17  C   UNL d   1      20.547 -19.226  -0.945  0.00  0.00     0.292 C 
ATOM     18  O   UNL d   1      20.280 -19.839  -1.957  0.00  0.00    -0.259 OA
BRANCH  17  19
ATOM     19  O   UNL d   1      19.721 -19.040   0.121  0.00  0.00    -0.323 OA
ATOM     20  C   UNL d   1      20.164 -19.702   1.315  0.00  0.00     0.213 C 
ENDBRANCH  17  19
ENDBRANCH  14  17
ENDBRANCH   8  11
ENDBRANCH   1   5
BRANCH   3  21
ATOM     21  C   UNL d   1      31.076 -12.830  -0.921  0.00  0.00     0.037 A 
ATOM     22  C   UNL d   1      31.645 -12.262  -2.045  0.00  0.00     0.029 A 
ATOM     23  C   UNL d   1      32.957 -11.754  -1.963  0.00  0.00     0.004 A 
ATOM     24  C   UNL d   1      33.709 -11.844  -0.768  0.00  0.00     0.029 A 
ATOM     25  C   UNL d   1      33.149 -12.462   0.350  0.00  0.00     0.038 A 
ATOM     26  C   UNL d   1      31.836 -12.867   0.230  0.00  0.00     0.059 A 
BRANCH  25  27
ATOM     27  N   UNL d   1      33.871 -12.685   1.546  0.00  0.00    -0.309 N 
ATOM     28  C   UNL d   1      33.589 -13.368   2.695  0.00  0.00     0.318 C 
ATOM     29  N   UNL d   1      32.423 -14.012   2.899  0.00  0.00    -0.352 N 
ATOM     30  O   UNL d   1      34.419 -13.400   3.604  0.00  0.00    -0.247 OA
ATOM     31  H   UNL d   1      31.725 -14.289   2.239  0.00  0.00     0.160 HD
ATOM     32  H   UNL d   1      32.287 -14.466   3.788  0.00  0.00     0.160 HD
ATOM     33  H   UNL d   1      34.803 -12.288   1.589  0.00  0.00     0.170 HD
ENDBRANCH  25  27
ENDBRANCH   3  21
TORSDOF 6
ENDMDL
MODEL 9
REMARK VINA RESULT:    -7.126      4.890      6.510
REMARK INTER + INTRA:         -10.430
REMARK INTER:                  -8.916
REMARK INTRA:                  -1.514
REMARK CONF_INDEPENDENT:        1.790
REMARK UNBOUND:                -1.514
REMARK  6 active torsions:
REMARK  status: ('A' for Active; 'I' for Inactive)
REMARK    1  A    between atoms: O_2  and  C_3 
REMARK    2  A    between atoms: C_3  and  C_5 
REMARK    3  A    between atoms: C_8  and  C_9 
REMARK    4  A    between atoms: C_12  and  C_13 
REMARK       I    between atoms: C_13  and  N_15 
REMARK    5  A    between atoms: N_15  and  C_16 
REMARK    6  A    between atoms: C_20  and  N_21 
REMARK       I    between atoms: N_21  and  C_22 
REMARK       I    between atoms: C_22  and  N_23 
ROOT
ATOM      1  C   UNL d   1      28.259 -12.667   5.062  0.00  0.00     0.256 C 
ATOM      2  O   UNL d   1      28.038 -11.489   5.345  0.00  0.00    -0.267 OA
ATOM      3  N   UNL d   1      28.797 -13.610   5.951  0.00  0.00    -0.323 N 
ATOM      4  H   UNL d   1      29.004 -14.548   5.645  0.00  0.00     0.169 HD
ENDROOT
BRANCH   1   5
ATOM      5  C   UNL d   1      27.933 -13.086   3.664  0.00  0.00     0.032 A 
ATOM      6  C   UNL d   1      27.342 -12.142   2.804  0.00  0.00     0.018 A 
ATOM      7  C   UNL d   1      26.925 -12.505   1.516  0.00  0.00     0.013 A 
ATOM      8  C   UNL d   1      27.165 -13.795   1.019  0.00  0.00    -0.026 A 
ATOM      9  C   UNL d   1      27.770 -14.723   1.879  0.00  0.00     0.013 A 
ATOM     10  C   UNL d   1      28.148 -14.377   3.184  0.00  0.00     0.018 A 
BRANCH   8  11
ATOM     11  C   UNL d   1      26.835 -14.141  -0.375  0.00  0.00    -0.026 A 
ATOM     12  C   UNL d   1      26.746 -13.133  -1.350  0.00  0.00     0.013 A 
ATOM     13  C   UNL d   1      26.339 -13.424  -2.659  0.00  0.00     0.018 A 
ATOM     14  C   UNL d   1      26.091 -14.747  -3.041  0.00  0.00     0.039 A 
ATOM     15  C   UNL d   1      26.219 -15.768  -2.096  0.00  0.00     0.018 A 
ATOM     16  C   UNL d   1      26.592 -15.465  -0.776  0.00  0.00     0.013 A 
BRANCH  14  17
ATOM     17  C   UNL d   1      25.848 -15.041  -4.480  0.00  0.00     0.292 C 
ATOM     18  O   UNL d   1      24.783 -14.825  -5.019  0.00  0.00    -0.259 OA
BRANCH  17  19
ATOM     19  O   UNL d   1      26.952 -15.576  -5.071  0.00  0.00    -0.323 OA
ATOM     20  C   UNL d   1      27.824 -14.595  -5.654  0.00  0.00     0.213 C 
ENDBRANCH  17  19
ENDBRANCH  14  17
ENDBRANCH   8  11
ENDBRANCH   1   5
BRANCH   3  21
ATOM     21  C   UNL d   1      29.015 -13.355   7.330  0.00  0.00     0.037 A 
ATOM     22  C   UNL d   1      28.907 -14.310   8.322  0.00  0.00     0.029 A 
ATOM     23  C   UNL d   1      29.076 -13.921   9.666  0.00  0.00     0.004 A 
ATOM     24  C   UNL d   1      29.320 -12.573  10.017  0.00  0.00     0.029 A 
ATOM     25  C   UNL d   1      29.380 -11.603   9.017  0.00  0.00     0.038 A 
ATOM     26  C   UNL d   1      29.285 -12.059   7.719  0.00  0.00     0.059 A 
BRANCH  25  27
ATOM     27  N   UNL d   1      29.517 -10.222   9.293  0.00  0.00    -0.309 N 
ATOM     28  C   UNL d   1      29.442  -9.101   8.516  0.00  0.00     0.318 C 
ATOM     29  N   UNL d   1      29.206  -9.141   7.190  0.00  0.00    -0.352 N 
ATOM     30  O   UNL d   1      29.607  -7.993   9.027  0.00  0.00    -0.247 OA
ATOM     31  H   UNL d   1      28.840  -9.886   6.630  0.00  0.00     0.160 HD
ATOM     32  H   UNL d   1      29.197  -8.268   6.688  0.00  0.00     0.160 HD
ATOM     33  H   UNL d   1      29.685  -9.972  10.261  0.00  0.00     0.170 HD
ENDBRANCH  25  27
ENDBRANCH   3  21
TORSDOF 6
ENDMDL
