MODEL 1
REMARK VINA RESULT:   -10.394      0.000      0.000
REMARK INTER + INTRA:         -15.012
REMARK INTER:                 -13.377
REMARK INTRA:                  -1.635
REMARK CONF_INDEPENDENT:        2.983
REMARK UNBOUND:                -1.635
REMARK  10 active torsions:
REMARK  status: ('A' for Active; 'I' for Inactive)
REMARK    1  A    between atoms: C_2  and  C_4 
REMARK    2  A    between atoms: C_4  and  C_5 
REMARK    3  A    between atoms: C_5  and  O_6 
REMARK    4  A    between atoms: O_6  and  C_7 
REMARK    5  A    between atoms: C_10  and  N_11 
REMARK       I    between atoms: N_11  and  C_12 
REMARK    6  A    between atoms: C_12  and  C_14 
REMARK    7  A    between atoms: C_14  and  N_15 
REMARK    8  A    between atoms: N_15  and  C_16 
REMARK    9  A    between atoms: C_21  and  C_22 
REMARK       I    between atoms: C_22  and  N_24 
REMARK   10  A    between atoms: N_24  and  C_25 
ROOT
ATOM      1  N   UNL d   1      29.097 -15.501  -0.475  0.00  0.00    -0.381 N 
ATOM      2  H   UNL d   1      30.027 -15.373  -0.888  0.00  0.00     0.160 HD
ENDROOT
BRANCH   1   3
ATOM      3  C   UNL d   1      28.648 -16.898  -0.407  0.00  0.00     0.223 C 
BRANCH   3   4
ATOM      4  C   UNL d   1      27.182 -16.951  -0.854  0.00  0.00     0.239 C 
ATOM      5  N   UNL d   1      26.240 -17.305   0.113  0.00  0.00    -0.326 N 
ATOM      6  H   UNL d   1      26.557 -17.549   1.045  0.00  0.00     0.169 HD
ATOM      7  O   UNL d   1      26.939 -16.701  -2.038  0.00  0.00    -0.271 OA
BRANCH   5   8
ATOM      8  C   UNL d   1      24.845 -17.454  -0.147  0.00  0.00     0.034 A 
ATOM      9  C   UNL d   1      24.237 -18.716  -0.131  0.00  0.00     0.032 A 
ATOM     10  C   UNL d   1      22.883 -18.859  -0.507  0.00  0.00     0.039 A 
ATOM     11  C   UNL d   1      22.108 -17.745  -0.837  0.00  0.00     0.068 A 
ATOM     12  C   UNL d   1      22.696 -16.493  -0.796  0.00  0.00     0.039 A 
ATOM     13  C   UNL d   1      24.039 -16.358  -0.455  0.00  0.00     0.032 A 
BRANCH  11  14
ATOM     14  O   UNL d   1      20.780 -17.960  -1.091  0.00  0.00    -0.351 OA
BRANCH  14  15
ATOM     15  C   UNL d   1      20.424 -19.334  -1.270  0.00  0.00     0.176 C 
BRANCH  15  16
ATOM     16  C   UNL d   1      19.126 -19.628  -0.520  0.00  0.00     0.030 C 
BRANCH  16  17
ATOM     17  C   UNL d   1      19.336 -20.628   0.629  0.00  0.00    -0.021 C 
ATOM     18  C   UNL d   1      19.856 -19.905   1.871  0.00  0.00     0.009 C 
ATOM     19  C   UNL d   1      18.047 -21.376   0.980  0.00  0.00     0.009 C 
ENDBRANCH  16  17
ENDBRANCH  15  16
ENDBRANCH  14  15
ENDBRANCH  11  14
ENDBRANCH   5   8
ENDBRANCH   3   4
ENDBRANCH   1   3
BRANCH   1  20
ATOM     20  C   UNL d   1      28.594 -14.467   0.274  0.00  0.00     0.029 A 
ATOM     21  C   UNL d   1      28.251 -13.272  -0.362  0.00  0.00     0.031 A 
ATOM     22  C   UNL d   1      27.733 -12.197   0.356  0.00  0.00     0.027 A 
ATOM     23  C   UNL d   1      27.494 -12.318   1.722  0.00  0.00     0.049 A 
ATOM     24 CL   UNL d   1      26.700 -10.944   2.427  0.00  0.00    -0.083 Cl
ATOM     25  C   UNL d   1      27.853 -13.507   2.391  0.00  0.00     0.055 A 
ATOM     26  C   UNL d   1      28.386 -14.571   1.647  0.00  0.00     0.048 A 
BRANCH  25  27
ATOM     27  C   UNL d   1      27.717 -13.626   3.860  0.00  0.00     0.253 C 
ATOM     28  O   UNL d   1      26.654 -14.073   4.285  0.00  0.00    -0.268 OA
ATOM     29  N   UNL d   1      28.746 -13.231   4.705  0.00  0.00    -0.352 N 
ATOM     30  H   UNL d   1      29.588 -12.817   4.339  0.00  0.00     0.163 HD
BRANCH  29  31
ATOM     31  C   UNL d   1      28.654 -13.265   6.171  0.00  0.00     0.084 C 
ATOM     32  C   UNL d   1      29.814 -14.074   6.769  0.00  0.00     0.025 C 
ATOM     33  C   UNL d   1      29.783 -14.071   8.299  0.00  0.00     0.002 C 
ATOM     34  C   UNL d   1      29.734 -12.655   8.867  0.00  0.00     0.000 C 
ATOM     35  C   UNL d   1      28.527 -11.902   8.327  0.00  0.00     0.002 C 
ATOM     36  C   UNL d   1      28.573 -11.878   6.820  0.00  0.00     0.025 C 
ENDBRANCH  29  31
ENDBRANCH  25  27
ENDBRANCH   1  20
TORSDOF 10
ENDMDL
MODEL 2
REMARK VINA RESULT:   -10.163      4.355      7.356
REMARK INTER + INTRA:         -14.535
REMARK INTER:                 -13.146
REMARK INTRA:                  -1.389
REMARK CONF_INDEPENDENT:        2.983
REMARK UNBOUND:                -1.389
REMARK  10 active torsions:
REMARK  status: ('A' for Active; 'I' for Inactive)
REMARK    1  A    between atoms: C_2  and  C_4 
REMARK    2  A    between atoms: C_4  and  C_5 
REMARK    3  A    between atoms: C_5  and  O_6 
REMARK    4  A    between atoms: O_6  and  C_7 
REMARK    5  A    between atoms: C_10  and  N_11 
REMARK       I    between atoms: N_11  and  C_12 
REMARK    6  A    between atoms: C_12  and  C_14 
REMARK    7  A    between atoms: C_14  and  N_15 
REMARK    8  A    between atoms: N_15  and  C_16 
REMARK    9  A    between atoms: C_21  and  C_22 
REMARK       I    between atoms: C_22  and  N_24 
REMARK   10  A    between atoms: N_24  and  C_25 
ROOT
ATOM      1  N   UNL d   1      29.260 -16.943  -0.327  0.00  0.00    -0.381 N 
ATOM      2  H   UNL d   1      29.840 -17.624   0.175  0.00  0.00     0.160 HD
ENDROOT
BRANCH   1   3
ATOM      3  C   UNL d   1      28.649 -15.917   0.526  0.00  0.00     0.223 C 
BRANCH   3   4
ATOM      4  C   UNL d   1      27.132 -15.946   0.299  0.00  0.00     0.239 C 
ATOM      5  N   UNL d   1      26.560 -17.188   0.019  0.00  0.00    -0.326 N 
ATOM      6  H   UNL d   1      27.161 -18.001  -0.062  0.00  0.00     0.169 HD
ATOM      7  O   UNL d   1      26.527 -14.871   0.355  0.00  0.00    -0.271 OA
BRANCH   5   8
ATOM      8  C   UNL d   1      25.177 -17.383  -0.271  0.00  0.00     0.034 A 
ATOM      9  C   UNL d   1      24.381 -16.331  -0.743  0.00  0.00     0.032 A 
ATOM     10  C   UNL d   1      22.990 -16.511  -0.911  0.00  0.00     0.039 A 
ATOM     11  C   UNL d   1      22.393 -17.750  -0.676  0.00  0.00     0.068 A 
ATOM     12  C   UNL d   1      23.190 -18.804  -0.265  0.00  0.00     0.039 A 
ATOM     13  C   UNL d   1      24.556 -18.616  -0.070  0.00  0.00     0.032 A 
BRANCH  11  14
ATOM     14  O   UNL d   1      21.058 -17.865  -0.960  0.00  0.00    -0.351 OA
BRANCH  14  15
ATOM     15  C   UNL d   1      20.588 -19.212  -1.069  0.00  0.00     0.176 C 
BRANCH  15  16
ATOM     16  C   UNL d   1      19.324 -19.381  -0.228  0.00  0.00     0.030 C 
BRANCH  16  17
ATOM     17  C   UNL d   1      19.435 -20.563   0.751  0.00  0.00    -0.021 C 
ATOM     18  C   UNL d   1      19.838 -20.064   2.138  0.00  0.00     0.009 C 
ATOM     19  C   UNL d   1      18.124 -21.345   0.854  0.00  0.00     0.009 C 
ENDBRANCH  16  17
ENDBRANCH  15  16
ENDBRANCH  14  15
ENDBRANCH  11  14
ENDBRANCH   5   8
ENDBRANCH   3   4
ENDBRANCH   1   3
BRANCH   1  20
ATOM     20  C   UNL d   1      29.438 -16.846  -1.684  0.00  0.00     0.029 A 
ATOM     21  C   UNL d   1      30.267 -17.768  -2.328  0.00  0.00     0.031 A 
ATOM     22  C   UNL d   1      30.474 -17.711  -3.704  0.00  0.00     0.027 A 
ATOM     23  C   UNL d   1      29.808 -16.762  -4.473  0.00  0.00     0.049 A 
ATOM     24 CL   UNL d   1      30.057 -16.934  -6.184  0.00  0.00    -0.083 Cl
ATOM     25  C   UNL d   1      28.984 -15.806  -3.844  0.00  0.00     0.055 A 
ATOM     26  C   UNL d   1      28.802 -15.876  -2.454  0.00  0.00     0.048 A 
BRANCH  25  27
ATOM     27  C   UNL d   1      28.353 -14.715  -4.619  0.00  0.00     0.253 C 
ATOM     28  O   UNL d   1      27.732 -15.038  -5.629  0.00  0.00    -0.268 OA
ATOM     29  N   UNL d   1      28.479 -13.391  -4.219  0.00  0.00    -0.352 N 
ATOM     30  H   UNL d   1      29.037 -13.142  -3.417  0.00  0.00     0.163 HD
BRANCH  29  31
ATOM     31  C   UNL d   1      27.931 -12.256  -4.973  0.00  0.00     0.084 C 
ATOM     32  C   UNL d   1      27.909 -12.565  -6.478  0.00  0.00     0.025 C 
ATOM     33  C   UNL d   1      27.280 -11.426  -7.285  0.00  0.00     0.002 C 
ATOM     34  C   UNL d   1      25.893 -11.057  -6.766  0.00  0.00     0.000 C 
ATOM     35  C   UNL d   1      25.954 -10.671  -5.295  0.00  0.00     0.002 C 
ATOM     36  C   UNL d   1      26.546 -11.804  -4.495  0.00  0.00     0.025 C 
ENDBRANCH  29  31
ENDBRANCH  25  27
ENDBRANCH   1  20
TORSDOF 10
ENDMDL
MODEL 3
REMARK VINA RESULT:   -10.018      4.197      7.993
REMARK INTER + INTRA:         -14.333
REMARK INTER:                 -13.001
REMARK INTRA:                  -1.332
REMARK CONF_INDEPENDENT:        2.983
REMARK UNBOUND:                -1.332
REMARK  10 active torsions:
REMARK  status: ('A' for Active; 'I' for Inactive)
REMARK    1  A    between atoms: C_2  and  C_4 
REMARK    2  A    between atoms: C_4  and  C_5 
REMARK    3  A    between atoms: C_5  and  O_6 
REMARK    4  A    between atoms: O_6  and  C_7 
REMARK    5  A    between atoms: C_10  and  N_11 
REMARK       I    between atoms: N_11  and  C_12 
REMARK    6  A    between atoms: C_12  and  C_14 
REMARK    7  A    between atoms: C_14  and  N_15 
REMARK    8  A    between atoms: N_15  and  C_16 
REMARK    9  A    between atoms: C_21  and  C_22 
REMARK       I    between atoms: C_22  and  N_24 
REMARK   10  A    between atoms: N_24  and  C_25 
ROOT
ATOM      1  N   UNL d   1      28.925 -15.028  -0.384  0.00  0.00    -0.381 N 
ATOM      2  H   UNL d   1      29.319 -14.258   0.167  0.00  0.00     0.160 HD
ENDROOT
BRANCH   1   3
ATOM      3  C   UNL d   1      28.369 -16.127   0.415  0.00  0.00     0.223 C 
BRANCH   3   4
ATOM      4  C   UNL d   1      26.848 -16.140   0.220  0.00  0.00     0.239 C 
ATOM      5  N   UNL d   1      26.259 -17.371  -0.073  0.00  0.00    -0.326 N 
ATOM      6  H   UNL d   1      26.851 -18.186  -0.184  0.00  0.00     0.169 HD
ATOM      7  O   UNL d   1      26.254 -15.061   0.313  0.00  0.00    -0.271 OA
BRANCH   5   8
ATOM      8  C   UNL d   1      24.868 -17.548  -0.336  0.00  0.00     0.034 A 
ATOM      9  C   UNL d   1      24.024 -16.448  -0.540  0.00  0.00     0.032 A 
ATOM     10  C   UNL d   1      22.631 -16.636  -0.681  0.00  0.00     0.039 A 
ATOM     11  C   UNL d   1      22.077 -17.917  -0.686  0.00  0.00     0.068 A 
ATOM     12  C   UNL d   1      22.920 -19.006  -0.543  0.00  0.00     0.039 A 
ATOM     13  C   UNL d   1      24.288 -18.816  -0.373  0.00  0.00     0.032 A 
BRANCH  11  14
ATOM     14  O   UNL d   1      20.733 -18.016  -0.929  0.00  0.00    -0.351 OA
BRANCH  14  15
ATOM     15  C   UNL d   1      20.287 -19.330  -1.275  0.00  0.00     0.176 C 
BRANCH  15  16
ATOM     16  C   UNL d   1      19.051 -19.684  -0.449  0.00  0.00     0.030 C 
BRANCH  16  17
ATOM     17  C   UNL d   1      19.358 -20.739   0.627  0.00  0.00    -0.021 C 
ATOM     18  C   UNL d   1      19.937 -20.070   1.873  0.00  0.00     0.009 C 
ATOM     19  C   UNL d   1      18.112 -21.540   1.015  0.00  0.00     0.009 C 
ENDBRANCH  16  17
ENDBRANCH  15  16
ENDBRANCH  14  15
ENDBRANCH  11  14
ENDBRANCH   5   8
ENDBRANCH   3   4
ENDBRANCH   1   3
BRANCH   1  20
ATOM     20  C   UNL d   1      28.626 -14.771  -1.699  0.00  0.00     0.029 A 
ATOM     21  C   UNL d   1      27.726 -13.748  -2.004  0.00  0.00     0.031 A 
ATOM     22  C   UNL d   1      27.396 -13.449  -3.323  0.00  0.00     0.027 A 
ATOM     23  C   UNL d   1      28.006 -14.133  -4.369  0.00  0.00     0.049 A 
ATOM     24 CL   UNL d   1      27.600 -13.527  -5.946  0.00  0.00    -0.083 Cl
ATOM     25  C   UNL d   1      28.901 -15.186  -4.087  0.00  0.00     0.055 A 
ATOM     26  C   UNL d   1      29.207 -15.478  -2.749  0.00  0.00     0.048 A 
BRANCH  25  27
ATOM     27  C   UNL d   1      29.478 -16.008  -5.174  0.00  0.00     0.253 C 
ATOM     28  O   UNL d   1      28.919 -15.955  -6.268  0.00  0.00    -0.268 OA
ATOM     29  N   UNL d   1      30.591 -16.808  -4.949  0.00  0.00    -0.352 N 
ATOM     30  H   UNL d   1      31.002 -16.879  -4.032  0.00  0.00     0.163 HD
BRANCH  29  31
ATOM     31  C   UNL d   1      31.177 -17.693  -5.965  0.00  0.00     0.084 C 
ATOM     32  C   UNL d   1      30.406 -19.019  -6.040  0.00  0.00     0.025 C 
ATOM     33  C   UNL d   1      30.952 -19.936  -7.137  0.00  0.00     0.002 C 
ATOM     34  C   UNL d   1      31.002 -19.237  -8.493  0.00  0.00     0.000 C 
ATOM     35  C   UNL d   1      31.843 -17.972  -8.415  0.00  0.00     0.002 C 
ATOM     36  C   UNL d   1      31.288 -17.054  -7.354  0.00  0.00     0.025 C 
ENDBRANCH  29  31
ENDBRANCH  25  27
ENDBRANCH   1  20
TORSDOF 10
ENDMDL
MODEL 4
REMARK VINA RESULT:    -9.935      4.446      8.115
REMARK INTER + INTRA:         -14.449
REMARK INTER:                 -12.918
REMARK INTRA:                  -1.531
REMARK CONF_INDEPENDENT:        2.983
REMARK UNBOUND:                -1.531
REMARK  10 active torsions:
REMARK  status: ('A' for Active; 'I' for Inactive)
REMARK    1  A    between atoms: C_2  and  C_4 
REMARK    2  A    between atoms: C_4  and  C_5 
REMARK    3  A    between atoms: C_5  and  O_6 
REMARK    4  A    between atoms: O_6  and  C_7 
REMARK    5  A    between atoms: C_10  and  N_11 
REMARK       I    between atoms: N_11  and  C_12 
REMARK    6  A    between atoms: C_12  and  C_14 
REMARK    7  A    between atoms: C_14  and  N_15 
REMARK    8  A    between atoms: N_15  and  C_16 
REMARK    9  A    between atoms: C_21  and  C_22 
REMARK       I    between atoms: C_22  and  N_24 
REMARK   10  A    between atoms: N_24  and  C_25 
ROOT
ATOM      1  N   UNL d   1      28.030 -14.904  -0.410  0.00  0.00    -0.381 N 
ATOM      2  H   UNL d   1      27.555 -13.995  -0.389  0.00  0.00     0.160 HD
ENDROOT
BRANCH   1   3
ATOM      3  C   UNL d   1      27.764 -15.758   0.754  0.00  0.00     0.223 C 
BRANCH   3   4
ATOM      4  C   UNL d   1      26.699 -16.788   0.358  0.00  0.00     0.239 C 
ATOM      5  N   UNL d   1      25.467 -16.290  -0.069  0.00  0.00    -0.326 N 
ATOM      6  H   UNL d   1      25.312 -15.288  -0.063  0.00  0.00     0.169 HD
ATOM      7  O   UNL d   1      26.994 -17.982   0.466  0.00  0.00    -0.271 OA
BRANCH   5   8
ATOM      8  C   UNL d   1      24.353 -17.109  -0.421  0.00  0.00     0.034 A 
ATOM      9  C   UNL d   1      23.092 -16.549  -0.664  0.00  0.00     0.032 A 
ATOM     10  C   UNL d   1      21.975 -17.383  -0.894  0.00  0.00     0.039 A 
ATOM     11  C   UNL d   1      22.115 -18.770  -0.951  0.00  0.00     0.068 A 
ATOM     12  C   UNL d   1      23.373 -19.318  -0.770  0.00  0.00     0.039 A 
ATOM     13  C   UNL d   1      24.466 -18.496  -0.512  0.00  0.00     0.032 A 
BRANCH  11  14
ATOM     14  O   UNL d   1      21.003 -19.498  -1.279  0.00  0.00    -0.351 OA
BRANCH  14  15
ATOM     15  C   UNL d   1      19.770 -18.942  -0.814  0.00  0.00     0.176 C 
BRANCH  15  16
ATOM     16  C   UNL d   1      18.781 -20.068  -0.517  0.00  0.00     0.030 C 
BRANCH  16  17
ATOM     17  C   UNL d   1      19.199 -20.895   0.711  0.00  0.00    -0.021 C 
ATOM     18  C   UNL d   1      19.873 -19.998   1.748  0.00  0.00     0.009 C 
ATOM     19  C   UNL d   1      18.006 -21.607   1.354  0.00  0.00     0.009 C 
ENDBRANCH  16  17
ENDBRANCH  15  16
ENDBRANCH  14  15
ENDBRANCH  11  14
ENDBRANCH   5   8
ENDBRANCH   3   4
ENDBRANCH   1   3
BRANCH   1  20
ATOM     20  C   UNL d   1      28.503 -15.338  -1.623  0.00  0.00     0.029 A 
ATOM     21  C   UNL d   1      29.509 -16.307  -1.653  0.00  0.00     0.031 A 
ATOM     22  C   UNL d   1      30.016 -16.780  -2.860  0.00  0.00     0.027 A 
ATOM     23  C   UNL d   1      29.484 -16.333  -4.066  0.00  0.00     0.049 A 
ATOM     24 CL   UNL d   1      30.120 -17.143  -5.465  0.00  0.00    -0.083 Cl
ATOM     25  C   UNL d   1      28.484 -15.339  -4.062  0.00  0.00     0.055 A 
ATOM     26  C   UNL d   1      27.999 -14.867  -2.833  0.00  0.00     0.048 A 
BRANCH  25  27
ATOM     27  C   UNL d   1      27.980 -14.761  -5.328  0.00  0.00     0.253 C 
ATOM     28  O   UNL d   1      27.035 -15.337  -5.864  0.00  0.00    -0.268 OA
ATOM     29  N   UNL d   1      28.566 -13.629  -5.878  0.00  0.00    -0.352 N 
ATOM     30  H   UNL d   1      29.373 -13.202  -5.451  0.00  0.00     0.163 HD
BRANCH  29  31
ATOM     31  C   UNL d   1      28.155 -13.039  -7.160  0.00  0.00     0.084 C 
ATOM     32  C   UNL d   1      27.413 -11.714  -6.934  0.00  0.00     0.025 C 
ATOM     33  C   UNL d   1      27.030 -11.042  -8.256  0.00  0.00     0.002 C 
ATOM     34  C   UNL d   1      28.235 -10.862  -9.175  0.00  0.00     0.000 C 
ATOM     35  C   UNL d   1      28.903 -12.201  -9.454  0.00  0.00     0.002 C 
ATOM     36  C   UNL d   1      29.307 -12.850  -8.154  0.00  0.00     0.025 C 
ENDBRANCH  29  31
ENDBRANCH  25  27
ENDBRANCH   1  20
TORSDOF 10
ENDMDL
MODEL 5
REMARK VINA RESULT:    -9.835      5.185      9.689
REMARK INTER + INTRA:         -14.635
REMARK INTER:                 -12.818
REMARK INTRA:                  -1.817
REMARK CONF_INDEPENDENT:        2.983
REMARK UNBOUND:                -1.817
REMARK  10 active torsions:
REMARK  status: ('A' for Active; 'I' for Inactive)
REMARK    1  A    between atoms: C_2  and  C_4 
REMARK    2  A    between atoms: C_4  and  C_5 
REMARK    3  A    between atoms: C_5  and  O_6 
REMARK    4  A    between atoms: O_6  and  C_7 
REMARK    5  A    between atoms: C_10  and  N_11 
REMARK       I    between atoms: N_11  and  C_12 
REMARK    6  A    between atoms: C_12  and  C_14 
REMARK    7  A    between atoms: C_14  and  N_15 
REMARK    8  A    between atoms: N_15  and  C_16 
REMARK    9  A    between atoms: C_21  and  C_22 
REMARK       I    between atoms: C_22  and  N_24 
REMARK   10  A    between atoms: N_24  and  C_25 
ROOT
ATOM      1  N   UNL d   1      24.858 -13.697  -2.808  0.00  0.00    -0.381 N 
ATOM      2  H   UNL d   1      24.892 -12.787  -2.336  0.00  0.00     0.160 HD
ENDROOT
BRANCH   1   3
ATOM      3  C   UNL d   1      24.904 -13.626  -4.274  0.00  0.00     0.223 C 
BRANCH   3   4
ATOM      4  C   UNL d   1      25.963 -14.620  -4.768  0.00  0.00     0.239 C 
ATOM      5  N   UNL d   1      27.282 -14.168  -4.809  0.00  0.00    -0.326 N 
ATOM      6  H   UNL d   1      27.482 -13.207  -4.555  0.00  0.00     0.169 HD
ATOM      7  O   UNL d   1      25.574 -15.739  -5.116  0.00  0.00    -0.271 OA
BRANCH   5   8
ATOM      8  C   UNL d   1      28.378 -14.944  -5.293  0.00  0.00     0.034 A 
ATOM      9  C   UNL d   1      28.830 -16.071  -4.594  0.00  0.00     0.032 A 
ATOM     10  C   UNL d   1      29.988 -16.757  -5.022  0.00  0.00     0.039 A 
ATOM     11  C   UNL d   1      30.664 -16.370  -6.181  0.00  0.00     0.068 A 
ATOM     12  C   UNL d   1      30.181 -15.292  -6.902  0.00  0.00     0.039 A 
ATOM     13  C   UNL d   1      29.057 -14.599  -6.461  0.00  0.00     0.032 A 
BRANCH  11  14
ATOM     14  O   UNL d   1      31.716 -17.149  -6.581  0.00  0.00    -0.351 OA
BRANCH  14  15
ATOM     15  C   UNL d   1      31.394 -18.110  -7.591  0.00  0.00     0.176 C 
BRANCH  15  16
ATOM     16  C   UNL d   1      30.517 -19.208  -6.990  0.00  0.00     0.030 C 
BRANCH  16  17
ATOM     17  C   UNL d   1      31.304 -20.115  -6.029  0.00  0.00    -0.021 C 
ATOM     18  C   UNL d   1      30.424 -20.526  -4.850  0.00  0.00     0.009 C 
ATOM     19  C   UNL d   1      31.832 -21.370  -6.729  0.00  0.00     0.009 C 
ENDBRANCH  16  17
ENDBRANCH  15  16
ENDBRANCH  14  15
ENDBRANCH  11  14
ENDBRANCH   5   8
ENDBRANCH   3   4
ENDBRANCH   1   3
BRANCH   1  20
ATOM     20  C   UNL d   1      25.156 -14.805  -2.055  0.00  0.00     0.029 A 
ATOM     21  C   UNL d   1      26.425 -14.915  -1.480  0.00  0.00     0.031 A 
ATOM     22  C   UNL d   1      26.771 -16.019  -0.706  0.00  0.00     0.027 A 
ATOM     23  C   UNL d   1      25.832 -17.012  -0.445  0.00  0.00     0.049 A 
ATOM     24 CL   UNL d   1      26.380 -18.232   0.665  0.00  0.00    -0.083 Cl
ATOM     25  C   UNL d   1      24.552 -16.936  -1.032  0.00  0.00     0.055 A 
ATOM     26  C   UNL d   1      24.232 -15.819  -1.820  0.00  0.00     0.048 A 
BRANCH  25  27
ATOM     27  C   UNL d   1      23.571 -18.031  -0.867  0.00  0.00     0.253 C 
ATOM     28  O   UNL d   1      23.635 -18.961  -1.669  0.00  0.00    -0.268 OA
ATOM     29  N   UNL d   1      22.618 -17.988   0.143  0.00  0.00    -0.352 N 
ATOM     30  H   UNL d   1      22.548 -17.192   0.757  0.00  0.00     0.163 HD
BRANCH  29  31
ATOM     31  C   UNL d   1      21.579 -19.010   0.326  0.00  0.00     0.084 C 
ATOM     32  C   UNL d   1      21.003 -18.950   1.748  0.00  0.00     0.025 C 
ATOM     33  C   UNL d   1      19.870 -19.959   1.949  0.00  0.00     0.002 C 
ATOM     34  C   UNL d   1      18.777 -19.808   0.893  0.00  0.00     0.000 C 
ATOM     35  C   UNL d   1      19.357 -19.958  -0.506  0.00  0.00     0.002 C 
ATOM     36  C   UNL d   1      20.454 -18.943  -0.715  0.00  0.00     0.025 C 
ENDBRANCH  29  31
ENDBRANCH  25  27
ENDBRANCH   1  20
TORSDOF 10
ENDMDL
MODEL 6
REMARK VINA RESULT:    -9.667      1.958      2.415
REMARK INTER + INTRA:         -14.002
REMARK INTER:                 -12.650
REMARK INTRA:                  -1.352
REMARK CONF_INDEPENDENT:        2.983
REMARK UNBOUND:                -1.352
REMARK  10 active torsions:
REMARK  status: ('A' for Active; 'I' for Inactive)
REMARK    1  A    between atoms: C_2  and  C_4 
REMARK    2  A    between atoms: C_4  and  C_5 
REMARK    3  A    between atoms: C_5  and  O_6 
REMARK    4  A    between atoms: O_6  and  C_7 
REMARK    5  A    between atoms: C_10  and  N_11 
REMARK       I    between atoms: N_11  and  C_12 
REMARK    6  A    between atoms: C_12  and  C_14 
REMARK    7  A    between atoms: C_14  and  N_15 
REMARK    8  A    between atoms: N_15  and  C_16 
REMARK    9  A    between atoms: C_21  and  C_22 
REMARK       I    between atoms: C_22  and  N_24 
REMARK   10  A    between atoms: N_24  and  C_25 
ROOT
ATOM      1  N   UNL d   1      27.956 -13.993  -2.099  0.00  0.00    -0.381 N 
ATOM      2  H   UNL d   1      27.765 -13.002  -2.280  0.00  0.00     0.160 HD
ENDROOT
BRANCH   1   3
ATOM      3  C   UNL d   1      27.660 -14.887  -3.226  0.00  0.00     0.223 C 
BRANCH   3   4
ATOM      4  C   UNL d   1      26.296 -15.541  -2.972  0.00  0.00     0.239 C 
ATOM      5  N   UNL d   1      26.025 -15.951  -1.666  0.00  0.00    -0.326 N 
ATOM      6  H   UNL d   1      26.741 -15.840  -0.956  0.00  0.00     0.169 HD
ATOM      7  O   UNL d   1      25.544 -15.681  -3.942  0.00  0.00    -0.271 OA
BRANCH   5   8
ATOM      8  C   UNL d   1      24.830 -16.622  -1.271  0.00  0.00     0.034 A 
ATOM      9  C   UNL d   1      23.596 -15.958  -1.262  0.00  0.00     0.032 A 
ATOM     10  C   UNL d   1      22.445 -16.602  -0.756  0.00  0.00     0.039 A 
ATOM     11  C   UNL d   1      22.497 -17.927  -0.320  0.00  0.00     0.068 A 
ATOM     12  C   UNL d   1      23.705 -18.600  -0.385  0.00  0.00     0.039 A 
ATOM     13  C   UNL d   1      24.844 -17.953  -0.855  0.00  0.00     0.032 A 
BRANCH  11  14
ATOM     14  O   UNL d   1      21.317 -18.507   0.060  0.00  0.00    -0.351 OA
BRANCH  14  15
ATOM     15  C   UNL d   1      20.714 -19.336  -0.938  0.00  0.00     0.176 C 
BRANCH  15  16
ATOM     16  C   UNL d   1      19.294 -19.702  -0.508  0.00  0.00     0.030 C 
BRANCH  16  17
ATOM     17  C   UNL d   1      19.284 -20.729   0.638  0.00  0.00    -0.021 C 
ATOM     18  C   UNL d   1      19.516 -20.030   1.976  0.00  0.00     0.009 C 
ATOM     19  C   UNL d   1      17.967 -21.509   0.695  0.00  0.00     0.009 C 
ENDBRANCH  16  17
ENDBRANCH  15  16
ENDBRANCH  14  15
ENDBRANCH  11  14
ENDBRANCH   5   8
ENDBRANCH   3   4
ENDBRANCH   1   3
BRANCH   1  20
ATOM     20  C   UNL d   1      28.781 -14.291  -1.043  0.00  0.00     0.029 A 
ATOM     21  C   UNL d   1      29.916 -15.074  -1.267  0.00  0.00     0.031 A 
ATOM     22  C   UNL d   1      30.783 -15.399  -0.228  0.00  0.00     0.027 A 
ATOM     23  C   UNL d   1      30.562 -14.897   1.051  0.00  0.00     0.049 A 
ATOM     24 CL   UNL d   1      31.823 -15.267   2.186  0.00  0.00    -0.083 Cl
ATOM     25  C   UNL d   1      29.411 -14.123   1.308  0.00  0.00     0.055 A 
ATOM     26  C   UNL d   1      28.544 -13.821   0.246  0.00  0.00     0.048 A 
BRANCH  25  27
ATOM     27  C   UNL d   1      29.087 -13.670   2.679  0.00  0.00     0.253 C 
ATOM     28  O   UNL d   1      28.998 -12.457   2.857  0.00  0.00    -0.268 OA
ATOM     29  N   UNL d   1      28.911 -14.585   3.709  0.00  0.00    -0.352 N 
ATOM     30  H   UNL d   1      29.041 -15.572   3.554  0.00  0.00     0.163 HD
BRANCH  29  31
ATOM     31  C   UNL d   1      28.649 -14.202   5.103  0.00  0.00     0.084 C 
ATOM     32  C   UNL d   1      29.924 -14.325   5.949  0.00  0.00     0.025 C 
ATOM     33  C   UNL d   1      29.698 -13.868   7.392  0.00  0.00     0.002 C 
ATOM     34  C   UNL d   1      29.112 -12.461   7.461  0.00  0.00     0.000 C 
ATOM     35  C   UNL d   1      27.803 -12.385   6.687  0.00  0.00     0.002 C 
ATOM     36  C   UNL d   1      28.031 -12.807   5.257  0.00  0.00     0.025 C 
ENDBRANCH  29  31
ENDBRANCH  25  27
ENDBRANCH   1  20
TORSDOF 10
ENDMDL
MODEL 7
REMARK VINA RESULT:    -9.618      1.511      2.040
REMARK INTER + INTRA:         -14.133
REMARK INTER:                 -12.601
REMARK INTRA:                  -1.533
REMARK CONF_INDEPENDENT:        2.983
REMARK UNBOUND:                -1.533
REMARK  10 active torsions:
REMARK  status: ('A' for Active; 'I' for Inactive)
REMARK    1  A    between atoms: C_2  and  C_4 
REMARK    2  A    between atoms: C_4  and  C_5 
REMARK    3  A    between atoms: C_5  and  O_6 
REMARK    4  A    between atoms: O_6  and  C_7 
REMARK    5  A    between atoms: C_10  and  N_11 
REMARK       I    between atoms: N_11  and  C_12 
REMARK    6  A    between atoms: C_12  and  C_14 
REMARK    7  A    between atoms: C_14  and  N_15 
REMARK    8  A    between atoms: N_15  and  C_16 
REMARK    9  A    between atoms: C_21  and  C_22 
REMARK       I    between atoms: C_22  and  N_24 
REMARK   10  A    between atoms: N_24  and  C_25 
ROOT
ATOM      1  N   UNL d   1      27.882 -15.199   1.836  0.00  0.00    -0.381 N 
ATOM      2  H   UNL d   1      27.805 -16.061   2.385  0.00  0.00     0.160 HD
ENDROOT
BRANCH   1   3
ATOM      3  C   UNL d   1      27.577 -15.355   0.408  0.00  0.00     0.223 C 
BRANCH   3   4
ATOM      4  C   UNL d   1      26.466 -16.403   0.268  0.00  0.00     0.239 C 
ATOM      5  N   UNL d   1      25.374 -16.063  -0.533  0.00  0.00    -0.326 N 
ATOM      6  H   UNL d   1      25.338 -15.140  -0.950  0.00  0.00     0.169 HD
ATOM      7  O   UNL d   1      26.601 -17.462   0.890  0.00  0.00    -0.271 OA
BRANCH   5   8
ATOM      8  C   UNL d   1      24.234 -16.899  -0.725  0.00  0.00     0.034 A 
ATOM      9  C   UNL d   1      24.376 -18.255  -1.046  0.00  0.00     0.032 A 
ATOM     10  C   UNL d   1      23.240 -19.038  -1.350  0.00  0.00     0.039 A 
ATOM     11  C   UNL d   1      21.955 -18.498  -1.270  0.00  0.00     0.068 A 
ATOM     12  C   UNL d   1      21.813 -17.174  -0.895  0.00  0.00     0.039 A 
ATOM     13  C   UNL d   1      22.936 -16.396  -0.627  0.00  0.00     0.032 A 
BRANCH  11  14
ATOM     14  O   UNL d   1      20.905 -19.351  -1.481  0.00  0.00    -0.351 OA
BRANCH  14  15
ATOM     15  C   UNL d   1      19.874 -19.280  -0.492  0.00  0.00     0.176 C 
BRANCH  15  16
ATOM     16  C   UNL d   1      20.409 -19.798   0.842  0.00  0.00     0.030 C 
BRANCH  16  17
ATOM     17  C   UNL d   1      19.287 -20.000   1.875  0.00  0.00    -0.021 C 
ATOM     18  C   UNL d   1      18.280 -21.032   1.368  0.00  0.00     0.009 C 
ATOM     19  C   UNL d   1      19.833 -20.450   3.232  0.00  0.00     0.009 C 
ENDBRANCH  16  17
ENDBRANCH  15  16
ENDBRANCH  14  15
ENDBRANCH  11  14
ENDBRANCH   5   8
ENDBRANCH   3   4
ENDBRANCH   1   3
BRANCH   1  20
ATOM     20  C   UNL d   1      27.873 -14.012   2.525  0.00  0.00     0.029 A 
ATOM     21  C   UNL d   1      27.766 -12.814   1.815  0.00  0.00     0.031 A 
ATOM     22  C   UNL d   1      27.748 -11.587   2.471  0.00  0.00     0.027 A 
ATOM     23  C   UNL d   1      27.781 -11.536   3.861  0.00  0.00     0.049 A 
ATOM     24 CL   UNL d   1      27.591  -9.940   4.518  0.00  0.00    -0.083 Cl
ATOM     25  C   UNL d   1      27.913 -12.730   4.601  0.00  0.00     0.055 A 
ATOM     26  C   UNL d   1      27.942 -13.955   3.915  0.00  0.00     0.048 A 
BRANCH  25  27
ATOM     27  C   UNL d   1      28.066 -12.703   6.072  0.00  0.00     0.253 C 
ATOM     28  O   UNL d   1      27.405 -11.866   6.684  0.00  0.00    -0.268 OA
ATOM     29  N   UNL d   1      28.931 -13.578   6.716  0.00  0.00    -0.352 N 
ATOM     30  H   UNL d   1      29.504 -14.220   6.192  0.00  0.00     0.163 HD
BRANCH  29  31
ATOM     31  C   UNL d   1      29.176 -13.564   8.165  0.00  0.00     0.084 C 
ATOM     32  C   UNL d   1      30.501 -14.265   8.498  0.00  0.00     0.025 C 
ATOM     33  C   UNL d   1      30.816 -14.207   9.995  0.00  0.00     0.002 C 
ATOM     34  C   UNL d   1      30.785 -12.778  10.531  0.00  0.00     0.000 C 
ATOM     35  C   UNL d   1      29.432 -12.134  10.266  0.00  0.00     0.002 C 
ATOM     36  C   UNL d   1      29.134 -12.163   8.787  0.00  0.00     0.025 C 
ENDBRANCH  29  31
ENDBRANCH  25  27
ENDBRANCH   1  20
TORSDOF 10
ENDMDL
MODEL 8
REMARK VINA RESULT:    -9.551      5.207     10.199
REMARK INTER + INTRA:         -14.310
REMARK INTER:                 -12.534
REMARK INTRA:                  -1.776
REMARK CONF_INDEPENDENT:        2.983
REMARK UNBOUND:                -1.776
REMARK  10 active torsions:
REMARK  status: ('A' for Active; 'I' for Inactive)
REMARK    1  A    between atoms: C_2  and  C_4 
REMARK    2  A    between atoms: C_4  and  C_5 
REMARK    3  A    between atoms: C_5  and  O_6 
REMARK    4  A    between atoms: O_6  and  C_7 
REMARK    5  A    between atoms: C_10  and  N_11 
REMARK       I    between atoms: N_11  and  C_12 
REMARK    6  A    between atoms: C_12  and  C_14 
REMARK    7  A    between atoms: C_14  and  N_15 
REMARK    8  A    between atoms: N_15  and  C_16 
REMARK    9  A    between atoms: C_21  and  C_22 
REMARK       I    between atoms: C_22  and  N_24 
REMARK   10  A    between atoms: N_24  and  C_25 
ROOT
ATOM      1  N   UNL d   1      24.965 -13.690  -2.838  0.00  0.00    -0.381 N 
ATOM      2  H   UNL d   1      25.031 -12.785  -2.361  0.00  0.00     0.160 HD
ENDROOT
BRANCH   1   3
ATOM      3  C   UNL d   1      25.011 -13.612  -4.304  0.00  0.00     0.223 C 
BRANCH   3   4
ATOM      4  C   UNL d   1      26.022 -14.651  -4.807  0.00  0.00     0.239 C 
ATOM      5  N   UNL d   1      27.374 -14.329  -4.681  0.00  0.00    -0.326 N 
ATOM      6  H   UNL d   1      27.632 -13.422  -4.307  0.00  0.00     0.169 HD
ATOM      7  O   UNL d   1      25.572 -15.686  -5.308  0.00  0.00    -0.271 OA
BRANCH   5   8
ATOM      8  C   UNL d   1      28.439 -15.156  -5.146  0.00  0.00     0.034 A 
ATOM      9  C   UNL d   1      29.015 -14.953  -6.407  0.00  0.00     0.032 A 
ATOM     10  C   UNL d   1      29.985 -15.854  -6.900  0.00  0.00     0.039 A 
ATOM     11  C   UNL d   1      30.437 -16.920  -6.120  0.00  0.00     0.068 A 
ATOM     12  C   UNL d   1      29.908 -17.084  -4.851  0.00  0.00     0.039 A 
ATOM     13  C   UNL d   1      28.930 -16.214  -4.380  0.00  0.00     0.032 A 
BRANCH  11  14
ATOM     14  O   UNL d   1      31.450 -17.684  -6.633  0.00  0.00    -0.351 OA
BRANCH  14  15
ATOM     15  C   UNL d   1      31.018 -18.864  -7.316  0.00  0.00     0.176 C 
BRANCH  15  16
ATOM     16  C   UNL d   1      32.233 -19.709  -7.695  0.00  0.00     0.030 C 
BRANCH  16  17
ATOM     17  C   UNL d   1      32.566 -19.602  -9.193  0.00  0.00    -0.021 C 
ATOM     18  C   UNL d   1      31.303 -19.792 -10.031  0.00  0.00     0.009 C 
ATOM     19  C   UNL d   1      33.208 -18.256  -9.541  0.00  0.00     0.009 C 
ENDBRANCH  16  17
ENDBRANCH  15  16
ENDBRANCH  14  15
ENDBRANCH  11  14
ENDBRANCH   5   8
ENDBRANCH   3   4
ENDBRANCH   1   3
BRANCH   1  20
ATOM     20  C   UNL d   1      25.226 -14.813  -2.093  0.00  0.00     0.029 A 
ATOM     21  C   UNL d   1      26.483 -14.959  -1.502  0.00  0.00     0.031 A 
ATOM     22  C   UNL d   1      26.792 -16.079  -0.734  0.00  0.00     0.027 A 
ATOM     23  C   UNL d   1      25.826 -17.051  -0.496  0.00  0.00     0.049 A 
ATOM     24 CL   UNL d   1      26.328 -18.294   0.609  0.00  0.00    -0.083 Cl
ATOM     25  C   UNL d   1      24.557 -16.938  -1.100  0.00  0.00     0.055 A 
ATOM     26  C   UNL d   1      24.274 -15.807  -1.881  0.00  0.00     0.048 A 
BRANCH  25  27
ATOM     27  C   UNL d   1      23.547 -18.011  -0.959  0.00  0.00     0.253 C 
ATOM     28  O   UNL d   1      23.518 -18.867  -1.841  0.00  0.00    -0.268 OA
ATOM     29  N   UNL d   1      22.669 -18.027   0.117  0.00  0.00    -0.352 N 
ATOM     30  H   UNL d   1      22.673 -17.287   0.801  0.00  0.00     0.163 HD
BRANCH  29  31
ATOM     31  C   UNL d   1      21.605 -19.026   0.286  0.00  0.00     0.084 C 
ATOM     32  C   UNL d   1      21.009 -18.950   1.700  0.00  0.00     0.025 C 
ATOM     33  C   UNL d   1      19.852 -19.935   1.884  0.00  0.00     0.002 C 
ATOM     34  C   UNL d   1      18.779 -19.763   0.812  0.00  0.00     0.000 C 
ATOM     35  C   UNL d   1      19.377 -19.928  -0.578  0.00  0.00     0.002 C 
ATOM     36  C   UNL d   1      20.499 -18.938  -0.772  0.00  0.00     0.025 C 
ENDBRANCH  29  31
ENDBRANCH  25  27
ENDBRANCH   1  20
TORSDOF 10
ENDMDL
MODEL 9
REMARK VINA RESULT:    -9.165      2.995      6.024
REMARK INTER + INTRA:         -14.010
REMARK INTER:                 -12.148
REMARK INTRA:                  -1.862
REMARK CONF_INDEPENDENT:        2.983
REMARK UNBOUND:                -1.862
REMARK  10 active torsions:
REMARK  status: ('A' for Active; 'I' for Inactive)
REMARK    1  A    between atoms: C_2  and  C_4 
REMARK    2  A    between atoms: C_4  and  C_5 
REMARK    3  A    between atoms: C_5  and  O_6 
REMARK    4  A    between atoms: O_6  and  C_7 
REMARK    5  A    between atoms: C_10  and  N_11 
REMARK       I    between atoms: N_11  and  C_12 
REMARK    6  A    between atoms: C_12  and  C_14 
REMARK    7  A    between atoms: C_14  and  N_15 
REMARK    8  A    between atoms: N_15  and  C_16 
REMARK    9  A    between atoms: C_21  and  C_22 
REMARK       I    between atoms: C_22  and  N_24 
REMARK   10  A    between atoms: N_24  and  C_25 
ROOT
ATOM      1  N   UNL d   1      29.024 -16.398   0.558  0.00  0.00    -0.381 N 
ATOM      2  H   UNL d   1      29.609 -16.676   1.354  0.00  0.00     0.160 HD
ENDROOT
BRANCH   1   3
ATOM      3  C   UNL d   1      28.617 -17.507  -0.315  0.00  0.00     0.223 C 
BRANCH   3   4
ATOM      4  C   UNL d   1      27.149 -17.836  -0.017  0.00  0.00     0.239 C 
ATOM      5  N   UNL d   1      26.205 -17.422  -0.958  0.00  0.00    -0.326 N 
ATOM      6  H   UNL d   1      26.515 -16.894  -1.767  0.00  0.00     0.169 HD
ATOM      7  O   UNL d   1      26.901 -18.421   1.042  0.00  0.00    -0.271 OA
BRANCH   5   8
ATOM      8  C   UNL d   1      24.797 -17.599  -0.810  0.00  0.00     0.034 A 
ATOM      9  C   UNL d   1      24.252 -18.862  -0.542  0.00  0.00     0.032 A 
ATOM     10  C   UNL d   1      22.851 -19.041  -0.516  0.00  0.00     0.039 A 
ATOM     11  C   UNL d   1      21.986 -17.959  -0.689  0.00  0.00     0.068 A 
ATOM     12  C   UNL d   1      22.528 -16.702  -0.895  0.00  0.00     0.039 A 
ATOM     13  C   UNL d   1      23.908 -16.534  -0.951  0.00  0.00     0.032 A 
BRANCH  11  14
ATOM     14  O   UNL d   1      20.646 -18.202  -0.548  0.00  0.00    -0.351 OA
BRANCH  14  15
ATOM     15  C   UNL d   1      20.250 -19.544  -0.845  0.00  0.00     0.176 C 
BRANCH  15  16
ATOM     16  C   UNL d   1      18.814 -19.769  -0.375  0.00  0.00     0.030 C 
BRANCH  16  17
ATOM     17  C   UNL d   1      18.740 -20.089   1.128  0.00  0.00    -0.021 C 
ATOM     18  C   UNL d   1      18.082 -21.451   1.347  0.00  0.00     0.009 C 
ATOM     19  C   UNL d   1      20.124 -20.083   1.781  0.00  0.00     0.009 C 
ENDBRANCH  16  17
ENDBRANCH  15  16
ENDBRANCH  14  15
ENDBRANCH  11  14
ENDBRANCH   5   8
ENDBRANCH   3   4
ENDBRANCH   1   3
BRANCH   1  20
ATOM     20  C   UNL d   1      28.410 -15.173   0.626  0.00  0.00     0.029 A 
ATOM     21  C   UNL d   1      28.464 -14.452   1.821  0.00  0.00     0.031 A 
ATOM     22  C   UNL d   1      27.859 -13.203   1.936  0.00  0.00     0.027 A 
ATOM     23  C   UNL d   1      27.233 -12.625   0.836  0.00  0.00     0.049 A 
ATOM     24 CL   UNL d   1      26.673 -11.004   1.110  0.00  0.00    -0.083 Cl
ATOM     25  C   UNL d   1      27.145 -13.343  -0.375  0.00  0.00     0.055 A 
ATOM     26  C   UNL d   1      27.751 -14.606  -0.462  0.00  0.00     0.048 A 
BRANCH  25  27
ATOM     27  C   UNL d   1      26.388 -12.805  -1.527  0.00  0.00     0.253 C 
ATOM     28  O   UNL d   1      25.530 -13.535  -2.018  0.00  0.00    -0.268 OA
ATOM     29  N   UNL d   1      26.658 -11.538  -2.027  0.00  0.00    -0.352 N 
ATOM     30  H   UNL d   1      27.401 -10.976  -1.645  0.00  0.00     0.163 HD
BRANCH  29  31
ATOM     31  C   UNL d   1      25.987 -10.967  -3.204  0.00  0.00     0.084 C 
ATOM     32  C   UNL d   1      25.783  -9.455  -3.031  0.00  0.00     0.025 C 
ATOM     33  C   UNL d   1      25.147  -8.820  -4.271  0.00  0.00     0.002 C 
ATOM     34  C   UNL d   1      25.928  -9.141  -5.542  0.00  0.00     0.000 C 
ATOM     35  C   UNL d   1      26.043 -10.645  -5.737  0.00  0.00     0.002 C 
ATOM     36  C   UNL d   1      26.697 -11.268  -4.529  0.00  0.00     0.025 C 
ENDBRANCH  29  31
ENDBRANCH  25  27
ENDBRANCH   1  20
TORSDOF 10
ENDMDL
