MODEL 1
REMARK VINA RESULT:    -9.709      0.000      0.000
REMARK INTER + INTRA:         -13.099
REMARK INTER:                 -11.797
REMARK INTRA:                  -1.302
REMARK CONF_INDEPENDENT:        2.088
REMARK UNBOUND:                -1.302
REMARK  7 active torsions:
REMARK  status: ('A' for Active; 'I' for Inactive)
REMARK    1  A    between atoms: C_5  and  N_6 
REMARK       I    between atoms: N_6  and  C_7 
REMARK       I    between atoms: C_7  and  N_9 
REMARK    2  A    between atoms: N_9  and  C_10 
REMARK    3  A    between atoms: C_13  and  N_14 
REMARK    4  A    between atoms: C_20  and  C_21 
REMARK       I    between atoms: C_21  and  N_23 
REMARK    5  A    between atoms: N_23  and  C_24 
REMARK    6  A    between atoms: C_24  and  C_25 
REMARK    7  A    between atoms: C_25  and  C_26 
ROOT
ATOM      1  C   UNL d   1      29.096 -14.336   1.311  0.00  0.00     0.037 A 
ATOM      2  C   UNL d   1      29.071 -13.388   0.299  0.00  0.00     0.032 A 
ATOM      3  C   UNL d   1      28.230 -13.580  -0.824  0.00  0.00     0.032 A 
ATOM      4  C   UNL d   1      27.399 -14.719  -1.001  0.00  0.00     0.046 A 
ATOM      5  C   UNL d   1      27.417 -15.676   0.042  0.00  0.00     0.060 A 
ATOM      6  C   UNL d   1      28.270 -15.461   1.158  0.00  0.00     0.049 A 
ENDROOT
BRANCH   1   7
ATOM      7  N   UNL d   1      29.907 -14.185   2.493  0.00  0.00    -0.309 N 
ATOM      8  C   UNL d   1      29.302 -13.874   3.707  0.00  0.00     0.325 C 
ATOM      9  N   UNL d   1      30.140 -13.713   4.810  0.00  0.00    -0.309 N 
ATOM     10  O   UNL d   1      28.079 -13.767   3.761  0.00  0.00    -0.247 OA
ATOM     11  H   UNL d   1      31.140 -13.798   4.697  0.00  0.00     0.170 HD
ATOM     12  H   UNL d   1      30.847 -14.552   2.477  0.00  0.00     0.170 HD
BRANCH   9  13
ATOM     13  C   UNL d   1      29.658 -13.383   6.132  0.00  0.00     0.036 A 
ATOM     14  C   UNL d   1      29.095 -12.135   6.419  0.00  0.00     0.030 A 
ATOM     15  C   UNL d   1      28.660 -11.774   7.690  0.00  0.00     0.009 A 
ATOM     16  C   UNL d   1      28.751 -12.663   8.751  0.00  0.00    -0.056 A 
ATOM     17  C   UNL d   1      28.280 -12.203  10.102  0.00  0.00     0.049 C 
ATOM     18  C   UNL d   1      29.275 -13.948   8.506  0.00  0.00    -0.054 A 
ATOM     19  C   UNL d   1      29.733 -14.296   7.199  0.00  0.00     0.037 A 
ATOM     20  C   UNL d   1      29.337 -14.944   9.637  0.00  0.00     0.049 C 
ENDBRANCH   9  13
ENDBRANCH   1   7
BRANCH   5  21
ATOM     21  C   UNL d   1      26.552 -16.911   0.033  0.00  0.00     0.254 C 
ATOM     22  O   UNL d   1      27.008 -18.057   0.039  0.00  0.00    -0.268 OA
ATOM     23  N   UNL d   1      25.177 -16.777   0.003  0.00  0.00    -0.356 N 
ATOM     24  H   UNL d   1      24.712 -15.891   0.112  0.00  0.00     0.162 HD
BRANCH  23  25
ATOM     25  C   UNL d   1      24.370 -17.974  -0.062  0.00  0.00     0.127 C 
BRANCH  25  26
ATOM     26  C   UNL d   1      23.245 -17.848  -1.078  0.00  0.00     0.058 C 
BRANCH  26  27
ATOM     27  C   UNL d   1      21.975 -18.477  -0.571  0.00  0.00    -0.057 A 
ATOM     28  C   UNL d   1      21.786 -18.646   0.805  0.00  0.00     0.007 A 
ATOM     29  C   UNL d   1      20.670 -19.332   1.279  0.00  0.00     0.001 A 
ATOM     30  C   UNL d   1      19.693 -19.778   0.391  0.00  0.00     0.000 A 
ATOM     31  C   UNL d   1      19.854 -19.582  -0.979  0.00  0.00     0.001 A 
ATOM     32  C   UNL d   1      20.993 -18.937  -1.459  0.00  0.00     0.007 A 
ENDBRANCH  26  27
ENDBRANCH  25  26
ENDBRANCH  23  25
ENDBRANCH   5  21
BRANCH   4  33
ATOM     33  N   UNL d   1      26.592 -14.732  -2.132  0.00  0.00    -0.380 N 
ATOM     34  C   UNL d   1      26.360 -15.948  -2.921  0.00  0.00     0.123 C 
ATOM     35  C   UNL d   1      26.469 -15.553  -4.402  0.00  0.00     0.020 C 
ATOM     36  C   UNL d   1      25.534 -14.385  -4.754  0.00  0.00     0.003 C 
ATOM     37  C   UNL d   1      25.692 -13.220  -3.776  0.00  0.00     0.020 C 
ATOM     38  C   UNL d   1      25.566 -13.709  -2.341  0.00  0.00     0.123 C 
ENDBRANCH   4  33
TORSDOF 7
ENDMDL
MODEL 2
REMARK VINA RESULT:    -9.644      6.033     10.522
REMARK INTER + INTRA:         -13.082
REMARK INTER:                 -11.732
REMARK INTRA:                  -1.349
REMARK CONF_INDEPENDENT:        2.088
REMARK UNBOUND:                -1.349
REMARK  7 active torsions:
REMARK  status: ('A' for Active; 'I' for Inactive)
REMARK    1  A    between atoms: C_5  and  N_6 
REMARK       I    between atoms: N_6  and  C_7 
REMARK       I    between atoms: C_7  and  N_9 
REMARK    2  A    between atoms: N_9  and  C_10 
REMARK    3  A    between atoms: C_13  and  N_14 
REMARK    4  A    between atoms: C_20  and  C_21 
REMARK       I    between atoms: C_21  and  N_23 
REMARK    5  A    between atoms: N_23  and  C_24 
REMARK    6  A    between atoms: C_24  and  C_25 
REMARK    7  A    between atoms: C_25  and  C_26 
ROOT
ATOM      1  C   UNL d   1      25.932  -9.909  -4.275  0.00  0.00     0.037 A 
ATOM      2  C   UNL d   1      27.189  -9.748  -4.836  0.00  0.00     0.032 A 
ATOM      3  C   UNL d   1      28.000 -10.883  -5.084  0.00  0.00     0.032 A 
ATOM      4  C   UNL d   1      27.611 -12.212  -4.770  0.00  0.00     0.046 A 
ATOM      5  C   UNL d   1      26.320 -12.372  -4.212  0.00  0.00     0.060 A 
ATOM      6  C   UNL d   1      25.527 -11.219  -3.973  0.00  0.00     0.049 A 
ENDROOT
BRANCH   1   7
ATOM      7  N   UNL d   1      25.047  -8.798  -4.027  0.00  0.00    -0.309 N 
ATOM      8  C   UNL d   1      24.214  -8.342  -5.045  0.00  0.00     0.325 C 
ATOM      9  N   UNL d   1      23.401  -7.247  -4.755  0.00  0.00    -0.309 N 
ATOM     10  O   UNL d   1      24.220  -8.917  -6.132  0.00  0.00    -0.247 OA
ATOM     11  H   UNL d   1      23.455  -6.809  -3.846  0.00  0.00     0.170 HD
ATOM     12  H   UNL d   1      24.862  -8.541  -3.070  0.00  0.00     0.170 HD
BRANCH   9  13
ATOM     13  C   UNL d   1      22.490  -6.659  -5.710  0.00  0.00     0.036 A 
ATOM     14  C   UNL d   1      21.442  -5.823  -5.309  0.00  0.00     0.030 A 
ATOM     15  C   UNL d   1      20.525  -5.275  -6.200  0.00  0.00     0.009 A 
ATOM     16  C   UNL d   1      20.623  -5.524  -7.561  0.00  0.00    -0.056 A 
ATOM     17  C   UNL d   1      19.590  -4.916  -8.467  0.00  0.00     0.049 C 
ATOM     18  C   UNL d   1      21.685  -6.329  -8.022  0.00  0.00    -0.054 A 
ATOM     19  C   UNL d   1      22.606  -6.897  -7.091  0.00  0.00     0.037 A 
ATOM     20  C   UNL d   1      21.834  -6.570  -9.503  0.00  0.00     0.049 C 
ENDBRANCH   9  13
ENDBRANCH   1   7
BRANCH   5  21
ATOM     21  C   UNL d   1      25.736 -13.722  -3.876  0.00  0.00     0.254 C 
ATOM     22  O   UNL d   1      24.637 -14.105  -4.286  0.00  0.00    -0.268 OA
ATOM     23  N   UNL d   1      26.442 -14.583  -3.059  0.00  0.00    -0.356 N 
ATOM     24  H   UNL d   1      27.391 -14.409  -2.771  0.00  0.00     0.162 HD
BRANCH  23  25
ATOM     25  C   UNL d   1      25.838 -15.848  -2.705  0.00  0.00     0.127 C 
BRANCH  25  26
ATOM     26  C   UNL d   1      25.764 -16.042  -1.199  0.00  0.00     0.058 C 
BRANCH  26  27
ATOM     27  C   UNL d   1      24.562 -16.861  -0.810  0.00  0.00    -0.057 A 
ATOM     28  C   UNL d   1      24.730 -18.186  -0.394  0.00  0.00     0.007 A 
ATOM     29  C   UNL d   1      23.619 -18.988  -0.145  0.00  0.00     0.001 A 
ATOM     30  C   UNL d   1      22.336 -18.450  -0.225  0.00  0.00     0.000 A 
ATOM     31  C   UNL d   1      22.159 -17.121  -0.602  0.00  0.00     0.001 A 
ATOM     32  C   UNL d   1      23.267 -16.330  -0.898  0.00  0.00     0.007 A 
ENDBRANCH  26  27
ENDBRANCH  25  26
ENDBRANCH  23  25
ENDBRANCH   5  21
BRANCH   4  33
ATOM     33  N   UNL d   1      28.498 -13.222  -5.125  0.00  0.00    -0.380 N 
ATOM     34  C   UNL d   1      28.999 -13.386  -6.495  0.00  0.00     0.123 C 
ATOM     35  C   UNL d   1      28.944 -14.887  -6.821  0.00  0.00     0.020 C 
ATOM     36  C   UNL d   1      29.687 -15.729  -5.772  0.00  0.00     0.003 C 
ATOM     37  C   UNL d   1      29.252 -15.374  -4.349  0.00  0.00     0.020 C 
ATOM     38  C   UNL d   1      29.344 -13.873  -4.124  0.00  0.00     0.123 C 
ENDBRANCH   4  33
TORSDOF 7
ENDMDL
MODEL 3
REMARK VINA RESULT:    -9.309      6.120      9.199
REMARK INTER + INTRA:         -12.398
REMARK INTER:                 -11.397
REMARK INTRA:                  -1.001
REMARK CONF_INDEPENDENT:        2.088
REMARK UNBOUND:                -1.001
REMARK  7 active torsions:
REMARK  status: ('A' for Active; 'I' for Inactive)
REMARK    1  A    between atoms: C_5  and  N_6 
REMARK       I    between atoms: N_6  and  C_7 
REMARK       I    between atoms: C_7  and  N_9 
REMARK    2  A    between atoms: N_9  and  C_10 
REMARK    3  A    between atoms: C_13  and  N_14 
REMARK    4  A    between atoms: C_20  and  C_21 
REMARK       I    between atoms: C_21  and  N_23 
REMARK    5  A    between atoms: N_23  and  C_24 
REMARK    6  A    between atoms: C_24  and  C_25 
REMARK    7  A    between atoms: C_25  and  C_26 
ROOT
ATOM      1  C   UNL d   1      28.767 -14.106  -6.534  0.00  0.00     0.037 A 
ATOM      2  C   UNL d   1      29.030 -12.750  -6.662  0.00  0.00     0.032 A 
ATOM      3  C   UNL d   1      28.195 -11.807  -6.014  0.00  0.00     0.032 A 
ATOM      4  C   UNL d   1      27.062 -12.163  -5.234  0.00  0.00     0.046 A 
ATOM      5  C   UNL d   1      26.808 -13.548  -5.094  0.00  0.00     0.060 A 
ATOM      6  C   UNL d   1      27.659 -14.474  -5.754  0.00  0.00     0.049 A 
ENDROOT
BRANCH   1   7
ATOM      7  N   UNL d   1      29.597 -15.115  -7.143  0.00  0.00    -0.309 N 
ATOM      8  C   UNL d   1      29.821 -16.315  -6.474  0.00  0.00     0.325 C 
ATOM      9  N   UNL d   1      30.654 -17.243  -7.100  0.00  0.00    -0.309 N 
ATOM     10  O   UNL d   1      29.281 -16.511  -5.388  0.00  0.00    -0.247 OA
ATOM     11  H   UNL d   1      31.082 -17.015  -7.987  0.00  0.00     0.170 HD
ATOM     12  H   UNL d   1      29.785 -15.045  -8.131  0.00  0.00     0.170 HD
BRANCH   9  13
ATOM     13  C   UNL d   1      30.985 -18.527  -6.527  0.00  0.00     0.036 A 
ATOM     14  C   UNL d   1      31.200 -19.655  -7.325  0.00  0.00     0.030 A 
ATOM     15  C   UNL d   1      31.480 -20.914  -6.802  0.00  0.00     0.009 A 
ATOM     16  C   UNL d   1      31.578 -21.106  -5.432  0.00  0.00    -0.056 A 
ATOM     17  C   UNL d   1      31.864 -22.493  -4.931  0.00  0.00     0.049 C 
ATOM     18  C   UNL d   1      31.409 -19.992  -4.584  0.00  0.00    -0.054 A 
ATOM     19  C   UNL d   1      31.106 -18.712  -5.138  0.00  0.00     0.037 A 
ATOM     20  C   UNL d   1      31.561 -20.173  -3.094  0.00  0.00     0.049 C 
ENDBRANCH   9  13
ENDBRANCH   1   7
BRANCH   5  21
ATOM     21  C   UNL d   1      25.680 -14.091  -4.253  0.00  0.00     0.254 C 
ATOM     22  O   UNL d   1      24.510 -14.143  -4.643  0.00  0.00    -0.268 OA
ATOM     23  N   UNL d   1      25.942 -14.545  -2.975  0.00  0.00    -0.356 N 
ATOM     24  H   UNL d   1      26.876 -14.650  -2.613  0.00  0.00     0.162 HD
BRANCH  23  25
ATOM     25  C   UNL d   1      24.836 -15.008  -2.168  0.00  0.00     0.127 C 
BRANCH  25  26
ATOM     26  C   UNL d   1      25.281 -16.004  -1.109  0.00  0.00     0.058 C 
BRANCH  26  27
ATOM     27  C   UNL d   1      24.212 -17.025  -0.832  0.00  0.00    -0.057 A 
ATOM     28  C   UNL d   1      24.570 -18.348  -0.550  0.00  0.00     0.007 A 
ATOM     29  C   UNL d   1      23.588 -19.325  -0.408  0.00  0.00     0.001 A 
ATOM     30  C   UNL d   1      22.240 -18.976  -0.461  0.00  0.00     0.000 A 
ATOM     31  C   UNL d   1      21.872 -17.655  -0.704  0.00  0.00     0.001 A 
ATOM     32  C   UNL d   1      22.853 -16.683  -0.893  0.00  0.00     0.007 A 
ENDBRANCH  26  27
ENDBRANCH  25  26
ENDBRANCH  23  25
ENDBRANCH   5  21
BRANCH   4  33
ATOM     33  N   UNL d   1      26.377 -11.122  -4.619  0.00  0.00    -0.380 N 
ATOM     34  C   UNL d   1      25.530 -10.185  -5.366  0.00  0.00     0.123 C 
ATOM     35  C   UNL d   1      25.837  -8.776  -4.837  0.00  0.00     0.020 C 
ATOM     36  C   UNL d   1      25.679  -8.689  -3.310  0.00  0.00     0.003 C 
ATOM     37  C   UNL d   1      26.436  -9.812  -2.599  0.00  0.00     0.020 C 
ATOM     38  C   UNL d   1      26.064 -11.163  -3.190  0.00  0.00     0.123 C 
ENDBRANCH   4  33
TORSDOF 7
ENDMDL
MODEL 4
REMARK VINA RESULT:    -9.052      5.810      9.755
REMARK INTER + INTRA:         -12.842
REMARK INTER:                 -11.141
REMARK INTRA:                  -1.702
REMARK CONF_INDEPENDENT:        2.088
REMARK UNBOUND:                -1.702
REMARK  7 active torsions:
REMARK  status: ('A' for Active; 'I' for Inactive)
REMARK    1  A    between atoms: C_5  and  N_6 
REMARK       I    between atoms: N_6  and  C_7 
REMARK       I    between atoms: C_7  and  N_9 
REMARK    2  A    between atoms: N_9  and  C_10 
REMARK    3  A    between atoms: C_13  and  N_14 
REMARK    4  A    between atoms: C_20  and  C_21 
REMARK       I    between atoms: C_21  and  N_23 
REMARK    5  A    between atoms: N_23  and  C_24 
REMARK    6  A    between atoms: C_24  and  C_25 
REMARK    7  A    between atoms: C_25  and  C_26 
ROOT
ATOM      1  C   UNL d   1      25.796 -16.575  -1.196  0.00  0.00     0.037 A 
ATOM      2  C   UNL d   1      27.123 -16.966  -1.303  0.00  0.00     0.032 A 
ATOM      3  C   UNL d   1      27.941 -16.408  -2.316  0.00  0.00     0.032 A 
ATOM      4  C   UNL d   1      27.480 -15.462  -3.269  0.00  0.00     0.046 A 
ATOM      5  C   UNL d   1      26.130 -15.055  -3.146  0.00  0.00     0.060 A 
ATOM      6  C   UNL d   1      25.329 -15.630  -2.123  0.00  0.00     0.049 A 
ENDROOT
BRANCH   1   7
ATOM      7  N   UNL d   1      24.921 -17.083  -0.170  0.00  0.00    -0.309 N 
ATOM      8  C   UNL d   1      23.742 -17.730  -0.530  0.00  0.00     0.325 C 
ATOM      9  N   UNL d   1      22.922 -18.175   0.506  0.00  0.00    -0.309 N 
ATOM     10  O   UNL d   1      23.482 -17.891  -1.721  0.00  0.00    -0.247 OA
ATOM     11  H   UNL d   1      23.184 -17.997   1.466  0.00  0.00     0.170 HD
ATOM     12  H   UNL d   1      25.290 -17.189   0.762  0.00  0.00     0.170 HD
BRANCH   9  13
ATOM     13  C   UNL d   1      21.666 -18.857   0.289  0.00  0.00     0.036 A 
ATOM     14  C   UNL d   1      21.166 -19.084  -0.998  0.00  0.00     0.030 A 
ATOM     15  C   UNL d   1      19.943 -19.700  -1.239  0.00  0.00     0.009 A 
ATOM     16  C   UNL d   1      19.153 -20.144  -0.188  0.00  0.00    -0.056 A 
ATOM     17  C   UNL d   1      17.834 -20.784  -0.517  0.00  0.00     0.049 C 
ATOM     18  C   UNL d   1      19.629 -19.974   1.128  0.00  0.00    -0.054 A 
ATOM     19  C   UNL d   1      20.880 -19.324   1.357  0.00  0.00     0.037 A 
ATOM     20  C   UNL d   1      18.807 -20.494   2.279  0.00  0.00     0.049 C 
ENDBRANCH   9  13
ENDBRANCH   1   7
BRANCH   5  21
ATOM     21  C   UNL d   1      25.504 -14.017  -4.044  0.00  0.00     0.254 C 
ATOM     22  O   UNL d   1      24.331 -14.070  -4.423  0.00  0.00    -0.268 OA
ATOM     23  N   UNL d   1      26.266 -12.955  -4.488  0.00  0.00    -0.356 N 
ATOM     24  H   UNL d   1      27.193 -12.765  -4.143  0.00  0.00     0.162 HD
BRANCH  23  25
ATOM     25  C   UNL d   1      25.661 -12.004  -5.393  0.00  0.00     0.127 C 
BRANCH  25  26
ATOM     26  C   UNL d   1      26.658 -10.960  -5.873  0.00  0.00     0.058 C 
BRANCH  26  27
ATOM     27  C   UNL d   1      27.288 -11.364  -7.178  0.00  0.00    -0.057 A 
ATOM     28  C   UNL d   1      26.639 -11.071  -8.382  0.00  0.00     0.007 A 
ATOM     29  C   UNL d   1      27.154 -11.542  -9.588  0.00  0.00     0.001 A 
ATOM     30  C   UNL d   1      28.363 -12.234  -9.610  0.00  0.00     0.000 A 
ATOM     31  C   UNL d   1      29.036 -12.499  -8.420  0.00  0.00     0.001 A 
ATOM     32  C   UNL d   1      28.500 -12.070  -7.208  0.00  0.00     0.007 A 
ENDBRANCH  26  27
ENDBRANCH  25  26
ENDBRANCH  23  25
ENDBRANCH   5  21
BRANCH   4  33
ATOM     33  N   UNL d   1      28.422 -14.969  -4.165  0.00  0.00    -0.380 N 
ATOM     34  C   UNL d   1      28.185 -14.923  -5.612  0.00  0.00     0.123 C 
ATOM     35  C   UNL d   1      29.470 -15.413  -6.298  0.00  0.00     0.020 C 
ATOM     36  C   UNL d   1      30.704 -14.622  -5.835  0.00  0.00     0.003 C 
ATOM     37  C   UNL d   1      30.789 -14.548  -4.309  0.00  0.00     0.020 C 
ATOM     38  C   UNL d   1      29.474 -14.051  -3.727  0.00  0.00     0.123 C 
ENDBRANCH   4  33
TORSDOF 7
ENDMDL
MODEL 5
REMARK VINA RESULT:    -9.024      4.792      9.664
REMARK INTER + INTRA:         -12.580
REMARK INTER:                 -11.112
REMARK INTRA:                  -1.469
REMARK CONF_INDEPENDENT:        2.088
REMARK UNBOUND:                -1.469
REMARK  7 active torsions:
REMARK  status: ('A' for Active; 'I' for Inactive)
REMARK    1  A    between atoms: C_5  and  N_6 
REMARK       I    between atoms: N_6  and  C_7 
REMARK       I    between atoms: C_7  and  N_9 
REMARK    2  A    between atoms: N_9  and  C_10 
REMARK    3  A    between atoms: C_13  and  N_14 
REMARK    4  A    between atoms: C_20  and  C_21 
REMARK       I    between atoms: C_21  and  N_23 
REMARK    5  A    between atoms: N_23  and  C_24 
REMARK    6  A    between atoms: C_24  and  C_25 
REMARK    7  A    between atoms: C_25  and  C_26 
ROOT
ATOM      1  C   UNL d   1      25.125 -16.946  -1.180  0.00  0.00     0.037 A 
ATOM      2  C   UNL d   1      25.751 -17.453  -0.052  0.00  0.00     0.032 A 
ATOM      3  C   UNL d   1      27.161 -17.373   0.066  0.00  0.00     0.032 A 
ATOM      4  C   UNL d   1      28.004 -16.810  -0.928  0.00  0.00     0.046 A 
ATOM      5  C   UNL d   1      27.357 -16.279  -2.070  0.00  0.00     0.060 A 
ATOM      6  C   UNL d   1      25.944 -16.372  -2.165  0.00  0.00     0.049 A 
ENDROOT
BRANCH   1   7
ATOM      7  N   UNL d   1      23.693 -16.969  -1.346  0.00  0.00    -0.309 N 
ATOM      8  C   UNL d   1      22.942 -17.946  -0.698  0.00  0.00     0.325 C 
ATOM      9  N   UNL d   1      21.564 -17.935  -0.919  0.00  0.00    -0.309 N 
ATOM     10  O   UNL d   1      23.507 -18.754   0.034  0.00  0.00    -0.247 OA
ATOM     11  H   UNL d   1      21.162 -17.253  -1.546  0.00  0.00     0.170 HD
ATOM     12  H   UNL d   1      23.242 -16.143  -1.709  0.00  0.00     0.170 HD
BRANCH   9  13
ATOM     13  C   UNL d   1      20.657 -18.889  -0.322  0.00  0.00     0.036 A 
ATOM     14  C   UNL d   1      19.689 -19.556  -1.080  0.00  0.00     0.030 A 
ATOM     15  C   UNL d   1      18.775 -20.448  -0.528  0.00  0.00     0.009 A 
ATOM     16  C   UNL d   1      18.796 -20.736   0.829  0.00  0.00    -0.056 A 
ATOM     17  C   UNL d   1      17.770 -21.694   1.364  0.00  0.00     0.049 C 
ATOM     18  C   UNL d   1      19.778 -20.120   1.631  0.00  0.00    -0.054 A 
ATOM     19  C   UNL d   1      20.697 -19.194   1.050  0.00  0.00     0.037 A 
ATOM     20  C   UNL d   1      19.847 -20.459   3.099  0.00  0.00     0.049 C 
ENDBRANCH   9  13
ENDBRANCH   1   7
BRANCH   5  21
ATOM     21  C   UNL d   1      28.104 -15.597  -3.189  0.00  0.00     0.254 C 
ATOM     22  O   UNL d   1      27.595 -14.744  -3.921  0.00  0.00    -0.268 OA
ATOM     23  N   UNL d   1      29.420 -15.937  -3.434  0.00  0.00    -0.356 N 
ATOM     24  H   UNL d   1      29.954 -16.533  -2.823  0.00  0.00     0.162 HD
BRANCH  23  25
ATOM     25  C   UNL d   1      30.098 -15.311  -4.546  0.00  0.00     0.127 C 
BRANCH  25  26
ATOM     26  C   UNL d   1      29.745 -15.969  -5.871  0.00  0.00     0.058 C 
BRANCH  26  27
ATOM     27  C   UNL d   1      30.297 -17.367  -5.953  0.00  0.00    -0.057 A 
ATOM     28  C   UNL d   1      30.341 -18.164  -4.804  0.00  0.00     0.007 A 
ATOM     29  C   UNL d   1      30.956 -19.413  -4.841  0.00  0.00     0.001 A 
ATOM     30  C   UNL d   1      31.454 -19.913  -6.043  0.00  0.00     0.000 A 
ATOM     31  C   UNL d   1      31.381 -19.143  -7.202  0.00  0.00     0.001 A 
ATOM     32  C   UNL d   1      30.809 -17.873  -7.157  0.00  0.00     0.007 A 
ENDBRANCH  26  27
ENDBRANCH  25  26
ENDBRANCH  23  25
ENDBRANCH   5  21
BRANCH   4  33
ATOM     33  N   UNL d   1      29.362 -16.757  -0.638  0.00  0.00    -0.380 N 
ATOM     34  C   UNL d   1      29.939 -15.740   0.249  0.00  0.00     0.123 C 
ATOM     35  C   UNL d   1      31.227 -15.235  -0.419  0.00  0.00     0.020 C 
ATOM     36  C   UNL d   1      32.184 -16.387  -0.765  0.00  0.00     0.003 C 
ATOM     37  C   UNL d   1      31.471 -17.504  -1.529  0.00  0.00     0.020 C 
ATOM     38  C   UNL d   1      30.214 -17.937  -0.788  0.00  0.00     0.123 C 
ENDBRANCH   4  33
TORSDOF 7
ENDMDL
MODEL 6
REMARK VINA RESULT:    -8.973      1.353      2.005
REMARK INTER + INTRA:         -12.645
REMARK INTER:                 -11.061
REMARK INTRA:                  -1.584
REMARK CONF_INDEPENDENT:        2.088
REMARK UNBOUND:                -1.584
REMARK  7 active torsions:
REMARK  status: ('A' for Active; 'I' for Inactive)
REMARK    1  A    between atoms: C_5  and  N_6 
REMARK       I    between atoms: N_6  and  C_7 
REMARK       I    between atoms: C_7  and  N_9 
REMARK    2  A    between atoms: N_9  and  C_10 
REMARK    3  A    between atoms: C_13  and  N_14 
REMARK    4  A    between atoms: C_20  and  C_21 
REMARK       I    between atoms: C_21  and  N_23 
REMARK    5  A    between atoms: N_23  and  C_24 
REMARK    6  A    between atoms: C_24  and  C_25 
REMARK    7  A    between atoms: C_25  and  C_26 
ROOT
ATOM      1  C   UNL d   1      29.779 -13.345   1.965  0.00  0.00     0.037 A 
ATOM      2  C   UNL d   1      30.031 -12.493   0.900  0.00  0.00     0.032 A 
ATOM      3  C   UNL d   1      29.317 -12.652  -0.313  0.00  0.00     0.032 A 
ATOM      4  C   UNL d   1      28.345 -13.665  -0.527  0.00  0.00     0.046 A 
ATOM      5  C   UNL d   1      28.080 -14.522   0.568  0.00  0.00     0.060 A 
ATOM      6  C   UNL d   1      28.810 -14.342   1.773  0.00  0.00     0.049 A 
ENDROOT
BRANCH   1   7
ATOM      7  N   UNL d   1      30.450 -13.216   3.234  0.00  0.00    -0.309 N 
ATOM      8  C   UNL d   1      29.705 -13.228   4.410  0.00  0.00     0.325 C 
ATOM      9  N   UNL d   1      30.406 -13.072   5.606  0.00  0.00    -0.309 N 
ATOM     10  O   UNL d   1      28.487 -13.382   4.351  0.00  0.00    -0.247 OA
ATOM     11  H   UNL d   1      31.406 -12.932   5.586  0.00  0.00     0.170 HD
ATOM     12  H   UNL d   1      31.445 -13.376   3.266  0.00  0.00     0.170 HD
BRANCH   9  13
ATOM     13  C   UNL d   1      29.770 -13.056   6.903  0.00  0.00     0.036 A 
ATOM     14  C   UNL d   1      28.906 -12.025   7.286  0.00  0.00     0.030 A 
ATOM     15  C   UNL d   1      28.311 -11.961   8.542  0.00  0.00     0.009 A 
ATOM     16  C   UNL d   1      28.539 -12.951   9.486  0.00  0.00    -0.056 A 
ATOM     17  C   UNL d   1      27.880 -12.812  10.829  0.00  0.00     0.049 C 
ATOM     18  C   UNL d   1      29.370 -14.034   9.136  0.00  0.00    -0.054 A 
ATOM     19  C   UNL d   1      29.986 -14.075   7.849  0.00  0.00     0.037 A 
ATOM     20  C   UNL d   1      29.590 -15.144  10.133  0.00  0.00     0.049 C 
ENDBRANCH   9  13
ENDBRANCH   1   7
BRANCH   5  21
ATOM     21  C   UNL d   1      27.037 -15.610   0.521  0.00  0.00     0.254 C 
ATOM     22  O   UNL d   1      25.861 -15.407   0.208  0.00  0.00    -0.268 OA
ATOM     23  N   UNL d   1      27.389 -16.903   0.856  0.00  0.00    -0.356 N 
ATOM     24  H   UNL d   1      28.342 -17.188   1.012  0.00  0.00     0.162 HD
BRANCH  23  25
ATOM     25  C   UNL d   1      26.360 -17.918   0.857  0.00  0.00     0.127 C 
BRANCH  25  26
ATOM     26  C   UNL d   1      25.839 -18.203  -0.543  0.00  0.00     0.058 C 
BRANCH  26  27
ATOM     27  C   UNL d   1      24.338 -18.112  -0.599  0.00  0.00    -0.057 A 
ATOM     28  C   UNL d   1      23.568 -19.277  -0.518  0.00  0.00     0.007 A 
ATOM     29  C   UNL d   1      22.187 -19.216  -0.687  0.00  0.00     0.001 A 
ATOM     30  C   UNL d   1      21.555 -17.985  -0.852  0.00  0.00     0.000 A 
ATOM     31  C   UNL d   1      22.309 -16.815  -0.896  0.00  0.00     0.001 A 
ATOM     32  C   UNL d   1      23.696 -16.877  -0.775  0.00  0.00     0.007 A 
ENDBRANCH  26  27
ENDBRANCH  25  26
ENDBRANCH  23  25
ENDBRANCH   5  21
BRANCH   4  33
ATOM     33  N   UNL d   1      27.693 -13.654  -1.754  0.00  0.00    -0.380 N 
ATOM     34  C   UNL d   1      27.238 -12.414  -2.394  0.00  0.00     0.123 C 
ATOM     35  C   UNL d   1      25.823 -12.675  -2.934  0.00  0.00     0.020 C 
ATOM     36  C   UNL d   1      25.777 -13.910  -3.847  0.00  0.00     0.003 C 
ATOM     37  C   UNL d   1      26.438 -15.124  -3.192  0.00  0.00     0.020 C 
ATOM     38  C   UNL d   1      27.831 -14.767  -2.695  0.00  0.00     0.123 C 
ENDBRANCH   4  33
TORSDOF 7
ENDMDL
MODEL 7
REMARK VINA RESULT:    -8.964      1.975      9.580
REMARK INTER + INTRA:         -12.522
REMARK INTER:                 -11.052
REMARK INTRA:                  -1.471
REMARK CONF_INDEPENDENT:        2.088
REMARK UNBOUND:                -1.471
REMARK  7 active torsions:
REMARK  status: ('A' for Active; 'I' for Inactive)
REMARK    1  A    between atoms: C_5  and  N_6 
REMARK       I    between atoms: N_6  and  C_7 
REMARK       I    between atoms: C_7  and  N_9 
REMARK    2  A    between atoms: N_9  and  C_10 
REMARK    3  A    between atoms: C_13  and  N_14 
REMARK    4  A    between atoms: C_20  and  C_21 
REMARK       I    between atoms: C_21  and  N_23 
REMARK    5  A    between atoms: N_23  and  C_24 
REMARK    6  A    between atoms: C_24  and  C_25 
REMARK    7  A    between atoms: C_25  and  C_26 
ROOT
ATOM      1  C   UNL d   1      25.100 -16.237  -1.161  0.00  0.00     0.037 A 
ATOM      2  C   UNL d   1      26.048 -16.874  -1.947  0.00  0.00     0.032 A 
ATOM      3  C   UNL d   1      27.427 -16.682  -1.681  0.00  0.00     0.032 A 
ATOM      4  C   UNL d   1      27.920 -15.843  -0.648  0.00  0.00     0.046 A 
ATOM      5  C   UNL d   1      26.947 -15.207   0.161  0.00  0.00     0.060 A 
ATOM      6  C   UNL d   1      25.572 -15.415  -0.126  0.00  0.00     0.049 A 
ENDROOT
BRANCH   1   7
ATOM      7  N   UNL d   1      23.684 -16.415  -1.361  0.00  0.00    -0.309 N 
ATOM      8  C   UNL d   1      23.020 -17.445  -0.700  0.00  0.00     0.325 C 
ATOM      9  N   UNL d   1      21.656 -17.585  -0.954  0.00  0.00    -0.309 N 
ATOM     10  O   UNL d   1      23.646 -18.168   0.072  0.00  0.00    -0.247 OA
ATOM     11  H   UNL d   1      21.202 -16.968  -1.613  0.00  0.00     0.170 HD
ATOM     12  H   UNL d   1      23.159 -15.653  -1.762  0.00  0.00     0.170 HD
BRANCH   9  13
ATOM     13  C   UNL d   1      20.837 -18.610  -0.348  0.00  0.00     0.036 A 
ATOM     14  C   UNL d   1      19.877 -19.313  -1.083  0.00  0.00     0.030 A 
ATOM     15  C   UNL d   1      19.045 -20.276  -0.519  0.00  0.00     0.009 A 
ATOM     16  C   UNL d   1      19.146 -20.602   0.825  0.00  0.00    -0.056 A 
ATOM     17  C   UNL d   1      18.206 -21.637   1.374  0.00  0.00     0.049 C 
ATOM     18  C   UNL d   1      20.125 -19.949   1.602  0.00  0.00    -0.054 A 
ATOM     19  C   UNL d   1      20.959 -18.952   1.011  0.00  0.00     0.037 A 
ATOM     20  C   UNL d   1      20.282 -20.325   3.054  0.00  0.00     0.049 C 
ENDBRANCH   9  13
ENDBRANCH   1   7
BRANCH   5  21
ATOM     21  C   UNL d   1      27.307 -14.330   1.334  0.00  0.00     0.254 C 
ATOM     22  O   UNL d   1      26.879 -13.181   1.476  0.00  0.00    -0.268 OA
ATOM     23  N   UNL d   1      28.168 -14.809   2.302  0.00  0.00    -0.356 N 
ATOM     24  H   UNL d   1      28.476 -15.767   2.334  0.00  0.00     0.162 HD
BRANCH  23  25
ATOM     25  C   UNL d   1      28.542 -13.930   3.387  0.00  0.00     0.127 C 
BRANCH  25  26
ATOM     26  C   UNL d   1      28.731 -14.687   4.693  0.00  0.00     0.058 C 
BRANCH  26  27
ATOM     27  C   UNL d   1      28.764 -13.749   5.870  0.00  0.00    -0.057 A 
ATOM     28  C   UNL d   1      29.353 -14.162   7.070  0.00  0.00     0.007 A 
ATOM     29  C   UNL d   1      29.286 -13.349   8.199  0.00  0.00     0.001 A 
ATOM     30  C   UNL d   1      28.707 -12.085   8.118  0.00  0.00     0.000 A 
ATOM     31  C   UNL d   1      28.150 -11.649   6.918  0.00  0.00     0.001 A 
ATOM     32  C   UNL d   1      28.174 -12.479   5.798  0.00  0.00     0.007 A 
ENDBRANCH  26  27
ENDBRANCH  25  26
ENDBRANCH  23  25
ENDBRANCH   5  21
BRANCH   4  33
ATOM     33  N   UNL d   1      29.299 -15.803  -0.481  0.00  0.00    -0.380 N 
ATOM     34  C   UNL d   1      30.137 -17.006  -0.557  0.00  0.00     0.123 C 
ATOM     35  C   UNL d   1      31.142 -16.931   0.604  0.00  0.00     0.020 C 
ATOM     36  C   UNL d   1      31.930 -15.612   0.596  0.00  0.00     0.003 C 
ATOM     37  C   UNL d   1      31.003 -14.400   0.482  0.00  0.00     0.020 C 
ATOM     38  C   UNL d   1      30.052 -14.566  -0.693  0.00  0.00     0.123 C 
ENDBRANCH   4  33
TORSDOF 7
ENDMDL
MODEL 8
REMARK VINA RESULT:    -8.563      4.674      9.069
REMARK INTER + INTRA:         -12.396
REMARK INTER:                 -10.651
REMARK INTRA:                  -1.745
REMARK CONF_INDEPENDENT:        2.088
REMARK UNBOUND:                -1.745
REMARK  7 active torsions:
REMARK  status: ('A' for Active; 'I' for Inactive)
REMARK    1  A    between atoms: C_5  and  N_6 
REMARK       I    between atoms: N_6  and  C_7 
REMARK       I    between atoms: C_7  and  N_9 
REMARK    2  A    between atoms: N_9  and  C_10 
REMARK    3  A    between atoms: C_13  and  N_14 
REMARK    4  A    between atoms: C_20  and  C_21 
REMARK       I    between atoms: C_21  and  N_23 
REMARK    5  A    between atoms: N_23  and  C_24 
REMARK    6  A    between atoms: C_24  and  C_25 
REMARK    7  A    between atoms: C_25  and  C_26 
ROOT
ATOM      1  C   UNL d   1      25.629 -16.801  -1.132  0.00  0.00     0.037 A 
ATOM      2  C   UNL d   1      26.238 -17.332  -0.004  0.00  0.00     0.032 A 
ATOM      3  C   UNL d   1      27.650 -17.321   0.104  0.00  0.00     0.032 A 
ATOM      4  C   UNL d   1      28.513 -16.807  -0.901  0.00  0.00     0.046 A 
ATOM      5  C   UNL d   1      27.885 -16.253  -2.042  0.00  0.00     0.060 A 
ATOM      6  C   UNL d   1      26.468 -16.276  -2.127  0.00  0.00     0.049 A 
ENDROOT
BRANCH   1   7
ATOM      7  N   UNL d   1      24.197 -16.755  -1.288  0.00  0.00    -0.309 N 
ATOM      8  C   UNL d   1      23.407 -17.730  -0.686  0.00  0.00     0.325 C 
ATOM      9  N   UNL d   1      22.031 -17.649  -0.895  0.00  0.00    -0.309 N 
ATOM     10  O   UNL d   1      23.941 -18.599   0.000  0.00  0.00    -0.247 OA
ATOM     11  H   UNL d   1      21.655 -16.919  -1.484  0.00  0.00     0.170 HD
ATOM     12  H   UNL d   1      23.780 -15.893  -1.606  0.00  0.00     0.170 HD
BRANCH   9  13
ATOM     13  C   UNL d   1      21.086 -18.592  -0.341  0.00  0.00     0.036 A 
ATOM     14  C   UNL d   1      20.101 -19.195  -1.130  0.00  0.00     0.030 A 
ATOM     15  C   UNL d   1      19.152 -20.075  -0.618  0.00  0.00     0.009 A 
ATOM     16  C   UNL d   1      19.153 -20.415   0.727  0.00  0.00    -0.056 A 
ATOM     17  C   UNL d   1      18.090 -21.356   1.218  0.00  0.00     0.049 C 
ATOM     18  C   UNL d   1      20.150 -19.865   1.558  0.00  0.00    -0.054 A 
ATOM     19  C   UNL d   1      21.105 -18.950   1.019  0.00  0.00     0.037 A 
ATOM     20  C   UNL d   1      20.195 -20.261   3.012  0.00  0.00     0.049 C 
ENDBRANCH   9  13
ENDBRANCH   1   7
BRANCH   5  21
ATOM     21  C   UNL d   1      28.658 -15.616  -3.170  0.00  0.00     0.254 C 
ATOM     22  O   UNL d   1      29.689 -14.961  -2.999  0.00  0.00    -0.268 OA
ATOM     23  N   UNL d   1      28.198 -15.747  -4.467  0.00  0.00    -0.356 N 
ATOM     24  H   UNL d   1      27.436 -16.354  -4.718  0.00  0.00     0.162 HD
BRANCH  23  25
ATOM     25  C   UNL d   1      28.924 -15.080  -5.525  0.00  0.00     0.127 C 
BRANCH  25  26
ATOM     26  C   UNL d   1      28.122 -13.942  -6.135  0.00  0.00     0.058 C 
BRANCH  26  27
ATOM     27  C   UNL d   1      27.188 -13.328  -5.128  0.00  0.00    -0.057 A 
ATOM     28  C   UNL d   1      27.597 -12.211  -4.392  0.00  0.00     0.007 A 
ATOM     29  C   UNL d   1      26.788 -11.707  -3.376  0.00  0.00     0.001 A 
ATOM     30  C   UNL d   1      25.530 -12.258  -3.145  0.00  0.00     0.000 A 
ATOM     31  C   UNL d   1      25.096 -13.347  -3.898  0.00  0.00     0.001 A 
ATOM     32  C   UNL d   1      25.923 -13.883  -4.883  0.00  0.00     0.007 A 
ENDBRANCH  26  27
ENDBRANCH  25  26
ENDBRANCH  23  25
ENDBRANCH   5  21
BRANCH   4  33
ATOM     33  N   UNL d   1      29.874 -16.820  -0.620  0.00  0.00    -0.380 N 
ATOM     34  C   UNL d   1      30.482 -15.929   0.376  0.00  0.00     0.123 C 
ATOM     35  C   UNL d   1      31.777 -15.377  -0.241  0.00  0.00     0.020 C 
ATOM     36  C   UNL d   1      32.703 -16.502  -0.731  0.00  0.00     0.003 C 
ATOM     37  C   UNL d   1      31.958 -17.504  -1.614  0.00  0.00     0.020 C 
ATOM     38  C   UNL d   1      30.697 -17.993  -0.918  0.00  0.00     0.123 C 
ENDBRANCH   4  33
TORSDOF 7
ENDMDL
MODEL 9
REMARK VINA RESULT:    -7.907      5.673      9.322
REMARK INTER + INTRA:         -12.177
REMARK INTER:                  -9.995
REMARK INTRA:                  -2.182
REMARK CONF_INDEPENDENT:        2.088
REMARK UNBOUND:                -2.182
REMARK  7 active torsions:
REMARK  status: ('A' for Active; 'I' for Inactive)
REMARK    1  A    between atoms: C_5  and  N_6 
REMARK       I    between atoms: N_6  and  C_7 
REMARK       I    between atoms: C_7  and  N_9 
REMARK    2  A    between atoms: N_9  and  C_10 
REMARK    3  A    between atoms: C_13  and  N_14 
REMARK    4  A    between atoms: C_20  and  C_21 
REMARK       I    between atoms: C_21  and  N_23 
REMARK    5  A    between atoms: N_23  and  C_24 
REMARK    6  A    between atoms: C_24  and  C_25 
REMARK    7  A    between atoms: C_25  and  C_26 
ROOT
ATOM      1  C   UNL d   1      26.179 -16.391  -1.374  0.00  0.00     0.037 A 
ATOM      2  C   UNL d   1      27.517 -16.738  -1.477  0.00  0.00     0.032 A 
ATOM      3  C   UNL d   1      28.311 -16.181  -2.510  0.00  0.00     0.032 A 
ATOM      4  C   UNL d   1      27.811 -15.282  -3.489  0.00  0.00     0.046 A 
ATOM      5  C   UNL d   1      26.448 -14.919  -3.370  0.00  0.00     0.060 A 
ATOM      6  C   UNL d   1      25.674 -15.491  -2.325  0.00  0.00     0.049 A 
ENDROOT
BRANCH   1   7
ATOM      7  N   UNL d   1      25.327 -16.898  -0.328  0.00  0.00    -0.309 N 
ATOM      8  C   UNL d   1      24.122 -17.513  -0.659  0.00  0.00     0.325 C 
ATOM      9  N   UNL d   1      23.327 -17.959   0.397  0.00  0.00    -0.309 N 
ATOM     10  O   UNL d   1      23.819 -17.645  -1.842  0.00  0.00    -0.247 OA
ATOM     11  H   UNL d   1      23.626 -17.805   1.349  0.00  0.00     0.170 HD
ATOM     12  H   UNL d   1      25.725 -17.030   0.590  0.00  0.00     0.170 HD
BRANCH   9  13
ATOM     13  C   UNL d   1      22.050 -18.608   0.209  0.00  0.00     0.036 A 
ATOM     14  C   UNL d   1      21.565 -18.923  -1.064  0.00  0.00     0.030 A 
ATOM     15  C   UNL d   1      20.323 -19.511  -1.279  0.00  0.00     0.009 A 
ATOM     16  C   UNL d   1      19.497 -19.835  -0.213  0.00  0.00    -0.056 A 
ATOM     17  C   UNL d   1      18.160 -20.451  -0.515  0.00  0.00     0.049 C 
ATOM     18  C   UNL d   1      19.956 -19.574   1.094  0.00  0.00    -0.054 A 
ATOM     19  C   UNL d   1      21.226 -18.955   1.296  0.00  0.00     0.037 A 
ATOM     20  C   UNL d   1      19.092 -19.964   2.267  0.00  0.00     0.049 C 
ENDBRANCH   9  13
ENDBRANCH   1   7
BRANCH   5  21
ATOM     21  C   UNL d   1      25.781 -13.932  -4.294  0.00  0.00     0.254 C 
ATOM     22  O   UNL d   1      24.592 -14.002  -4.614  0.00  0.00    -0.268 OA
ATOM     23  N   UNL d   1      26.523 -12.898  -4.833  0.00  0.00    -0.356 N 
ATOM     24  H   UNL d   1      27.464 -12.691  -4.542  0.00  0.00     0.162 HD
BRANCH  23  25
ATOM     25  C   UNL d   1      25.875 -11.997  -5.760  0.00  0.00     0.127 C 
BRANCH  25  26
ATOM     26  C   UNL d   1      25.744 -10.593  -5.191  0.00  0.00     0.058 C 
BRANCH  26  27
ATOM     27  C   UNL d   1      26.777 -10.333  -4.129  0.00  0.00    -0.057 A 
ATOM     28  C   UNL d   1      28.064  -9.924  -4.497  0.00  0.00     0.007 A 
ATOM     29  C   UNL d   1      29.060  -9.794  -3.533  0.00  0.00     0.001 A 
ATOM     30  C   UNL d   1      28.760  -9.987  -2.186  0.00  0.00     0.000 A 
ATOM     31  C   UNL d   1      27.473 -10.357  -1.804  0.00  0.00     0.001 A 
ATOM     32  C   UNL d   1      26.485 -10.534  -2.772  0.00  0.00     0.007 A 
ENDBRANCH  26  27
ENDBRANCH  25  26
ENDBRANCH  23  25
ENDBRANCH   5  21
BRANCH   4  33
ATOM     33  N   UNL d   1      28.731 -14.783  -4.404  0.00  0.00    -0.380 N 
ATOM     34  C   UNL d   1      30.017 -14.205  -3.995  0.00  0.00     0.123 C 
ATOM     35  C   UNL d   1      30.221 -12.925  -4.820  0.00  0.00     0.020 C 
ATOM     36  C   UNL d   1      30.100 -13.190  -6.329  0.00  0.00     0.003 C 
ATOM     37  C   UNL d   1      28.825 -13.964  -6.667  0.00  0.00     0.020 C 
ATOM     38  C   UNL d   1      28.714 -15.211  -5.803  0.00  0.00     0.123 C 
ENDBRANCH   4  33
TORSDOF 7
ENDMDL
