MODEL 1
REMARK VINA RESULT:    -8.749      0.000      0.000
REMARK INTER + INTRA:         -12.381
REMARK INTER:                 -10.837
REMARK INTRA:                  -1.544
REMARK CONF_INDEPENDENT:        2.088
REMARK UNBOUND:                -1.544
REMARK  7 active torsions:
REMARK  status: ('A' for Active; 'I' for Inactive)
REMARK    1  A    between atoms: O_2  and  C_3 
REMARK    2  A    between atoms: C_6  and  C_7 
REMARK       I    between atoms: C_7  and  N_9 
REMARK       I    between atoms: C_10  and  N_11 
REMARK       I    between atoms: C_10  and  N_23 
REMARK    3  A    between atoms: N_11  and  C_12 
REMARK    4  A    between atoms: C_12  and  C_13 
REMARK    5  A    between atoms: C_13  and  C_14 
REMARK    6  A    between atoms: N_23  and  C_24 
REMARK    7  A    between atoms: C_33  and  O_34 
ROOT
ATOM      1  C   UNL d   1      28.346 -14.826  -5.500  0.00  0.00     0.294 C 
ATOM      2  O   UNL d   1      27.527 -15.575  -5.000  0.00  0.00    -0.265 OA
ATOM      3  N   UNL d   1      28.374 -13.426  -5.590  0.00  0.00    -0.023 NA
ATOM      4  C   UNL d   1      27.332 -12.655  -5.362  0.00  0.00     0.704 C 
ATOM      5  N   UNL d   1      26.044 -13.040  -5.061  0.00  0.00    -0.224 N 
ATOM      6  N   UNL d   1      27.423 -11.267  -5.477  0.00  0.00    -0.190 N 
ATOM      7  H   UNL d   1      25.350 -12.319  -4.936  0.00  0.00     0.177 HD
ATOM      8  H   UNL d   1      28.306 -10.909  -5.826  0.00  0.00     0.184 HD
ENDROOT
BRANCH   5   9
ATOM      9  C   UNL d   1      25.748 -14.330  -4.543  0.00  0.00     0.142 C 
BRANCH   9  10
ATOM     10  C   UNL d   1      25.151 -14.519  -3.217  0.00  0.00     0.057 C 
BRANCH  10  11
ATOM     11  C   UNL d   1      26.024 -15.363  -2.322  0.00  0.00    -0.048 A 
ATOM     12  C   UNL d   1      25.410 -16.304  -1.620  0.00  0.00    -0.006 A 
ATOM     13  C   UNL d   1      24.030 -16.603  -1.574  0.00  0.00     0.014 C 
ATOM     14  C   UNL d   1      26.420 -16.983  -0.817  0.00  0.00     0.038 A 
ATOM     15  C   UNL d   1      23.615 -17.466  -0.651  0.00  0.00     0.001 C 
ATOM     16  C   UNL d   1      24.573 -18.200   0.159  0.00  0.00     0.002 C 
ATOM     17  C   UNL d   1      25.912 -18.016   0.112  0.00  0.00     0.030 C 
ATOM     18  N   UNL d   1      27.594 -16.538  -1.066  0.00  0.00    -0.385 N 
ATOM     19  C   UNL d   1      27.511 -15.372  -2.024  0.00  0.00     0.155 A 
ATOM     20  H   UNL d   1      28.434 -16.951  -0.657  0.00  0.00     0.160 HD
ENDBRANCH  10  11
ENDBRANCH   9  10
ENDBRANCH   5   9
BRANCH   6  21
ATOM     21  C   UNL d   1      26.516 -10.240  -5.068  0.00  0.00     0.056 A 
ATOM     22  C   UNL d   1      25.915  -9.424  -6.054  0.00  0.00     0.054 A 
ATOM     23  C   UNL d   1      24.990  -8.426  -5.707  0.00  0.00     0.036 A 
ATOM     24 CL   UNL d   1      24.400  -7.325  -6.894  0.00  0.00    -0.084 Cl
ATOM     25  C   UNL d   1      24.568  -8.279  -4.393  0.00  0.00     0.024 A 
ATOM     26  C   UNL d   1      25.155  -9.060  -3.404  0.00  0.00     0.011 A 
ATOM     27  C   UNL d   1      26.150 -10.010  -3.715  0.00  0.00    -0.035 A 
ATOM     28  C   UNL d   1      26.821 -10.692  -2.552  0.00  0.00     0.050 C 
ENDBRANCH   6  21
BRANCH   1  29
ATOM     29  C   UNL d   1      29.443 -15.701  -5.882  0.00  0.00     0.037 A 
ATOM     30  C   UNL d   1      30.237 -15.302  -6.991  0.00  0.00     0.020 A 
ATOM     31  C   UNL d   1      31.155 -16.160  -7.556  0.00  0.00     0.040 A 
ATOM     32  C   UNL d   1      31.390 -17.395  -6.954  0.00  0.00     0.101 A 
ATOM     33  C   UNL d   1      30.647 -17.743  -5.786  0.00  0.00     0.102 A 
ATOM     34  C   UNL d   1      29.655 -16.902  -5.277  0.00  0.00     0.056 A 
BRANCH  32  35
ATOM     35  O   UNL d   1      32.512 -17.985  -7.480  0.00  0.00    -0.353 OA
ATOM     36  C   UNL d   1      32.376 -19.003  -8.463  0.00  0.00     0.210 C 
ENDBRANCH  32  35
BRANCH  33  37
ATOM     37  O   UNL d   1      30.733 -18.808  -4.932  0.00  0.00    -0.353 OA
ATOM     38  C   UNL d   1      30.449 -20.038  -5.515  0.00  0.00     0.210 C 
ENDBRANCH  33  37
ENDBRANCH   1  29
TORSDOF 7
ENDMDL
MODEL 2
REMARK VINA RESULT:    -8.721      5.026      8.484
REMARK INTER + INTRA:         -12.210
REMARK INTER:                 -10.809
REMARK INTRA:                  -1.402
REMARK CONF_INDEPENDENT:        2.088
REMARK UNBOUND:                -1.402
REMARK  7 active torsions:
REMARK  status: ('A' for Active; 'I' for Inactive)
REMARK    1  A    between atoms: O_2  and  C_3 
REMARK    2  A    between atoms: C_6  and  C_7 
REMARK       I    between atoms: C_7  and  N_9 
REMARK       I    between atoms: C_10  and  N_11 
REMARK       I    between atoms: C_10  and  N_23 
REMARK    3  A    between atoms: N_11  and  C_12 
REMARK    4  A    between atoms: C_12  and  C_13 
REMARK    5  A    between atoms: C_13  and  C_14 
REMARK    6  A    between atoms: N_23  and  C_24 
REMARK    7  A    between atoms: C_33  and  O_34 
ROOT
ATOM      1  C   UNL d   1      30.758 -18.821  -3.437  0.00  0.00     0.294 C 
ATOM      2  O   UNL d   1      30.098 -17.826  -3.198  0.00  0.00    -0.265 OA
ATOM      3  N   UNL d   1      31.282 -19.801  -2.579  0.00  0.00    -0.023 NA
ATOM      4  C   UNL d   1      31.371 -19.662  -1.274  0.00  0.00     0.704 C 
ATOM      5  N   UNL d   1      31.043 -18.560  -0.516  0.00  0.00    -0.224 N 
ATOM      6  N   UNL d   1      31.912 -20.672  -0.476  0.00  0.00    -0.190 N 
ATOM      7  H   UNL d   1      31.194 -18.607   0.480  0.00  0.00     0.177 HD
ATOM      8  H   UNL d   1      32.301 -21.467  -0.973  0.00  0.00     0.184 HD
ENDROOT
BRANCH   5   9
ATOM      9  C   UNL d   1      30.165 -17.551  -0.998  0.00  0.00     0.142 C 
BRANCH   9  10
ATOM     10  C   UNL d   1      28.983 -17.122  -0.243  0.00  0.00     0.057 C 
BRANCH  10  11
ATOM     11  C   UNL d   1      27.864 -16.678  -1.153  0.00  0.00    -0.048 A 
ATOM     12  C   UNL d   1      26.639 -17.033  -0.793  0.00  0.00    -0.006 A 
ATOM     13  C   UNL d   1      26.242 -17.806   0.321  0.00  0.00     0.014 C 
ATOM     14  C   UNL d   1      25.720 -16.527  -1.805  0.00  0.00     0.038 A 
ATOM     15  C   UNL d   1      24.973 -18.201   0.378  0.00  0.00     0.001 C 
ATOM     16  C   UNL d   1      24.000 -17.705  -0.581  0.00  0.00     0.002 C 
ATOM     17  C   UNL d   1      24.301 -16.903  -1.627  0.00  0.00     0.030 C 
ATOM     18  N   UNL d   1      26.333 -15.838  -2.693  0.00  0.00    -0.385 N 
ATOM     19  C   UNL d   1      27.824 -15.890  -2.448  0.00  0.00     0.155 A 
ATOM     20  H   UNL d   1      25.841 -15.337  -3.434  0.00  0.00     0.160 HD
ENDBRANCH  10  11
ENDBRANCH   9  10
ENDBRANCH   5   9
BRANCH   6  21
ATOM     21  C   UNL d   1      31.901 -20.839   0.944  0.00  0.00     0.056 A 
ATOM     22  C   UNL d   1      32.919 -20.229   1.712  0.00  0.00     0.054 A 
ATOM     23  C   UNL d   1      32.934 -20.332   3.112  0.00  0.00     0.036 A 
ATOM     24 CL   UNL d   1      34.271 -19.735   4.022  0.00  0.00    -0.084 Cl
ATOM     25  C   UNL d   1      31.894 -20.955   3.786  0.00  0.00     0.024 A 
ATOM     26  C   UNL d   1      30.889 -21.575   3.052  0.00  0.00     0.011 A 
ATOM     27  C   UNL d   1      30.898 -21.561   1.642  0.00  0.00    -0.035 A 
ATOM     28  C   UNL d   1      29.846 -22.389   0.951  0.00  0.00     0.050 C 
ENDBRANCH   6  21
BRANCH   1  29
ATOM     29  C   UNL d   1      30.778 -18.897  -4.889  0.00  0.00     0.037 A 
ATOM     30  C   UNL d   1      30.897 -20.187  -5.471  0.00  0.00     0.020 A 
ATOM     31  C   UNL d   1      31.137 -20.343  -6.819  0.00  0.00     0.040 A 
ATOM     32  C   UNL d   1      31.146 -19.218  -7.640  0.00  0.00     0.101 A 
ATOM     33  C   UNL d   1      30.934 -17.934  -7.052  0.00  0.00     0.102 A 
ATOM     34  C   UNL d   1      30.782 -17.783  -5.671  0.00  0.00     0.056 A 
BRANCH  32  35
ATOM     35  O   UNL d   1      31.122 -19.583  -8.963  0.00  0.00    -0.353 OA
ATOM     36  C   UNL d   1      32.342 -19.687  -9.686  0.00  0.00     0.210 C 
ENDBRANCH  32  35
BRANCH  33  37
ATOM     37  O   UNL d   1      30.780 -16.691  -7.600  0.00  0.00    -0.353 OA
ATOM     38  C   UNL d   1      30.589 -15.671  -6.674  0.00  0.00     0.210 C 
ENDBRANCH  33  37
ENDBRANCH   1  29
TORSDOF 7
ENDMDL
MODEL 3
REMARK VINA RESULT:    -8.579      2.556      6.514
REMARK INTER + INTRA:         -12.529
REMARK INTER:                 -10.667
REMARK INTRA:                  -1.862
REMARK CONF_INDEPENDENT:        2.088
REMARK UNBOUND:                -1.862
REMARK  7 active torsions:
REMARK  status: ('A' for Active; 'I' for Inactive)
REMARK    1  A    between atoms: O_2  and  C_3 
REMARK    2  A    between atoms: C_6  and  C_7 
REMARK       I    between atoms: C_7  and  N_9 
REMARK       I    between atoms: C_10  and  N_11 
REMARK       I    between atoms: C_10  and  N_23 
REMARK    3  A    between atoms: N_11  and  C_12 
REMARK    4  A    between atoms: C_12  and  C_13 
REMARK    5  A    between atoms: C_13  and  C_14 
REMARK    6  A    between atoms: N_23  and  C_24 
REMARK    7  A    between atoms: C_33  and  O_34 
ROOT
ATOM      1  C   UNL d   1      25.904 -15.070  -2.361  0.00  0.00     0.294 C 
ATOM      2  O   UNL d   1      27.051 -15.276  -2.007  0.00  0.00    -0.265 OA
ATOM      3  N   UNL d   1      25.386 -14.186  -3.320  0.00  0.00    -0.023 NA
ATOM      4  C   UNL d   1      26.069 -13.191  -3.845  0.00  0.00     0.704 C 
ATOM      5  N   UNL d   1      27.349 -12.788  -3.538  0.00  0.00    -0.224 N 
ATOM      6  N   UNL d   1      25.491 -12.340  -4.789  0.00  0.00    -0.190 N 
ATOM      7  H   UNL d   1      27.722 -11.984  -4.020  0.00  0.00     0.177 HD
ATOM      8  H   UNL d   1      24.504 -12.487  -4.973  0.00  0.00     0.184 HD
ENDROOT
BRANCH   5   9
ATOM      9  C   UNL d   1      28.276 -13.654  -2.897  0.00  0.00     0.142 C 
BRANCH   9  10
ATOM     10  C   UNL d   1      29.678 -13.743  -3.316  0.00  0.00     0.057 C 
BRANCH  10  11
ATOM     11  C   UNL d   1      29.807 -14.150  -4.764  0.00  0.00    -0.048 A 
ATOM     12  C   UNL d   1      29.987 -15.442  -4.996  0.00  0.00    -0.006 A 
ATOM     13  C   UNL d   1      30.108 -16.493  -4.059  0.00  0.00     0.014 C 
ATOM     14  C   UNL d   1      30.106 -15.617  -6.438  0.00  0.00     0.038 A 
ATOM     15  C   UNL d   1      30.478 -17.687  -4.513  0.00  0.00     0.001 C 
ATOM     16  C   UNL d   1      30.581 -17.935  -5.942  0.00  0.00     0.002 C 
ATOM     17  C   UNL d   1      30.405 -16.992  -6.895  0.00  0.00     0.030 C 
ATOM     18  N   UNL d   1      29.933 -14.512  -7.060  0.00  0.00    -0.385 N 
ATOM     19  C   UNL d   1      29.785 -13.380  -6.069  0.00  0.00     0.155 A 
ATOM     20  H   UNL d   1      29.899 -14.457  -8.079  0.00  0.00     0.160 HD
ENDBRANCH  10  11
ENDBRANCH   9  10
ENDBRANCH   5   9
BRANCH   6  21
ATOM     21  C   UNL d   1      26.088 -11.362  -5.645  0.00  0.00     0.056 A 
ATOM     22  C   UNL d   1      26.909 -11.795  -6.710  0.00  0.00     0.054 A 
ATOM     23  C   UNL d   1      27.489 -10.877  -7.601  0.00  0.00     0.036 A 
ATOM     24 CL   UNL d   1      28.626 -11.401  -8.785  0.00  0.00    -0.084 Cl
ATOM     25  C   UNL d   1      27.191  -9.524  -7.515  0.00  0.00     0.024 A 
ATOM     26  C   UNL d   1      26.398  -9.073  -6.467  0.00  0.00     0.011 A 
ATOM     27  C   UNL d   1      25.874  -9.965  -5.508  0.00  0.00    -0.035 A 
ATOM     28  C   UNL d   1      25.155  -9.351  -4.336  0.00  0.00     0.050 C 
ENDBRANCH   6  21
BRANCH   1  29
ATOM     29  C   UNL d   1      25.128 -16.086  -1.668  0.00  0.00     0.037 A 
ATOM     30  C   UNL d   1      23.717 -15.923  -1.645  0.00  0.00     0.020 A 
ATOM     31  C   UNL d   1      22.921 -16.708  -0.841  0.00  0.00     0.040 A 
ATOM     32  C   UNL d   1      23.501 -17.757  -0.129  0.00  0.00     0.101 A 
ATOM     33  C   UNL d   1      24.910 -17.963  -0.234  0.00  0.00     0.102 A 
ATOM     34  C   UNL d   1      25.717 -17.103  -0.982  0.00  0.00     0.056 A 
BRANCH  32  35
ATOM     35  O   UNL d   1      22.536 -18.586   0.386  0.00  0.00    -0.353 OA
ATOM     36  C   UNL d   1      21.421 -18.950  -0.418  0.00  0.00     0.210 C 
ENDBRANCH  32  35
BRANCH  33  37
ATOM     37  O   UNL d   1      25.727 -18.950   0.244  0.00  0.00    -0.353 OA
ATOM     38  C   UNL d   1      27.030 -18.541   0.510  0.00  0.00     0.210 C 
ENDBRANCH  33  37
ENDBRANCH   1  29
TORSDOF 7
ENDMDL
MODEL 4
REMARK VINA RESULT:    -8.415      5.099      8.330
REMARK INTER + INTRA:         -12.129
REMARK INTER:                 -10.503
REMARK INTRA:                  -1.626
REMARK CONF_INDEPENDENT:        2.088
REMARK UNBOUND:                -1.626
REMARK  7 active torsions:
REMARK  status: ('A' for Active; 'I' for Inactive)
REMARK    1  A    between atoms: O_2  and  C_3 
REMARK    2  A    between atoms: C_6  and  C_7 
REMARK       I    between atoms: C_7  and  N_9 
REMARK       I    between atoms: C_10  and  N_11 
REMARK       I    between atoms: C_10  and  N_23 
REMARK    3  A    between atoms: N_11  and  C_12 
REMARK    4  A    between atoms: C_12  and  C_13 
REMARK    5  A    between atoms: C_13  and  C_14 
REMARK    6  A    between atoms: N_23  and  C_24 
REMARK    7  A    between atoms: C_33  and  O_34 
ROOT
ATOM      1  C   UNL d   1      28.022 -14.496   1.659  0.00  0.00     0.294 C 
ATOM      2  O   UNL d   1      27.797 -15.676   1.861  0.00  0.00    -0.265 OA
ATOM      3  N   UNL d   1      28.084 -13.767   0.462  0.00  0.00    -0.023 NA
ATOM      4  C   UNL d   1      28.170 -14.318  -0.729  0.00  0.00     0.704 C 
ATOM      5  N   UNL d   1      28.273 -15.657  -1.037  0.00  0.00    -0.224 N 
ATOM      6  N   UNL d   1      28.238 -13.535  -1.883  0.00  0.00    -0.190 N 
ATOM      7  H   UNL d   1      28.355 -15.916  -2.008  0.00  0.00     0.177 HD
ATOM      8  H   UNL d   1      28.302 -12.533  -1.735  0.00  0.00     0.184 HD
ENDROOT
BRANCH   5   9
ATOM      9  C   UNL d   1      27.882 -16.670  -0.120  0.00  0.00     0.142 C 
BRANCH   9  10
ATOM     10  C   UNL d   1      26.768 -17.582  -0.396  0.00  0.00     0.057 C 
BRANCH  10  11
ATOM     11  C   UNL d   1      25.537 -16.842  -0.860  0.00  0.00    -0.048 A 
ATOM     12  C   UNL d   1      24.371 -17.377  -0.528  0.00  0.00    -0.006 A 
ATOM     13  C   UNL d   1      24.125 -18.575   0.179  0.00  0.00     0.014 C 
ATOM     14  C   UNL d   1      23.324 -16.527  -1.083  0.00  0.00     0.038 A 
ATOM     15  C   UNL d   1      22.872 -19.017   0.230  0.00  0.00     0.001 C 
ATOM     16  C   UNL d   1      21.779 -18.202  -0.275  0.00  0.00     0.002 C 
ATOM     17  C   UNL d   1      21.939 -17.011  -0.895  0.00  0.00     0.030 C 
ATOM     18  N   UNL d   1      23.814 -15.492  -1.654  0.00  0.00    -0.385 N 
ATOM     19  C   UNL d   1      25.323 -15.573  -1.662  0.00  0.00     0.155 A 
ATOM     20  H   UNL d   1      23.228 -14.744  -2.028  0.00  0.00     0.160 HD
ENDBRANCH  10  11
ENDBRANCH   9  10
ENDBRANCH   5   9
BRANCH   6  21
ATOM     21  C   UNL d   1      28.108 -13.898  -3.260  0.00  0.00     0.056 A 
ATOM     22  C   UNL d   1      29.163 -14.603  -3.885  0.00  0.00     0.054 A 
ATOM     23  C   UNL d   1      29.069 -15.015  -5.224  0.00  0.00     0.036 A 
ATOM     24 CL   UNL d   1      30.426 -15.716  -6.023  0.00  0.00    -0.084 Cl
ATOM     25  C   UNL d   1      27.898 -14.824  -5.942  0.00  0.00     0.024 A 
ATOM     26  C   UNL d   1      26.853 -14.121  -5.354  0.00  0.00     0.011 A 
ATOM     27  C   UNL d   1      26.954 -13.621  -4.039  0.00  0.00    -0.035 A 
ATOM     28  C   UNL d   1      25.825 -12.747  -3.558  0.00  0.00     0.050 C 
ENDBRANCH   6  21
BRANCH   1  29
ATOM     29  C   UNL d   1      28.066 -13.908   2.989  0.00  0.00     0.037 A 
ATOM     30  C   UNL d   1      28.245 -14.793   4.085  0.00  0.00     0.020 A 
ATOM     31  C   UNL d   1      28.088 -14.362   5.384  0.00  0.00     0.040 A 
ATOM     32  C   UNL d   1      27.866 -13.008   5.627  0.00  0.00     0.101 A 
ATOM     33  C   UNL d   1      27.779 -12.115   4.516  0.00  0.00     0.102 A 
ATOM     34  C   UNL d   1      27.849 -12.581   3.201  0.00  0.00     0.056 A 
BRANCH  32  35
ATOM     35  O   UNL d   1      28.011 -12.724   6.962  0.00  0.00    -0.353 OA
ATOM     36  C   UNL d   1      29.013 -13.393   7.718  0.00  0.00     0.210 C 
ENDBRANCH  32  35
BRANCH  33  37
ATOM     37  O   UNL d   1      27.681 -10.753   4.443  0.00  0.00    -0.353 OA
ATOM     38  C   UNL d   1      28.686 -10.066   5.116  0.00  0.00     0.210 C 
ENDBRANCH  33  37
ENDBRANCH   1  29
TORSDOF 7
ENDMDL
MODEL 5
REMARK VINA RESULT:    -8.303      3.347      5.856
REMARK INTER + INTRA:         -12.641
REMARK INTER:                 -10.391
REMARK INTRA:                  -2.250
REMARK CONF_INDEPENDENT:        2.088
REMARK UNBOUND:                -2.250
REMARK  7 active torsions:
REMARK  status: ('A' for Active; 'I' for Inactive)
REMARK    1  A    between atoms: O_2  and  C_3 
REMARK    2  A    between atoms: C_6  and  C_7 
REMARK       I    between atoms: C_7  and  N_9 
REMARK       I    between atoms: C_10  and  N_11 
REMARK       I    between atoms: C_10  and  N_23 
REMARK    3  A    between atoms: N_11  and  C_12 
REMARK    4  A    between atoms: C_12  and  C_13 
REMARK    5  A    between atoms: C_13  and  C_14 
REMARK    6  A    between atoms: N_23  and  C_24 
REMARK    7  A    between atoms: C_33  and  O_34 
ROOT
ATOM      1  C   UNL d   1      25.855 -15.216  -2.568  0.00  0.00     0.294 C 
ATOM      2  O   UNL d   1      26.978 -15.686  -2.597  0.00  0.00    -0.265 OA
ATOM      3  N   UNL d   1      25.305 -14.115  -3.242  0.00  0.00    -0.023 NA
ATOM      4  C   UNL d   1      26.021 -13.199  -3.858  0.00  0.00     0.704 C 
ATOM      5  N   UNL d   1      27.393 -13.097  -3.918  0.00  0.00    -0.224 N 
ATOM      6  N   UNL d   1      25.412 -12.121  -4.503  0.00  0.00    -0.190 N 
ATOM      7  H   UNL d   1      27.789 -12.314  -4.416  0.00  0.00     0.177 HD
ATOM      8  H   UNL d   1      24.406 -12.050  -4.393  0.00  0.00     0.184 HD
ENDROOT
BRANCH   5   9
ATOM      9  C   UNL d   1      28.241 -14.209  -3.666  0.00  0.00     0.142 C 
BRANCH   9  10
ATOM     10  C   UNL d   1      29.471 -14.088  -2.877  0.00  0.00     0.057 C 
BRANCH  10  11
ATOM     11  C   UNL d   1      29.384 -14.852  -1.578  0.00  0.00    -0.048 A 
ATOM     12  C   UNL d   1      28.536 -14.381  -0.675  0.00  0.00    -0.006 A 
ATOM     13  C   UNL d   1      27.721 -13.229  -0.755  0.00  0.00     0.014 C 
ATOM     14  C   UNL d   1      28.619 -15.243   0.497  0.00  0.00     0.038 A 
ATOM     15  C   UNL d   1      27.092 -12.840   0.351  0.00  0.00     0.001 C 
ATOM     16  C   UNL d   1      27.108 -13.672   1.543  0.00  0.00     0.002 C 
ATOM     17  C   UNL d   1      27.807 -14.824   1.660  0.00  0.00     0.030 C 
ATOM     18  N   UNL d   1      29.412 -16.229   0.299  0.00  0.00    -0.385 N 
ATOM     19  C   UNL d   1      30.084 -16.087  -1.047  0.00  0.00     0.155 A 
ATOM     20  H   UNL d   1      29.532 -16.980   0.980  0.00  0.00     0.160 HD
ENDBRANCH  10  11
ENDBRANCH   9  10
ENDBRANCH   5   9
BRANCH   6  21
ATOM     21  C   UNL d   1      25.953 -11.155  -5.408  0.00  0.00     0.056 A 
ATOM     22  C   UNL d   1      26.680 -11.605  -6.535  0.00  0.00     0.054 A 
ATOM     23  C   UNL d   1      27.200 -10.699  -7.473  0.00  0.00     0.036 A 
ATOM     24 CL   UNL d   1      28.230 -11.245  -8.743  0.00  0.00    -0.084 Cl
ATOM     25  C   UNL d   1      26.931  -9.342  -7.370  0.00  0.00     0.024 A 
ATOM     26  C   UNL d   1      26.232  -8.874  -6.263  0.00  0.00     0.011 A 
ATOM     27  C   UNL d   1      25.773  -9.755  -5.261  0.00  0.00    -0.035 A 
ATOM     28  C   UNL d   1      25.160  -9.126  -4.037  0.00  0.00     0.050 C 
ENDBRANCH   6  21
BRANCH   1  29
ATOM     29  C   UNL d   1      25.093 -16.160  -1.766  0.00  0.00     0.037 A 
ATOM     30  C   UNL d   1      23.696 -15.931  -1.646  0.00  0.00     0.020 A 
ATOM     31  C   UNL d   1      22.932 -16.639  -0.743  0.00  0.00     0.040 A 
ATOM     32  C   UNL d   1      23.521 -17.677  -0.023  0.00  0.00     0.101 A 
ATOM     33  C   UNL d   1      24.907 -17.953  -0.224  0.00  0.00     0.102 A 
ATOM     34  C   UNL d   1      25.690 -17.169  -1.074  0.00  0.00     0.056 A 
BRANCH  32  35
ATOM     35  O   UNL d   1      22.564 -18.435   0.605  0.00  0.00    -0.353 OA
ATOM     36  C   UNL d   1      21.649 -19.196  -0.172  0.00  0.00     0.210 C 
ENDBRANCH  32  35
BRANCH  33  37
ATOM     37  O   UNL d   1      25.716 -18.952   0.243  0.00  0.00    -0.353 OA
ATOM     38  C   UNL d   1      26.994 -18.536   0.606  0.00  0.00     0.210 C 
ENDBRANCH  33  37
ENDBRANCH   1  29
TORSDOF 7
ENDMDL
MODEL 6
REMARK VINA RESULT:    -8.225      5.290      8.200
REMARK INTER + INTRA:         -12.110
REMARK INTER:                 -10.313
REMARK INTRA:                  -1.797
REMARK CONF_INDEPENDENT:        2.088
REMARK UNBOUND:                -1.797
REMARK  7 active torsions:
REMARK  status: ('A' for Active; 'I' for Inactive)
REMARK    1  A    between atoms: O_2  and  C_3 
REMARK    2  A    between atoms: C_6  and  C_7 
REMARK       I    between atoms: C_7  and  N_9 
REMARK       I    between atoms: C_10  and  N_11 
REMARK       I    between atoms: C_10  and  N_23 
REMARK    3  A    between atoms: N_11  and  C_12 
REMARK    4  A    between atoms: C_12  and  C_13 
REMARK    5  A    between atoms: C_13  and  C_14 
REMARK    6  A    between atoms: N_23  and  C_24 
REMARK    7  A    between atoms: C_33  and  O_34 
ROOT
ATOM      1  C   UNL d   1      28.239 -13.821   2.122  0.00  0.00     0.294 C 
ATOM      2  O   UNL d   1      28.665 -14.945   1.926  0.00  0.00    -0.265 OA
ATOM      3  N   UNL d   1      27.626 -12.909   1.251  0.00  0.00    -0.023 NA
ATOM      4  C   UNL d   1      27.642 -13.022  -0.060  0.00  0.00     0.704 C 
ATOM      5  N   UNL d   1      28.282 -13.975  -0.819  0.00  0.00    -0.224 N 
ATOM      6  N   UNL d   1      27.020 -12.072  -0.873  0.00  0.00    -0.190 N 
ATOM      7  H   UNL d   1      28.215 -13.907  -1.823  0.00  0.00     0.177 HD
ATOM      8  H   UNL d   1      26.637 -11.263  -0.395  0.00  0.00     0.184 HD
ENDROOT
BRANCH   5   9
ATOM      9  C   UNL d   1      28.680 -15.226  -0.274  0.00  0.00     0.142 C 
BRANCH   9  10
ATOM     10  C   UNL d   1      28.321 -16.500  -0.906  0.00  0.00     0.057 C 
BRANCH  10  11
ATOM     11  C   UNL d   1      27.148 -17.157  -0.220  0.00  0.00    -0.048 A 
ATOM     12  C   UNL d   1      25.951 -16.894  -0.725  0.00  0.00    -0.006 A 
ATOM     13  C   UNL d   1      25.622 -16.047  -1.807  0.00  0.00     0.014 C 
ATOM     14  C   UNL d   1      24.967 -17.603   0.085  0.00  0.00     0.038 A 
ATOM     15  C   UNL d   1      24.336 -15.783  -2.016  0.00  0.00     0.001 C 
ATOM     16  C   UNL d   1      23.305 -16.481  -1.265  0.00  0.00     0.002 C 
ATOM     17  C   UNL d   1      23.552 -17.360  -0.268  0.00  0.00     0.030 C 
ATOM     18  N   UNL d   1      25.530 -18.319   0.985  0.00  0.00    -0.385 N 
ATOM     19  C   UNL d   1      27.023 -18.085   0.973  0.00  0.00     0.155 A 
ATOM     20  H   UNL d   1      25.003 -18.948   1.592  0.00  0.00     0.160 HD
ENDBRANCH  10  11
ENDBRANCH   9  10
ENDBRANCH   5   9
BRANCH   6  21
ATOM     21  C   UNL d   1      26.716 -12.103  -2.270  0.00  0.00     0.056 A 
ATOM     22  C   UNL d   1      26.439 -13.347  -2.883  0.00  0.00     0.054 A 
ATOM     23  C   UNL d   1      26.099 -13.428  -4.243  0.00  0.00     0.036 A 
ATOM     24 CL   UNL d   1      25.936 -14.959  -5.017  0.00  0.00    -0.084 Cl
ATOM     25  C   UNL d   1      25.932 -12.277  -4.999  0.00  0.00     0.024 A 
ATOM     26  C   UNL d   1      26.213 -11.044  -4.423  0.00  0.00     0.011 A 
ATOM     27  C   UNL d   1      26.640 -10.942  -3.083  0.00  0.00    -0.035 A 
ATOM     28  C   UNL d   1      27.060  -9.575  -2.608  0.00  0.00     0.050 C 
ENDBRANCH   6  21
BRANCH   1  29
ATOM     29  C   UNL d   1      28.352 -13.643   3.562  0.00  0.00     0.037 A 
ATOM     30  C   UNL d   1      28.652 -14.794   4.338  0.00  0.00     0.020 A 
ATOM     31  C   UNL d   1      28.569 -14.769   5.713  0.00  0.00     0.040 A 
ATOM     32  C   UNL d   1      28.301 -13.561   6.354  0.00  0.00     0.101 A 
ATOM     33  C   UNL d   1      28.091 -12.393   5.561  0.00  0.00     0.102 A 
ATOM     34  C   UNL d   1      28.088 -12.452   4.165  0.00  0.00     0.056 A 
BRANCH  32  35
ATOM     35  O   UNL d   1      28.529 -13.668   7.703  0.00  0.00    -0.353 OA
ATOM     36  C   UNL d   1      29.845 -13.926   8.176  0.00  0.00     0.210 C 
ENDBRANCH  32  35
BRANCH  33  37
ATOM     37  O   UNL d   1      27.923 -11.078   5.897  0.00  0.00    -0.353 OA
ATOM     38  C   UNL d   1      28.241 -10.179   4.885  0.00  0.00     0.210 C 
ENDBRANCH  33  37
ENDBRANCH   1  29
TORSDOF 7
ENDMDL
MODEL 7
REMARK VINA RESULT:    -8.110      5.688      9.322
REMARK INTER + INTRA:         -12.308
REMARK INTER:                 -10.198
REMARK INTRA:                  -2.110
REMARK CONF_INDEPENDENT:        2.088
REMARK UNBOUND:                -2.110
REMARK  7 active torsions:
REMARK  status: ('A' for Active; 'I' for Inactive)
REMARK    1  A    between atoms: O_2  and  C_3 
REMARK    2  A    between atoms: C_6  and  C_7 
REMARK       I    between atoms: C_7  and  N_9 
REMARK       I    between atoms: C_10  and  N_11 
REMARK       I    between atoms: C_10  and  N_23 
REMARK    3  A    between atoms: N_11  and  C_12 
REMARK    4  A    between atoms: C_12  and  C_13 
REMARK    5  A    between atoms: C_13  and  C_14 
REMARK    6  A    between atoms: N_23  and  C_24 
REMARK    7  A    between atoms: C_33  and  O_34 
ROOT
ATOM      1  C   UNL d   1      27.943 -16.066  -0.340  0.00  0.00     0.294 C 
ATOM      2  O   UNL d   1      27.997 -14.849  -0.369  0.00  0.00    -0.265 OA
ATOM      3  N   UNL d   1      28.931 -17.020  -0.056  0.00  0.00    -0.023 NA
ATOM      4  C   UNL d   1      30.220 -16.755  -0.023  0.00  0.00     0.704 C 
ATOM      5  N   UNL d   1      30.846 -15.562  -0.305  0.00  0.00    -0.224 N 
ATOM      6  N   UNL d   1      31.154 -17.754   0.258  0.00  0.00    -0.190 N 
ATOM      7  H   UNL d   1      31.852 -15.530  -0.256  0.00  0.00     0.177 HD
ATOM      8  H   UNL d   1      30.784 -18.694   0.347  0.00  0.00     0.184 HD
ENDROOT
BRANCH   5   9
ATOM      9  C   UNL d   1      30.150 -14.323  -0.272  0.00  0.00     0.142 C 
BRANCH   9  10
ATOM     10  C   UNL d   1      30.452 -13.287   0.721  0.00  0.00     0.057 C 
BRANCH  10  11
ATOM     11  C   UNL d   1      30.474 -13.842   2.125  0.00  0.00    -0.048 A 
ATOM     12  C   UNL d   1      29.307 -13.907   2.749  0.00  0.00    -0.006 A 
ATOM     13  C   UNL d   1      28.040 -13.491   2.284  0.00  0.00     0.014 C 
ATOM     14  C   UNL d   1      29.551 -14.447   4.081  0.00  0.00     0.038 A 
ATOM     15  C   UNL d   1      27.036 -13.473   3.156  0.00  0.00     0.001 C 
ATOM     16  C   UNL d   1      27.205 -14.028   4.489  0.00  0.00     0.002 C 
ATOM     17  C   UNL d   1      28.372 -14.511   4.972  0.00  0.00     0.030 C 
ATOM     18  N   UNL d   1      30.780 -14.768   4.239  0.00  0.00    -0.385 N 
ATOM     19  C   UNL d   1      31.581 -14.358   3.024  0.00  0.00     0.155 A 
ATOM     20  H   UNL d   1      31.119 -15.237   5.080  0.00  0.00     0.160 HD
ENDBRANCH  10  11
ENDBRANCH   9  10
ENDBRANCH   5   9
BRANCH   6  21
ATOM     21  C   UNL d   1      32.547 -17.661   0.566  0.00  0.00     0.056 A 
ATOM     22  C   UNL d   1      32.979 -16.683   1.491  0.00  0.00     0.054 A 
ATOM     23  C   UNL d   1      34.331 -16.574   1.857  0.00  0.00     0.036 A 
ATOM     24 CL   UNL d   1      34.871 -15.271   2.846  0.00  0.00    -0.084 Cl
ATOM     25  C   UNL d   1      35.265 -17.489   1.391  0.00  0.00     0.024 A 
ATOM     26  C   UNL d   1      34.867 -18.450   0.470  0.00  0.00     0.011 A 
ATOM     27  C   UNL d   1      33.532 -18.526   0.020  0.00  0.00    -0.035 A 
ATOM     28  C   UNL d   1      33.245 -19.506  -1.087  0.00  0.00     0.050 C 
ENDBRANCH   6  21
BRANCH   1  29
ATOM     29  C   UNL d   1      26.531 -16.365  -0.518  0.00  0.00     0.037 A 
ATOM     30  C   UNL d   1      26.013 -17.492   0.173  0.00  0.00     0.020 A 
ATOM     31  C   UNL d   1      24.752 -17.978  -0.096  0.00  0.00     0.040 A 
ATOM     32  C   UNL d   1      23.930 -17.277  -0.977  0.00  0.00     0.101 A 
ATOM     33  C   UNL d   1      24.434 -16.093  -1.594  0.00  0.00     0.102 A 
ATOM     34  C   UNL d   1      25.746 -15.664  -1.381  0.00  0.00     0.056 A 
BRANCH  32  35
ATOM     35  O   UNL d   1      22.641 -17.742  -0.909  0.00  0.00    -0.353 OA
ATOM     36  C   UNL d   1      22.353 -18.912  -0.154  0.00  0.00     0.210 C 
ENDBRANCH  32  35
BRANCH  33  37
ATOM     37  O   UNL d   1      23.841 -15.157  -2.395  0.00  0.00    -0.353 OA
ATOM     38  C   UNL d   1      24.731 -14.373  -3.122  0.00  0.00     0.210 C 
ENDBRANCH  33  37
ENDBRANCH   1  29
TORSDOF 7
ENDMDL
MODEL 8
REMARK VINA RESULT:    -7.721      2.925      6.874
REMARK INTER + INTRA:         -12.497
REMARK INTER:                  -9.809
REMARK INTRA:                  -2.688
REMARK CONF_INDEPENDENT:        2.088
REMARK UNBOUND:                -2.688
REMARK  7 active torsions:
REMARK  status: ('A' for Active; 'I' for Inactive)
REMARK    1  A    between atoms: O_2  and  C_3 
REMARK    2  A    between atoms: C_6  and  C_7 
REMARK       I    between atoms: C_7  and  N_9 
REMARK       I    between atoms: C_10  and  N_11 
REMARK       I    between atoms: C_10  and  N_23 
REMARK    3  A    between atoms: N_11  and  C_12 
REMARK    4  A    between atoms: C_12  and  C_13 
REMARK    5  A    between atoms: C_13  and  C_14 
REMARK    6  A    between atoms: N_23  and  C_24 
REMARK    7  A    between atoms: C_33  and  O_34 
ROOT
ATOM      1  C   UNL d   1      25.893 -15.001  -2.277  0.00  0.00     0.294 C 
ATOM      2  O   UNL d   1      27.053 -15.275  -2.030  0.00  0.00    -0.265 OA
ATOM      3  N   UNL d   1      25.341 -14.012  -3.106  0.00  0.00    -0.023 NA
ATOM      4  C   UNL d   1      26.020 -12.990  -3.581  0.00  0.00     0.704 C 
ATOM      5  N   UNL d   1      27.333 -12.657  -3.333  0.00  0.00    -0.224 N 
ATOM      6  N   UNL d   1      25.409 -12.034  -4.394  0.00  0.00    -0.190 N 
ATOM      7  H   UNL d   1      27.700 -11.821  -3.761  0.00  0.00     0.177 HD
ATOM      8  H   UNL d   1      24.407 -12.134  -4.519  0.00  0.00     0.184 HD
ENDROOT
BRANCH   5   9
ATOM      9  C   UNL d   1      28.270 -13.609  -2.847  0.00  0.00     0.142 C 
BRANCH   9  10
ATOM     10  C   UNL d   1      29.482 -13.960  -3.594  0.00  0.00     0.057 C 
BRANCH  10  11
ATOM     11  C   UNL d   1      29.224 -14.041  -5.079  0.00  0.00    -0.048 A 
ATOM     12  C   UNL d   1      29.598 -12.992  -5.798  0.00  0.00    -0.006 A 
ATOM     13  C   UNL d   1      30.180 -11.786  -5.350  0.00  0.00     0.014 C 
ATOM     14  C   UNL d   1      29.245 -13.263  -7.186  0.00  0.00     0.038 A 
ATOM     15  C   UNL d   1      30.295 -10.792  -6.228  0.00  0.00     0.001 C 
ATOM     16  C   UNL d   1      29.992 -11.007  -7.633  0.00  0.00     0.002 C 
ATOM     17  C   UNL d   1      29.503 -12.162  -8.139  0.00  0.00     0.030 C 
ATOM     18  N   UNL d   1      28.755 -14.438  -7.325  0.00  0.00    -0.385 N 
ATOM     19  C   UNL d   1      28.598 -15.094  -5.973  0.00  0.00     0.155 A 
ATOM     20  H   UNL d   1      28.527 -14.831  -8.239  0.00  0.00     0.160 HD
ENDBRANCH  10  11
ENDBRANCH   9  10
ENDBRANCH   5   9
BRANCH   6  21
ATOM     21  C   UNL d   1      25.979 -10.994  -5.193  0.00  0.00     0.056 A 
ATOM     22  C   UNL d   1      26.062 -11.174  -6.593  0.00  0.00     0.054 A 
ATOM     23  C   UNL d   1      26.579 -10.169  -7.427  0.00  0.00     0.036 A 
ATOM     24 CL   UNL d   1      26.837 -10.466  -9.104  0.00  0.00    -0.084 Cl
ATOM     25  C   UNL d   1      26.935  -8.933  -6.906  0.00  0.00     0.024 A 
ATOM     26  C   UNL d   1      26.876  -8.737  -5.531  0.00  0.00     0.011 A 
ATOM     27  C   UNL d   1      26.442  -9.761  -4.663  0.00  0.00    -0.035 A 
ATOM     28  C   UNL d   1      26.561  -9.491  -3.186  0.00  0.00     0.050 C 
ENDBRANCH   6  21
BRANCH   1  29
ATOM     29  C   UNL d   1      25.131 -16.057  -1.630  0.00  0.00     0.037 A 
ATOM     30  C   UNL d   1      23.716 -15.939  -1.643  0.00  0.00     0.020 A 
ATOM     31  C   UNL d   1      22.923 -16.768  -0.880  0.00  0.00     0.040 A 
ATOM     32  C   UNL d   1      23.516 -17.814  -0.176  0.00  0.00     0.101 A 
ATOM     33  C   UNL d   1      24.934 -17.974  -0.246  0.00  0.00     0.102 A 
ATOM     34  C   UNL d   1      25.733 -17.071  -0.951  0.00  0.00     0.056 A 
BRANCH  32  35
ATOM     35  O   UNL d   1      22.565 -18.685   0.292  0.00  0.00    -0.353 OA
ATOM     36  C   UNL d   1      21.535 -19.136  -0.579  0.00  0.00     0.210 C 
ENDBRANCH  32  35
BRANCH  33  37
ATOM     37  O   UNL d   1      25.768 -18.945   0.233  0.00  0.00    -0.353 OA
ATOM     38  C   UNL d   1      27.031 -18.491   0.600  0.00  0.00     0.210 C 
ENDBRANCH  33  37
ENDBRANCH   1  29
TORSDOF 7
ENDMDL
MODEL 9
REMARK VINA RESULT:    -7.660      3.126      5.973
REMARK INTER + INTRA:         -12.139
REMARK INTER:                  -9.748
REMARK INTRA:                  -2.391
REMARK CONF_INDEPENDENT:        2.088
REMARK UNBOUND:                -2.391
REMARK  7 active torsions:
REMARK  status: ('A' for Active; 'I' for Inactive)
REMARK    1  A    between atoms: O_2  and  C_3 
REMARK    2  A    between atoms: C_6  and  C_7 
REMARK       I    between atoms: C_7  and  N_9 
REMARK       I    between atoms: C_10  and  N_11 
REMARK       I    between atoms: C_10  and  N_23 
REMARK    3  A    between atoms: N_11  and  C_12 
REMARK    4  A    between atoms: C_12  and  C_13 
REMARK    5  A    between atoms: C_13  and  C_14 
REMARK    6  A    between atoms: N_23  and  C_24 
REMARK    7  A    between atoms: C_33  and  O_34 
ROOT
ATOM      1  C   UNL d   1      25.482 -14.697  -2.002  0.00  0.00     0.294 C 
ATOM      2  O   UNL d   1      26.203 -14.320  -1.096  0.00  0.00    -0.265 OA
ATOM      3  N   UNL d   1      25.328 -14.216  -3.311  0.00  0.00    -0.023 NA
ATOM      4  C   UNL d   1      25.776 -13.049  -3.722  0.00  0.00     0.704 C 
ATOM      5  N   UNL d   1      26.405 -12.075  -2.979  0.00  0.00    -0.224 N 
ATOM      6  N   UNL d   1      25.582 -12.624  -5.037  0.00  0.00    -0.190 N 
ATOM      7  H   UNL d   1      26.667 -11.219  -3.443  0.00  0.00     0.177 HD
ATOM      8  H   UNL d   1      25.009 -13.229  -5.618  0.00  0.00     0.184 HD
ENDROOT
BRANCH   5   9
ATOM      9  C   UNL d   1      27.035 -12.366  -1.738  0.00  0.00     0.142 C 
BRANCH   9  10
ATOM     10  C   UNL d   1      28.489 -12.504  -1.617  0.00  0.00     0.057 C 
BRANCH  10  11
ATOM     11  C   UNL d   1      28.879 -13.804  -0.957  0.00  0.00    -0.048 A 
ATOM     12  C   UNL d   1      29.177 -14.808  -1.769  0.00  0.00    -0.006 A 
ATOM     13  C   UNL d   1      29.145 -14.833  -3.181  0.00  0.00     0.014 C 
ATOM     14  C   UNL d   1      29.503 -15.962  -0.939  0.00  0.00     0.038 A 
ATOM     15  C   UNL d   1      29.297 -16.010  -3.782  0.00  0.00     0.001 C 
ATOM     16  C   UNL d   1      29.656 -17.191  -3.015  0.00  0.00     0.002 C 
ATOM     17  C   UNL d   1      29.777 -17.219  -1.669  0.00  0.00     0.030 C 
ATOM     18  N   UNL d   1      29.483 -15.664   0.306  0.00  0.00    -0.385 N 
ATOM     19  C   UNL d   1      29.005 -14.242   0.489  0.00  0.00     0.155 A 
ATOM     20  H   UNL d   1      29.765 -16.325   1.031  0.00  0.00     0.160 HD
ENDBRANCH  10  11
ENDBRANCH   9  10
ENDBRANCH   5   9
BRANCH   6  21
ATOM     21  C   UNL d   1      26.161 -11.531  -5.755  0.00  0.00     0.056 A 
ATOM     22  C   UNL d   1      25.502 -10.280  -5.743  0.00  0.00     0.054 A 
ATOM     23  C   UNL d   1      26.047  -9.165  -6.401  0.00  0.00     0.036 A 
ATOM     24 CL   UNL d   1      25.154  -7.697  -6.527  0.00  0.00    -0.084 Cl
ATOM     25  C   UNL d   1      27.297  -9.239  -7.000  0.00  0.00     0.024 A 
ATOM     26  C   UNL d   1      27.956 -10.462  -7.037  0.00  0.00     0.011 A 
ATOM     27  C   UNL d   1      27.390 -11.618  -6.459  0.00  0.00    -0.035 A 
ATOM     28  C   UNL d   1      28.120 -12.916  -6.688  0.00  0.00     0.050 C 
ENDBRANCH   6  21
BRANCH   1  29
ATOM     29  C   UNL d   1      24.876 -15.917  -1.493  0.00  0.00     0.037 A 
ATOM     30  C   UNL d   1      23.458 -15.968  -1.446  0.00  0.00     0.020 A 
ATOM     31  C   UNL d   1      22.801 -16.985  -0.787  0.00  0.00     0.040 A 
ATOM     32  C   UNL d   1      23.542 -18.042  -0.262  0.00  0.00     0.101 A 
ATOM     33  C   UNL d   1      24.963 -18.020  -0.398  0.00  0.00     0.102 A 
ATOM     34  C   UNL d   1      25.621 -16.938  -0.987  0.00  0.00     0.056 A 
BRANCH  32  35
ATOM     35  O   UNL d   1      22.719 -19.078   0.103  0.00  0.00    -0.353 OA
ATOM     36  C   UNL d   1      21.322 -18.987  -0.148  0.00  0.00     0.210 C 
ENDBRANCH  32  35
BRANCH  33  37
ATOM     37  O   UNL d   1      25.925 -18.943  -0.091  0.00  0.00    -0.353 OA
ATOM     38  C   UNL d   1      27.028 -18.425   0.580  0.00  0.00     0.210 C 
ENDBRANCH  33  37
ENDBRANCH   1  29
TORSDOF 7
ENDMDL
