MODEL 1
REMARK VINA RESULT:   -11.125      0.000      0.000
REMARK INTER + INTRA:         -16.517
REMARK INTER:                 -14.705
REMARK INTRA:                  -1.812
REMARK CONF_INDEPENDENT:        3.580
REMARK UNBOUND:                -1.812
REMARK  12 active torsions:
REMARK  status: ('A' for Active; 'I' for Inactive)
REMARK    1  A    between atoms: C_2  and  C_3 
REMARK    2  A    between atoms: C_3  and  C_4 
REMARK    3  A    between atoms: C_4  and  C_5 
REMARK    4  A    between atoms: C_5  and  C_6 
REMARK       I    between atoms: C_6  and  N_8 
REMARK    5  A    between atoms: N_8  and  C_9 
REMARK    6  A    between atoms: C_13  and  N_14 
REMARK    7  A    between atoms: N_14  and  C_15 
REMARK    8  A    between atoms: C_15  and  C_16 
REMARK       I    between atoms: C_16  and  N_18 
REMARK    9  A    between atoms: N_18  and  C_19 
REMARK   10  A    between atoms: C_23  and  C_24 
REMARK       I    between atoms: C_24  and  N_26 
REMARK   11  A    between atoms: N_26  and  C_28 
REMARK   12  A    between atoms: C_28  and  C_29 
ROOT
ATOM      1  C   UNL d   1      25.973 -14.161  -3.648  0.00  0.00     0.239 C 
ATOM      2  O   UNL d   1      24.788 -14.469  -3.807  0.00  0.00    -0.271 OA
ATOM      3  N   UNL d   1      26.768 -14.570  -2.563  0.00  0.00    -0.326 N 
ATOM      4  H   UNL d   1      27.711 -14.207  -2.473  0.00  0.00     0.169 HD
ENDROOT
BRANCH   1   5
ATOM      5  C   UNL d   1      26.622 -13.211  -4.661  0.00  0.00     0.223 C 
BRANCH   5   6
ATOM      6  N   UNL d   1      25.632 -12.224  -5.133  0.00  0.00    -0.381 N 
ATOM      7  H   UNL d   1      24.687 -12.576  -5.283  0.00  0.00     0.160 HD
BRANCH   6   8
ATOM      8  C   UNL d   1      25.874 -10.865  -5.138  0.00  0.00     0.030 A 
ATOM      9  C   UNL d   1      26.387 -10.213  -6.262  0.00  0.00     0.029 A 
ATOM     10  C   UNL d   1      26.596  -8.824  -6.254  0.00  0.00     0.004 A 
ATOM     11  C   UNL d   1      26.337  -8.071  -5.102  0.00  0.00     0.029 A 
ATOM     12  C   UNL d   1      25.853  -8.711  -3.965  0.00  0.00     0.036 A 
ATOM     13  C   UNL d   1      25.635 -10.090  -4.005  0.00  0.00     0.058 A 
BRANCH  12  14
ATOM     14  N   UNL d   1      25.526  -7.991  -2.791  0.00  0.00    -0.327 N 
ATOM     15  C   UNL d   1      26.507  -7.533  -1.923  0.00  0.00     0.222 C 
ATOM     16  O   UNL d   1      27.717  -7.635  -2.134  0.00  0.00    -0.273 OA
ATOM     17  H   UNL d   1      24.562  -7.712  -2.661  0.00  0.00     0.169 HD
BRANCH  15  18
ATOM     18  C   UNL d   1      26.000  -6.848  -0.666  0.00  0.00     0.103 C 
BRANCH  18  19
ATOM     19  C   UNL d   1      25.265  -7.879   0.203  0.00  0.00     0.009 C 
BRANCH  19  20
ATOM     20  C   UNL d   1      25.906  -8.060   1.570  0.00  0.00     0.000 C 
BRANCH  20  21
ATOM     21  C   UNL d   1      26.968  -9.159   1.530  0.00  0.00    -0.005 C 
ATOM     22  C   UNL d   1      26.428 -10.447   2.125  0.00  0.00     0.005 C 
ENDBRANCH  20  21
ENDBRANCH  19  20
ENDBRANCH  18  19
ENDBRANCH  15  18
ENDBRANCH  12  14
ENDBRANCH   6   8
ENDBRANCH   5   6
ENDBRANCH   1   5
BRANCH   3  23
ATOM     23  C   UNL d   1      26.367 -15.571  -1.623  0.00  0.00     0.035 C 
ATOM     24  C   UNL d   1      27.221 -16.463  -1.000  0.00  0.00     0.029 C 
ATOM     25  C   UNL d   1      26.675 -17.486  -0.188  0.00  0.00     0.003 C 
ATOM     26  C   UNL d   1      25.280 -17.670  -0.063  0.00  0.00     0.017 C 
ATOM     27  C   UNL d   1      24.413 -16.802  -0.716  0.00  0.00     0.034 C 
ATOM     28  C   UNL d   1      25.019 -15.717  -1.340  0.00  0.00     0.046 C 
BRANCH  27  29
ATOM     29  C   UNL d   1      22.904 -17.030  -0.738  0.00  0.00     0.253 C 
ATOM     30  O   UNL d   1      22.184 -16.044  -0.726  0.00  0.00    -0.267 OA
ATOM     31  N   UNL d   1      22.359 -18.343  -0.726  0.00  0.00    -0.348 N 
ATOM     32  C   UNL d   1      23.136 -19.564  -0.608  0.00  0.00     0.153 C 
BRANCH  31  33
ATOM     33  C   UNL d   1      20.891 -18.513  -0.895  0.00  0.00     0.164 C 
BRANCH  33  34
ATOM     34  C   UNL d   1      20.195 -19.410   0.138  0.00  0.00    -0.040 C 
ATOM     35  C   UNL d   1      20.600 -19.441   1.491  0.00  0.00     0.009 C 
ATOM     36  C   UNL d   1      19.854 -20.074   2.480  0.00  0.00     0.001 C 
ATOM     37  C   UNL d   1      18.758 -20.833   2.115  0.00  0.00     0.000 C 
ATOM     38  C   UNL d   1      18.417 -20.943   0.765  0.00  0.00     0.001 C 
ATOM     39  C   UNL d   1      19.109 -20.216  -0.217  0.00  0.00     0.009 C 
ENDBRANCH  33  34
ENDBRANCH  31  33
ENDBRANCH  27  29
ENDBRANCH   3  23
TORSDOF 12
ENDMDL
MODEL 2
REMARK VINA RESULT:   -11.053      4.888     10.510
REMARK INTER + INTRA:         -16.311
REMARK INTER:                 -14.633
REMARK INTRA:                  -1.678
REMARK CONF_INDEPENDENT:        3.580
REMARK UNBOUND:                -1.678
REMARK  12 active torsions:
REMARK  status: ('A' for Active; 'I' for Inactive)
REMARK    1  A    between atoms: C_2  and  C_3 
REMARK    2  A    between atoms: C_3  and  C_4 
REMARK    3  A    between atoms: C_4  and  C_5 
REMARK    4  A    between atoms: C_5  and  C_6 
REMARK       I    between atoms: C_6  and  N_8 
REMARK    5  A    between atoms: N_8  and  C_9 
REMARK    6  A    between atoms: C_13  and  N_14 
REMARK    7  A    between atoms: N_14  and  C_15 
REMARK    8  A    between atoms: C_15  and  C_16 
REMARK       I    between atoms: C_16  and  N_18 
REMARK    9  A    between atoms: N_18  and  C_19 
REMARK   10  A    between atoms: C_23  and  C_24 
REMARK       I    between atoms: C_24  and  N_26 
REMARK   11  A    between atoms: N_26  and  C_28 
REMARK   12  A    between atoms: C_28  and  C_29 
ROOT
ATOM      1  C   UNL d   1      29.173 -15.208   0.200  0.00  0.00     0.239 C 
ATOM      2  O   UNL d   1      29.522 -14.221  -0.454  0.00  0.00    -0.271 OA
ATOM      3  N   UNL d   1      28.485 -15.154   1.425  0.00  0.00    -0.326 N 
ATOM      4  H   UNL d   1      28.304 -16.014   1.932  0.00  0.00     0.169 HD
ENDROOT
BRANCH   1   5
ATOM      5  C   UNL d   1      29.567 -16.598  -0.311  0.00  0.00     0.223 C 
BRANCH   5   6
ATOM      6  N   UNL d   1      28.392 -17.491  -0.299  0.00  0.00    -0.381 N 
ATOM      7  H   UNL d   1      28.500 -18.364   0.214  0.00  0.00     0.160 HD
BRANCH   6   8
ATOM      8  C   UNL d   1      27.143 -17.089  -0.729  0.00  0.00     0.030 A 
ATOM      9  C   UNL d   1      26.981 -16.095  -1.697  0.00  0.00     0.029 A 
ATOM     10  C   UNL d   1      25.701 -15.725  -2.140  0.00  0.00     0.004 A 
ATOM     11  C   UNL d   1      24.557 -16.314  -1.587  0.00  0.00     0.029 A 
ATOM     12  C   UNL d   1      24.701 -17.286  -0.602  0.00  0.00     0.036 A 
ATOM     13  C   UNL d   1      25.985 -17.649  -0.191  0.00  0.00     0.058 A 
BRANCH  12  14
ATOM     14  N   UNL d   1      23.581 -17.949  -0.046  0.00  0.00    -0.327 N 
ATOM     15  C   UNL d   1      22.744 -18.737  -0.823  0.00  0.00     0.222 C 
ATOM     16  O   UNL d   1      22.944 -18.990  -2.012  0.00  0.00    -0.273 OA
ATOM     17  H   UNL d   1      23.474 -17.933   0.960  0.00  0.00     0.169 HD
BRANCH  15  18
ATOM     18  C   UNL d   1      21.540 -19.319  -0.104  0.00  0.00     0.103 C 
BRANCH  18  19
ATOM     19  C   UNL d   1      20.310 -19.205  -1.016  0.00  0.00     0.009 C 
BRANCH  19  20
ATOM     20  C   UNL d   1      19.032 -19.680  -0.343  0.00  0.00     0.000 C 
BRANCH  20  21
ATOM     21  C   UNL d   1      19.338 -20.740   0.716  0.00  0.00    -0.005 C 
ATOM     22  C   UNL d   1      18.093 -21.545   1.043  0.00  0.00     0.005 C 
ENDBRANCH  20  21
ENDBRANCH  19  20
ENDBRANCH  18  19
ENDBRANCH  15  18
ENDBRANCH  12  14
ENDBRANCH   6   8
ENDBRANCH   5   6
ENDBRANCH   1   5
BRANCH   3  23
ATOM     23  C   UNL d   1      27.912 -13.956   1.957  0.00  0.00     0.035 C 
ATOM     24  C   UNL d   1      27.045 -13.120   1.277  0.00  0.00     0.029 C 
ATOM     25  C   UNL d   1      26.652 -11.900   1.877  0.00  0.00     0.003 C 
ATOM     26  C   UNL d   1      27.186 -11.476   3.114  0.00  0.00     0.017 C 
ATOM     27  C   UNL d   1      28.086 -12.292   3.788  0.00  0.00     0.034 C 
ATOM     28  C   UNL d   1      28.280 -13.550   3.229  0.00  0.00     0.046 C 
BRANCH  27  29
ATOM     29  C   UNL d   1      28.805 -11.832   5.054  0.00  0.00     0.253 C 
ATOM     30  O   UNL d   1      29.309 -10.720   5.045  0.00  0.00    -0.267 OA
ATOM     31  N   UNL d   1      28.921 -12.686   6.185  0.00  0.00    -0.348 N 
ATOM     32  C   UNL d   1      28.467 -14.064   6.234  0.00  0.00     0.153 C 
BRANCH  31  33
ATOM     33  C   UNL d   1      29.501 -12.140   7.441  0.00  0.00     0.164 C 
BRANCH  33  34
ATOM     34  C   UNL d   1      29.171 -12.914   8.725  0.00  0.00    -0.040 C 
ATOM     35  C   UNL d   1      28.238 -12.430   9.668  0.00  0.00     0.009 C 
ATOM     36  C   UNL d   1      27.766 -13.209  10.720  0.00  0.00     0.001 C 
ATOM     37  C   UNL d   1      28.338 -14.445  10.952  0.00  0.00     0.000 C 
ATOM     38  C   UNL d   1      29.369 -14.892  10.122  0.00  0.00     0.001 C 
ATOM     39  C   UNL d   1      29.767 -14.149   9.000  0.00  0.00     0.009 C 
ENDBRANCH  33  34
ENDBRANCH  31  33
ENDBRANCH  27  29
ENDBRANCH   3  23
TORSDOF 12
ENDMDL
MODEL 3
REMARK VINA RESULT:   -10.969      4.703      9.972
REMARK INTER + INTRA:         -16.245
REMARK INTER:                 -14.548
REMARK INTRA:                  -1.697
REMARK CONF_INDEPENDENT:        3.580
REMARK UNBOUND:                -1.697
REMARK  12 active torsions:
REMARK  status: ('A' for Active; 'I' for Inactive)
REMARK    1  A    between atoms: C_2  and  C_3 
REMARK    2  A    between atoms: C_3  and  C_4 
REMARK    3  A    between atoms: C_4  and  C_5 
REMARK    4  A    between atoms: C_5  and  C_6 
REMARK       I    between atoms: C_6  and  N_8 
REMARK    5  A    between atoms: N_8  and  C_9 
REMARK    6  A    between atoms: C_13  and  N_14 
REMARK    7  A    between atoms: N_14  and  C_15 
REMARK    8  A    between atoms: C_15  and  C_16 
REMARK       I    between atoms: C_16  and  N_18 
REMARK    9  A    between atoms: N_18  and  C_19 
REMARK   10  A    between atoms: C_23  and  C_24 
REMARK       I    between atoms: C_24  and  N_26 
REMARK   11  A    between atoms: N_26  and  C_28 
REMARK   12  A    between atoms: C_28  and  C_29 
ROOT
ATOM      1  C   UNL d   1      27.303 -15.264  -4.227  0.00  0.00     0.239 C 
ATOM      2  O   UNL d   1      26.709 -15.522  -5.278  0.00  0.00    -0.271 OA
ATOM      3  N   UNL d   1      28.626 -15.646  -3.941  0.00  0.00    -0.326 N 
ATOM      4  H   UNL d   1      29.009 -15.456  -3.021  0.00  0.00     0.169 HD
ENDROOT
BRANCH   1   5
ATOM      5  C   UNL d   1      26.539 -14.532  -3.119  0.00  0.00     0.223 C 
BRANCH   5   6
ATOM      6  N   UNL d   1      25.312 -15.275  -2.776  0.00  0.00    -0.381 N 
ATOM      7  H   UNL d   1      24.542 -15.195  -3.439  0.00  0.00     0.160 HD
BRANCH   6   8
ATOM      8  C   UNL d   1      25.266 -16.220  -1.770  0.00  0.00     0.030 A 
ATOM      9  C   UNL d   1      26.420 -16.654  -1.114  0.00  0.00     0.029 A 
ATOM     10  C   UNL d   1      26.345 -17.592  -0.072  0.00  0.00     0.004 A 
ATOM     11  C   UNL d   1      25.114 -18.147   0.300  0.00  0.00     0.029 A 
ATOM     12  C   UNL d   1      23.958 -17.746  -0.363  0.00  0.00     0.036 A 
ATOM     13  C   UNL d   1      24.058 -16.797  -1.383  0.00  0.00     0.058 A 
BRANCH  12  14
ATOM     14  N   UNL d   1      22.683 -18.236   0.006  0.00  0.00    -0.327 N 
ATOM     15  C   UNL d   1      21.891 -18.946  -0.886  0.00  0.00     0.222 C 
ATOM     16  O   UNL d   1      22.253 -19.277  -2.017  0.00  0.00    -0.273 OA
ATOM     17  H   UNL d   1      22.411 -18.160   0.977  0.00  0.00     0.169 HD
BRANCH  15  18
ATOM     18  C   UNL d   1      20.517 -19.336  -0.373  0.00  0.00     0.103 C 
BRANCH  18  19
ATOM     19  C   UNL d   1      20.551 -19.382   1.162  0.00  0.00     0.009 C 
BRANCH  19  20
ATOM     20  C   UNL d   1      19.308 -20.025   1.759  0.00  0.00     0.000 C 
BRANCH  20  21
ATOM     21  C   UNL d   1      18.397 -20.568   0.659  0.00  0.00    -0.005 C 
ATOM     22  C   UNL d   1      17.879 -21.947   1.025  0.00  0.00     0.005 C 
ENDBRANCH  20  21
ENDBRANCH  19  20
ENDBRANCH  18  19
ENDBRANCH  15  18
ENDBRANCH  12  14
ENDBRANCH   6   8
ENDBRANCH   5   6
ENDBRANCH   1   5
BRANCH   3  23
ATOM     23  C   UNL d   1      29.519 -16.191  -4.915  0.00  0.00     0.035 C 
ATOM     24  C   UNL d   1      29.929 -15.545  -6.067  0.00  0.00     0.029 C 
ATOM     25  C   UNL d   1      30.716 -16.249  -7.009  0.00  0.00     0.003 C 
ATOM     26  C   UNL d   1      31.025 -17.617  -6.843  0.00  0.00     0.017 C 
ATOM     27  C   UNL d   1      30.586 -18.287  -5.707  0.00  0.00     0.034 C 
ATOM     28  C   UNL d   1      29.981 -17.486  -4.745  0.00  0.00     0.046 C 
BRANCH  27  29
ATOM     29  C   UNL d   1      30.763 -19.793  -5.536  0.00  0.00     0.253 C 
ATOM     30  O   UNL d   1      30.430 -20.510  -6.466  0.00  0.00    -0.267 OA
ATOM     31  N   UNL d   1      31.254 -20.342  -4.319  0.00  0.00    -0.348 N 
ATOM     32  C   UNL d   1      31.549 -19.575  -3.122  0.00  0.00     0.153 C 
BRANCH  31  33
ATOM     33  C   UNL d   1      31.545 -21.799  -4.254  0.00  0.00     0.164 C 
BRANCH  33  34
ATOM     34  C   UNL d   1      30.776 -22.590  -3.187  0.00  0.00    -0.040 C 
ATOM     35  C   UNL d   1      29.686 -23.424  -3.519  0.00  0.00     0.009 C 
ATOM     36  C   UNL d   1      29.118 -24.309  -2.607  0.00  0.00     0.001 C 
ATOM     37  C   UNL d   1      29.524 -24.269  -1.287  0.00  0.00     0.000 C 
ATOM     38  C   UNL d   1      30.500 -23.350  -0.895  0.00  0.00     0.001 C 
ATOM     39  C   UNL d   1      31.144 -22.535  -1.839  0.00  0.00     0.009 C 
ENDBRANCH  33  34
ENDBRANCH  31  33
ENDBRANCH  27  29
ENDBRANCH   3  23
TORSDOF 12
ENDMDL
MODEL 4
REMARK VINA RESULT:   -10.955      2.084      3.741
REMARK INTER + INTRA:         -16.089
REMARK INTER:                 -14.534
REMARK INTRA:                  -1.555
REMARK CONF_INDEPENDENT:        3.580
REMARK UNBOUND:                -1.555
REMARK  12 active torsions:
REMARK  status: ('A' for Active; 'I' for Inactive)
REMARK    1  A    between atoms: C_2  and  C_3 
REMARK    2  A    between atoms: C_3  and  C_4 
REMARK    3  A    between atoms: C_4  and  C_5 
REMARK    4  A    between atoms: C_5  and  C_6 
REMARK       I    between atoms: C_6  and  N_8 
REMARK    5  A    between atoms: N_8  and  C_9 
REMARK    6  A    between atoms: C_13  and  N_14 
REMARK    7  A    between atoms: N_14  and  C_15 
REMARK    8  A    between atoms: C_15  and  C_16 
REMARK       I    between atoms: C_16  and  N_18 
REMARK    9  A    between atoms: N_18  and  C_19 
REMARK   10  A    between atoms: C_23  and  C_24 
REMARK       I    between atoms: C_24  and  N_26 
REMARK   11  A    between atoms: N_26  and  C_28 
REMARK   12  A    between atoms: C_28  and  C_29 
ROOT
ATOM      1  C   UNL d   1      26.284 -14.846  -4.019  0.00  0.00     0.239 C 
ATOM      2  O   UNL d   1      25.061 -14.695  -3.950  0.00  0.00    -0.271 OA
ATOM      3  N   UNL d   1      27.084 -15.378  -2.991  0.00  0.00    -0.326 N 
ATOM      4  H   UNL d   1      28.092 -15.396  -3.106  0.00  0.00     0.169 HD
ENDROOT
BRANCH   1   5
ATOM      5  C   UNL d   1      27.008 -14.367  -5.281  0.00  0.00     0.223 C 
BRANCH   5   6
ATOM      6  N   UNL d   1      26.705 -12.944  -5.526  0.00  0.00    -0.381 N 
ATOM      7  H   UNL d   1      26.314 -12.722  -6.441  0.00  0.00     0.160 HD
BRANCH   6   8
ATOM      8  C   UNL d   1      26.702 -11.996  -4.523  0.00  0.00     0.030 A 
ATOM      9  C   UNL d   1      27.565 -12.080  -3.428  0.00  0.00     0.029 A 
ATOM     10  C   UNL d   1      27.566 -11.086  -2.435  0.00  0.00     0.004 A 
ATOM     11  C   UNL d   1      26.668 -10.014  -2.500  0.00  0.00     0.029 A 
ATOM     12  C   UNL d   1      25.782  -9.931  -3.570  0.00  0.00     0.036 A 
ATOM     13  C   UNL d   1      25.814 -10.921  -4.554  0.00  0.00     0.058 A 
BRANCH  12  14
ATOM     14  N   UNL d   1      24.889  -8.842  -3.711  0.00  0.00    -0.327 N 
ATOM     15  C   UNL d   1      25.088  -7.859  -4.671  0.00  0.00     0.222 C 
ATOM     16  O   UNL d   1      25.986  -7.891  -5.514  0.00  0.00    -0.273 OA
ATOM     17  H   UNL d   1      24.032  -8.861  -3.174  0.00  0.00     0.169 HD
BRANCH  15  18
ATOM     18  C   UNL d   1      24.093  -6.713  -4.649  0.00  0.00     0.103 C 
BRANCH  18  19
ATOM     19  C   UNL d   1      22.932  -7.041  -5.599  0.00  0.00     0.009 C 
BRANCH  19  20
ATOM     20  C   UNL d   1      22.874  -6.110  -6.800  0.00  0.00     0.000 C 
BRANCH  20  21
ATOM     21  C   UNL d   1      21.812  -6.576  -7.796  0.00  0.00    -0.005 C 
ATOM     22  C   UNL d   1      20.743  -5.513  -7.976  0.00  0.00     0.005 C 
ENDBRANCH  20  21
ENDBRANCH  19  20
ENDBRANCH  18  19
ENDBRANCH  15  18
ENDBRANCH  12  14
ENDBRANCH   6   8
ENDBRANCH   5   6
ENDBRANCH   1   5
BRANCH   3  23
ATOM     23  C   UNL d   1      26.554 -16.010  -1.824  0.00  0.00     0.035 C 
ATOM     24  C   UNL d   1      27.302 -16.682  -0.875  0.00  0.00     0.029 C 
ATOM     25  C   UNL d   1      26.636 -17.371   0.167  0.00  0.00     0.003 C 
ATOM     26  C   UNL d   1      25.226 -17.458   0.216  0.00  0.00     0.017 C 
ATOM     27  C   UNL d   1      24.465 -16.818  -0.754  0.00  0.00     0.034 C 
ATOM     28  C   UNL d   1      25.181 -16.012  -1.632  0.00  0.00     0.046 C 
BRANCH  27  29
ATOM     29  C   UNL d   1      22.951 -16.990  -0.840  0.00  0.00     0.253 C 
ATOM     30  O   UNL d   1      22.269 -15.979  -0.886  0.00  0.00    -0.267 OA
ATOM     31  N   UNL d   1      22.356 -18.282  -0.822  0.00  0.00    -0.348 N 
ATOM     32  C   UNL d   1      23.081 -19.526  -0.638  0.00  0.00     0.153 C 
BRANCH  31  33
ATOM     33  C   UNL d   1      20.892 -18.401  -1.054  0.00  0.00     0.164 C 
BRANCH  33  34
ATOM     34  C   UNL d   1      20.132 -19.321  -0.088  0.00  0.00    -0.040 C 
ATOM     35  C   UNL d   1      20.483 -19.422   1.276  0.00  0.00     0.009 C 
ATOM     36  C   UNL d   1      19.681 -20.075   2.207  0.00  0.00     0.001 C 
ATOM     37  C   UNL d   1      18.580 -20.786   1.767  0.00  0.00     0.000 C 
ATOM     38  C   UNL d   1      18.289 -20.827   0.402  0.00  0.00     0.001 C 
ATOM     39  C   UNL d   1      19.039 -20.079  -0.520  0.00  0.00     0.009 C 
ENDBRANCH  33  34
ENDBRANCH  31  33
ENDBRANCH  27  29
ENDBRANCH   3  23
TORSDOF 12
ENDMDL
MODEL 5
REMARK VINA RESULT:   -10.673      1.786      2.660
REMARK INTER + INTRA:         -17.095
REMARK INTER:                 -14.253
REMARK INTRA:                  -2.843
REMARK CONF_INDEPENDENT:        3.580
REMARK UNBOUND:                -2.843
REMARK  12 active torsions:
REMARK  status: ('A' for Active; 'I' for Inactive)
REMARK    1  A    between atoms: C_2  and  C_3 
REMARK    2  A    between atoms: C_3  and  C_4 
REMARK    3  A    between atoms: C_4  and  C_5 
REMARK    4  A    between atoms: C_5  and  C_6 
REMARK       I    between atoms: C_6  and  N_8 
REMARK    5  A    between atoms: N_8  and  C_9 
REMARK    6  A    between atoms: C_13  and  N_14 
REMARK    7  A    between atoms: N_14  and  C_15 
REMARK    8  A    between atoms: C_15  and  C_16 
REMARK       I    between atoms: C_16  and  N_18 
REMARK    9  A    between atoms: N_18  and  C_19 
REMARK   10  A    between atoms: C_23  and  C_24 
REMARK       I    between atoms: C_24  and  N_26 
REMARK   11  A    between atoms: N_26  and  C_28 
REMARK   12  A    between atoms: C_28  and  C_29 
ROOT
ATOM      1  C   UNL d   1      25.942 -14.373  -3.933  0.00  0.00     0.239 C 
ATOM      2  O   UNL d   1      25.155 -15.197  -4.409  0.00  0.00    -0.271 OA
ATOM      3  N   UNL d   1      26.303 -14.303  -2.576  0.00  0.00    -0.326 N 
ATOM      4  H   UNL d   1      26.899 -13.545  -2.259  0.00  0.00     0.169 HD
ENDROOT
BRANCH   1   5
ATOM      5  C   UNL d   1      26.526 -13.302  -4.860  0.00  0.00     0.223 C 
BRANCH   5   6
ATOM      6  N   UNL d   1      25.681 -12.093  -4.829  0.00  0.00    -0.381 N 
ATOM      7  H   UNL d   1      24.783 -12.163  -5.305  0.00  0.00     0.160 HD
BRANCH   6   8
ATOM      8  C   UNL d   1      25.949 -11.014  -4.009  0.00  0.00     0.030 A 
ATOM      9  C   UNL d   1      25.477  -9.732  -4.301  0.00  0.00     0.029 A 
ATOM     10  C   UNL d   1      25.736  -8.656  -3.436  0.00  0.00     0.004 A 
ATOM     11  C   UNL d   1      26.512  -8.839  -2.285  0.00  0.00     0.029 A 
ATOM     12  C   UNL d   1      27.013 -10.104  -1.994  0.00  0.00     0.036 A 
ATOM     13  C   UNL d   1      26.726 -11.161  -2.861  0.00  0.00     0.058 A 
BRANCH  12  14
ATOM     14  N   UNL d   1      27.759 -10.355  -0.819  0.00  0.00    -0.327 N 
ATOM     15  C   UNL d   1      27.792 -11.614  -0.234  0.00  0.00     0.222 C 
ATOM     16  O   UNL d   1      27.259 -12.613  -0.719  0.00  0.00    -0.273 OA
ATOM     17  H   UNL d   1      28.369  -9.622  -0.480  0.00  0.00     0.169 HD
BRANCH  15  18
ATOM     18  C   UNL d   1      28.569 -11.710   1.067  0.00  0.00     0.103 C 
BRANCH  18  19
ATOM     19  C   UNL d   1      27.602 -11.511   2.243  0.00  0.00     0.009 C 
BRANCH  19  20
ATOM     20  C   UNL d   1      27.024 -12.820   2.758  0.00  0.00     0.000 C 
BRANCH  20  21
ATOM     21  C   UNL d   1      28.109 -13.893   2.849  0.00  0.00    -0.005 C 
ATOM     22  C   UNL d   1      27.937 -14.722   4.109  0.00  0.00     0.005 C 
ENDBRANCH  20  21
ENDBRANCH  19  20
ENDBRANCH  18  19
ENDBRANCH  15  18
ENDBRANCH  12  14
ENDBRANCH   6   8
ENDBRANCH   5   6
ENDBRANCH   1   5
BRANCH   3  23
ATOM     23  C   UNL d   1      25.974 -15.312  -1.617  0.00  0.00     0.035 C 
ATOM     24  C   UNL d   1      26.892 -16.049  -0.892  0.00  0.00     0.029 C 
ATOM     25  C   UNL d   1      26.433 -17.104  -0.069  0.00  0.00     0.003 C 
ATOM     26  C   UNL d   1      25.071 -17.478  -0.033  0.00  0.00     0.017 C 
ATOM     27  C   UNL d   1      24.145 -16.768  -0.788  0.00  0.00     0.034 C 
ATOM     28  C   UNL d   1      24.641 -15.635  -1.422  0.00  0.00     0.046 C 
BRANCH  27  29
ATOM     29  C   UNL d   1      22.687 -17.208  -0.903  0.00  0.00     0.253 C 
ATOM     30  O   UNL d   1      21.832 -16.337  -0.893  0.00  0.00    -0.267 OA
ATOM     31  N   UNL d   1      22.338 -18.585  -0.974  0.00  0.00    -0.348 N 
ATOM     32  C   UNL d   1      23.277 -19.686  -0.861  0.00  0.00     0.153 C 
BRANCH  31  33
ATOM     33  C   UNL d   1      20.920 -18.953  -1.232  0.00  0.00     0.164 C 
BRANCH  33  34
ATOM     34  C   UNL d   1      20.142 -19.507  -0.031  0.00  0.00    -0.040 C 
ATOM     35  C   UNL d   1      18.947 -20.242  -0.192  0.00  0.00     0.009 C 
ATOM     36  C   UNL d   1      18.347 -20.932   0.857  0.00  0.00     0.001 C 
ATOM     37  C   UNL d   1      18.842 -20.773   2.138  0.00  0.00     0.000 C 
ATOM     38  C   UNL d   1      19.937 -19.933   2.353  0.00  0.00     0.001 C 
ATOM     39  C   UNL d   1      20.603 -19.325   1.277  0.00  0.00     0.009 C 
ENDBRANCH  33  34
ENDBRANCH  31  33
ENDBRANCH  27  29
ENDBRANCH   3  23
TORSDOF 12
ENDMDL
MODEL 6
REMARK VINA RESULT:   -10.402      2.104      3.727
REMARK INTER + INTRA:         -15.976
REMARK INTER:                 -13.981
REMARK INTRA:                  -1.995
REMARK CONF_INDEPENDENT:        3.580
REMARK UNBOUND:                -1.995
REMARK  12 active torsions:
REMARK  status: ('A' for Active; 'I' for Inactive)
REMARK    1  A    between atoms: C_2  and  C_3 
REMARK    2  A    between atoms: C_3  and  C_4 
REMARK    3  A    between atoms: C_4  and  C_5 
REMARK    4  A    between atoms: C_5  and  C_6 
REMARK       I    between atoms: C_6  and  N_8 
REMARK    5  A    between atoms: N_8  and  C_9 
REMARK    6  A    between atoms: C_13  and  N_14 
REMARK    7  A    between atoms: N_14  and  C_15 
REMARK    8  A    between atoms: C_15  and  C_16 
REMARK       I    between atoms: C_16  and  N_18 
REMARK    9  A    between atoms: N_18  and  C_19 
REMARK   10  A    between atoms: C_23  and  C_24 
REMARK       I    between atoms: C_24  and  N_26 
REMARK   11  A    between atoms: N_26  and  C_28 
REMARK   12  A    between atoms: C_28  and  C_29 
ROOT
ATOM      1  C   UNL d   1      28.986 -16.045  -2.789  0.00  0.00     0.239 C 
ATOM      2  O   UNL d   1      29.368 -17.218  -2.839  0.00  0.00    -0.271 OA
ATOM      3  N   UNL d   1      27.887 -15.593  -2.038  0.00  0.00    -0.326 N 
ATOM      4  H   UNL d   1      27.597 -14.623  -2.115  0.00  0.00     0.169 HD
ENDROOT
BRANCH   1   5
ATOM      5  C   UNL d   1      29.709 -15.006  -3.652  0.00  0.00     0.223 C 
BRANCH   5   6
ATOM      6  N   UNL d   1      28.844 -14.592  -4.774  0.00  0.00    -0.381 N 
ATOM      7  H   UNL d   1      29.217 -14.754  -5.708  0.00  0.00     0.160 HD
BRANCH   6   8
ATOM      8  C   UNL d   1      27.519 -14.243  -4.608  0.00  0.00     0.030 A 
ATOM      9  C   UNL d   1      26.494 -15.192  -4.663  0.00  0.00     0.029 A 
ATOM     10  C   UNL d   1      25.156 -14.817  -4.460  0.00  0.00     0.004 A 
ATOM     11  C   UNL d   1      24.817 -13.476  -4.242  0.00  0.00     0.029 A 
ATOM     12  C   UNL d   1      25.823 -12.515  -4.212  0.00  0.00     0.036 A 
ATOM     13  C   UNL d   1      27.147 -12.916  -4.398  0.00  0.00     0.058 A 
BRANCH  12  14
ATOM     14  N   UNL d   1      25.541 -11.155  -3.945  0.00  0.00    -0.327 N 
ATOM     15  C   UNL d   1      26.322 -10.409  -3.072  0.00  0.00     0.222 C 
ATOM     16  O   UNL d   1      27.348 -10.829  -2.535  0.00  0.00    -0.273 OA
ATOM     17  H   UNL d   1      24.827 -10.702  -4.499  0.00  0.00     0.169 HD
BRANCH  15  18
ATOM     18  C   UNL d   1      25.849  -8.988  -2.824  0.00  0.00     0.103 C 
BRANCH  18  19
ATOM     19  C   UNL d   1      26.165  -8.133  -4.060  0.00  0.00     0.009 C 
BRANCH  19  20
ATOM     20  C   UNL d   1      25.261  -8.449  -5.242  0.00  0.00     0.000 C 
BRANCH  20  21
ATOM     21  C   UNL d   1      23.863  -7.871  -5.023  0.00  0.00    -0.005 C 
ATOM     22  C   UNL d   1      23.295  -7.336  -6.325  0.00  0.00     0.005 C 
ENDBRANCH  20  21
ENDBRANCH  19  20
ENDBRANCH  18  19
ENDBRANCH  15  18
ENDBRANCH  12  14
ENDBRANCH   6   8
ENDBRANCH   5   6
ENDBRANCH   1   5
BRANCH   3  23
ATOM     23  C   UNL d   1      27.209 -16.395  -1.068  0.00  0.00     0.035 C 
ATOM     24  C   UNL d   1      27.813 -17.333  -0.250  0.00  0.00     0.029 C 
ATOM     25  C   UNL d   1      27.005 -18.148   0.577  0.00  0.00     0.003 C 
ATOM     26  C   UNL d   1      25.594 -18.086   0.530  0.00  0.00     0.017 C 
ATOM     27  C   UNL d   1      24.976 -17.173  -0.316  0.00  0.00     0.034 C 
ATOM     28  C   UNL d   1      25.832 -16.284  -0.956  0.00  0.00     0.046 C 
BRANCH  27  29
ATOM     29  C   UNL d   1      23.463 -17.153  -0.520  0.00  0.00     0.253 C 
ATOM     30  O   UNL d   1      22.909 -16.066  -0.527  0.00  0.00    -0.267 OA
ATOM     31  N   UNL d   1      22.723 -18.361  -0.650  0.00  0.00    -0.348 N 
ATOM     32  C   UNL d   1      23.282 -19.694  -0.523  0.00  0.00     0.153 C 
BRANCH  31  33
ATOM     33  C   UNL d   1      21.278 -18.283  -0.992  0.00  0.00     0.164 C 
BRANCH  33  34
ATOM     34  C   UNL d   1      20.333 -19.100  -0.100  0.00  0.00    -0.040 C 
ATOM     35  C   UNL d   1      19.150 -19.683  -0.605  0.00  0.00     0.009 C 
ATOM     36  C   UNL d   1      18.399 -20.600   0.125  0.00  0.00     0.001 C 
ATOM     37  C   UNL d   1      18.725 -20.839   1.446  0.00  0.00     0.000 C 
ATOM     38  C   UNL d   1      19.805 -20.165   2.021  0.00  0.00     0.001 C 
ATOM     39  C   UNL d   1      20.623 -19.323   1.250  0.00  0.00     0.009 C 
ENDBRANCH  33  34
ENDBRANCH  31  33
ENDBRANCH  27  29
ENDBRANCH   3  23
TORSDOF 12
ENDMDL
MODEL 7
REMARK VINA RESULT:   -10.291      4.062      6.475
REMARK INTER + INTRA:         -15.961
REMARK INTER:                 -13.870
REMARK INTRA:                  -2.090
REMARK CONF_INDEPENDENT:        3.580
REMARK UNBOUND:                -2.090
REMARK  12 active torsions:
REMARK  status: ('A' for Active; 'I' for Inactive)
REMARK    1  A    between atoms: C_2  and  C_3 
REMARK    2  A    between atoms: C_3  and  C_4 
REMARK    3  A    between atoms: C_4  and  C_5 
REMARK    4  A    between atoms: C_5  and  C_6 
REMARK       I    between atoms: C_6  and  N_8 
REMARK    5  A    between atoms: N_8  and  C_9 
REMARK    6  A    between atoms: C_13  and  N_14 
REMARK    7  A    between atoms: N_14  and  C_15 
REMARK    8  A    between atoms: C_15  and  C_16 
REMARK       I    between atoms: C_16  and  N_18 
REMARK    9  A    between atoms: N_18  and  C_19 
REMARK   10  A    between atoms: C_23  and  C_24 
REMARK       I    between atoms: C_24  and  N_26 
REMARK   11  A    between atoms: N_26  and  C_28 
REMARK   12  A    between atoms: C_28  and  C_29 
ROOT
ATOM      1  C   UNL d   1      26.139 -14.437  -3.956  0.00  0.00     0.239 C 
ATOM      2  O   UNL d   1      24.905 -14.466  -3.926  0.00  0.00    -0.271 OA
ATOM      3  N   UNL d   1      26.976 -14.943  -2.946  0.00  0.00    -0.326 N 
ATOM      4  H   UNL d   1      27.979 -14.809  -3.018  0.00  0.00     0.169 HD
ENDROOT
BRANCH   1   5
ATOM      5  C   UNL d   1      26.824 -13.746  -5.140  0.00  0.00     0.223 C 
BRANCH   5   6
ATOM      6  N   UNL d   1      27.375 -14.756  -6.063  0.00  0.00    -0.381 N 
ATOM      7  H   UNL d   1      26.694 -15.349  -6.535  0.00  0.00     0.160 HD
BRANCH   6   8
ATOM      8  C   UNL d   1      28.695 -14.757  -6.470  0.00  0.00     0.030 A 
ATOM      9  C   UNL d   1      29.219 -13.738  -7.269  0.00  0.00     0.029 A 
ATOM     10  C   UNL d   1      30.572 -13.743  -7.645  0.00  0.00     0.004 A 
ATOM     11  C   UNL d   1      31.414 -14.796  -7.262  0.00  0.00     0.029 A 
ATOM     12  C   UNL d   1      30.900 -15.832  -6.489  0.00  0.00     0.036 A 
ATOM     13  C   UNL d   1      29.555 -15.794  -6.113  0.00  0.00     0.058 A 
BRANCH  12  14
ATOM     14  N   UNL d   1      31.717 -16.893  -6.032  0.00  0.00    -0.327 N 
ATOM     15  C   UNL d   1      31.384 -18.220  -6.267  0.00  0.00     0.222 C 
ATOM     16  O   UNL d   1      30.421 -18.579  -6.947  0.00  0.00    -0.273 OA
ATOM     17  H   UNL d   1      32.616 -16.659  -5.633  0.00  0.00     0.169 HD
BRANCH  15  18
ATOM     18  C   UNL d   1      32.314 -19.247  -5.647  0.00  0.00     0.103 C 
BRANCH  18  19
ATOM     19  C   UNL d   1      32.192 -19.174  -4.119  0.00  0.00     0.009 C 
BRANCH  19  20
ATOM     20  C   UNL d   1      30.792 -18.797  -3.657  0.00  0.00     0.000 C 
BRANCH  20  21
ATOM     21  C   UNL d   1      30.842 -18.067  -2.315  0.00  0.00    -0.005 C 
ATOM     22  C   UNL d   1      30.299 -16.656  -2.453  0.00  0.00     0.005 C 
ENDBRANCH  20  21
ENDBRANCH  19  20
ENDBRANCH  18  19
ENDBRANCH  15  18
ENDBRANCH  12  14
ENDBRANCH   6   8
ENDBRANCH   5   6
ENDBRANCH   1   5
BRANCH   3  23
ATOM     23  C   UNL d   1      26.507 -15.749  -1.861  0.00  0.00     0.035 C 
ATOM     24  C   UNL d   1      27.308 -16.526  -1.045  0.00  0.00     0.029 C 
ATOM     25  C   UNL d   1      26.700 -17.374  -0.088  0.00  0.00     0.003 C 
ATOM     26  C   UNL d   1      25.296 -17.507  -0.000  0.00  0.00     0.017 C 
ATOM     27  C   UNL d   1      24.483 -16.758  -0.842  0.00  0.00     0.034 C 
ATOM     28  C   UNL d   1      25.144 -15.816  -1.622  0.00  0.00     0.046 C 
BRANCH  27  29
ATOM     29  C   UNL d   1      22.970 -16.959  -0.896  0.00  0.00     0.253 C 
ATOM     30  O   UNL d   1      22.268 -15.961  -0.908  0.00  0.00    -0.267 OA
ATOM     31  N   UNL d   1      22.402 -18.263  -0.887  0.00  0.00    -0.348 N 
ATOM     32  C   UNL d   1      23.155 -19.495  -0.743  0.00  0.00     0.153 C 
BRANCH  31  33
ATOM     33  C   UNL d   1      20.935 -18.407  -1.088  0.00  0.00     0.164 C 
BRANCH  33  34
ATOM     34  C   UNL d   1      20.208 -19.319  -0.090  0.00  0.00    -0.040 C 
ATOM     35  C   UNL d   1      20.613 -19.421   1.259  0.00  0.00     0.009 C 
ATOM     36  C   UNL d   1      19.845 -20.066   2.223  0.00  0.00     0.001 C 
ATOM     37  C   UNL d   1      18.721 -20.769   1.830  0.00  0.00     0.000 C 
ATOM     38  C   UNL d   1      18.375 -20.810   0.478  0.00  0.00     0.001 C 
ATOM     39  C   UNL d   1      19.092 -20.070  -0.475  0.00  0.00     0.009 C 
ENDBRANCH  33  34
ENDBRANCH  31  33
ENDBRANCH  27  29
ENDBRANCH   3  23
TORSDOF 12
ENDMDL
MODEL 8
REMARK VINA RESULT:   -10.067      3.870      7.037
REMARK INTER + INTRA:         -15.752
REMARK INTER:                 -13.646
REMARK INTRA:                  -2.105
REMARK CONF_INDEPENDENT:        3.580
REMARK UNBOUND:                -2.105
REMARK  12 active torsions:
REMARK  status: ('A' for Active; 'I' for Inactive)
REMARK    1  A    between atoms: C_2  and  C_3 
REMARK    2  A    between atoms: C_3  and  C_4 
REMARK    3  A    between atoms: C_4  and  C_5 
REMARK    4  A    between atoms: C_5  and  C_6 
REMARK       I    between atoms: C_6  and  N_8 
REMARK    5  A    between atoms: N_8  and  C_9 
REMARK    6  A    between atoms: C_13  and  N_14 
REMARK    7  A    between atoms: N_14  and  C_15 
REMARK    8  A    between atoms: C_15  and  C_16 
REMARK       I    between atoms: C_16  and  N_18 
REMARK    9  A    between atoms: N_18  and  C_19 
REMARK   10  A    between atoms: C_23  and  C_24 
REMARK       I    between atoms: C_24  and  N_26 
REMARK   11  A    between atoms: N_26  and  C_28 
REMARK   12  A    between atoms: C_28  and  C_29 
ROOT
ATOM      1  C   UNL d   1      25.883 -14.642  -3.241  0.00  0.00     0.239 C 
ATOM      2  O   UNL d   1      25.348 -15.571  -3.854  0.00  0.00    -0.271 OA
ATOM      3  N   UNL d   1      26.123 -14.630  -1.856  0.00  0.00    -0.326 N 
ATOM      4  H   UNL d   1      26.500 -13.793  -1.424  0.00  0.00     0.169 HD
ENDROOT
BRANCH   1   5
ATOM      5  C   UNL d   1      26.262 -13.377  -4.019  0.00  0.00     0.223 C 
BRANCH   5   6
ATOM      6  N   UNL d   1      27.728 -13.286  -4.151  0.00  0.00    -0.381 N 
ATOM      7  H   UNL d   1      28.194 -12.638  -3.517  0.00  0.00     0.160 HD
BRANCH   6   8
ATOM      8  C   UNL d   1      28.470 -14.184  -4.893  0.00  0.00     0.030 A 
ATOM      9  C   UNL d   1      28.867 -13.906  -6.203  0.00  0.00     0.029 A 
ATOM     10  C   UNL d   1      29.648 -14.821  -6.927  0.00  0.00     0.004 A 
ATOM     11  C   UNL d   1      30.006 -16.053  -6.365  0.00  0.00     0.029 A 
ATOM     12  C   UNL d   1      29.595 -16.357  -5.071  0.00  0.00     0.036 A 
ATOM     13  C   UNL d   1      28.835 -15.422  -4.366  0.00  0.00     0.058 A 
BRANCH  12  14
ATOM     14  N   UNL d   1      29.971 -17.564  -4.437  0.00  0.00    -0.327 N 
ATOM     15  C   UNL d   1      31.263 -18.063  -4.532  0.00  0.00     0.222 C 
ATOM     16  O   UNL d   1      32.190 -17.473  -5.090  0.00  0.00    -0.273 OA
ATOM     17  H   UNL d   1      29.305 -17.996  -3.809  0.00  0.00     0.169 HD
BRANCH  15  18
ATOM     18  C   UNL d   1      31.495 -19.408  -3.867  0.00  0.00     0.103 C 
BRANCH  18  19
ATOM     19  C   UNL d   1      30.784 -20.498  -4.682  0.00  0.00     0.009 C 
BRANCH  19  20
ATOM     20  C   UNL d   1      30.301 -20.001  -6.036  0.00  0.00     0.000 C 
BRANCH  20  21
ATOM     21  C   UNL d   1      31.266 -20.422  -7.143  0.00  0.00    -0.005 C 
ATOM     22  C   UNL d   1      31.445 -19.301  -8.152  0.00  0.00     0.005 C 
ENDBRANCH  20  21
ENDBRANCH  19  20
ENDBRANCH  18  19
ENDBRANCH  15  18
ENDBRANCH  12  14
ENDBRANCH   6   8
ENDBRANCH   5   6
ENDBRANCH   1   5
BRANCH   3  23
ATOM     23  C   UNL d   1      25.974 -15.780  -1.019  0.00  0.00     0.035 C 
ATOM     24  C   UNL d   1      26.958 -16.295  -0.194  0.00  0.00     0.029 C 
ATOM     25  C   UNL d   1      26.719 -17.513   0.486  0.00  0.00     0.003 C 
ATOM     26  C   UNL d   1      25.536 -18.258   0.281  0.00  0.00     0.017 C 
ATOM     27  C   UNL d   1      24.557 -17.768  -0.575  0.00  0.00     0.034 C 
ATOM     28  C   UNL d   1      24.781 -16.484  -1.059  0.00  0.00     0.046 C 
BRANCH  27  29
ATOM     29  C   UNL d   1      23.324 -18.587  -0.949  0.00  0.00     0.253 C 
ATOM     30  O   UNL d   1      23.488 -19.771  -1.198  0.00  0.00    -0.267 OA
ATOM     31  N   UNL d   1      22.041 -17.982  -1.046  0.00  0.00    -0.348 N 
ATOM     32  C   UNL d   1      21.780 -16.562  -0.895  0.00  0.00     0.153 C 
BRANCH  31  33
ATOM     33  C   UNL d   1      20.854 -18.849  -1.270  0.00  0.00     0.164 C 
BRANCH  33  34
ATOM     34  C   UNL d   1      20.174 -19.395  -0.007  0.00  0.00    -0.040 C 
ATOM     35  C   UNL d   1      18.938 -20.076  -0.061  0.00  0.00     0.009 C 
ATOM     36  C   UNL d   1      18.415 -20.762   1.031  0.00  0.00     0.001 C 
ATOM     37  C   UNL d   1      19.040 -20.651   2.259  0.00  0.00     0.000 C 
ATOM     38  C   UNL d   1      20.186 -19.862   2.378  0.00  0.00     0.001 C 
ATOM     39  C   UNL d   1      20.769 -19.260   1.252  0.00  0.00     0.009 C 
ENDBRANCH  33  34
ENDBRANCH  31  33
ENDBRANCH  27  29
ENDBRANCH   3  23
TORSDOF 12
ENDMDL
MODEL 9
REMARK VINA RESULT:    -9.723      3.837      4.946
REMARK INTER + INTRA:         -16.154
REMARK INTER:                 -13.303
REMARK INTRA:                  -2.851
REMARK CONF_INDEPENDENT:        3.580
REMARK UNBOUND:                -2.851
REMARK  12 active torsions:
REMARK  status: ('A' for Active; 'I' for Inactive)
REMARK    1  A    between atoms: C_2  and  C_3 
REMARK    2  A    between atoms: C_3  and  C_4 
REMARK    3  A    between atoms: C_4  and  C_5 
REMARK    4  A    between atoms: C_5  and  C_6 
REMARK       I    between atoms: C_6  and  N_8 
REMARK    5  A    between atoms: N_8  and  C_9 
REMARK    6  A    between atoms: C_13  and  N_14 
REMARK    7  A    between atoms: N_14  and  C_15 
REMARK    8  A    between atoms: C_15  and  C_16 
REMARK       I    between atoms: C_16  and  N_18 
REMARK    9  A    between atoms: N_18  and  C_19 
REMARK   10  A    between atoms: C_23  and  C_24 
REMARK       I    between atoms: C_24  and  N_26 
REMARK   11  A    between atoms: N_26  and  C_28 
REMARK   12  A    between atoms: C_28  and  C_29 
ROOT
ATOM      1  C   UNL d   1      26.303 -14.928  -3.966  0.00  0.00     0.239 C 
ATOM      2  O   UNL d   1      25.167 -15.327  -4.238  0.00  0.00    -0.271 OA
ATOM      3  N   UNL d   1      26.933 -15.093  -2.720  0.00  0.00    -0.326 N 
ATOM      4  H   UNL d   1      27.840 -14.667  -2.561  0.00  0.00     0.169 HD
ENDROOT
BRANCH   1   5
ATOM      5  C   UNL d   1      27.072 -14.138  -5.030  0.00  0.00     0.223 C 
BRANCH   5   6
ATOM      6  N   UNL d   1      27.994 -15.034  -5.754  0.00  0.00    -0.381 N 
ATOM      7  H   UNL d   1      27.713 -15.295  -6.699  0.00  0.00     0.160 HD
BRANCH   6   8
ATOM      8  C   UNL d   1      29.271 -15.311  -5.309  0.00  0.00     0.030 A 
ATOM      9  C   UNL d   1      30.370 -15.308  -6.173  0.00  0.00     0.029 A 
ATOM     10  C   UNL d   1      31.664 -15.562  -5.691  0.00  0.00     0.004 A 
ATOM     11  C   UNL d   1      31.874 -15.869  -4.340  0.00  0.00     0.029 A 
ATOM     12  C   UNL d   1      30.787 -15.904  -3.473  0.00  0.00     0.036 A 
ATOM     13  C   UNL d   1      29.512 -15.629  -3.974  0.00  0.00     0.058 A 
BRANCH  12  14
ATOM     14  N   UNL d   1      30.948 -16.158  -2.090  0.00  0.00    -0.327 N 
ATOM     15  C   UNL d   1      30.148 -15.540  -1.139  0.00  0.00     0.222 C 
ATOM     16  O   UNL d   1      29.199 -14.802  -1.412  0.00  0.00    -0.273 OA
ATOM     17  H   UNL d   1      31.584 -16.896  -1.817  0.00  0.00     0.169 HD
BRANCH  15  18
ATOM     18  C   UNL d   1      30.493 -15.850   0.306  0.00  0.00     0.103 C 
BRANCH  18  19
ATOM     19  C   UNL d   1      29.996 -14.701   1.195  0.00  0.00     0.009 C 
BRANCH  19  20
ATOM     20  C   UNL d   1      28.487 -14.716   1.390  0.00  0.00     0.000 C 
BRANCH  20  21
ATOM     21  C   UNL d   1      28.101 -14.016   2.692  0.00  0.00    -0.005 C 
ATOM     22  C   UNL d   1      29.071 -14.379   3.803  0.00  0.00     0.005 C 
ENDBRANCH  20  21
ENDBRANCH  19  20
ENDBRANCH  18  19
ENDBRANCH  15  18
ENDBRANCH  12  14
ENDBRANCH   6   8
ENDBRANCH   5   6
ENDBRANCH   1   5
BRANCH   3  23
ATOM     23  C   UNL d   1      26.422 -15.933  -1.681  0.00  0.00     0.035 C 
ATOM     24  C   UNL d   1      27.185 -16.773  -0.891  0.00  0.00     0.029 C 
ATOM     25  C   UNL d   1      26.535 -17.645   0.016  0.00  0.00     0.003 C 
ATOM     26  C   UNL d   1      25.127 -17.737   0.076  0.00  0.00     0.017 C 
ATOM     27  C   UNL d   1      24.351 -16.924  -0.741  0.00  0.00     0.034 C 
ATOM     28  C   UNL d   1      25.054 -15.968  -1.466  0.00  0.00     0.046 C 
BRANCH  27  29
ATOM     29  C   UNL d   1      22.834 -17.074  -0.826  0.00  0.00     0.253 C 
ATOM     30  O   UNL d   1      22.168 -16.053  -0.887  0.00  0.00    -0.267 OA
ATOM     31  N   UNL d   1      22.219 -18.356  -0.791  0.00  0.00    -0.348 N 
ATOM     32  C   UNL d   1      22.924 -19.609  -0.590  0.00  0.00     0.153 C 
BRANCH  31  33
ATOM     33  C   UNL d   1      20.753 -18.456  -1.024  0.00  0.00     0.164 C 
BRANCH  33  34
ATOM     34  C   UNL d   1      19.980 -19.362  -0.056  0.00  0.00    -0.040 C 
ATOM     35  C   UNL d   1      20.262 -19.387   1.327  0.00  0.00     0.009 C 
ATOM     36  C   UNL d   1      19.438 -20.031   2.246  0.00  0.00     0.001 C 
ATOM     37  C   UNL d   1      18.391 -20.807   1.784  0.00  0.00     0.000 C 
ATOM     38  C   UNL d   1      18.175 -20.922   0.409  0.00  0.00     0.001 C 
ATOM     39  C   UNL d   1      18.943 -20.185  -0.507  0.00  0.00     0.009 C 
ENDBRANCH  33  34
ENDBRANCH  31  33
ENDBRANCH  27  29
ENDBRANCH   3  23
TORSDOF 12
ENDMDL
