MODEL 1
REMARK VINA RESULT:    -7.699      0.000      0.000
REMARK INTER + INTRA:         -10.067
REMARK INTER:                  -8.893
REMARK INTRA:                  -1.175
REMARK CONF_INDEPENDENT:        1.193
REMARK UNBOUND:                -1.175
REMARK  4 active torsions:
REMARK  status: ('A' for Active; 'I' for Inactive)
REMARK    1  A    between atoms: C_5  and  C_6 
REMARK       I    between atoms: C_6  and  N_8 
REMARK    2  A    between atoms: N_8  and  N_9 
REMARK       I    between atoms: N_9  and  C_10 
REMARK    3  A    between atoms: C_10  and  C_12 
REMARK    4  A    between atoms: C_18  and  O_19 
ROOT
ATOM      1  C   UNL d   1      22.590 -18.396  -1.021  0.00  0.00     0.272 C 
ATOM      2  O   UNL d   1      23.050 -18.967  -2.022  0.00  0.00    -0.266 OA
ATOM      3  N   UNL d   1      23.152 -17.233  -0.484  0.00  0.00    -0.263 N 
ATOM      4  H   UNL d   1      22.854 -16.737   0.346  0.00  0.00     0.190 HD
ENDROOT
BRANCH   3   5
ATOM      5  N   UNL d   1      24.377 -16.851  -0.984  0.00  0.00    -0.267 N 
ATOM      6  C   UNL d   1      24.577 -15.916  -1.999  0.00  0.00     0.240 C 
ATOM      7  O   UNL d   1      23.698 -15.127  -2.352  0.00  0.00    -0.271 OA
ATOM      8  H   UNL d   1      25.094 -17.492  -0.667  0.00  0.00     0.190 HD
BRANCH   6   9
ATOM      9  C   UNL d   1      26.003 -15.950  -2.669  0.00  0.00     0.083 C 
ATOM     10  C   UNL d   1      25.887 -15.450  -4.122  0.00  0.00     0.041 C 
ATOM     11  C   UNL d   1      25.604 -13.947  -4.103  0.00  0.00    -0.030 C 
ATOM     12  C   UNL d   1      25.796 -13.187  -3.002  0.00  0.00    -0.031 C 
ATOM     13  C   UNL d   1      26.526 -13.661  -1.772  0.00  0.00     0.027 C 
ATOM     14  C   UNL d   1      27.073 -15.066  -1.988  0.00  0.00     0.018 C 
ENDBRANCH   6   9
ENDBRANCH   3   5
BRANCH   1  15
ATOM     15  C   UNL d   1      21.411 -18.978  -0.335  0.00  0.00     0.066 A 
ATOM     16  C   UNL d   1      21.365 -18.950   1.064  0.00  0.00     0.020 A 
ATOM     17  C   UNL d   1      20.283 -19.475   1.759  0.00  0.00     0.008 A 
ATOM     18  C   UNL d   1      19.214 -20.037   1.067  0.00  0.00    -0.059 A 
ATOM     19  C   UNL d   1      18.031 -20.581   1.803  0.00  0.00     0.048 C 
ATOM     20  C   UNL d   1      19.253 -20.090  -0.332  0.00  0.00     0.044 A 
ATOM     21  C   UNL d   1      20.346 -19.572  -1.032  0.00  0.00     0.082 A 
BRANCH  21  22
ATOM     22  O   UNL d   1      20.280 -19.700  -2.395  0.00  0.00    -0.360 OA
ATOM     23  H   UNL d   1      21.187 -19.818  -2.746  0.00  0.00     0.217 HD
ENDBRANCH  21  22
ENDBRANCH   1  15
TORSDOF 4
ENDMDL
MODEL 2
REMARK VINA RESULT:    -7.362      1.711      2.080
REMARK INTER + INTRA:         -10.426
REMARK INTER:                  -8.555
REMARK INTRA:                  -1.871
REMARK CONF_INDEPENDENT:        1.193
REMARK UNBOUND:                -1.871
REMARK  4 active torsions:
REMARK  status: ('A' for Active; 'I' for Inactive)
REMARK    1  A    between atoms: C_5  and  C_6 
REMARK       I    between atoms: C_6  and  N_8 
REMARK    2  A    between atoms: N_8  and  N_9 
REMARK       I    between atoms: N_9  and  C_10 
REMARK    3  A    between atoms: C_10  and  C_12 
REMARK    4  A    between atoms: C_18  and  O_19 
ROOT
ATOM      1  C   UNL d   1      22.580 -18.656  -0.808  0.00  0.00     0.272 C 
ATOM      2  O   UNL d   1      22.652 -18.795  -2.038  0.00  0.00    -0.266 OA
ATOM      3  N   UNL d   1      23.608 -18.092  -0.045  0.00  0.00    -0.263 N 
ATOM      4  H   UNL d   1      23.633 -17.981   0.961  0.00  0.00     0.190 HD
ENDROOT
BRANCH   3   5
ATOM      5  N   UNL d   1      24.808 -17.881  -0.685  0.00  0.00    -0.267 N 
ATOM      6  C   UNL d   1      26.045 -17.746  -0.056  0.00  0.00     0.240 C 
ATOM      7  O   UNL d   1      26.231 -18.087   1.113  0.00  0.00    -0.271 OA
ATOM      8  H   UNL d   1      24.643 -17.627  -1.652  0.00  0.00     0.190 HD
BRANCH   6   9
ATOM      9  C   UNL d   1      27.183 -17.115  -0.946  0.00  0.00     0.083 C 
ATOM     10  C   UNL d   1      26.540 -16.204  -2.010  0.00  0.00     0.041 C 
ATOM     11  C   UNL d   1      25.980 -14.960  -1.317  0.00  0.00    -0.030 C 
ATOM     12  C   UNL d   1      26.336 -14.607  -0.063  0.00  0.00    -0.031 C 
ATOM     13  C   UNL d   1      27.480 -15.233   0.693  0.00  0.00     0.027 C 
ATOM     14  C   UNL d   1      28.207 -16.242  -0.185  0.00  0.00     0.018 C 
ENDBRANCH   6   9
ENDBRANCH   3   5
BRANCH   1  15
ATOM     15  C   UNL d   1      21.370 -19.134  -0.096  0.00  0.00     0.066 A 
ATOM     16  C   UNL d   1      21.288 -18.950   1.290  0.00  0.00     0.020 A 
ATOM     17  C   UNL d   1      20.175 -19.373   2.007  0.00  0.00     0.008 A 
ATOM     18  C   UNL d   1      19.112 -19.986   1.349  0.00  0.00    -0.059 A 
ATOM     19  C   UNL d   1      17.897 -20.420   2.106  0.00  0.00     0.048 C 
ATOM     20  C   UNL d   1      19.187 -20.194  -0.033  0.00  0.00     0.044 A 
ATOM     21  C   UNL d   1      20.310 -19.780  -0.754  0.00  0.00     0.082 A 
BRANCH  21  22
ATOM     22  O   UNL d   1      20.277 -20.056  -2.096  0.00  0.00    -0.360 OA
ATOM     23  H   UNL d   1      20.824 -19.394  -2.569  0.00  0.00     0.217 HD
ENDBRANCH  21  22
ENDBRANCH   1  15
TORSDOF 4
ENDMDL
MODEL 3
REMARK VINA RESULT:    -6.642      5.693      8.545
REMARK INTER + INTRA:          -8.920
REMARK INTER:                  -7.835
REMARK INTRA:                  -1.085
REMARK CONF_INDEPENDENT:        1.193
REMARK UNBOUND:                -1.085
REMARK  4 active torsions:
REMARK  status: ('A' for Active; 'I' for Inactive)
REMARK    1  A    between atoms: C_5  and  C_6 
REMARK       I    between atoms: C_6  and  N_8 
REMARK    2  A    between atoms: N_8  and  N_9 
REMARK       I    between atoms: N_9  and  C_10 
REMARK    3  A    between atoms: C_10  and  C_12 
REMARK    4  A    between atoms: C_18  and  O_19 
ROOT
ATOM      1  C   UNL d   1      28.011 -13.567   2.399  0.00  0.00     0.272 C 
ATOM      2  O   UNL d   1      27.552 -12.734   1.602  0.00  0.00    -0.266 OA
ATOM      3  N   UNL d   1      28.453 -14.834   2.003  0.00  0.00    -0.263 N 
ATOM      4  H   UNL d   1      28.803 -15.573   2.598  0.00  0.00     0.190 HD
ENDROOT
BRANCH   3   5
ATOM      5  N   UNL d   1      28.166 -15.212   0.710  0.00  0.00    -0.267 N 
ATOM      6  C   UNL d   1      26.902 -15.178   0.122  0.00  0.00     0.240 C 
ATOM      7  O   UNL d   1      25.967 -14.538   0.606  0.00  0.00    -0.271 OA
ATOM      8  H   UNL d   1      28.951 -15.716   0.316  0.00  0.00     0.190 HD
BRANCH   6   9
ATOM      9  C   UNL d   1      26.755 -16.028  -1.197  0.00  0.00     0.083 C 
ATOM     10  C   UNL d   1      27.310 -17.443  -0.946  0.00  0.00     0.041 C 
ATOM     11  C   UNL d   1      26.358 -18.186  -0.007  0.00  0.00    -0.030 C 
ATOM     12  C   UNL d   1      25.097 -17.761   0.231  0.00  0.00    -0.031 C 
ATOM     13  C   UNL d   1      24.411 -16.681  -0.566  0.00  0.00     0.027 C 
ATOM     14  C   UNL d   1      25.305 -16.212  -1.705  0.00  0.00     0.018 C 
ENDBRANCH   6   9
ENDBRANCH   3   5
BRANCH   1  15
ATOM     15  C   UNL d   1      28.070 -13.231   3.842  0.00  0.00     0.066 A 
ATOM     16  C   UNL d   1      28.089 -11.883   4.219  0.00  0.00     0.020 A 
ATOM     17  C   UNL d   1      28.139 -11.511   5.557  0.00  0.00     0.008 A 
ATOM     18  C   UNL d   1      28.165 -12.483   6.552  0.00  0.00    -0.059 A 
ATOM     19  C   UNL d   1      28.191 -12.095   7.997  0.00  0.00     0.048 C 
ATOM     20  C   UNL d   1      28.166 -13.837   6.191  0.00  0.00     0.044 A 
ATOM     21  C   UNL d   1      28.127 -14.212   4.846  0.00  0.00     0.082 A 
BRANCH  21  22
ATOM     22  O   UNL d   1      28.153 -15.563   4.616  0.00  0.00    -0.360 OA
ATOM     23  H   UNL d   1      28.996 -15.792   4.170  0.00  0.00     0.217 HD
ENDBRANCH  21  22
ENDBRANCH   1  15
TORSDOF 4
ENDMDL
MODEL 4
REMARK VINA RESULT:    -5.993      3.017      4.655
REMARK INTER + INTRA:          -9.223
REMARK INTER:                  -7.186
REMARK INTRA:                  -2.037
REMARK CONF_INDEPENDENT:        1.193
REMARK UNBOUND:                -2.037
REMARK  4 active torsions:
REMARK  status: ('A' for Active; 'I' for Inactive)
REMARK    1  A    between atoms: C_5  and  C_6 
REMARK       I    between atoms: C_6  and  N_8 
REMARK    2  A    between atoms: N_8  and  N_9 
REMARK       I    between atoms: N_9  and  C_10 
REMARK    3  A    between atoms: C_10  and  C_12 
REMARK    4  A    between atoms: C_18  and  O_19 
ROOT
ATOM      1  C   UNL d   1      26.054 -16.262  -1.699  0.00  0.00     0.272 C 
ATOM      2  O   UNL d   1      27.025 -15.994  -0.974  0.00  0.00    -0.266 OA
ATOM      3  N   UNL d   1      25.991 -15.898  -3.049  0.00  0.00    -0.263 N 
ATOM      4  H   UNL d   1      25.221 -16.050  -3.687  0.00  0.00     0.190 HD
ENDROOT
BRANCH   3   5
ATOM      5  N   UNL d   1      26.965 -15.038  -3.503  0.00  0.00    -0.267 N 
ATOM      6  C   UNL d   1      27.346 -14.881  -4.835  0.00  0.00     0.240 C 
ATOM      7  O   UNL d   1      26.654 -15.286  -5.770  0.00  0.00    -0.271 OA
ATOM      8  H   UNL d   1      27.511 -14.692  -2.722  0.00  0.00     0.190 HD
BRANCH   6   9
ATOM      9  C   UNL d   1      28.730 -14.160  -5.055  0.00  0.00     0.083 C 
ATOM     10  C   UNL d   1      29.585 -14.318  -3.782  0.00  0.00     0.041 C 
ATOM     11  C   UNL d   1      30.025 -15.778  -3.664  0.00  0.00    -0.030 C 
ATOM     12  C   UNL d   1      29.957 -16.642  -4.701  0.00  0.00    -0.031 C 
ATOM     13  C   UNL d   1      29.684 -16.226  -6.123  0.00  0.00     0.027 C 
ATOM     14  C   UNL d   1      29.582 -14.710  -6.223  0.00  0.00     0.018 C 
ENDBRANCH   6   9
ENDBRANCH   3   5
BRANCH   1  15
ATOM     15  C   UNL d   1      24.890 -16.970  -1.116  0.00  0.00     0.066 A 
ATOM     16  C   UNL d   1      23.603 -16.495  -1.398  0.00  0.00     0.020 A 
ATOM     17  C   UNL d   1      22.475 -17.123  -0.884  0.00  0.00     0.008 A 
ATOM     18  C   UNL d   1      22.610 -18.249  -0.077  0.00  0.00    -0.059 A 
ATOM     19  C   UNL d   1      21.402 -18.950   0.461  0.00  0.00     0.048 C 
ATOM     20  C   UNL d   1      23.890 -18.726   0.230  0.00  0.00     0.044 A 
ATOM     21  C   UNL d   1      25.025 -18.089  -0.277  0.00  0.00     0.082 A 
BRANCH  21  22
ATOM     22  O   UNL d   1      26.222 -18.634   0.109  0.00  0.00    -0.360 OA
ATOM     23  H   UNL d   1      26.928 -17.964  -0.011  0.00  0.00     0.217 HD
ENDBRANCH  21  22
ENDBRANCH   1  15
TORSDOF 4
ENDMDL
MODEL 5
REMARK VINA RESULT:    -5.768      5.485      8.171
REMARK INTER + INTRA:          -8.253
REMARK INTER:                  -6.961
REMARK INTRA:                  -1.292
REMARK CONF_INDEPENDENT:        1.193
REMARK UNBOUND:                -1.292
REMARK  4 active torsions:
REMARK  status: ('A' for Active; 'I' for Inactive)
REMARK    1  A    between atoms: C_5  and  C_6 
REMARK       I    between atoms: C_6  and  N_8 
REMARK    2  A    between atoms: N_8  and  N_9 
REMARK       I    between atoms: N_9  and  C_10 
REMARK    3  A    between atoms: C_10  and  C_12 
REMARK    4  A    between atoms: C_18  and  O_19 
ROOT
ATOM      1  C   UNL d   1      28.021 -14.292   2.052  0.00  0.00     0.272 C 
ATOM      2  O   UNL d   1      27.024 -13.685   1.631  0.00  0.00    -0.266 OA
ATOM      3  N   UNL d   1      28.803 -15.123   1.241  0.00  0.00    -0.263 N 
ATOM      4  H   UNL d   1      29.603 -15.674   1.523  0.00  0.00     0.190 HD
ENDROOT
BRANCH   3   5
ATOM      5  N   UNL d   1      28.302 -15.415  -0.008  0.00  0.00    -0.267 N 
ATOM      6  C   UNL d   1      27.130 -16.126  -0.260  0.00  0.00     0.240 C 
ATOM      7  O   UNL d   1      26.275 -16.318   0.606  0.00  0.00    -0.271 OA
ATOM      8  H   UNL d   1      29.006 -15.230  -0.713  0.00  0.00     0.190 HD
BRANCH   6   9
ATOM      9  C   UNL d   1      26.986 -16.678  -1.730  0.00  0.00     0.083 C 
ATOM     10  C   UNL d   1      25.495 -16.930  -2.027  0.00  0.00     0.041 C 
ATOM     11  C   UNL d   1      24.783 -15.580  -2.145  0.00  0.00    -0.030 C 
ATOM     12  C   UNL d   1      25.454 -14.420  -2.314  0.00  0.00    -0.031 C 
ATOM     13  C   UNL d   1      26.922 -14.339  -2.647  0.00  0.00     0.027 C 
ATOM     14  C   UNL d   1      27.499 -15.734  -2.842  0.00  0.00     0.018 C 
ENDBRANCH   6   9
ENDBRANCH   3   5
BRANCH   1  15
ATOM     15  C   UNL d   1      28.395 -14.166   3.481  0.00  0.00     0.066 A 
ATOM     16  C   UNL d   1      27.424 -13.741   4.396  0.00  0.00     0.020 A 
ATOM     17  C   UNL d   1      27.717 -13.612   5.748  0.00  0.00     0.008 A 
ATOM     18  C   UNL d   1      28.992 -13.910   6.218  0.00  0.00    -0.059 A 
ATOM     19  C   UNL d   1      29.312 -13.800   7.675  0.00  0.00     0.048 C 
ATOM     20  C   UNL d   1      29.980 -14.318   5.313  0.00  0.00     0.044 A 
ATOM     21  C   UNL d   1      29.690 -14.438   3.952  0.00  0.00     0.082 A 
BRANCH  21  22
ATOM     22  O   UNL d   1      30.742 -14.825   3.163  0.00  0.00    -0.360 OA
ATOM     23  H   UNL d   1      30.743 -15.803   3.093  0.00  0.00     0.217 HD
ENDBRANCH  21  22
ENDBRANCH   1  15
TORSDOF 4
ENDMDL
MODEL 6
REMARK VINA RESULT:    -5.757      2.865      4.340
REMARK INTER + INTRA:          -8.893
REMARK INTER:                  -6.950
REMARK INTRA:                  -1.943
REMARK CONF_INDEPENDENT:        1.193
REMARK UNBOUND:                -1.943
REMARK  4 active torsions:
REMARK  status: ('A' for Active; 'I' for Inactive)
REMARK    1  A    between atoms: C_5  and  C_6 
REMARK       I    between atoms: C_6  and  N_8 
REMARK    2  A    between atoms: N_8  and  N_9 
REMARK       I    between atoms: N_9  and  C_10 
REMARK    3  A    between atoms: C_10  and  C_12 
REMARK    4  A    between atoms: C_18  and  O_19 
ROOT
ATOM      1  C   UNL d   1      26.064 -16.177  -1.650  0.00  0.00     0.272 C 
ATOM      2  O   UNL d   1      26.975 -15.787  -0.904  0.00  0.00    -0.266 OA
ATOM      3  N   UNL d   1      26.054 -15.936  -3.028  0.00  0.00    -0.263 N 
ATOM      4  H   UNL d   1      25.331 -16.192  -3.688  0.00  0.00     0.190 HD
ENDROOT
BRANCH   3   5
ATOM      5  N   UNL d   1      26.999 -15.059  -3.509  0.00  0.00    -0.267 N 
ATOM      6  C   UNL d   1      27.361 -14.917  -4.848  0.00  0.00     0.240 C 
ATOM      7  O   UNL d   1      26.671 -15.358  -5.768  0.00  0.00    -0.271 OA
ATOM      8  H   UNL d   1      27.544 -14.684  -2.741  0.00  0.00     0.190 HD
BRANCH   6   9
ATOM      9  C   UNL d   1      28.724 -14.164  -5.096  0.00  0.00     0.083 C 
ATOM     10  C   UNL d   1      28.788 -13.718  -6.570  0.00  0.00     0.041 C 
ATOM     11  C   UNL d   1      27.780 -12.587  -6.786  0.00  0.00    -0.030 C 
ATOM     12  C   UNL d   1      27.229 -11.902  -5.760  0.00  0.00    -0.031 C 
ATOM     13  C   UNL d   1      27.711 -11.993  -4.335  0.00  0.00     0.027 C 
ATOM     14  C   UNL d   1      28.938 -12.890  -4.245  0.00  0.00     0.018 C 
ENDBRANCH   6   9
ENDBRANCH   3   5
BRANCH   1  15
ATOM     15  C   UNL d   1      24.912 -16.904  -1.064  0.00  0.00     0.066 A 
ATOM     16  C   UNL d   1      23.616 -16.501  -1.409  0.00  0.00     0.020 A 
ATOM     17  C   UNL d   1      22.500 -17.150  -0.895  0.00  0.00     0.008 A 
ATOM     18  C   UNL d   1      22.657 -18.225  -0.024  0.00  0.00    -0.059 A 
ATOM     19  C   UNL d   1      21.463 -18.949   0.514  0.00  0.00     0.048 C 
ATOM     20  C   UNL d   1      23.946 -18.628   0.346  0.00  0.00     0.044 A 
ATOM     21  C   UNL d   1      25.068 -17.969  -0.162  0.00  0.00     0.082 A 
BRANCH  21  22
ATOM     22  O   UNL d   1      26.274 -18.440   0.288  0.00  0.00    -0.360 OA
ATOM     23  H   UNL d   1      26.957 -17.753   0.140  0.00  0.00     0.217 HD
ENDBRANCH  21  22
ENDBRANCH   1  15
TORSDOF 4
ENDMDL
MODEL 7
REMARK VINA RESULT:    -5.404      4.479      6.589
REMARK INTER + INTRA:          -8.638
REMARK INTER:                  -6.597
REMARK INTRA:                  -2.041
REMARK CONF_INDEPENDENT:        1.193
REMARK UNBOUND:                -2.041
REMARK  4 active torsions:
REMARK  status: ('A' for Active; 'I' for Inactive)
REMARK    1  A    between atoms: C_5  and  C_6 
REMARK       I    between atoms: C_6  and  N_8 
REMARK    2  A    between atoms: N_8  and  N_9 
REMARK       I    between atoms: N_9  and  C_10 
REMARK    3  A    between atoms: C_10  and  C_12 
REMARK    4  A    between atoms: C_18  and  O_19 
ROOT
ATOM      1  C   UNL d   1      25.128 -14.091  -3.016  0.00  0.00     0.272 C 
ATOM      2  O   UNL d   1      24.486 -14.375  -4.038  0.00  0.00    -0.266 OA
ATOM      3  N   UNL d   1      25.560 -12.792  -2.725  0.00  0.00    -0.263 N 
ATOM      4  H   UNL d   1      26.116 -12.495  -1.934  0.00  0.00     0.190 HD
ENDROOT
BRANCH   3   5
ATOM      5  N   UNL d   1      25.427 -11.858  -3.729  0.00  0.00    -0.267 N 
ATOM      6  C   UNL d   1      25.871 -10.538  -3.665  0.00  0.00     0.240 C 
ATOM      7  O   UNL d   1      26.679 -10.153  -2.819  0.00  0.00    -0.271 OA
ATOM      8  H   UNL d   1      24.780 -12.197  -4.431  0.00  0.00     0.190 HD
BRANCH   6   9
ATOM      9  C   UNL d   1      25.252  -9.572  -4.747  0.00  0.00     0.083 C 
ATOM     10  C   UNL d   1      26.127  -8.308  -4.849  0.00  0.00     0.041 C 
ATOM     11  C   UNL d   1      27.456  -8.682  -5.509  0.00  0.00    -0.030 C 
ATOM     12  C   UNL d   1      27.628  -9.837  -6.188  0.00  0.00    -0.031 C 
ATOM     13  C   UNL d   1      26.500 -10.757  -6.579  0.00  0.00     0.027 C 
ATOM     14  C   UNL d   1      25.160 -10.155  -6.176  0.00  0.00     0.018 C 
ENDBRANCH   6   9
ENDBRANCH   3   5
BRANCH   1  15
ATOM     15  C   UNL d   1      25.490 -15.170  -2.066  0.00  0.00     0.066 A 
ATOM     16  C   UNL d   1      24.693 -16.321  -2.020  0.00  0.00     0.020 A 
ATOM     17  C   UNL d   1      24.988 -17.367  -1.154  0.00  0.00     0.008 A 
ATOM     18  C   UNL d   1      26.095 -17.286  -0.313  0.00  0.00    -0.059 A 
ATOM     19  C   UNL d   1      26.439 -18.416   0.605  0.00  0.00     0.048 C 
ATOM     20  C   UNL d   1      26.891 -16.134  -0.333  0.00  0.00     0.044 A 
ATOM     21  C   UNL d   1      26.589 -15.078  -1.196  0.00  0.00     0.082 A 
BRANCH  21  22
ATOM     22  O   UNL d   1      27.427 -13.996  -1.110  0.00  0.00    -0.360 OA
ATOM     23  H   UNL d   1      28.118 -14.183  -0.441  0.00  0.00     0.217 HD
ENDBRANCH  21  22
ENDBRANCH   1  15
TORSDOF 4
ENDMDL
MODEL 8
REMARK VINA RESULT:    -5.213     10.597     12.292
REMARK INTER + INTRA:          -8.375
REMARK INTER:                  -6.406
REMARK INTRA:                  -1.969
REMARK CONF_INDEPENDENT:        1.193
REMARK UNBOUND:                -1.969
REMARK  4 active torsions:
REMARK  status: ('A' for Active; 'I' for Inactive)
REMARK    1  A    between atoms: C_5  and  C_6 
REMARK       I    between atoms: C_6  and  N_8 
REMARK    2  A    between atoms: N_8  and  N_9 
REMARK       I    between atoms: N_9  and  C_10 
REMARK    3  A    between atoms: C_10  and  C_12 
REMARK    4  A    between atoms: C_18  and  O_19 
ROOT
ATOM      1  C   UNL d   1      32.412 -20.951   3.805  0.00  0.00     0.272 C 
ATOM      2  O   UNL d   1      31.828 -19.860   3.884  0.00  0.00    -0.266 OA
ATOM      3  N   UNL d   1      32.425 -21.725   2.639  0.00  0.00    -0.263 N 
ATOM      4  H   UNL d   1      32.848 -22.635   2.515  0.00  0.00     0.190 HD
ENDROOT
BRANCH   3   5
ATOM      5  N   UNL d   1      31.580 -21.329   1.627  0.00  0.00    -0.267 N 
ATOM      6  C   UNL d   1      31.510 -21.911   0.362  0.00  0.00     0.240 C 
ATOM      7  O   UNL d   1      31.993 -23.018   0.117  0.00  0.00    -0.271 OA
ATOM      8  H   UNL d   1      31.171 -20.430   1.851  0.00  0.00     0.190 HD
BRANCH   6   9
ATOM      9  C   UNL d   1      30.781 -21.044  -0.734  0.00  0.00     0.083 C 
ATOM     10  C   UNL d   1      31.141 -19.561  -0.521  0.00  0.00     0.041 C 
ATOM     11  C   UNL d   1      32.607 -19.352  -0.904  0.00  0.00    -0.030 C 
ATOM     12  C   UNL d   1      33.301 -20.253  -1.633  0.00  0.00    -0.031 C 
ATOM     13  C   UNL d   1      32.670 -21.419  -2.349  0.00  0.00     0.027 C 
ATOM     14  C   UNL d   1      31.155 -21.378  -2.197  0.00  0.00     0.018 C 
ENDBRANCH   6   9
ENDBRANCH   3   5
BRANCH   1  15
ATOM     15  C   UNL d   1      33.106 -21.487   5.001  0.00  0.00     0.066 A 
ATOM     16  C   UNL d   1      34.424 -21.942   4.867  0.00  0.00     0.020 A 
ATOM     17  C   UNL d   1      35.124 -22.449   5.955  0.00  0.00     0.008 A 
ATOM     18  C   UNL d   1      34.521 -22.507   7.208  0.00  0.00    -0.059 A 
ATOM     19  C   UNL d   1      35.274 -23.026   8.393  0.00  0.00     0.048 C 
ATOM     20  C   UNL d   1      33.197 -22.074   7.355  0.00  0.00     0.044 A 
ATOM     21  C   UNL d   1      32.489 -21.575   6.260  0.00  0.00     0.082 A 
BRANCH  21  22
ATOM     22  O   UNL d   1      31.196 -21.202   6.522  0.00  0.00    -0.360 OA
ATOM     23  H   UNL d   1      30.883 -20.615   5.802  0.00  0.00     0.217 HD
ENDBRANCH  21  22
ENDBRANCH   1  15
TORSDOF 4
ENDMDL
MODEL 9
REMARK VINA RESULT:    -4.969      9.799     12.058
REMARK INTER + INTRA:          -8.264
REMARK INTER:                  -6.163
REMARK INTRA:                  -2.102
REMARK CONF_INDEPENDENT:        1.193
REMARK UNBOUND:                -2.102
REMARK  4 active torsions:
REMARK  status: ('A' for Active; 'I' for Inactive)
REMARK    1  A    between atoms: C_5  and  C_6 
REMARK       I    between atoms: C_6  and  N_8 
REMARK    2  A    between atoms: N_8  and  N_9 
REMARK       I    between atoms: N_9  and  C_10 
REMARK    3  A    between atoms: C_10  and  C_12 
REMARK    4  A    between atoms: C_18  and  O_19 
ROOT
ATOM      1  C   UNL d   1      28.267 -12.622   5.960  0.00  0.00     0.272 C 
ATOM      2  O   UNL d   1      27.770 -11.596   6.450  0.00  0.00    -0.266 OA
ATOM      3  N   UNL d   1      29.158 -13.444   6.659  0.00  0.00    -0.263 N 
ATOM      4  H   UNL d   1      29.628 -14.270   6.313  0.00  0.00     0.190 HD
ENDROOT
BRANCH   3   5
ATOM      5  N   UNL d   1      29.637 -12.958   7.855  0.00  0.00    -0.267 N 
ATOM      6  C   UNL d   1      30.294 -13.712   8.827  0.00  0.00     0.240 C 
ATOM      7  O   UNL d   1      30.766 -14.825   8.590  0.00  0.00    -0.271 OA
ATOM      8  H   UNL d   1      29.262 -12.032   8.026  0.00  0.00     0.190 HD
BRANCH   6   9
ATOM      9  C   UNL d   1      30.377 -13.042  10.251  0.00  0.00     0.083 C 
ATOM     10  C   UNL d   1      29.288 -11.957  10.359  0.00  0.00     0.041 C 
ATOM     11  C   UNL d   1      27.920 -12.640  10.430  0.00  0.00    -0.030 C 
ATOM     12  C   UNL d   1      27.780 -13.954  10.714  0.00  0.00    -0.031 C 
ATOM     13  C   UNL d   1      28.898 -14.826  11.224  0.00  0.00     0.027 C 
ATOM     14  C   UNL d   1      30.158 -14.000  11.445  0.00  0.00     0.018 C 
ENDBRANCH   6   9
ENDBRANCH   3   5
BRANCH   1  15
ATOM     15  C   UNL d   1      27.936 -12.990   4.562  0.00  0.00     0.066 A 
ATOM     16  C   UNL d   1      27.424 -12.004   3.710  0.00  0.00     0.020 A 
ATOM     17  C   UNL d   1      27.101 -12.291   2.390  0.00  0.00     0.008 A 
ATOM     18  C   UNL d   1      27.290 -13.575   1.888  0.00  0.00    -0.059 A 
ATOM     19  C   UNL d   1      26.972 -13.890   0.460  0.00  0.00     0.048 C 
ATOM     20  C   UNL d   1      27.783 -14.578   2.732  0.00  0.00     0.044 A 
ATOM     21  C   UNL d   1      28.097 -14.293   4.063  0.00  0.00     0.082 A 
BRANCH  21  22
ATOM     22  O   UNL d   1      28.552 -15.359   4.796  0.00  0.00    -0.360 OA
ATOM     23  H   UNL d   1      29.068 -15.950   4.209  0.00  0.00     0.217 HD
ENDBRANCH  21  22
ENDBRANCH   1  15
TORSDOF 4
ENDMDL
