MODEL 1
REMARK VINA RESULT:   -11.894      0.000      0.000
REMARK INTER + INTRA:         -15.579
REMARK INTER:                 -13.386
REMARK INTRA:                  -2.193
REMARK CONF_INDEPENDENT:        1.492
REMARK UNBOUND:                -2.193
REMARK  5 active torsions:
REMARK  status: ('A' for Active; 'I' for Inactive)
REMARK       I    between atoms: C_2  and  N_3 
REMARK       I    between atoms: C_2  and  N_11 
REMARK    1  A    between atoms: N_3  and  C_4 
REMARK    2  A    between atoms: N_11  and  C_12 
REMARK    3  A    between atoms: C_14  and  N_15 
REMARK       I    between atoms: N_15  and  C_16 
REMARK    4  A    between atoms: C_16  and  C_18 
REMARK    5  A    between atoms: C_26  and  N_27 
ROOT
ATOM      1  C   UNL d   1      24.803 -16.091  -1.585  0.00  0.00     0.065 C 
ATOM      2  C   UNL d   1      23.720 -16.954  -1.228  0.00  0.00     0.061 C 
ATOM      3  C   UNL d   1      23.889 -17.988  -0.280  0.00  0.00     0.037 C 
ATOM      4  C   UNL d   1      25.169 -18.199   0.214  0.00  0.00     0.032 C 
ATOM      5  C   UNL d   1      26.207 -17.334  -0.077  0.00  0.00     0.034 C 
ATOM      6  C   UNL d   1      26.056 -16.260  -0.956  0.00  0.00     0.057 C 
ENDROOT
BRANCH   1   7
ATOM      7  N   UNL d   1      24.547 -15.065  -2.546  0.00  0.00    -0.306 N 
ATOM      8  C   UNL d   1      25.353 -14.552  -3.544  0.00  0.00     0.325 C 
ATOM      9  O   UNL d   1      25.125 -13.422  -3.993  0.00  0.00    -0.247 OA
ATOM     10  N   UNL d   1      26.303 -15.395  -4.040  0.00  0.00    -0.309 N 
ATOM     11  H   UNL d   1      26.240 -16.331  -3.666  0.00  0.00     0.170 HD
ATOM     12  H   UNL d   1      23.745 -14.478  -2.358  0.00  0.00     0.170 HD
BRANCH  10  13
ATOM     13  C   UNL d   1      27.366 -15.103  -4.923  0.00  0.00     0.037 C 
ATOM     14  C   UNL d   1      27.380 -13.970  -5.746  0.00  0.00     0.029 C 
ATOM     15  C   UNL d   1      28.461 -13.727  -6.600  0.00  0.00     0.004 C 
ATOM     16  C   UNL d   1      29.521 -14.629  -6.653  0.00  0.00     0.024 C 
ATOM     17  C   UNL d   1      29.550 -15.704  -5.768  0.00  0.00     0.036 C 
ATOM     18 CL   UNL d   1      30.852 -16.828  -5.835  0.00  0.00    -0.084 Cl
ATOM     19  C   UNL d   1      28.510 -15.907  -4.860  0.00  0.00     0.053 C 
ENDBRANCH  10  13
ENDBRANCH   1   7
BRANCH   6  20
ATOM     20  N   UNL d   1      27.195 -15.478  -1.128  0.00  0.00    -0.379 N 
ATOM     21  C   UNL d   1      28.296 -16.162  -1.799  0.00  0.00     0.123 C 
ATOM     22  C   UNL d   1      29.501 -16.393  -0.937  0.00  0.00     0.020 C 
ATOM     23  C   UNL d   1      30.292 -15.105  -0.756  0.00  0.00     0.002 C 
ATOM     24  C   UNL d   1      29.484 -13.938  -0.180  0.00  0.00     0.002 C 
ATOM     25  C   UNL d   1      28.464 -13.336  -1.145  0.00  0.00     0.020 C 
ATOM     26  C   UNL d   1      27.100 -14.019  -1.084  0.00  0.00     0.123 C 
ENDBRANCH   6  20
BRANCH   3  27
ATOM     27  N   UNL d   1      22.796 -18.773   0.208  0.00  0.00    -0.323 N 
ATOM     28  C   UNL d   1      21.463 -18.578  -0.177  0.00  0.00     0.256 C 
ATOM     29  O   UNL d   1      21.025 -17.696  -0.916  0.00  0.00    -0.267 OA
ATOM     30  H   UNL d   1      23.022 -19.610   0.732  0.00  0.00     0.169 HD
BRANCH  28  31
ATOM     31  C   UNL d   1      20.428 -19.506   0.328  0.00  0.00     0.032 A 
ATOM     32  C   UNL d   1      19.458 -19.979  -0.576  0.00  0.00     0.017 A 
ATOM     33  C   UNL d   1      18.330 -20.652  -0.111  0.00  0.00     0.001 A 
ATOM     34  C   UNL d   1      18.198 -20.908   1.252  0.00  0.00     0.000 A 
ATOM     35  C   UNL d   1      19.167 -20.450   2.150  0.00  0.00     0.001 A 
ATOM     36  C   UNL d   1      20.279 -19.737   1.693  0.00  0.00     0.017 A 
ENDBRANCH  28  31
ENDBRANCH   3  27
TORSDOF 5
ENDMDL
MODEL 2
REMARK VINA RESULT:   -11.855      0.526      1.259
REMARK INTER + INTRA:         -15.957
REMARK INTER:                 -13.346
REMARK INTRA:                  -2.611
REMARK CONF_INDEPENDENT:        1.492
REMARK UNBOUND:                -2.611
REMARK  5 active torsions:
REMARK  status: ('A' for Active; 'I' for Inactive)
REMARK       I    between atoms: C_2  and  N_3 
REMARK       I    between atoms: C_2  and  N_11 
REMARK    1  A    between atoms: N_3  and  C_4 
REMARK    2  A    between atoms: N_11  and  C_12 
REMARK    3  A    between atoms: C_14  and  N_15 
REMARK       I    between atoms: N_15  and  C_16 
REMARK    4  A    between atoms: C_16  and  C_18 
REMARK    5  A    between atoms: C_26  and  N_27 
ROOT
ATOM      1  C   UNL d   1      24.805 -16.074  -1.584  0.00  0.00     0.065 C 
ATOM      2  C   UNL d   1      23.729 -16.948  -1.234  0.00  0.00     0.061 C 
ATOM      3  C   UNL d   1      23.901 -17.978  -0.281  0.00  0.00     0.037 C 
ATOM      4  C   UNL d   1      25.178 -18.172   0.225  0.00  0.00     0.032 C 
ATOM      5  C   UNL d   1      26.209 -17.297  -0.060  0.00  0.00     0.034 C 
ATOM      6  C   UNL d   1      26.055 -16.228  -0.943  0.00  0.00     0.057 C 
ENDROOT
BRANCH   1   7
ATOM      7  N   UNL d   1      24.547 -15.055  -2.550  0.00  0.00    -0.306 N 
ATOM      8  C   UNL d   1      25.349 -14.549  -3.555  0.00  0.00     0.325 C 
ATOM      9  O   UNL d   1      25.121 -13.421  -4.010  0.00  0.00    -0.247 OA
ATOM     10  N   UNL d   1      26.296 -15.396  -4.049  0.00  0.00    -0.309 N 
ATOM     11  H   UNL d   1      26.234 -16.330  -3.669  0.00  0.00     0.170 HD
ATOM     12  H   UNL d   1      23.746 -14.465  -2.363  0.00  0.00     0.170 HD
BRANCH  10  13
ATOM     13  C   UNL d   1      27.356 -15.111  -4.939  0.00  0.00     0.037 C 
ATOM     14  C   UNL d   1      27.392 -13.958  -5.732  0.00  0.00     0.029 C 
ATOM     15  C   UNL d   1      28.469 -13.723  -6.594  0.00  0.00     0.004 C 
ATOM     16  C   UNL d   1      29.502 -14.653  -6.685  0.00  0.00     0.024 C 
ATOM     17  C   UNL d   1      29.511 -15.751  -5.829  0.00  0.00     0.036 C 
ATOM     18 CL   UNL d   1      30.780 -16.909  -5.941  0.00  0.00    -0.084 Cl
ATOM     19  C   UNL d   1      28.477 -15.948  -4.912  0.00  0.00     0.053 C 
ENDBRANCH  10  13
ENDBRANCH   1   7
BRANCH   6  20
ATOM     20  N   UNL d   1      27.186 -15.434  -1.108  0.00  0.00    -0.379 N 
ATOM     21  C   UNL d   1      27.171 -14.201  -0.328  0.00  0.00     0.123 C 
ATOM     22  C   UNL d   1      27.095 -12.948  -1.149  0.00  0.00     0.020 C 
ATOM     23  C   UNL d   1      28.442 -12.634  -1.785  0.00  0.00     0.002 C 
ATOM     24  C   UNL d   1      29.014 -13.762  -2.650  0.00  0.00     0.002 C 
ATOM     25  C   UNL d   1      29.514 -14.973  -1.862  0.00  0.00     0.020 C 
ATOM     26  C   UNL d   1      28.430 -16.018  -1.610  0.00  0.00     0.123 C 
ENDBRANCH   6  20
BRANCH   3  27
ATOM     27  N   UNL d   1      22.813 -18.772   0.200  0.00  0.00    -0.323 N 
ATOM     28  C   UNL d   1      21.477 -18.574  -0.174  0.00  0.00     0.256 C 
ATOM     29  O   UNL d   1      21.033 -17.680  -0.895  0.00  0.00    -0.267 OA
ATOM     30  H   UNL d   1      23.043 -19.618   0.708  0.00  0.00     0.169 HD
BRANCH  28  31
ATOM     31  C   UNL d   1      20.447 -19.512   0.321  0.00  0.00     0.032 A 
ATOM     32  C   UNL d   1      19.500 -20.007  -0.596  0.00  0.00     0.017 A 
ATOM     33  C   UNL d   1      18.373 -20.693  -0.144  0.00  0.00     0.001 A 
ATOM     34  C   UNL d   1      18.221 -20.938   1.218  0.00  0.00     0.000 A 
ATOM     35  C   UNL d   1      19.167 -20.458   2.129  0.00  0.00     0.001 A 
ATOM     36  C   UNL d   1      20.276 -19.734   1.686  0.00  0.00     0.017 A 
ENDBRANCH  28  31
ENDBRANCH   3  27
TORSDOF 5
ENDMDL
MODEL 3
REMARK VINA RESULT:   -11.581      2.256      3.128
REMARK INTER + INTRA:         -15.470
REMARK INTER:                 -13.073
REMARK INTRA:                  -2.397
REMARK CONF_INDEPENDENT:        1.492
REMARK UNBOUND:                -2.397
REMARK  5 active torsions:
REMARK  status: ('A' for Active; 'I' for Inactive)
REMARK       I    between atoms: C_2  and  N_3 
REMARK       I    between atoms: C_2  and  N_11 
REMARK    1  A    between atoms: N_3  and  C_4 
REMARK    2  A    between atoms: N_11  and  C_12 
REMARK    3  A    between atoms: C_14  and  N_15 
REMARK       I    between atoms: N_15  and  C_16 
REMARK    4  A    between atoms: C_16  and  C_18 
REMARK    5  A    between atoms: C_26  and  N_27 
ROOT
ATOM      1  C   UNL d   1      25.302 -16.918  -1.815  0.00  0.00     0.065 C 
ATOM      2  C   UNL d   1      24.058 -17.482  -1.391  0.00  0.00     0.061 C 
ATOM      3  C   UNL d   1      23.921 -18.086  -0.120  0.00  0.00     0.037 C 
ATOM      4  C   UNL d   1      25.065 -18.200   0.658  0.00  0.00     0.032 C 
ATOM      5  C   UNL d   1      26.255 -17.604   0.285  0.00  0.00     0.034 C 
ATOM      6  C   UNL d   1      26.405 -16.941  -0.933  0.00  0.00     0.057 C 
ENDROOT
BRANCH   1   7
ATOM      7  N   UNL d   1      25.355 -16.320  -3.111  0.00  0.00    -0.306 N 
ATOM      8  C   UNL d   1      25.524 -15.000  -3.482  0.00  0.00     0.325 C 
ATOM      9  O   UNL d   1      25.140 -14.625  -4.597  0.00  0.00    -0.247 OA
ATOM     10  N   UNL d   1      26.211 -14.214  -2.605  0.00  0.00    -0.309 N 
ATOM     11  H   UNL d   1      26.588 -14.727  -1.821  0.00  0.00     0.170 HD
ATOM     12  H   UNL d   1      25.021 -16.896  -3.874  0.00  0.00     0.170 HD
BRANCH  10  13
ATOM     13  C   UNL d   1      26.386 -12.813  -2.628  0.00  0.00     0.037 C 
ATOM     14  C   UNL d   1      26.999 -12.107  -1.585  0.00  0.00     0.029 C 
ATOM     15  C   UNL d   1      27.150 -10.718  -1.661  0.00  0.00     0.004 C 
ATOM     16  C   UNL d   1      26.665 -10.026  -2.769  0.00  0.00     0.024 C 
ATOM     17  C   UNL d   1      26.140 -10.738  -3.844  0.00  0.00     0.036 C 
ATOM     18 CL   UNL d   1      25.530  -9.889  -5.212  0.00  0.00    -0.084 Cl
ATOM     19  C   UNL d   1      26.059 -12.130  -3.805  0.00  0.00     0.053 C 
ENDBRANCH  10  13
ENDBRANCH   1   7
BRANCH   6  20
ATOM     20  N   UNL d   1      27.663 -16.385  -1.147  0.00  0.00    -0.379 N 
ATOM     21  C   UNL d   1      28.356 -15.983   0.073  0.00  0.00     0.123 C 
ATOM     22  C   UNL d   1      28.556 -14.503   0.215  0.00  0.00     0.020 C 
ATOM     23  C   UNL d   1      29.680 -14.019  -0.690  0.00  0.00     0.002 C 
ATOM     24  C   UNL d   1      29.492 -14.356  -2.173  0.00  0.00     0.002 C 
ATOM     25  C   UNL d   1      29.670 -15.835  -2.514  0.00  0.00     0.020 C 
ATOM     26  C   UNL d   1      28.379 -16.641  -2.397  0.00  0.00     0.123 C 
ENDBRANCH   6  20
BRANCH   3  27
ATOM     27  N   UNL d   1      22.660 -18.526   0.392  0.00  0.00    -0.323 N 
ATOM     28  C   UNL d   1      21.597 -18.954  -0.415  0.00  0.00     0.256 C 
ATOM     29  O   UNL d   1      21.553 -18.957  -1.645  0.00  0.00    -0.267 OA
ATOM     30  H   UNL d   1      22.595 -18.689   1.390  0.00  0.00     0.169 HD
BRANCH  28  31
ATOM     31  C   UNL d   1      20.370 -19.468   0.230  0.00  0.00     0.032 A 
ATOM     32  C   UNL d   1      20.333 -19.530   1.637  0.00  0.00     0.017 A 
ATOM     33  C   UNL d   1      19.312 -20.225   2.285  0.00  0.00     0.001 A 
ATOM     34  C   UNL d   1      18.294 -20.805   1.532  0.00  0.00     0.000 A 
ATOM     35  C   UNL d   1      18.323 -20.734   0.136  0.00  0.00     0.001 A 
ATOM     36  C   UNL d   1      19.366 -20.076  -0.520  0.00  0.00     0.017 A 
ENDBRANCH  28  31
ENDBRANCH   3  27
TORSDOF 5
ENDMDL
MODEL 4
REMARK VINA RESULT:   -11.519      2.896      4.974
REMARK INTER + INTRA:         -14.958
REMARK INTER:                 -13.010
REMARK INTRA:                  -1.947
REMARK CONF_INDEPENDENT:        1.492
REMARK UNBOUND:                -1.947
REMARK  5 active torsions:
REMARK  status: ('A' for Active; 'I' for Inactive)
REMARK       I    between atoms: C_2  and  N_3 
REMARK       I    between atoms: C_2  and  N_11 
REMARK    1  A    between atoms: N_3  and  C_4 
REMARK    2  A    between atoms: N_11  and  C_12 
REMARK    3  A    between atoms: C_14  and  N_15 
REMARK       I    between atoms: N_15  and  C_16 
REMARK    4  A    between atoms: C_16  and  C_18 
REMARK    5  A    between atoms: C_26  and  N_27 
ROOT
ATOM      1  C   UNL d   1      25.691 -17.044  -0.713  0.00  0.00     0.065 C 
ATOM      2  C   UNL d   1      24.709 -17.858  -0.066  0.00  0.00     0.061 C 
ATOM      3  C   UNL d   1      23.327 -17.613  -0.233  0.00  0.00     0.037 C 
ATOM      4  C   UNL d   1      22.962 -16.492  -0.966  0.00  0.00     0.032 C 
ATOM      5  C   UNL d   1      23.899 -15.736  -1.646  0.00  0.00     0.034 C 
ATOM      6  C   UNL d   1      25.268 -15.993  -1.558  0.00  0.00     0.057 C 
ENDROOT
BRANCH   1   7
ATOM      7  N   UNL d   1      27.066 -17.363  -0.498  0.00  0.00    -0.306 N 
ATOM      8  C   UNL d   1      28.061 -16.652   0.146  0.00  0.00     0.325 C 
ATOM      9  O   UNL d   1      29.247 -16.884  -0.119  0.00  0.00    -0.247 OA
ATOM     10  N   UNL d   1      27.648 -15.796   1.123  0.00  0.00    -0.309 N 
ATOM     11  H   UNL d   1      26.658 -15.854   1.312  0.00  0.00     0.170 HD
ATOM     12  H   UNL d   1      27.436 -18.117  -1.064  0.00  0.00     0.170 HD
BRANCH  10  13
ATOM     13  C   UNL d   1      28.401 -14.826   1.821  0.00  0.00     0.037 C 
ATOM     14  C   UNL d   1      29.454 -14.115   1.232  0.00  0.00     0.029 C 
ATOM     15  C   UNL d   1      30.165 -13.161   1.968  0.00  0.00     0.004 C 
ATOM     16  C   UNL d   1      29.842 -12.932   3.304  0.00  0.00     0.024 C 
ATOM     17  C   UNL d   1      28.737 -13.571   3.860  0.00  0.00     0.036 C 
ATOM     18 CL   UNL d   1      28.338 -13.300   5.512  0.00  0.00    -0.084 Cl
ATOM     19  C   UNL d   1      27.977 -14.466   3.105  0.00  0.00     0.053 C 
ENDBRANCH  10  13
ENDBRANCH   1   7
BRANCH   6  20
ATOM     20  N   UNL d   1      26.074 -15.149  -2.315  0.00  0.00    -0.379 N 
ATOM     21  C   UNL d   1      25.525 -14.812  -3.625  0.00  0.00     0.123 C 
ATOM     22  C   UNL d   1      26.305 -15.360  -4.783  0.00  0.00     0.020 C 
ATOM     23  C   UNL d   1      27.576 -14.554  -5.010  0.00  0.00     0.002 C 
ATOM     24  C   UNL d   1      28.497 -14.464  -3.789  0.00  0.00     0.002 C 
ATOM     25  C   UNL d   1      27.971 -13.574  -2.663  0.00  0.00     0.020 C 
ATOM     26  C   UNL d   1      27.091 -14.321  -1.665  0.00  0.00     0.123 C 
ENDBRANCH   6  20
BRANCH   3  27
ATOM     27  N   UNL d   1      22.321 -18.492   0.278  0.00  0.00    -0.323 N 
ATOM     28  C   UNL d   1      21.050 -18.639  -0.294  0.00  0.00     0.256 C 
ATOM     29  O   UNL d   1      20.589 -18.014  -1.249  0.00  0.00    -0.267 OA
ATOM     30  H   UNL d   1      22.602 -19.156   0.990  0.00  0.00     0.169 HD
BRANCH  28  31
ATOM     31  C   UNL d   1      20.122 -19.642   0.271  0.00  0.00     0.032 A 
ATOM     32  C   UNL d   1      19.048 -20.081  -0.527  0.00  0.00     0.017 A 
ATOM     33  C   UNL d   1      18.015 -20.830   0.032  0.00  0.00     0.001 A 
ATOM     34  C   UNL d   1      18.082 -21.195   1.375  0.00  0.00     0.000 A 
ATOM     35  C   UNL d   1      19.154 -20.771   2.166  0.00  0.00     0.001 A 
ATOM     36  C   UNL d   1      20.171 -19.984   1.620  0.00  0.00     0.017 A 
ENDBRANCH  28  31
ENDBRANCH   3  27
TORSDOF 5
ENDMDL
MODEL 5
REMARK VINA RESULT:   -10.828      2.527      4.514
REMARK INTER + INTRA:         -14.456
REMARK INTER:                 -12.319
REMARK INTRA:                  -2.137
REMARK CONF_INDEPENDENT:        1.492
REMARK UNBOUND:                -2.137
REMARK  5 active torsions:
REMARK  status: ('A' for Active; 'I' for Inactive)
REMARK       I    between atoms: C_2  and  N_3 
REMARK       I    between atoms: C_2  and  N_11 
REMARK    1  A    between atoms: N_3  and  C_4 
REMARK    2  A    between atoms: N_11  and  C_12 
REMARK    3  A    between atoms: C_14  and  N_15 
REMARK       I    between atoms: N_15  and  C_16 
REMARK    4  A    between atoms: C_16  and  C_18 
REMARK    5  A    between atoms: C_26  and  N_27 
ROOT
ATOM      1  C   UNL d   1      25.987 -16.861  -0.192  0.00  0.00     0.065 C 
ATOM      2  C   UNL d   1      24.873 -17.538   0.396  0.00  0.00     0.061 C 
ATOM      3  C   UNL d   1      23.780 -17.971  -0.390  0.00  0.00     0.037 C 
ATOM      4  C   UNL d   1      23.784 -17.625  -1.734  0.00  0.00     0.032 C 
ATOM      5  C   UNL d   1      24.882 -17.026  -2.323  0.00  0.00     0.034 C 
ATOM      6  C   UNL d   1      26.006 -16.648  -1.589  0.00  0.00     0.057 C 
ENDROOT
BRANCH   1   7
ATOM      7  N   UNL d   1      27.054 -16.463   0.670  0.00  0.00    -0.306 N 
ATOM      8  C   UNL d   1      27.555 -15.207   0.954  0.00  0.00     0.325 C 
ATOM      9  O   UNL d   1      28.709 -15.093   1.385  0.00  0.00    -0.247 OA
ATOM     10  N   UNL d   1      26.679 -14.170   0.827  0.00  0.00    -0.309 N 
ATOM     11  H   UNL d   1      25.736 -14.467   0.619  0.00  0.00     0.170 HD
ATOM     12  H   UNL d   1      27.676 -17.203   0.968  0.00  0.00     0.170 HD
BRANCH  10  13
ATOM     13  C   UNL d   1      26.942 -12.783   0.877  0.00  0.00     0.037 C 
ATOM     14  C   UNL d   1      26.938 -12.052   2.071  0.00  0.00     0.029 C 
ATOM     15  C   UNL d   1      27.209 -10.680   2.064  0.00  0.00     0.004 C 
ATOM     16  C   UNL d   1      27.461 -10.027   0.859  0.00  0.00     0.024 C 
ATOM     17  C   UNL d   1      27.556 -10.771  -0.314  0.00  0.00     0.036 C 
ATOM     18 CL   UNL d   1      27.858  -9.971  -1.808  0.00  0.00    -0.084 Cl
ATOM     19  C   UNL d   1      27.363 -12.153  -0.299  0.00  0.00     0.053 C 
ENDBRANCH  10  13
ENDBRANCH   1   7
BRANCH   6  20
ATOM     20  N   UNL d   1      27.029 -16.072  -2.336  0.00  0.00    -0.379 N 
ATOM     21  C   UNL d   1      26.690 -14.778  -2.919  0.00  0.00     0.123 C 
ATOM     22  C   UNL d   1      26.612 -14.772  -4.417  0.00  0.00     0.020 C 
ATOM     23  C   UNL d   1      28.004 -14.784  -5.032  0.00  0.00     0.002 C 
ATOM     24  C   UNL d   1      28.887 -15.953  -4.583  0.00  0.00     0.002 C 
ATOM     25  C   UNL d   1      29.376 -15.860  -3.138  0.00  0.00     0.020 C 
ATOM     26  C   UNL d   1      28.416 -16.491  -2.134  0.00  0.00     0.123 C 
ENDBRANCH   6  20
BRANCH   3  27
ATOM     27  N   UNL d   1      22.723 -18.777   0.138  0.00  0.00    -0.323 N 
ATOM     28  C   UNL d   1      21.371 -18.600  -0.186  0.00  0.00     0.256 C 
ATOM     29  O   UNL d   1      20.887 -17.719  -0.895  0.00  0.00    -0.267 OA
ATOM     30  H   UNL d   1      22.985 -19.615   0.643  0.00  0.00     0.169 HD
BRANCH  28  31
ATOM     31  C   UNL d   1      20.375 -19.549   0.356  0.00  0.00     0.032 A 
ATOM     32  C   UNL d   1      19.402 -20.067  -0.520  0.00  0.00     0.017 A 
ATOM     33  C   UNL d   1      18.303 -20.764  -0.021  0.00  0.00     0.001 A 
ATOM     34  C   UNL d   1      18.206 -21.000   1.348  0.00  0.00     0.000 A 
ATOM     35  C   UNL d   1      19.178 -20.497   2.219  0.00  0.00     0.001 A 
ATOM     36  C   UNL d   1      20.258 -19.760   1.728  0.00  0.00     0.017 A 
ENDBRANCH  28  31
ENDBRANCH   3  27
TORSDOF 5
ENDMDL
MODEL 6
REMARK VINA RESULT:   -10.259      3.824      8.729
REMARK INTER + INTRA:         -13.741
REMARK INTER:                 -11.750
REMARK INTRA:                  -1.990
REMARK CONF_INDEPENDENT:        1.492
REMARK UNBOUND:                -1.990
REMARK  5 active torsions:
REMARK  status: ('A' for Active; 'I' for Inactive)
REMARK       I    between atoms: C_2  and  N_3 
REMARK       I    between atoms: C_2  and  N_11 
REMARK    1  A    between atoms: N_3  and  C_4 
REMARK    2  A    between atoms: N_11  and  C_12 
REMARK    3  A    between atoms: C_14  and  N_15 
REMARK       I    between atoms: N_15  and  C_16 
REMARK    4  A    between atoms: C_16  and  C_18 
REMARK    5  A    between atoms: C_26  and  N_27 
ROOT
ATOM      1  C   UNL d   1      26.681 -13.119  -5.395  0.00  0.00     0.065 C 
ATOM      2  C   UNL d   1      27.359 -14.350  -5.657  0.00  0.00     0.061 C 
ATOM      3  C   UNL d   1      28.533 -14.387  -6.444  0.00  0.00     0.037 C 
ATOM      4  C   UNL d   1      28.942 -13.201  -7.037  0.00  0.00     0.032 C 
ATOM      5  C   UNL d   1      28.330 -11.997  -6.741  0.00  0.00     0.034 C 
ATOM      6  C   UNL d   1      27.210 -11.916  -5.912  0.00  0.00     0.057 C 
ENDROOT
BRANCH   1   7
ATOM      7  N   UNL d   1      25.506 -13.167  -4.584  0.00  0.00    -0.306 N 
ATOM      8  C   UNL d   1      25.123 -14.072  -3.613  0.00  0.00     0.325 C 
ATOM      9  O   UNL d   1      23.927 -14.185  -3.320  0.00  0.00    -0.247 OA
ATOM     10  N   UNL d   1      26.134 -14.718  -2.965  0.00  0.00    -0.309 N 
ATOM     11  H   UNL d   1      27.051 -14.385  -3.224  0.00  0.00     0.170 HD
ATOM     12  H   UNL d   1      24.739 -12.579  -4.887  0.00  0.00     0.170 HD
BRANCH  10  13
ATOM     13  C   UNL d   1      26.052 -15.806  -2.067  0.00  0.00     0.037 C 
ATOM     14  C   UNL d   1      27.168 -16.328  -1.403  0.00  0.00     0.029 C 
ATOM     15  C   UNL d   1      27.030 -17.405  -0.520  0.00  0.00     0.004 C 
ATOM     16  C   UNL d   1      25.777 -17.980  -0.317  0.00  0.00     0.024 C 
ATOM     17  C   UNL d   1      24.656 -17.401  -0.905  0.00  0.00     0.036 C 
ATOM     18 CL   UNL d   1      23.106 -18.111  -0.666  0.00  0.00    -0.084 Cl
ATOM     19  C   UNL d   1      24.780 -16.279  -1.725  0.00  0.00     0.053 C 
ENDBRANCH  10  13
ENDBRANCH   1   7
BRANCH   6  20
ATOM     20  N   UNL d   1      26.725 -10.628  -5.705  0.00  0.00    -0.379 N 
ATOM     21  C   UNL d   1      27.109 -10.041  -4.425  0.00  0.00     0.123 C 
ATOM     22  C   UNL d   1      25.967  -9.813  -3.479  0.00  0.00     0.020 C 
ATOM     23  C   UNL d   1      25.155  -8.595  -3.895  0.00  0.00     0.002 C 
ATOM     24  C   UNL d   1      24.612  -8.652  -5.327  0.00  0.00     0.002 C 
ATOM     25  C   UNL d   1      25.673  -8.485  -6.414  0.00  0.00     0.020 C 
ATOM     26  C   UNL d   1      26.311  -9.805  -6.841  0.00  0.00     0.123 C 
ENDBRANCH   6  20
BRANCH   3  27
ATOM     27  N   UNL d   1      29.317 -15.573  -6.603  0.00  0.00    -0.323 N 
ATOM     28  C   UNL d   1      29.653 -16.434  -5.550  0.00  0.00     0.256 C 
ATOM     29  O   UNL d   1      29.395 -16.281  -4.356  0.00  0.00    -0.267 OA
ATOM     30  H   UNL d   1      29.498 -15.887  -7.550  0.00  0.00     0.169 HD
BRANCH  28  31
ATOM     31  C   UNL d   1      30.397 -17.676  -5.848  0.00  0.00     0.032 A 
ATOM     32  C   UNL d   1      30.913 -17.848  -7.148  0.00  0.00     0.017 A 
ATOM     33  C   UNL d   1      31.404 -19.088  -7.553  0.00  0.00     0.001 A 
ATOM     34  C   UNL d   1      31.438 -20.142  -6.643  0.00  0.00     0.000 A 
ATOM     35  C   UNL d   1      30.937 -19.969  -5.349  0.00  0.00     0.001 A 
ATOM     36  C   UNL d   1      30.405 -18.741  -4.951  0.00  0.00     0.017 A 
ENDBRANCH  28  31
ENDBRANCH   3  27
TORSDOF 5
ENDMDL
MODEL 7
REMARK VINA RESULT:    -9.805      3.985      7.998
REMARK INTER + INTRA:         -13.011
REMARK INTER:                 -11.297
REMARK INTRA:                  -1.714
REMARK CONF_INDEPENDENT:        1.492
REMARK UNBOUND:                -1.714
REMARK  5 active torsions:
REMARK  status: ('A' for Active; 'I' for Inactive)
REMARK       I    between atoms: C_2  and  N_3 
REMARK       I    between atoms: C_2  and  N_11 
REMARK    1  A    between atoms: N_3  and  C_4 
REMARK    2  A    between atoms: N_11  and  C_12 
REMARK    3  A    between atoms: C_14  and  N_15 
REMARK       I    between atoms: N_15  and  C_16 
REMARK    4  A    between atoms: C_16  and  C_18 
REMARK    5  A    between atoms: C_26  and  N_27 
ROOT
ATOM      1  C   UNL d   1      26.508 -12.380  -2.744  0.00  0.00     0.065 C 
ATOM      2  C   UNL d   1      27.011 -12.734  -1.453  0.00  0.00     0.061 C 
ATOM      3  C   UNL d   1      27.564 -11.761  -0.590  0.00  0.00     0.037 C 
ATOM      4  C   UNL d   1      27.693 -10.470  -1.082  0.00  0.00     0.032 C 
ATOM      5  C   UNL d   1      27.155 -10.105  -2.302  0.00  0.00     0.034 C 
ATOM      6  C   UNL d   1      26.540 -11.027  -3.150  0.00  0.00     0.057 C 
ENDROOT
BRANCH   1   7
ATOM      7  N   UNL d   1      25.958 -13.422  -3.552  0.00  0.00    -0.306 N 
ATOM      8  C   UNL d   1      25.592 -14.712  -3.223  0.00  0.00     0.325 C 
ATOM      9  O   UNL d   1      25.527 -15.574  -4.109  0.00  0.00    -0.247 OA
ATOM     10  N   UNL d   1      25.223 -14.918  -1.927  0.00  0.00    -0.309 N 
ATOM     11  H   UNL d   1      25.183 -14.068  -1.384  0.00  0.00     0.170 HD
ATOM     12  H   UNL d   1      26.028 -13.284  -4.553  0.00  0.00     0.170 HD
BRANCH  10  13
ATOM     13  C   UNL d   1      24.972 -16.141  -1.265  0.00  0.00     0.037 C 
ATOM     14  C   UNL d   1      25.938 -16.800  -0.496  0.00  0.00     0.029 C 
ATOM     15  C   UNL d   1      25.635 -18.008   0.142  0.00  0.00     0.004 C 
ATOM     16  C   UNL d   1      24.372 -18.575  -0.009  0.00  0.00     0.024 C 
ATOM     17  C   UNL d   1      23.385 -17.873  -0.697  0.00  0.00     0.036 C 
ATOM     18 CL   UNL d   1      21.824 -18.572  -0.895  0.00  0.00    -0.084 Cl
ATOM     19  C   UNL d   1      23.661 -16.631  -1.268  0.00  0.00     0.053 C 
ENDBRANCH  10  13
ENDBRANCH   1   7
BRANCH   6  20
ATOM     20  N   UNL d   1      26.039 -10.494  -4.334  0.00  0.00    -0.379 N 
ATOM     21  C   UNL d   1      26.094 -11.404  -5.473  0.00  0.00     0.123 C 
ATOM     22  C   UNL d   1      27.035 -10.980  -6.561  0.00  0.00     0.020 C 
ATOM     23  C   UNL d   1      26.437  -9.847  -7.383  0.00  0.00     0.002 C 
ATOM     24  C   UNL d   1      26.032  -8.615  -6.566  0.00  0.00     0.002 C 
ATOM     25  C   UNL d   1      24.797  -8.814  -5.689  0.00  0.00     0.020 C 
ATOM     26  C   UNL d   1      25.125  -9.352  -4.299  0.00  0.00     0.123 C 
ENDBRANCH   6  20
BRANCH   3  27
ATOM     27  N   UNL d   1      27.940 -12.052   0.760  0.00  0.00    -0.323 N 
ATOM     28  C   UNL d   1      27.155 -12.806   1.643  0.00  0.00     0.256 C 
ATOM     29  O   UNL d   1      26.033 -13.266   1.431  0.00  0.00    -0.267 OA
ATOM     30  H   UNL d   1      28.891 -11.837   1.034  0.00  0.00     0.169 HD
BRANCH  28  31
ATOM     31  C   UNL d   1      27.686 -13.115   2.988  0.00  0.00     0.032 A 
ATOM     32  C   UNL d   1      27.887 -14.465   3.332  0.00  0.00     0.017 A 
ATOM     33  C   UNL d   1      28.149 -14.825   4.652  0.00  0.00     0.001 A 
ATOM     34  C   UNL d   1      28.272 -13.832   5.621  0.00  0.00     0.000 A 
ATOM     35  C   UNL d   1      28.085 -12.489   5.279  0.00  0.00     0.001 A 
ATOM     36  C   UNL d   1      27.780 -12.127   3.965  0.00  0.00     0.017 A 
ENDBRANCH  28  31
ENDBRANCH   3  27
TORSDOF 5
ENDMDL
MODEL 8
REMARK VINA RESULT:    -9.376      2.260      3.270
REMARK INTER + INTRA:         -13.026
REMARK INTER:                 -10.868
REMARK INTRA:                  -2.158
REMARK CONF_INDEPENDENT:        1.492
REMARK UNBOUND:                -2.158
REMARK  5 active torsions:
REMARK  status: ('A' for Active; 'I' for Inactive)
REMARK       I    between atoms: C_2  and  N_3 
REMARK       I    between atoms: C_2  and  N_11 
REMARK    1  A    between atoms: N_3  and  C_4 
REMARK    2  A    between atoms: N_11  and  C_12 
REMARK    3  A    between atoms: C_14  and  N_15 
REMARK       I    between atoms: N_15  and  C_16 
REMARK    4  A    between atoms: C_16  and  C_18 
REMARK    5  A    between atoms: C_26  and  N_27 
ROOT
ATOM      1  C   UNL d   1      26.759 -16.658  -0.927  0.00  0.00     0.065 C 
ATOM      2  C   UNL d   1      25.732 -17.464  -0.344  0.00  0.00     0.061 C 
ATOM      3  C   UNL d   1      24.369 -17.248  -0.649  0.00  0.00     0.037 C 
ATOM      4  C   UNL d   1      24.060 -16.160  -1.454  0.00  0.00     0.032 C 
ATOM      5  C   UNL d   1      25.046 -15.414  -2.070  0.00  0.00     0.034 C 
ATOM      6  C   UNL d   1      26.404 -15.645  -1.845  0.00  0.00     0.057 C 
ENDROOT
BRANCH   1   7
ATOM      7  N   UNL d   1      28.113 -16.946  -0.573  0.00  0.00    -0.306 N 
ATOM      8  C   UNL d   1      29.165 -17.396  -1.347  0.00  0.00     0.325 C 
ATOM      9  O   UNL d   1      30.120 -17.968  -0.807  0.00  0.00    -0.247 OA
ATOM     10  N   UNL d   1      29.113 -17.077  -2.672  0.00  0.00    -0.309 N 
ATOM     11  H   UNL d   1      28.341 -16.470  -2.906  0.00  0.00     0.170 HD
ATOM     12  H   UNL d   1      28.298 -17.035   0.419  0.00  0.00     0.170 HD
BRANCH  10  13
ATOM     13  C   UNL d   1      29.937 -17.539  -3.722  0.00  0.00     0.037 C 
ATOM     14  C   UNL d   1      29.741 -17.172  -5.059  0.00  0.00     0.029 C 
ATOM     15  C   UNL d   1      30.590 -17.655  -6.060  0.00  0.00     0.004 C 
ATOM     16  C   UNL d   1      31.624 -18.529  -5.732  0.00  0.00     0.024 C 
ATOM     17  C   UNL d   1      31.875 -18.819  -4.393  0.00  0.00     0.036 C 
ATOM     18 CL   UNL d   1      33.145 -19.905  -3.980  0.00  0.00    -0.084 Cl
ATOM     19  C   UNL d   1      31.078 -18.276  -3.385  0.00  0.00     0.053 C 
ENDBRANCH  10  13
ENDBRANCH   1   7
BRANCH   6  20
ATOM     20  N   UNL d   1      27.266 -14.814  -2.555  0.00  0.00    -0.379 N 
ATOM     21  C   UNL d   1      26.721 -14.320  -3.815  0.00  0.00     0.123 C 
ATOM     22  C   UNL d   1      27.420 -14.835  -5.038  0.00  0.00     0.020 C 
ATOM     23  C   UNL d   1      28.754 -14.130  -5.236  0.00  0.00     0.002 C 
ATOM     24  C   UNL d   1      29.707 -14.226  -4.041  0.00  0.00     0.002 C 
ATOM     25  C   UNL d   1      29.291 -13.392  -2.830  0.00  0.00     0.020 C 
ATOM     26  C   UNL d   1      28.370 -14.140  -1.870  0.00  0.00     0.123 C 
ENDBRANCH   6  20
BRANCH   3  27
ATOM     27  N   UNL d   1      23.331 -18.125  -0.202  0.00  0.00    -0.323 N 
ATOM     28  C   UNL d   1      21.971 -17.929  -0.479  0.00  0.00     0.256 C 
ATOM     29  O   UNL d   1      21.464 -16.976  -1.070  0.00  0.00    -0.267 OA
ATOM     30  H   UNL d   1      23.612 -19.014   0.194  0.00  0.00     0.169 HD
BRANCH  28  31
ATOM     31  C   UNL d   1      20.996 -18.948  -0.037  0.00  0.00     0.032 A 
ATOM     32  C   UNL d   1      20.010 -19.369  -0.951  0.00  0.00     0.017 A 
ATOM     33  C   UNL d   1      18.929 -20.136  -0.519  0.00  0.00     0.001 A 
ATOM     34  C   UNL d   1      18.862 -20.536   0.814  0.00  0.00     0.000 A 
ATOM     35  C   UNL d   1      19.847 -20.129   1.720  0.00  0.00     0.001 A 
ATOM     36  C   UNL d   1      20.909 -19.325   1.301  0.00  0.00     0.017 A 
ENDBRANCH  28  31
ENDBRANCH   3  27
TORSDOF 5
ENDMDL
MODEL 9
REMARK VINA RESULT:    -9.114      4.879      8.958
REMARK INTER + INTRA:         -13.082
REMARK INTER:                 -10.606
REMARK INTRA:                  -2.476
REMARK CONF_INDEPENDENT:        1.492
REMARK UNBOUND:                -2.476
REMARK  5 active torsions:
REMARK  status: ('A' for Active; 'I' for Inactive)
REMARK       I    between atoms: C_2  and  N_3 
REMARK       I    between atoms: C_2  and  N_11 
REMARK    1  A    between atoms: N_3  and  C_4 
REMARK    2  A    between atoms: N_11  and  C_12 
REMARK    3  A    between atoms: C_14  and  N_15 
REMARK       I    between atoms: N_15  and  C_16 
REMARK    4  A    between atoms: C_16  and  C_18 
REMARK    5  A    between atoms: C_26  and  N_27 
ROOT
ATOM      1  C   UNL d   1      26.225 -12.513  -3.719  0.00  0.00     0.065 C 
ATOM      2  C   UNL d   1      25.441 -11.328  -3.883  0.00  0.00     0.061 C 
ATOM      3  C   UNL d   1      25.835 -10.102  -3.300  0.00  0.00     0.037 C 
ATOM      4  C   UNL d   1      26.954 -10.116  -2.479  0.00  0.00     0.032 C 
ATOM      5  C   UNL d   1      27.751 -11.239  -2.363  0.00  0.00     0.034 C 
ATOM      6  C   UNL d   1      27.428 -12.448  -2.982  0.00  0.00     0.057 C 
ENDROOT
BRANCH   1   7
ATOM      7  N   UNL d   1      25.761 -13.709  -4.347  0.00  0.00    -0.306 N 
ATOM      8  C   UNL d   1      25.530 -14.966  -3.820  0.00  0.00     0.325 C 
ATOM      9  O   UNL d   1      25.530 -15.951  -4.568  0.00  0.00    -0.247 OA
ATOM     10  N   UNL d   1      25.212 -15.011  -2.495  0.00  0.00    -0.309 N 
ATOM     11  H   UNL d   1      25.102 -14.097  -2.080  0.00  0.00     0.170 HD
ATOM     12  H   UNL d   1      25.795 -13.715  -5.359  0.00  0.00     0.170 HD
BRANCH  10  13
ATOM     13  C   UNL d   1      25.097 -16.140  -1.654  0.00  0.00     0.037 C 
ATOM     14  C   UNL d   1      26.186 -16.689  -0.968  0.00  0.00     0.029 C 
ATOM     15  C   UNL d   1      26.015 -17.807  -0.144  0.00  0.00     0.004 C 
ATOM     16  C   UNL d   1      24.758 -18.396  -0.024  0.00  0.00     0.024 C 
ATOM     17  C   UNL d   1      23.660 -17.794  -0.633  0.00  0.00     0.036 C 
ATOM     18 CL   UNL d   1      22.106 -18.521  -0.497  0.00  0.00    -0.084 Cl
ATOM     19  C   UNL d   1      23.814 -16.634  -1.392  0.00  0.00     0.053 C 
ENDBRANCH  10  13
ENDBRANCH   1   7
BRANCH   6  20
ATOM     20  N   UNL d   1      28.344 -13.475  -2.777  0.00  0.00    -0.379 N 
ATOM     21  C   UNL d   1      29.147 -13.805  -3.950  0.00  0.00     0.123 C 
ATOM     22  C   UNL d   1      28.885 -15.168  -4.518  0.00  0.00     0.020 C 
ATOM     23  C   UNL d   1      29.532 -16.247  -3.661  0.00  0.00     0.002 C 
ATOM     24  C   UNL d   1      29.105 -16.230  -2.190  0.00  0.00     0.002 C 
ATOM     25  C   UNL d   1      29.663 -15.060  -1.381  0.00  0.00     0.020 C 
ATOM     26  C   UNL d   1      28.774 -13.820  -1.421  0.00  0.00     0.123 C 
ENDBRANCH   6  20
BRANCH   3  27
ATOM     27  N   UNL d   1      25.157  -8.870  -3.565  0.00  0.00    -0.323 N 
ATOM     28  C   UNL d   1      24.796  -8.439  -4.848  0.00  0.00     0.256 C 
ATOM     29  O   UNL d   1      25.050  -8.994  -5.917  0.00  0.00    -0.267 OA
ATOM     30  H   UNL d   1      24.780  -8.367  -2.770  0.00  0.00     0.169 HD
BRANCH  28  31
ATOM     31  C   UNL d   1      24.022  -7.187  -4.991  0.00  0.00     0.032 A 
ATOM     32  C   UNL d   1      24.407  -6.074  -4.220  0.00  0.00     0.017 A 
ATOM     33  C   UNL d   1      23.578  -4.957  -4.131  0.00  0.00     0.001 A 
ATOM     34  C   UNL d   1      22.393  -4.924  -4.862  0.00  0.00     0.000 A 
ATOM     35  C   UNL d   1      22.015  -6.024  -5.638  0.00  0.00     0.001 A 
ATOM     36  C   UNL d   1      22.822  -7.163  -5.697  0.00  0.00     0.017 A 
ENDBRANCH  28  31
ENDBRANCH   3  27
TORSDOF 5
ENDMDL
