MODEL 1
REMARK VINA RESULT:    -7.336      0.000      0.000
REMARK INTER + INTRA:         -14.272
REMARK INTER:                 -10.319
REMARK INTRA:                  -3.953
REMARK CONF_INDEPENDENT:        2.983
REMARK UNBOUND:                -3.953
REMARK  10 active torsions:
REMARK  status: ('A' for Active; 'I' for Inactive)
REMARK    1  A    between atoms: C_2  and  C_4 
REMARK    2  A    between atoms: C_7  and  N_8 
REMARK       I    between atoms: N_8  and  C_9 
REMARK    3  A    between atoms: C_9  and  C_11 
REMARK       I    between atoms: C_11  and  N_13 
REMARK    4  A    between atoms: N_13  and  N_14 
REMARK    5  A    between atoms: C_15  and  C_16 
REMARK    6  A    between atoms: C_19  and  O_20 
REMARK    7  A    between atoms: O_20  and  C_21 
REMARK    8  A    between atoms: C_21  and  C_22 
REMARK       I    between atoms: C_22  and  N_24 
REMARK    9  A    between atoms: N_24  and  C_25 
REMARK   10  A    between atoms: C_26  and  C_25 
ROOT
ATOM      1  N   UNL d   1      27.660 -14.587   1.903  0.00  0.00    -0.183 NA
ATOM      2  C   UNL d   1      27.544 -15.562   1.053  0.00  0.00     0.150 C 
ENDROOT
BRANCH   2   3
ATOM      3  C   UNL d   1      26.921 -15.352  -0.290  0.00  0.00    -0.017 A 
ATOM      4  C   UNL d   1      26.784 -14.072  -0.836  0.00  0.00     0.015 A 
ATOM      5  C   UNL d   1      26.069 -13.893  -2.038  0.00  0.00     0.037 A 
ATOM      6  C   UNL d   1      25.541 -14.988  -2.737  0.00  0.00     0.069 A 
ATOM      7  C   UNL d   1      25.692 -16.261  -2.192  0.00  0.00     0.037 A 
ATOM      8  C   UNL d   1      26.383 -16.442  -0.980  0.00  0.00     0.015 A 
BRANCH   6   9
ATOM      9  O   UNL d   1      24.919 -14.693  -3.920  0.00  0.00    -0.342 OA
BRANCH   9  10
ATOM     10  C   UNL d   1      24.646 -13.325  -4.232  0.00  0.00     0.278 C 
BRANCH  10  11
ATOM     11  C   UNL d   1      25.825 -12.693  -5.007  0.00  0.00     0.241 C 
ATOM     12  O   UNL d   1      25.850 -11.521  -5.371  0.00  0.00    -0.271 OA
ATOM     13  N   UNL d   1      26.870 -13.561  -5.277  0.00  0.00    -0.357 N 
ATOM     14  H   UNL d   1      26.838 -14.489  -4.880  0.00  0.00     0.162 HD
BRANCH  13  15
ATOM     15  C   UNL d   1      28.024 -13.152  -6.080  0.00  0.00     0.154 C 
BRANCH  15  16
ATOM     16  C   UNL d   1      28.909 -14.307  -6.601  0.00  0.00     0.139 C 
ATOM     17  C   UNL d   1      30.352 -14.270  -6.118  0.00  0.00     0.035 C 
ATOM     18  C   UNL d   1      30.309 -15.085  -4.855  0.00  0.00     0.029 C 
ATOM     19  C   UNL d   1      29.300 -16.154  -5.196  0.00  0.00     0.168 C 
ATOM     20  O   UNL d   1      28.381 -15.572  -6.135  0.00  0.00    -0.384 OA
ENDBRANCH  15  16
ENDBRANCH  13  15
ENDBRANCH  10  11
ENDBRANCH   9  10
ENDBRANCH   6   9
ENDBRANCH   2   3
BRANCH   1  21
ATOM     21  N   UNL d   1      28.271 -14.834   3.115  0.00  0.00    -0.239 N 
ATOM     22  C   UNL d   1      27.957 -14.056   4.239  0.00  0.00     0.329 C 
ATOM     23  O   UNL d   1      27.149 -13.128   4.305  0.00  0.00    -0.261 OA
ATOM     24  H   UNL d   1      28.971 -15.573   3.212  0.00  0.00     0.192 HD
BRANCH  22  25
ATOM     25  C   UNL d   1      28.739 -14.445   5.508  0.00  0.00     0.315 C 
ATOM     26  N   UNL d   1      28.508 -13.664   6.654  0.00  0.00    -0.319 N 
ATOM     27  H   UNL d   1      27.860 -12.886   6.552  0.00  0.00     0.169 HD
ATOM     28  O   UNL d   1      29.503 -15.401   5.386  0.00  0.00    -0.262 OA
BRANCH  26  29
ATOM     29  C   UNL d   1      29.184 -13.809   7.901  0.00  0.00     0.035 A 
ATOM     30  C   UNL d   1      28.524 -13.636   9.129  0.00  0.00     0.030 A 
ATOM     31  C   UNL d   1      29.242 -13.681  10.348  0.00  0.00     0.010 A 
ATOM     32  C   UNL d   1      30.608 -14.009  10.369  0.00  0.00    -0.055 A 
ATOM     33  C   UNL d   1      31.242 -14.176   9.140  0.00  0.00     0.010 A 
ATOM     34  C   UNL d   1      30.542 -14.095   7.943  0.00  0.00     0.030 A 
BRANCH  32  35
ATOM     35  C   UNL d   1      31.350 -14.289  11.670  0.00  0.00     0.010 C 
ATOM     36  C   UNL d   1      31.286 -15.790  11.979  0.00  0.00     0.015 C 
ATOM     37  C   UNL d   1      32.834 -13.875  11.620  0.00  0.00     0.015 C 
ENDBRANCH  32  35
ENDBRANCH  26  29
ENDBRANCH  22  25
ENDBRANCH   1  21
TORSDOF 10
ENDMDL
MODEL 2
REMARK VINA RESULT:    -7.186      1.212      2.657
REMARK INTER + INTRA:         -14.006
REMARK INTER:                 -10.169
REMARK INTRA:                  -3.837
REMARK CONF_INDEPENDENT:        2.983
REMARK UNBOUND:                -3.837
REMARK  10 active torsions:
REMARK  status: ('A' for Active; 'I' for Inactive)
REMARK    1  A    between atoms: C_2  and  C_4 
REMARK    2  A    between atoms: C_7  and  N_8 
REMARK       I    between atoms: N_8  and  C_9 
REMARK    3  A    between atoms: C_9  and  C_11 
REMARK       I    between atoms: C_11  and  N_13 
REMARK    4  A    between atoms: N_13  and  N_14 
REMARK    5  A    between atoms: C_15  and  C_16 
REMARK    6  A    between atoms: C_19  and  O_20 
REMARK    7  A    between atoms: O_20  and  C_21 
REMARK    8  A    between atoms: C_21  and  C_22 
REMARK       I    between atoms: C_22  and  N_24 
REMARK    9  A    between atoms: N_24  and  C_25 
REMARK   10  A    between atoms: C_26  and  C_25 
ROOT
ATOM      1  N   UNL d   1      27.770 -14.577   1.996  0.00  0.00    -0.183 NA
ATOM      2  C   UNL d   1      27.446 -15.583   1.241  0.00  0.00     0.150 C 
ENDROOT
BRANCH   2   3
ATOM      3  C   UNL d   1      26.779 -15.380  -0.081  0.00  0.00    -0.017 A 
ATOM      4  C   UNL d   1      26.200 -16.446  -0.776  0.00  0.00     0.015 A 
ATOM      5  C   UNL d   1      25.703 -16.248  -2.081  0.00  0.00     0.037 A 
ATOM      6  C   UNL d   1      25.718 -14.980  -2.678  0.00  0.00     0.069 A 
ATOM      7  C   UNL d   1      26.286 -13.920  -1.974  0.00  0.00     0.037 A 
ATOM      8  C   UNL d   1      26.807 -14.118  -0.682  0.00  0.00     0.015 A 
BRANCH   6   9
ATOM      9  O   UNL d   1      25.155 -14.902  -3.922  0.00  0.00    -0.342 OA
BRANCH   9  10
ATOM     10  C   UNL d   1      25.801 -15.562  -5.013  0.00  0.00     0.278 C 
BRANCH  10  11
ATOM     11  C   UNL d   1      27.004 -14.733  -5.520  0.00  0.00     0.241 C 
ATOM     12  O   UNL d   1      27.916 -15.200  -6.196  0.00  0.00    -0.271 OA
ATOM     13  N   UNL d   1      26.988 -13.401  -5.141  0.00  0.00    -0.357 N 
ATOM     14  H   UNL d   1      26.173 -13.048  -4.661  0.00  0.00     0.162 HD
BRANCH  13  15
ATOM     15  C   UNL d   1      28.094 -12.496  -5.459  0.00  0.00     0.154 C 
BRANCH  15  16
ATOM     16  C   UNL d   1      27.788 -10.991  -5.283  0.00  0.00     0.139 C 
ATOM     17  C   UNL d   1      27.341 -10.281  -6.554  0.00  0.00     0.035 C 
ATOM     18  C   UNL d   1      25.845 -10.427  -6.517  0.00  0.00     0.029 C 
ATOM     19  C   UNL d   1      25.546 -10.315  -5.043  0.00  0.00     0.168 C 
ATOM     20  O   UNL d   1      26.697 -10.824  -4.347  0.00  0.00    -0.384 OA
ENDBRANCH  15  16
ENDBRANCH  13  15
ENDBRANCH  10  11
ENDBRANCH   9  10
ENDBRANCH   6   9
ENDBRANCH   2   3
BRANCH   1  21
ATOM     21  N   UNL d   1      28.410 -14.825   3.193  0.00  0.00    -0.239 N 
ATOM     22  C   UNL d   1      28.085 -14.082   4.338  0.00  0.00     0.329 C 
ATOM     23  O   UNL d   1      27.243 -13.187   4.435  0.00  0.00    -0.261 OA
ATOM     24  H   UNL d   1      29.139 -15.538   3.263  0.00  0.00     0.192 HD
BRANCH  22  25
ATOM     25  C   UNL d   1      28.903 -14.466   5.585  0.00  0.00     0.315 C 
ATOM     26  N   UNL d   1      28.560 -13.819   6.786  0.00  0.00    -0.319 N 
ATOM     27  H   UNL d   1      27.815 -13.128   6.735  0.00  0.00     0.169 HD
ATOM     28  O   UNL d   1      29.788 -15.300   5.402  0.00  0.00    -0.262 OA
BRANCH  26  29
ATOM     29  C   UNL d   1      29.240 -13.975   8.029  0.00  0.00     0.035 A 
ATOM     30  C   UNL d   1      30.639 -14.080   8.104  0.00  0.00     0.030 A 
ATOM     31  C   UNL d   1      31.279 -14.341   9.338  0.00  0.00     0.010 A 
ATOM     32  C   UNL d   1      30.546 -14.393  10.535  0.00  0.00    -0.055 A 
ATOM     33  C   UNL d   1      29.160 -14.288  10.438  0.00  0.00     0.010 A 
ATOM     34  C   UNL d   1      28.530 -14.068   9.220  0.00  0.00     0.030 A 
BRANCH  32  35
ATOM     35  C   UNL d   1      31.226 -14.444  11.898  0.00  0.00     0.010 C 
ATOM     36  C   UNL d   1      31.621 -15.892  12.214  0.00  0.00     0.015 C 
ATOM     37  C   UNL d   1      32.497 -13.576  11.972  0.00  0.00     0.015 C 
ENDBRANCH  32  35
ENDBRANCH  26  29
ENDBRANCH  22  25
ENDBRANCH   1  21
TORSDOF 10
ENDMDL
MODEL 3
REMARK VINA RESULT:    -7.160      5.129      5.475
REMARK INTER + INTRA:         -13.069
REMARK INTER:                 -10.143
REMARK INTRA:                  -2.926
REMARK CONF_INDEPENDENT:        2.983
REMARK UNBOUND:                -2.926
REMARK  10 active torsions:
REMARK  status: ('A' for Active; 'I' for Inactive)
REMARK    1  A    between atoms: C_2  and  C_4 
REMARK    2  A    between atoms: C_7  and  N_8 
REMARK       I    between atoms: N_8  and  C_9 
REMARK    3  A    between atoms: C_9  and  C_11 
REMARK       I    between atoms: C_11  and  N_13 
REMARK    4  A    between atoms: N_13  and  N_14 
REMARK    5  A    between atoms: C_15  and  C_16 
REMARK    6  A    between atoms: C_19  and  O_20 
REMARK    7  A    between atoms: O_20  and  C_21 
REMARK    8  A    between atoms: C_21  and  C_22 
REMARK       I    between atoms: C_22  and  N_24 
REMARK    9  A    between atoms: N_24  and  C_25 
REMARK   10  A    between atoms: C_26  and  C_25 
ROOT
ATOM      1  N   UNL d   1      29.924 -17.070  -0.757  0.00  0.00    -0.183 NA
ATOM      2  C   UNL d   1      28.685 -16.829  -0.453  0.00  0.00     0.150 C 
ENDROOT
BRANCH   2   3
ATOM      3  C   UNL d   1      27.710 -16.356  -1.484  0.00  0.00    -0.017 A 
ATOM      4  C   UNL d   1      28.141 -15.770  -2.679  0.00  0.00     0.015 A 
ATOM      5  C   UNL d   1      27.200 -15.210  -3.567  0.00  0.00     0.037 A 
ATOM      6  C   UNL d   1      25.825 -15.284  -3.307  0.00  0.00     0.069 A 
ATOM      7  C   UNL d   1      25.403 -15.880  -2.120  0.00  0.00     0.037 A 
ATOM      8  C   UNL d   1      26.339 -16.418  -1.219  0.00  0.00     0.015 A 
BRANCH   6   9
ATOM      9  O   UNL d   1      25.009 -14.757  -4.271  0.00  0.00    -0.342 OA
BRANCH   9  10
ATOM     10  C   UNL d   1      24.769 -13.348  -4.274  0.00  0.00     0.278 C 
BRANCH  10  11
ATOM     11  C   UNL d   1      25.942 -12.594  -4.943  0.00  0.00     0.241 C 
ATOM     12  O   UNL d   1      26.111 -11.381  -4.854  0.00  0.00    -0.271 OA
ATOM     13  N   UNL d   1      26.802 -13.396  -5.674  0.00  0.00    -0.357 N 
ATOM     14  H   UNL d   1      26.668 -14.397  -5.643  0.00  0.00     0.162 HD
BRANCH  13  15
ATOM     15  C   UNL d   1      27.912 -12.834  -6.446  0.00  0.00     0.154 C 
BRANCH  15  16
ATOM     16  C   UNL d   1      28.812 -13.869  -7.158  0.00  0.00     0.139 C 
ATOM     17  C   UNL d   1      30.302 -13.707  -6.891  0.00  0.00     0.035 C 
ATOM     18  C   UNL d   1      30.528 -14.577  -5.686  0.00  0.00     0.029 C 
ATOM     19  C   UNL d   1      29.584 -15.726  -5.937  0.00  0.00     0.168 C 
ATOM     20  O   UNL d   1      28.482 -15.200  -6.695  0.00  0.00    -0.384 OA
ENDBRANCH  15  16
ENDBRANCH  13  15
ENDBRANCH  10  11
ENDBRANCH   9  10
ENDBRANCH   6   9
ENDBRANCH   2   3
BRANCH   1  21
ATOM     21  N   UNL d   1      30.770 -17.533   0.229  0.00  0.00    -0.239 N 
ATOM     22  C   UNL d   1      31.754 -16.691   0.771  0.00  0.00     0.329 C 
ATOM     23  O   UNL d   1      31.976 -15.515   0.480  0.00  0.00    -0.261 OA
ATOM     24  H   UNL d   1      30.708 -18.494   0.570  0.00  0.00     0.192 HD
BRANCH  22  25
ATOM     25  C   UNL d   1      32.628 -17.364   1.847  0.00  0.00     0.315 C 
ATOM     26  N   UNL d   1      32.284 -18.680   2.204  0.00  0.00    -0.319 N 
ATOM     27  H   UNL d   1      31.470 -19.079   1.744  0.00  0.00     0.169 HD
ATOM     28  O   UNL d   1      33.541 -16.672   2.296  0.00  0.00    -0.262 OA
BRANCH  26  29
ATOM     29  C   UNL d   1      32.915 -19.447   3.227  0.00  0.00     0.035 A 
ATOM     30  C   UNL d   1      34.284 -19.318   3.517  0.00  0.00     0.030 A 
ATOM     31  C   UNL d   1      34.905 -20.168   4.462  0.00  0.00     0.010 A 
ATOM     32  C   UNL d   1      34.152 -21.085   5.214  0.00  0.00    -0.055 A 
ATOM     33  C   UNL d   1      32.797 -21.197   4.909  0.00  0.00     0.010 A 
ATOM     34  C   UNL d   1      32.196 -20.387   3.954  0.00  0.00     0.030 A 
BRANCH  32  35
ATOM     35  C   UNL d   1      34.749 -21.846   6.392  0.00  0.00     0.010 C 
ATOM     36  C   UNL d   1      35.127 -20.853   7.498  0.00  0.00     0.015 C 
ATOM     37  C   UNL d   1      33.782 -22.884   6.992  0.00  0.00     0.015 C 
ENDBRANCH  32  35
ENDBRANCH  26  29
ENDBRANCH  22  25
ENDBRANCH   1  21
TORSDOF 10
ENDMDL
MODEL 4
REMARK VINA RESULT:    -7.085      1.923      2.751
REMARK INTER + INTRA:         -14.028
REMARK INTER:                 -10.068
REMARK INTRA:                  -3.960
REMARK CONF_INDEPENDENT:        2.983
REMARK UNBOUND:                -3.960
REMARK  10 active torsions:
REMARK  status: ('A' for Active; 'I' for Inactive)
REMARK    1  A    between atoms: C_2  and  C_4 
REMARK    2  A    between atoms: C_7  and  N_8 
REMARK       I    between atoms: N_8  and  C_9 
REMARK    3  A    between atoms: C_9  and  C_11 
REMARK       I    between atoms: C_11  and  N_13 
REMARK    4  A    between atoms: N_13  and  N_14 
REMARK    5  A    between atoms: C_15  and  C_16 
REMARK    6  A    between atoms: C_19  and  O_20 
REMARK    7  A    between atoms: O_20  and  C_21 
REMARK    8  A    between atoms: C_21  and  C_22 
REMARK       I    between atoms: C_22  and  N_24 
REMARK    9  A    between atoms: N_24  and  C_25 
REMARK   10  A    between atoms: C_26  and  C_25 
ROOT
ATOM      1  N   UNL d   1      27.994 -14.725   0.834  0.00  0.00    -0.183 NA
ATOM      2  C   UNL d   1      27.449 -15.697   0.166  0.00  0.00     0.150 C 
ENDROOT
BRANCH   2   3
ATOM      3  C   UNL d   1      27.344 -15.651  -1.325  0.00  0.00    -0.017 A 
ATOM      4  C   UNL d   1      28.454 -15.889  -2.140  0.00  0.00     0.015 A 
ATOM      5  C   UNL d   1      28.357 -15.703  -3.534  0.00  0.00     0.037 A 
ATOM      6  C   UNL d   1      27.141 -15.342  -4.134  0.00  0.00     0.069 A 
ATOM      7  C   UNL d   1      26.037 -15.119  -3.315  0.00  0.00     0.037 A 
ATOM      8  C   UNL d   1      26.135 -15.279  -1.921  0.00  0.00     0.015 A 
BRANCH   6   9
ATOM      9  O   UNL d   1      27.157 -15.249  -5.499  0.00  0.00    -0.342 OA
BRANCH   9  10
ATOM     10  C   UNL d   1      27.746 -14.095  -6.103  0.00  0.00     0.278 C 
BRANCH  10  11
ATOM     11  C   UNL d   1      29.150 -14.425  -6.661  0.00  0.00     0.241 C 
ATOM     12  O   UNL d   1      29.881 -13.597  -7.198  0.00  0.00    -0.271 OA
ATOM     13  N   UNL d   1      29.531 -15.749  -6.519  0.00  0.00    -0.357 N 
ATOM     14  H   UNL d   1      28.931 -16.367  -5.993  0.00  0.00     0.162 HD
BRANCH  13  15
ATOM     15  C   UNL d   1      30.790 -16.252  -7.072  0.00  0.00     0.154 C 
BRANCH  15  16
ATOM     16  C   UNL d   1      31.127 -17.719  -6.719  0.00  0.00     0.139 C 
ATOM     17  C   UNL d   1      32.352 -17.894  -5.833  0.00  0.00     0.035 C 
ATOM     18  C   UNL d   1      31.776 -17.860  -4.445  0.00  0.00     0.029 C 
ATOM     19  C   UNL d   1      30.453 -18.561  -4.628  0.00  0.00     0.168 C 
ATOM     20  O   UNL d   1      30.031 -18.304  -5.978  0.00  0.00    -0.384 OA
ENDBRANCH  15  16
ENDBRANCH  13  15
ENDBRANCH  10  11
ENDBRANCH   9  10
ENDBRANCH   6   9
ENDBRANCH   2   3
BRANCH   1  21
ATOM     21  N   UNL d   1      28.090 -14.837   2.206  0.00  0.00    -0.239 N 
ATOM     22  C   UNL d   1      27.888 -13.715   3.024  0.00  0.00     0.329 C 
ATOM     23  O   UNL d   1      27.606 -12.569   2.667  0.00  0.00    -0.261 OA
ATOM     24  H   UNL d   1      28.324 -15.728   2.648  0.00  0.00     0.192 HD
BRANCH  22  25
ATOM     25  C   UNL d   1      28.050 -14.001   4.529  0.00  0.00     0.315 C 
ATOM     26  N   UNL d   1      28.181 -12.883   5.372  0.00  0.00    -0.319 N 
ATOM     27  H   UNL d   1      28.184 -11.971   4.921  0.00  0.00     0.169 HD
ATOM     28  O   UNL d   1      28.059 -15.190   4.844  0.00  0.00    -0.262 OA
BRANCH  26  29
ATOM     29  C   UNL d   1      28.417 -12.933   6.777  0.00  0.00     0.035 A 
ATOM     30  C   UNL d   1      28.171 -11.830   7.612  0.00  0.00     0.030 A 
ATOM     31  C   UNL d   1      28.513 -11.872   8.984  0.00  0.00     0.010 A 
ATOM     32  C   UNL d   1      29.004 -13.051   9.570  0.00  0.00    -0.055 A 
ATOM     33  C   UNL d   1      29.242 -14.132   8.723  0.00  0.00     0.010 A 
ATOM     34  C   UNL d   1      28.938 -14.076   7.369  0.00  0.00     0.030 A 
BRANCH  32  35
ATOM     35  C   UNL d   1      29.165 -13.197  11.078  0.00  0.00     0.010 C 
ATOM     36  C   UNL d   1      27.780 -13.322  11.727  0.00  0.00     0.015 C 
ATOM     37  C   UNL d   1      29.993 -14.431  11.481  0.00  0.00     0.015 C 
ENDBRANCH  32  35
ENDBRANCH  26  29
ENDBRANCH  22  25
ENDBRANCH   1  21
TORSDOF 10
ENDMDL
MODEL 5
REMARK VINA RESULT:    -6.992      7.985      9.772
REMARK INTER + INTRA:         -13.763
REMARK INTER:                  -9.975
REMARK INTRA:                  -3.788
REMARK CONF_INDEPENDENT:        2.983
REMARK UNBOUND:                -3.788
REMARK  10 active torsions:
REMARK  status: ('A' for Active; 'I' for Inactive)
REMARK    1  A    between atoms: C_2  and  C_4 
REMARK    2  A    between atoms: C_7  and  N_8 
REMARK       I    between atoms: N_8  and  C_9 
REMARK    3  A    between atoms: C_9  and  C_11 
REMARK       I    between atoms: C_11  and  N_13 
REMARK    4  A    between atoms: N_13  and  N_14 
REMARK    5  A    between atoms: C_15  and  C_16 
REMARK    6  A    between atoms: C_19  and  O_20 
REMARK    7  A    between atoms: O_20  and  C_21 
REMARK    8  A    between atoms: C_21  and  C_22 
REMARK       I    between atoms: C_22  and  N_24 
REMARK    9  A    between atoms: N_24  and  C_25 
REMARK   10  A    between atoms: C_26  and  C_25 
ROOT
ATOM      1  N   UNL d   1      26.095 -14.647  -3.464  0.00  0.00    -0.183 NA
ATOM      2  C   UNL d   1      26.559 -15.404  -4.413  0.00  0.00     0.150 C 
ENDROOT
BRANCH   2   3
ATOM      3  C   UNL d   1      27.779 -15.019  -5.187  0.00  0.00    -0.017 A 
ATOM      4  C   UNL d   1      27.762 -13.949  -6.087  0.00  0.00     0.015 A 
ATOM      5  C   UNL d   1      28.884 -13.698  -6.902  0.00  0.00     0.037 A 
ATOM      6  C   UNL d   1      30.052 -14.466  -6.785  0.00  0.00     0.069 A 
ATOM      7  C   UNL d   1      30.064 -15.523  -5.878  0.00  0.00     0.037 A 
ATOM      8  C   UNL d   1      28.938 -15.793  -5.080  0.00  0.00     0.015 A 
BRANCH   6   9
ATOM      9  O   UNL d   1      31.093 -14.090  -7.589  0.00  0.00    -0.342 OA
BRANCH   9  10
ATOM     10  C   UNL d   1      32.429 -14.248  -7.104  0.00  0.00     0.278 C 
BRANCH  10  11
ATOM     11  C   UNL d   1      33.023 -15.599  -7.565  0.00  0.00     0.241 C 
ATOM     12  O   UNL d   1      34.221 -15.865  -7.525  0.00  0.00    -0.271 OA
ATOM     13  N   UNL d   1      32.092 -16.504  -8.047  0.00  0.00    -0.357 N 
ATOM     14  H   UNL d   1      31.113 -16.270  -7.976  0.00  0.00     0.162 HD
BRANCH  13  15
ATOM     15  C   UNL d   1      32.493 -17.796  -8.608  0.00  0.00     0.154 C 
BRANCH  15  16
ATOM     16  C   UNL d   1      31.638 -19.004  -8.160  0.00  0.00     0.139 C 
ATOM     17  C   UNL d   1      32.288 -19.884  -7.101  0.00  0.00     0.035 C 
ATOM     18  C   UNL d   1      31.812 -19.273  -5.812  0.00  0.00     0.029 C 
ATOM     19  C   UNL d   1      30.410 -18.839  -6.159  0.00  0.00     0.168 C 
ATOM     20  O   UNL d   1      30.406 -18.533  -7.564  0.00  0.00    -0.384 OA
ENDBRANCH  15  16
ENDBRANCH  13  15
ENDBRANCH  10  11
ENDBRANCH   9  10
ENDBRANCH   6   9
ENDBRANCH   2   3
BRANCH   1  21
ATOM     21  N   UNL d   1      24.983 -15.069  -2.765  0.00  0.00    -0.239 N 
ATOM     22  C   UNL d   1      24.994 -16.300  -2.092  0.00  0.00     0.329 C 
ATOM     23  O   UNL d   1      25.922 -17.108  -2.024  0.00  0.00    -0.261 OA
ATOM     24  H   UNL d   1      24.132 -14.504  -2.737  0.00  0.00     0.192 HD
BRANCH  22  25
ATOM     25  C   UNL d   1      23.670 -16.634  -1.377  0.00  0.00     0.315 C 
ATOM     26  N   UNL d   1      23.423 -17.992  -1.114  0.00  0.00    -0.319 N 
ATOM     27  H   UNL d   1      24.125 -18.655  -1.436  0.00  0.00     0.169 HD
ATOM     28  O   UNL d   1      22.952 -15.670  -1.117  0.00  0.00    -0.262 OA
BRANCH  26  29
ATOM     29  C   UNL d   1      22.231 -18.515  -0.533  0.00  0.00     0.035 A 
ATOM     30  C   UNL d   1      21.152 -18.955  -1.319  0.00  0.00     0.030 A 
ATOM     31  C   UNL d   1      19.941 -19.369  -0.716  0.00  0.00     0.010 A 
ATOM     32  C   UNL d   1      19.822 -19.457   0.681  0.00  0.00    -0.055 A 
ATOM     33  C   UNL d   1      20.903 -19.015   1.441  0.00  0.00     0.010 A 
ATOM     34  C   UNL d   1      22.079 -18.574   0.846  0.00  0.00     0.030 A 
BRANCH  32  35
ATOM     35  C   UNL d   1      18.620 -20.112   1.350  0.00  0.00     0.010 C 
ATOM     36  C   UNL d   1      18.276 -21.413   0.614  0.00  0.00     0.015 C 
ATOM     37  C   UNL d   1      18.864 -20.452   2.832  0.00  0.00     0.015 C 
ENDBRANCH  32  35
ENDBRANCH  26  29
ENDBRANCH  22  25
ENDBRANCH   1  21
TORSDOF 10
ENDMDL
MODEL 6
REMARK VINA RESULT:    -6.890      1.415      1.967
REMARK INTER + INTRA:         -13.494
REMARK INTER:                  -9.873
REMARK INTRA:                  -3.621
REMARK CONF_INDEPENDENT:        2.983
REMARK UNBOUND:                -3.621
REMARK  10 active torsions:
REMARK  status: ('A' for Active; 'I' for Inactive)
REMARK    1  A    between atoms: C_2  and  C_4 
REMARK    2  A    between atoms: C_7  and  N_8 
REMARK       I    between atoms: N_8  and  C_9 
REMARK    3  A    between atoms: C_9  and  C_11 
REMARK       I    between atoms: C_11  and  N_13 
REMARK    4  A    between atoms: N_13  and  N_14 
REMARK    5  A    between atoms: C_15  and  C_16 
REMARK    6  A    between atoms: C_19  and  O_20 
REMARK    7  A    between atoms: O_20  and  C_21 
REMARK    8  A    between atoms: C_21  and  C_22 
REMARK       I    between atoms: C_22  and  N_24 
REMARK    9  A    between atoms: N_24  and  C_25 
REMARK   10  A    between atoms: C_26  and  C_25 
ROOT
ATOM      1  N   UNL d   1      27.645 -14.588   1.992  0.00  0.00    -0.183 NA
ATOM      2  C   UNL d   1      27.397 -15.609   1.227  0.00  0.00     0.150 C 
ENDROOT
BRANCH   2   3
ATOM      3  C   UNL d   1      26.932 -15.430  -0.182  0.00  0.00    -0.017 A 
ATOM      4  C   UNL d   1      26.938 -14.173  -0.797  0.00  0.00     0.015 A 
ATOM      5  C   UNL d   1      26.366 -14.012  -2.075  0.00  0.00     0.037 A 
ATOM      6  C   UNL d   1      25.843 -15.107  -2.777  0.00  0.00     0.069 A 
ATOM      7  C   UNL d   1      25.851 -16.357  -2.163  0.00  0.00     0.037 A 
ATOM      8  C   UNL d   1      26.399 -16.518  -0.878  0.00  0.00     0.015 A 
BRANCH   6   9
ATOM      9  O   UNL d   1      25.368 -14.835  -4.032  0.00  0.00    -0.342 OA
BRANCH   9  10
ATOM     10  C   UNL d   1      26.176 -14.061  -4.921  0.00  0.00     0.278 C 
BRANCH  10  11
ATOM     11  C   UNL d   1      27.406 -14.872  -5.390  0.00  0.00     0.241 C 
ATOM     12  O   UNL d   1      27.602 -15.197  -6.558  0.00  0.00    -0.271 OA
ATOM     13  N   UNL d   1      28.285 -15.224  -4.380  0.00  0.00    -0.357 N 
ATOM     14  H   UNL d   1      28.123 -14.857  -3.453  0.00  0.00     0.162 HD
BRANCH  13  15
ATOM     15  C   UNL d   1      29.454 -16.068  -4.635  0.00  0.00     0.154 C 
BRANCH  15  16
ATOM     16  C   UNL d   1      29.806 -17.065  -3.508  0.00  0.00     0.139 C 
ATOM     17  C   UNL d   1      31.246 -16.988  -3.018  0.00  0.00     0.035 C 
ATOM     18  C   UNL d   1      31.170 -15.991  -1.895  0.00  0.00     0.029 C 
ATOM     19  C   UNL d   1      29.825 -16.296  -1.284  0.00  0.00     0.168 C 
ATOM     20  O   UNL d   1      28.990 -16.791  -2.344  0.00  0.00    -0.384 OA
ENDBRANCH  15  16
ENDBRANCH  13  15
ENDBRANCH  10  11
ENDBRANCH   9  10
ENDBRANCH   6   9
ENDBRANCH   2   3
BRANCH   1  21
ATOM     21  N   UNL d   1      28.100 -14.816   3.274  0.00  0.00    -0.239 N 
ATOM     22  C   UNL d   1      27.985 -13.818   4.254  0.00  0.00     0.329 C 
ATOM     23  O   UNL d   1      27.491 -12.696   4.126  0.00  0.00    -0.261 OA
ATOM     24  H   UNL d   1      28.541 -15.702   3.528  0.00  0.00     0.192 HD
BRANCH  22  25
ATOM     25  C   UNL d   1      28.558 -14.221   5.626  0.00  0.00     0.315 C 
ATOM     26  N   UNL d   1      28.378 -13.304   6.677  0.00  0.00    -0.319 N 
ATOM     27  H   UNL d   1      27.904 -12.433   6.446  0.00  0.00     0.169 HD
ATOM     28  O   UNL d   1      29.131 -15.308   5.662  0.00  0.00    -0.262 OA
BRANCH  26  29
ATOM     29  C   UNL d   1      28.896 -13.450   7.997  0.00  0.00     0.035 A 
ATOM     30  C   UNL d   1      28.184 -13.016   9.128  0.00  0.00     0.030 A 
ATOM     31  C   UNL d   1      28.767 -13.077  10.415  0.00  0.00     0.010 A 
ATOM     32  C   UNL d   1      30.024 -13.672  10.611  0.00  0.00    -0.055 A 
ATOM     33  C   UNL d   1      30.713 -14.095   9.477  0.00  0.00     0.010 A 
ATOM     34  C   UNL d   1      30.154 -14.001   8.208  0.00  0.00     0.030 A 
BRANCH  32  35
ATOM     35  C   UNL d   1      30.574 -13.957  12.004  0.00  0.00     0.010 C 
ATOM     36  C   UNL d   1      30.626 -15.474  12.229  0.00  0.00     0.015 C 
ATOM     37  C   UNL d   1      31.992 -13.395  12.220  0.00  0.00     0.015 C 
ENDBRANCH  32  35
ENDBRANCH  26  29
ENDBRANCH  22  25
ENDBRANCH   1  21
TORSDOF 10
ENDMDL
MODEL 7
REMARK VINA RESULT:    -6.683      1.846      3.128
REMARK INTER + INTRA:         -12.996
REMARK INTER:                  -9.666
REMARK INTRA:                  -3.330
REMARK CONF_INDEPENDENT:        2.983
REMARK UNBOUND:                -3.330
REMARK  10 active torsions:
REMARK  status: ('A' for Active; 'I' for Inactive)
REMARK    1  A    between atoms: C_2  and  C_4 
REMARK    2  A    between atoms: C_7  and  N_8 
REMARK       I    between atoms: N_8  and  C_9 
REMARK    3  A    between atoms: C_9  and  C_11 
REMARK       I    between atoms: C_11  and  N_13 
REMARK    4  A    between atoms: N_13  and  N_14 
REMARK    5  A    between atoms: C_15  and  C_16 
REMARK    6  A    between atoms: C_19  and  O_20 
REMARK    7  A    between atoms: O_20  and  C_21 
REMARK    8  A    between atoms: C_21  and  C_22 
REMARK       I    between atoms: C_22  and  N_24 
REMARK    9  A    between atoms: N_24  and  C_25 
REMARK   10  A    between atoms: C_26  and  C_25 
ROOT
ATOM      1  N   UNL d   1      27.553 -14.805   0.828  0.00  0.00    -0.183 NA
ATOM      2  C   UNL d   1      27.761 -15.836   0.065  0.00  0.00     0.150 C 
ENDROOT
BRANCH   2   3
ATOM      3  C   UNL d   1      27.575 -15.757  -1.416  0.00  0.00    -0.017 A 
ATOM      4  C   UNL d   1      28.654 -15.907  -2.294  0.00  0.00     0.015 A 
ATOM      5  C   UNL d   1      28.472 -15.690  -3.675  0.00  0.00     0.037 A 
ATOM      6  C   UNL d   1      27.209 -15.386  -4.201  0.00  0.00     0.069 A 
ATOM      7  C   UNL d   1      26.137 -15.249  -3.321  0.00  0.00     0.037 A 
ATOM      8  C   UNL d   1      26.318 -15.441  -1.939  0.00  0.00     0.015 A 
BRANCH   6   9
ATOM      9  O   UNL d   1      27.147 -15.255  -5.561  0.00  0.00    -0.342 OA
BRANCH   9  10
ATOM     10  C   UNL d   1      28.085 -14.396  -6.213  0.00  0.00     0.278 C 
BRANCH  10  11
ATOM     11  C   UNL d   1      27.787 -12.913  -5.892  0.00  0.00     0.241 C 
ATOM     12  O   UNL d   1      28.599 -12.005  -6.050  0.00  0.00    -0.271 OA
ATOM     13  N   UNL d   1      26.517 -12.675  -5.393  0.00  0.00    -0.357 N 
ATOM     14  H   UNL d   1      25.861 -13.442  -5.365  0.00  0.00     0.162 HD
BRANCH  13  15
ATOM     15  C   UNL d   1      26.100 -11.343  -4.952  0.00  0.00     0.154 C 
BRANCH  15  16
ATOM     16  C   UNL d   1      25.546 -10.423  -6.063  0.00  0.00     0.139 C 
ATOM     17  C   UNL d   1      26.271  -9.092  -6.207  0.00  0.00     0.035 C 
ATOM     18  C   UNL d   1      27.345  -9.396  -7.214  0.00  0.00     0.029 C 
ATOM     19  C   UNL d   1      26.653 -10.366  -8.139  0.00  0.00     0.168 C 
ATOM     20  O   UNL d   1      25.685 -11.075  -7.348  0.00  0.00    -0.384 OA
ENDBRANCH  15  16
ENDBRANCH  13  15
ENDBRANCH  10  11
ENDBRANCH   9  10
ENDBRANCH   6   9
ENDBRANCH   2   3
BRANCH   1  21
ATOM     21  N   UNL d   1      27.770 -14.931   2.185  0.00  0.00    -0.239 N 
ATOM     22  C   UNL d   1      27.758 -13.797   3.012  0.00  0.00     0.329 C 
ATOM     23  O   UNL d   1      27.556 -12.628   2.677  0.00  0.00    -0.261 OA
ATOM     24  H   UNL d   1      27.958 -15.842   2.607  0.00  0.00     0.192 HD
BRANCH  22  25
ATOM     25  C   UNL d   1      28.036 -14.103   4.496  0.00  0.00     0.315 C 
ATOM     26  N   UNL d   1      28.255 -12.997   5.336  0.00  0.00    -0.319 N 
ATOM     27  H   UNL d   1      28.238 -12.080   4.895  0.00  0.00     0.169 HD
ATOM     28  O   UNL d   1      28.049 -15.296   4.797  0.00  0.00    -0.262 OA
BRANCH  26  29
ATOM     29  C   UNL d   1      28.602 -13.067   6.717  0.00  0.00     0.035 A 
ATOM     30  C   UNL d   1      28.155 -12.112   7.645  0.00  0.00     0.030 A 
ATOM     31  C   UNL d   1      28.601 -12.146   8.987  0.00  0.00     0.010 A 
ATOM     32  C   UNL d   1      29.413 -13.194   9.453  0.00  0.00    -0.055 A 
ATOM     33  C   UNL d   1      29.845 -14.129   8.515  0.00  0.00     0.010 A 
ATOM     34  C   UNL d   1      29.435 -14.074   7.189  0.00  0.00     0.030 A 
BRANCH  32  35
ATOM     35  C   UNL d   1      29.719 -13.381  10.934  0.00  0.00     0.010 C 
ATOM     36  C   UNL d   1      28.418 -13.278  11.739  0.00  0.00     0.015 C 
ATOM     37  C   UNL d   1      30.369 -14.742  11.249  0.00  0.00     0.015 C 
ENDBRANCH  32  35
ENDBRANCH  26  29
ENDBRANCH  22  25
ENDBRANCH   1  21
TORSDOF 10
ENDMDL
MODEL 8
REMARK VINA RESULT:    -6.651      1.737      3.041
REMARK INTER + INTRA:         -13.488
REMARK INTER:                  -9.634
REMARK INTRA:                  -3.854
REMARK CONF_INDEPENDENT:        2.983
REMARK UNBOUND:                -3.854
REMARK  10 active torsions:
REMARK  status: ('A' for Active; 'I' for Inactive)
REMARK    1  A    between atoms: C_2  and  C_4 
REMARK    2  A    between atoms: C_7  and  N_8 
REMARK       I    between atoms: N_8  and  C_9 
REMARK    3  A    between atoms: C_9  and  C_11 
REMARK       I    between atoms: C_11  and  N_13 
REMARK    4  A    between atoms: N_13  and  N_14 
REMARK    5  A    between atoms: C_15  and  C_16 
REMARK    6  A    between atoms: C_19  and  O_20 
REMARK    7  A    between atoms: O_20  and  C_21 
REMARK    8  A    between atoms: C_21  and  C_22 
REMARK       I    between atoms: C_22  and  N_24 
REMARK    9  A    between atoms: N_24  and  C_25 
REMARK   10  A    between atoms: C_26  and  C_25 
ROOT
ATOM      1  N   UNL d   1      27.987 -14.656   0.524  0.00  0.00    -0.183 NA
ATOM      2  C   UNL d   1      27.691 -15.721  -0.158  0.00  0.00     0.150 C 
ENDROOT
BRANCH   2   3
ATOM      3  C   UNL d   1      27.503 -15.667  -1.640  0.00  0.00    -0.017 A 
ATOM      4  C   UNL d   1      28.588 -15.776  -2.516  0.00  0.00     0.015 A 
ATOM      5  C   UNL d   1      28.398 -15.583  -3.899  0.00  0.00     0.037 A 
ATOM      6  C   UNL d   1      27.122 -15.344  -4.429  0.00  0.00     0.069 A 
ATOM      7  C   UNL d   1      26.045 -15.248  -3.551  0.00  0.00     0.037 A 
ATOM      8  C   UNL d   1      26.233 -15.415  -2.167  0.00  0.00     0.015 A 
BRANCH   6   9
ATOM      9  O   UNL d   1      27.056 -15.231  -5.791  0.00  0.00    -0.342 OA
BRANCH   9  10
ATOM     10  C   UNL d   1      28.190 -14.720  -6.495  0.00  0.00     0.278 C 
BRANCH  10  11
ATOM     11  C   UNL d   1      28.158 -13.174  -6.538  0.00  0.00     0.241 C 
ATOM     12  O   UNL d   1      29.051 -12.489  -7.030  0.00  0.00    -0.271 OA
ATOM     13  N   UNL d   1      27.037 -12.604  -5.961  0.00  0.00    -0.357 N 
ATOM     14  H   UNL d   1      26.294 -13.214  -5.650  0.00  0.00     0.162 HD
BRANCH  13  15
ATOM     15  C   UNL d   1      26.888 -11.153  -5.834  0.00  0.00     0.154 C 
BRANCH  15  16
ATOM     16  C   UNL d   1      27.084 -10.591  -4.408  0.00  0.00     0.139 C 
ATOM     17  C   UNL d   1      25.833 -10.607  -3.541  0.00  0.00     0.035 C 
ATOM     18  C   UNL d   1      25.911 -11.942  -2.854  0.00  0.00     0.029 C 
ATOM     19  C   UNL d   1      27.395 -12.102  -2.631  0.00  0.00     0.168 C 
ATOM     20  O   UNL d   1      28.053 -11.397  -3.696  0.00  0.00    -0.384 OA
ENDBRANCH  15  16
ENDBRANCH  13  15
ENDBRANCH  10  11
ENDBRANCH   9  10
ENDBRANCH   6   9
ENDBRANCH   2   3
BRANCH   1  21
ATOM     21  N   UNL d   1      28.177 -14.773   1.886  0.00  0.00    -0.239 N 
ATOM     22  C   UNL d   1      27.837 -13.715   2.742  0.00  0.00     0.329 C 
ATOM     23  O   UNL d   1      27.347 -12.628   2.431  0.00  0.00    -0.261 OA
ATOM     24  H   UNL d   1      28.582 -15.619   2.291  0.00  0.00     0.192 HD
BRANCH  22  25
ATOM     25  C   UNL d   1      28.130 -13.996   4.229  0.00  0.00     0.315 C 
ATOM     26  N   UNL d   1      28.054 -12.897   5.103  0.00  0.00    -0.319 N 
ATOM     27  H   UNL d   1      27.835 -11.996   4.684  0.00  0.00     0.169 HD
ATOM     28  O   UNL d   1      28.413 -15.161   4.501  0.00  0.00    -0.262 OA
BRANCH  26  29
ATOM     29  C   UNL d   1      28.361 -12.929   6.495  0.00  0.00     0.035 A 
ATOM     30  C   UNL d   1      28.163 -11.813   7.325  0.00  0.00     0.030 A 
ATOM     31  C   UNL d   1      28.576 -11.837   8.678  0.00  0.00     0.010 A 
ATOM     32  C   UNL d   1      29.092 -13.010   9.255  0.00  0.00    -0.055 A 
ATOM     33  C   UNL d   1      29.281 -14.104   8.413  0.00  0.00     0.010 A 
ATOM     34  C   UNL d   1      28.908 -14.066   7.075  0.00  0.00     0.030 A 
BRANCH  32  35
ATOM     35  C   UNL d   1      29.330 -13.135  10.755  0.00  0.00     0.010 C 
ATOM     36  C   UNL d   1      27.990 -13.371  11.464  0.00  0.00     0.015 C 
ATOM     37  C   UNL d   1      30.274 -14.296  11.122  0.00  0.00     0.015 C 
ENDBRANCH  32  35
ENDBRANCH  26  29
ENDBRANCH  22  25
ENDBRANCH   1  21
TORSDOF 10
ENDMDL
MODEL 9
REMARK VINA RESULT:    -6.097      1.703      3.426
REMARK INTER + INTRA:         -13.011
REMARK INTER:                  -9.080
REMARK INTRA:                  -3.931
REMARK CONF_INDEPENDENT:        2.983
REMARK UNBOUND:                -3.931
REMARK  10 active torsions:
REMARK  status: ('A' for Active; 'I' for Inactive)
REMARK    1  A    between atoms: C_2  and  C_4 
REMARK    2  A    between atoms: C_7  and  N_8 
REMARK       I    between atoms: N_8  and  C_9 
REMARK    3  A    between atoms: C_9  and  C_11 
REMARK       I    between atoms: C_11  and  N_13 
REMARK    4  A    between atoms: N_13  and  N_14 
REMARK    5  A    between atoms: C_15  and  C_16 
REMARK    6  A    between atoms: C_19  and  O_20 
REMARK    7  A    between atoms: O_20  and  C_21 
REMARK    8  A    between atoms: C_21  and  C_22 
REMARK       I    between atoms: C_22  and  N_24 
REMARK    9  A    between atoms: N_24  and  C_25 
REMARK   10  A    between atoms: C_26  and  C_25 
ROOT
ATOM      1  N   UNL d   1      28.796 -14.740   1.126  0.00  0.00    -0.183 NA
ATOM      2  C   UNL d   1      29.859 -14.872   0.392  0.00  0.00     0.150 C 
ENDROOT
BRANCH   2   3
ATOM      3  C   UNL d   1      29.793 -14.760  -1.098  0.00  0.00    -0.017 A 
ATOM      4  C   UNL d   1      29.539 -15.876  -1.901  0.00  0.00     0.015 A 
ATOM      5  C   UNL d   1      29.620 -15.766  -3.304  0.00  0.00     0.037 A 
ATOM      6  C   UNL d   1      29.890 -14.536  -3.920  0.00  0.00     0.069 A 
ATOM      7  C   UNL d   1      30.131 -13.426  -3.113  0.00  0.00     0.037 A 
ATOM      8  C   UNL d   1      30.075 -13.536  -1.711  0.00  0.00     0.015 A 
BRANCH   6   9
ATOM      9  O   UNL d   1      29.885 -14.543  -5.289  0.00  0.00    -0.342 OA
BRANCH   9  10
ATOM     10  C   UNL d   1      28.922 -15.350  -5.969  0.00  0.00     0.278 C 
BRANCH  10  11
ATOM     11  C   UNL d   1      27.486 -14.866  -5.663  0.00  0.00     0.241 C 
ATOM     12  O   UNL d   1      26.489 -15.573  -5.784  0.00  0.00    -0.271 OA
ATOM     13  N   UNL d   1      27.398 -13.549  -5.246  0.00  0.00    -0.357 N 
ATOM     14  H   UNL d   1      28.254 -13.039  -5.080  0.00  0.00     0.162 HD
BRANCH  13  15
ATOM     15  C   UNL d   1      26.107 -12.903  -5.001  0.00  0.00     0.154 C 
BRANCH  15  16
ATOM     16  C   UNL d   1      25.594 -12.982  -3.545  0.00  0.00     0.139 C 
ATOM     17  C   UNL d   1      24.561 -14.072  -3.293  0.00  0.00     0.035 C 
ATOM     18  C   UNL d   1      25.402 -15.252  -2.893  0.00  0.00     0.029 C 
ATOM     19  C   UNL d   1      26.516 -14.603  -2.109  0.00  0.00     0.168 C 
ATOM     20  O   UNL d   1      26.697 -13.286  -2.658  0.00  0.00    -0.384 OA
ENDBRANCH  15  16
ENDBRANCH  13  15
ENDBRANCH  10  11
ENDBRANCH   9  10
ENDBRANCH   6   9
ENDBRANCH   2   3
BRANCH   1  21
ATOM     21  N   UNL d   1      28.923 -14.824   2.497  0.00  0.00    -0.239 N 
ATOM     22  C   UNL d   1      28.328 -13.860   3.325  0.00  0.00     0.329 C 
ATOM     23  O   UNL d   1      27.650 -12.890   2.978  0.00  0.00    -0.261 OA
ATOM     24  H   UNL d   1      29.464 -15.574   2.932  0.00  0.00     0.192 HD
BRANCH  22  25
ATOM     25  C   UNL d   1      28.580 -14.084   4.828  0.00  0.00     0.315 C 
ATOM     26  N   UNL d   1      28.292 -13.005   5.682  0.00  0.00    -0.319 N 
ATOM     27  H   UNL d   1      27.962 -12.149   5.240  0.00  0.00     0.169 HD
ATOM     28  O   UNL d   1      29.022 -15.191   5.131  0.00  0.00    -0.262 OA
BRANCH  26  29
ATOM     29  C   UNL d   1      28.527 -12.981   7.088  0.00  0.00     0.035 A 
ATOM     30  C   UNL d   1      28.933 -14.126   7.794  0.00  0.00     0.030 A 
ATOM     31  C   UNL d   1      29.055 -14.101   9.203  0.00  0.00     0.010 A 
ATOM     32  C   UNL d   1      28.881 -12.906   9.921  0.00  0.00    -0.055 A 
ATOM     33  C   UNL d   1      28.478 -11.783   9.202  0.00  0.00     0.010 A 
ATOM     34  C   UNL d   1      28.323 -11.819   7.822  0.00  0.00     0.030 A 
BRANCH  32  35
ATOM     35  C   UNL d   1      29.227 -12.797  11.401  0.00  0.00     0.010 C 
ATOM     36  C   UNL d   1      28.156 -13.520  12.228  0.00  0.00     0.015 C 
ATOM     37  C   UNL d   1      30.595 -13.414  11.749  0.00  0.00     0.015 C 
ENDBRANCH  32  35
ENDBRANCH  26  29
ENDBRANCH  22  25
ENDBRANCH   1  21
TORSDOF 10
ENDMDL
