MODEL 1
REMARK VINA RESULT:    -9.097      0.000      0.000
REMARK INTER + INTRA:         -13.438
REMARK INTER:                 -11.483
REMARK INTRA:                  -1.955
REMARK CONF_INDEPENDENT:        2.386
REMARK UNBOUND:                -1.955
REMARK  8 active torsions:
REMARK  status: ('A' for Active; 'I' for Inactive)
REMARK       I    between atoms: C_2  and  N_4 
REMARK    1  A    between atoms: N_4  and  C_5 
REMARK    2  A    between atoms: C_8  and  C_9 
REMARK    3  A    between atoms: C_10  and  C_11 
REMARK       I    between atoms: C_11  and  N_13 
REMARK    4  A    between atoms: N_13  and  N_14 
REMARK       I    between atoms: N_14  and  C_15 
REMARK    5  A    between atoms: C_15  and  C_17 
REMARK    6  A    between atoms: C_17  and  C_18 
REMARK    7  A    between atoms: C_18  and  C_19 
REMARK    8  A    between atoms: C_19  and  C_20 
ROOT
ATOM      1  C   UNL d   1      26.698 -14.058  -2.700  0.00  0.00     0.259 C 
ATOM      2  O   UNL d   1      27.304 -13.140  -2.142  0.00  0.00    -0.267 OA
ATOM      3  N   UNL d   1      27.007 -14.491  -3.980  0.00  0.00    -0.264 N 
ATOM      4  H   UNL d   1      26.528 -15.247  -4.469  0.00  0.00     0.190 HD
ENDROOT
BRANCH   1   5
ATOM      5  C   UNL d   1      25.569 -14.788  -2.037  0.00  0.00     0.076 C 
ATOM      6  C   UNL d   1      25.624 -16.101  -1.715  0.00  0.00     0.017 C 
BRANCH   6   7
ATOM      7  C   UNL d   1      24.525 -16.899  -1.096  0.00  0.00    -0.036 A 
ATOM      8  C   UNL d   1      24.731 -18.212  -0.627  0.00  0.00     0.013 A 
ATOM      9  C   UNL d   1      23.657 -19.006  -0.145  0.00  0.00     0.030 A 
ATOM     10  C   UNL d   1      22.362 -18.485  -0.101  0.00  0.00     0.034 A 
ATOM     11  C   UNL d   1      22.166 -17.174  -0.521  0.00  0.00     0.030 A 
ATOM     12  C   UNL d   1      23.225 -16.393  -0.997  0.00  0.00     0.013 A 
BRANCH  10  13
ATOM     13  N   UNL d   1      21.272 -19.238   0.406  0.00  0.00    -0.328 N 
ATOM     14  C   UNL d   1      20.276 -19.751  -0.417  0.00  0.00     0.218 C 
ATOM     15  C   UNL d   1      19.145 -20.448   0.295  0.00  0.00     0.117 C 
ATOM     16  O   UNL d   1      20.281 -19.699  -1.646  0.00  0.00    -0.274 OA
ATOM     17  H   UNL d   1      21.289 -19.497   1.384  0.00  0.00     0.169 HD
ENDBRANCH  10  13
ENDBRANCH   6   7
ENDBRANCH   1   5
BRANCH   3  18
ATOM     18  N   UNL d   1      28.057 -13.856  -4.707  0.00  0.00    -0.267 N 
ATOM     19  C   UNL d   1      28.340 -14.284  -5.994  0.00  0.00     0.236 C 
ATOM     20  O   UNL d   1      27.710 -15.201  -6.522  0.00  0.00    -0.272 OA
ATOM     21  H   UNL d   1      28.550 -13.105  -4.227  0.00  0.00     0.190 HD
BRANCH  19  22
ATOM     22  C   UNL d   1      29.482 -13.544  -6.700  0.00  0.00     0.105 C 
BRANCH  22  23
ATOM     23  C   UNL d   1      30.776 -14.373  -6.685  0.00  0.00     0.014 C 
BRANCH  23  24
ATOM     24  C   UNL d   1      30.772 -15.479  -5.628  0.00  0.00     0.039 C 
BRANCH  24  25
ATOM     25  C   UNL d   1      30.863 -16.848  -6.262  0.00  0.00    -0.058 A 
ATOM     26  C   UNL d   1      30.403 -17.979  -5.574  0.00  0.00     0.007 A 
ATOM     27  C   UNL d   1      30.539 -19.251  -6.131  0.00  0.00     0.001 A 
ATOM     28  C   UNL d   1      31.068 -19.398  -7.411  0.00  0.00     0.000 A 
ATOM     29  C   UNL d   1      31.504 -18.277  -8.116  0.00  0.00     0.001 A 
ATOM     30  C   UNL d   1      31.411 -17.009  -7.541  0.00  0.00     0.007 A 
ENDBRANCH  24  25
ENDBRANCH  23  24
ENDBRANCH  22  23
ENDBRANCH  19  22
ENDBRANCH   3  18
TORSDOF 8
ENDMDL
MODEL 2
REMARK VINA RESULT:    -8.724      2.600     11.192
REMARK INTER + INTRA:         -12.677
REMARK INTER:                 -11.110
REMARK INTRA:                  -1.567
REMARK CONF_INDEPENDENT:        2.386
REMARK UNBOUND:                -1.567
REMARK  8 active torsions:
REMARK  status: ('A' for Active; 'I' for Inactive)
REMARK       I    between atoms: C_2  and  N_4 
REMARK    1  A    between atoms: N_4  and  C_5 
REMARK    2  A    between atoms: C_8  and  C_9 
REMARK    3  A    between atoms: C_10  and  C_11 
REMARK       I    between atoms: C_11  and  N_13 
REMARK    4  A    between atoms: N_13  and  N_14 
REMARK       I    between atoms: N_14  and  C_15 
REMARK    5  A    between atoms: C_15  and  C_17 
REMARK    6  A    between atoms: C_17  and  C_18 
REMARK    7  A    between atoms: C_18  and  C_19 
REMARK    8  A    between atoms: C_19  and  C_20 
ROOT
ATOM      1  C   UNL d   1      25.531 -15.067  -3.345  0.00  0.00     0.259 C 
ATOM      2  O   UNL d   1      24.509 -14.411  -3.562  0.00  0.00    -0.267 OA
ATOM      3  N   UNL d   1      25.571 -16.114  -2.438  0.00  0.00    -0.264 N 
ATOM      4  H   UNL d   1      26.398 -16.676  -2.236  0.00  0.00     0.190 HD
ENDROOT
BRANCH   1   5
ATOM      5  C   UNL d   1      26.825 -14.785  -4.049  0.00  0.00     0.076 C 
ATOM      6  C   UNL d   1      26.980 -14.903  -5.388  0.00  0.00     0.017 C 
BRANCH   6   7
ATOM      7  C   UNL d   1      28.246 -14.683  -6.147  0.00  0.00    -0.036 A 
ATOM      8  C   UNL d   1      29.287 -15.634  -6.151  0.00  0.00     0.013 A 
ATOM      9  C   UNL d   1      30.532 -15.370  -6.779  0.00  0.00     0.030 A 
ATOM     10  C   UNL d   1      30.746 -14.156  -7.436  0.00  0.00     0.034 A 
ATOM     11  C   UNL d   1      29.703 -13.235  -7.470  0.00  0.00     0.030 A 
ATOM     12  C   UNL d   1      28.477 -13.497  -6.850  0.00  0.00     0.013 A 
BRANCH  10  13
ATOM     13  N   UNL d   1      31.965 -13.873  -8.102  0.00  0.00    -0.328 N 
ATOM     14  C   UNL d   1      32.017 -13.120  -9.269  0.00  0.00     0.218 C 
ATOM     15  C   UNL d   1      33.383 -12.991  -9.894  0.00  0.00     0.117 C 
ATOM     16  O   UNL d   1      31.057 -12.547  -9.782  0.00  0.00    -0.274 OA
ATOM     17  H   UNL d   1      32.828 -14.139  -7.644  0.00  0.00     0.169 HD
ENDBRANCH  10  13
ENDBRANCH   6   7
ENDBRANCH   1   5
BRANCH   3  18
ATOM     18  N   UNL d   1      24.398 -16.458  -1.704  0.00  0.00    -0.267 N 
ATOM     19  C   UNL d   1      24.433 -17.550  -0.852  0.00  0.00     0.236 C 
ATOM     20  O   UNL d   1      25.450 -18.231  -0.717  0.00  0.00    -0.272 OA
ATOM     21  H   UNL d   1      23.582 -15.866  -1.850  0.00  0.00     0.190 HD
BRANCH  19  22
ATOM     22  C   UNL d   1      23.128 -17.844  -0.102  0.00  0.00     0.105 C 
BRANCH  22  23
ATOM     23  C   UNL d   1      22.287 -18.896  -0.841  0.00  0.00     0.014 C 
BRANCH  23  24
ATOM     24  C   UNL d   1      20.804 -18.530  -0.928  0.00  0.00     0.039 C 
BRANCH  24  25
ATOM     25  C   UNL d   1      19.967 -19.398  -0.017  0.00  0.00    -0.058 A 
ATOM     26  C   UNL d   1      18.854 -20.087  -0.519  0.00  0.00     0.007 A 
ATOM     27  C   UNL d   1      18.045 -20.842   0.329  0.00  0.00     0.001 A 
ATOM     28  C   UNL d   1      18.381 -20.976   1.674  0.00  0.00     0.000 A 
ATOM     29  C   UNL d   1      19.501 -20.318   2.181  0.00  0.00     0.001 A 
ATOM     30  C   UNL d   1      20.285 -19.524   1.341  0.00  0.00     0.007 A 
ENDBRANCH  24  25
ENDBRANCH  23  24
ENDBRANCH  22  23
ENDBRANCH  19  22
ENDBRANCH   3  18
TORSDOF 8
ENDMDL
MODEL 3
REMARK VINA RESULT:    -8.554      1.887      2.973
REMARK INTER + INTRA:         -13.153
REMARK INTER:                 -10.940
REMARK INTRA:                  -2.212
REMARK CONF_INDEPENDENT:        2.386
REMARK UNBOUND:                -2.212
REMARK  8 active torsions:
REMARK  status: ('A' for Active; 'I' for Inactive)
REMARK       I    between atoms: C_2  and  N_4 
REMARK    1  A    between atoms: N_4  and  C_5 
REMARK    2  A    between atoms: C_8  and  C_9 
REMARK    3  A    between atoms: C_10  and  C_11 
REMARK       I    between atoms: C_11  and  N_13 
REMARK    4  A    between atoms: N_13  and  N_14 
REMARK       I    between atoms: N_14  and  C_15 
REMARK    5  A    between atoms: C_15  and  C_17 
REMARK    6  A    between atoms: C_17  and  C_18 
REMARK    7  A    between atoms: C_18  and  C_19 
REMARK    8  A    between atoms: C_19  and  C_20 
ROOT
ATOM      1  C   UNL d   1      26.036 -13.646  -3.479  0.00  0.00     0.259 C 
ATOM      2  O   UNL d   1      27.242 -13.731  -3.232  0.00  0.00    -0.267 OA
ATOM      3  N   UNL d   1      25.520 -12.737  -4.388  0.00  0.00    -0.264 N 
ATOM      4  H   UNL d   1      24.530 -12.641  -4.616  0.00  0.00     0.190 HD
ENDROOT
BRANCH   1   5
ATOM      5  C   UNL d   1      25.021 -14.525  -2.812  0.00  0.00     0.076 C 
ATOM      6  C   UNL d   1      25.353 -15.553  -1.997  0.00  0.00     0.017 C 
BRANCH   6   7
ATOM      7  C   UNL d   1      24.399 -16.493  -1.338  0.00  0.00    -0.036 A 
ATOM      8  C   UNL d   1      24.755 -17.822  -1.031  0.00  0.00     0.013 A 
ATOM      9  C   UNL d   1      23.809 -18.743  -0.510  0.00  0.00     0.030 A 
ATOM     10  C   UNL d   1      22.495 -18.339  -0.263  0.00  0.00     0.034 A 
ATOM     11  C   UNL d   1      22.155 -17.015  -0.523  0.00  0.00     0.030 A 
ATOM     12  C   UNL d   1      23.088 -16.109  -1.038  0.00  0.00     0.013 A 
BRANCH  10  13
ATOM     13  N   UNL d   1      21.533 -19.223   0.288  0.00  0.00    -0.328 N 
ATOM     14  C   UNL d   1      20.455 -19.701  -0.447  0.00  0.00     0.218 C 
ATOM     15  C   UNL d   1      19.480 -20.559   0.319  0.00  0.00     0.117 C 
ATOM     16  O   UNL d   1      20.276 -19.500  -1.647  0.00  0.00    -0.274 OA
ATOM     17  H   UNL d   1      21.709 -19.597   1.212  0.00  0.00     0.169 HD
ENDBRANCH  10  13
ENDBRANCH   6   7
ENDBRANCH   1   5
BRANCH   3  18
ATOM     18  N   UNL d   1      26.397 -11.843  -5.069  0.00  0.00    -0.267 N 
ATOM     19  C   UNL d   1      25.932 -11.156  -6.179  0.00  0.00     0.236 C 
ATOM     20  O   UNL d   1      24.781 -11.304  -6.592  0.00  0.00    -0.272 OA
ATOM     21  H   UNL d   1      27.339 -11.756  -4.691  0.00  0.00     0.190 HD
BRANCH  19  22
ATOM     22  C   UNL d   1      26.942 -10.216  -6.847  0.00  0.00     0.105 C 
BRANCH  22  23
ATOM     23  C   UNL d   1      28.284 -10.924  -7.091  0.00  0.00     0.014 C 
BRANCH  23  24
ATOM     24  C   UNL d   1      28.142 -12.238  -7.861  0.00  0.00     0.039 C 
BRANCH  24  25
ATOM     25  C   UNL d   1      28.760 -13.391  -7.104  0.00  0.00    -0.058 A 
ATOM     26  C   UNL d   1      30.119 -13.695  -7.261  0.00  0.00     0.007 A 
ATOM     27  C   UNL d   1      30.680 -14.794  -6.610  0.00  0.00     0.001 A 
ATOM     28  C   UNL d   1      29.906 -15.556  -5.738  0.00  0.00     0.000 A 
ATOM     29  C   UNL d   1      28.559 -15.247  -5.553  0.00  0.00     0.001 A 
ATOM     30  C   UNL d   1      27.986 -14.175  -6.240  0.00  0.00     0.007 A 
ENDBRANCH  24  25
ENDBRANCH  23  24
ENDBRANCH  22  23
ENDBRANCH  19  22
ENDBRANCH   3  18
TORSDOF 8
ENDMDL
MODEL 4
REMARK VINA RESULT:    -8.306      1.882      2.960
REMARK INTER + INTRA:         -12.929
REMARK INTER:                 -10.692
REMARK INTRA:                  -2.237
REMARK CONF_INDEPENDENT:        2.386
REMARK UNBOUND:                -2.237
REMARK  8 active torsions:
REMARK  status: ('A' for Active; 'I' for Inactive)
REMARK       I    between atoms: C_2  and  N_4 
REMARK    1  A    between atoms: N_4  and  C_5 
REMARK    2  A    between atoms: C_8  and  C_9 
REMARK    3  A    between atoms: C_10  and  C_11 
REMARK       I    between atoms: C_11  and  N_13 
REMARK    4  A    between atoms: N_13  and  N_14 
REMARK       I    between atoms: N_14  and  C_15 
REMARK    5  A    between atoms: C_15  and  C_17 
REMARK    6  A    between atoms: C_17  and  C_18 
REMARK    7  A    between atoms: C_18  and  C_19 
REMARK    8  A    between atoms: C_19  and  C_20 
ROOT
ATOM      1  C   UNL d   1      26.139 -13.553  -3.316  0.00  0.00     0.259 C 
ATOM      2  O   UNL d   1      27.309 -13.605  -2.930  0.00  0.00    -0.267 OA
ATOM      3  N   UNL d   1      25.712 -12.670  -4.295  0.00  0.00    -0.264 N 
ATOM      4  H   UNL d   1      24.754 -12.601  -4.638  0.00  0.00     0.190 HD
ENDROOT
BRANCH   1   5
ATOM      5  C   UNL d   1      25.072 -14.446  -2.756  0.00  0.00     0.076 C 
ATOM      6  C   UNL d   1      25.342 -15.557  -2.032  0.00  0.00     0.017 C 
BRANCH   6   7
ATOM      7  C   UNL d   1      24.334 -16.512  -1.484  0.00  0.00    -0.036 A 
ATOM      8  C   UNL d   1      23.002 -16.124  -1.231  0.00  0.00     0.013 A 
ATOM      9  C   UNL d   1      22.080 -17.002  -0.605  0.00  0.00     0.030 A 
ATOM     10  C   UNL d   1      22.471 -18.294  -0.244  0.00  0.00     0.034 A 
ATOM     11  C   UNL d   1      23.772 -18.692  -0.535  0.00  0.00     0.030 A 
ATOM     12  C   UNL d   1      24.680 -17.825  -1.152  0.00  0.00     0.013 A 
BRANCH  10  13
ATOM     13  N   UNL d   1      21.566 -19.208   0.352  0.00  0.00    -0.328 N 
ATOM     14  C   UNL d   1      20.497 -19.759  -0.345  0.00  0.00     0.218 C 
ATOM     15  C   UNL d   1      19.582 -20.641   0.466  0.00  0.00     0.117 C 
ATOM     16  O   UNL d   1      20.282 -19.600  -1.546  0.00  0.00    -0.274 OA
ATOM     17  H   UNL d   1      21.780 -19.548   1.282  0.00  0.00     0.169 HD
ENDBRANCH  10  13
ENDBRANCH   6   7
ENDBRANCH   1   5
BRANCH   3  18
ATOM     18  N   UNL d   1      26.643 -11.765  -4.886  0.00  0.00    -0.267 N 
ATOM     19  C   UNL d   1      26.269 -11.055  -6.014  0.00  0.00     0.236 C 
ATOM     20  O   UNL d   1      25.154 -11.189  -6.521  0.00  0.00    -0.272 OA
ATOM     21  H   UNL d   1      27.552 -11.690  -4.432  0.00  0.00     0.190 HD
BRANCH  19  22
ATOM     22  C   UNL d   1      27.331 -10.105  -6.580  0.00  0.00     0.105 C 
BRANCH  22  23
ATOM     23  C   UNL d   1      28.607 -10.866  -6.971  0.00  0.00     0.014 C 
BRANCH  23  24
ATOM     24  C   UNL d   1      28.330 -12.127  -7.793  0.00  0.00     0.039 C 
BRANCH  24  25
ATOM     25  C   UNL d   1      28.811 -13.369  -7.078  0.00  0.00    -0.058 A 
ATOM     26  C   UNL d   1      27.958 -14.060  -6.206  0.00  0.00     0.007 A 
ATOM     27  C   UNL d   1      28.415 -15.172  -5.500  0.00  0.00     0.001 A 
ATOM     28  C   UNL d   1      29.706 -15.649  -5.713  0.00  0.00     0.000 A 
ATOM     29  C   UNL d   1      30.556 -14.986  -6.597  0.00  0.00     0.001 A 
ATOM     30  C   UNL d   1      30.114 -13.845  -7.270  0.00  0.00     0.007 A 
ENDBRANCH  24  25
ENDBRANCH  23  24
ENDBRANCH  22  23
ENDBRANCH  19  22
ENDBRANCH   3  18
TORSDOF 8
ENDMDL
MODEL 5
REMARK VINA RESULT:    -8.238      4.554      6.827
REMARK INTER + INTRA:         -12.323
REMARK INTER:                 -10.624
REMARK INTRA:                  -1.699
REMARK CONF_INDEPENDENT:        2.386
REMARK UNBOUND:                -1.699
REMARK  8 active torsions:
REMARK  status: ('A' for Active; 'I' for Inactive)
REMARK       I    between atoms: C_2  and  N_4 
REMARK    1  A    between atoms: N_4  and  C_5 
REMARK    2  A    between atoms: C_8  and  C_9 
REMARK    3  A    between atoms: C_10  and  C_11 
REMARK       I    between atoms: C_11  and  N_13 
REMARK    4  A    between atoms: N_13  and  N_14 
REMARK       I    between atoms: N_14  and  C_15 
REMARK    5  A    between atoms: C_15  and  C_17 
REMARK    6  A    between atoms: C_17  and  C_18 
REMARK    7  A    between atoms: C_18  and  C_19 
REMARK    8  A    between atoms: C_19  and  C_20 
ROOT
ATOM      1  C   UNL d   1      26.087 -13.863  -3.939  0.00  0.00     0.259 C 
ATOM      2  O   UNL d   1      27.290 -14.138  -3.914  0.00  0.00    -0.267 OA
ATOM      3  N   UNL d   1      25.584 -12.762  -4.613  0.00  0.00    -0.264 N 
ATOM      4  H   UNL d   1      24.598 -12.507  -4.655  0.00  0.00     0.190 HD
ENDROOT
BRANCH   1   5
ATOM      5  C   UNL d   1      25.062 -14.702  -3.237  0.00  0.00     0.076 C 
ATOM      6  C   UNL d   1      25.369 -15.571  -2.246  0.00  0.00     0.017 C 
BRANCH   6   7
ATOM      7  C   UNL d   1      24.408 -16.467  -1.537  0.00  0.00    -0.036 A 
ATOM      8  C   UNL d   1      24.743 -17.791  -1.189  0.00  0.00     0.013 A 
ATOM      9  C   UNL d   1      23.789 -18.674  -0.619  0.00  0.00     0.030 A 
ATOM     10  C   UNL d   1      22.487 -18.234  -0.364  0.00  0.00     0.034 A 
ATOM     11  C   UNL d   1      22.169 -16.914  -0.667  0.00  0.00     0.030 A 
ATOM     12  C   UNL d   1      23.111 -16.046  -1.229  0.00  0.00     0.013 A 
BRANCH  10  13
ATOM     13  N   UNL d   1      21.518 -19.078   0.235  0.00  0.00    -0.328 N 
ATOM     14  C   UNL d   1      20.501 -19.679  -0.497  0.00  0.00     0.218 C 
ATOM     15  C   UNL d   1      19.504 -20.471   0.311  0.00  0.00     0.117 C 
ATOM     16  O   UNL d   1      20.390 -19.631  -1.721  0.00  0.00    -0.274 OA
ATOM     17  H   UNL d   1      21.647 -19.332   1.206  0.00  0.00     0.169 HD
ENDBRANCH  10  13
ENDBRANCH   6   7
ENDBRANCH   1   5
BRANCH   3  18
ATOM     18  N   UNL d   1      26.475 -11.888  -5.304  0.00  0.00    -0.267 N 
ATOM     19  C   UNL d   1      25.981 -11.085  -6.318  0.00  0.00     0.236 C 
ATOM     20  O   UNL d   1      24.792 -11.111  -6.640  0.00  0.00    -0.272 OA
ATOM     21  H   UNL d   1      27.449 -11.904  -5.003  0.00  0.00     0.190 HD
BRANCH  19  22
ATOM     22  C   UNL d   1      27.008 -10.177  -7.003  0.00  0.00     0.105 C 
BRANCH  22  23
ATOM     23  C   UNL d   1      27.149  -8.837  -6.263  0.00  0.00     0.014 C 
BRANCH  23  24
ATOM     24  C   UNL d   1      26.519  -7.663  -7.014  0.00  0.00     0.039 C 
BRANCH  24  25
ATOM     25  C   UNL d   1      25.110  -7.395  -6.537  0.00  0.00    -0.058 A 
ATOM     26  C   UNL d   1      24.478  -8.283  -5.656  0.00  0.00     0.007 A 
ATOM     27  C   UNL d   1      23.158  -8.070  -5.260  0.00  0.00     0.001 A 
ATOM     28  C   UNL d   1      22.480  -6.928  -5.681  0.00  0.00     0.000 A 
ATOM     29  C   UNL d   1      23.107  -6.023  -6.536  0.00  0.00     0.001 A 
ATOM     30  C   UNL d   1      24.413  -6.260  -6.970  0.00  0.00     0.007 A 
ENDBRANCH  24  25
ENDBRANCH  23  24
ENDBRANCH  22  23
ENDBRANCH  19  22
ENDBRANCH   3  18
TORSDOF 8
ENDMDL
MODEL 6
REMARK VINA RESULT:    -8.198      2.381      4.213
REMARK INTER + INTRA:         -13.004
REMARK INTER:                 -10.584
REMARK INTRA:                  -2.420
REMARK CONF_INDEPENDENT:        2.386
REMARK UNBOUND:                -2.420
REMARK  8 active torsions:
REMARK  status: ('A' for Active; 'I' for Inactive)
REMARK       I    between atoms: C_2  and  N_4 
REMARK    1  A    between atoms: N_4  and  C_5 
REMARK    2  A    between atoms: C_8  and  C_9 
REMARK    3  A    between atoms: C_10  and  C_11 
REMARK       I    between atoms: C_11  and  N_13 
REMARK    4  A    between atoms: N_13  and  N_14 
REMARK       I    between atoms: N_14  and  C_15 
REMARK    5  A    between atoms: C_15  and  C_17 
REMARK    6  A    between atoms: C_17  and  C_18 
REMARK    7  A    between atoms: C_18  and  C_19 
REMARK    8  A    between atoms: C_19  and  C_20 
ROOT
ATOM      1  C   UNL d   1      26.557 -13.977  -2.771  0.00  0.00     0.259 C 
ATOM      2  O   UNL d   1      27.056 -12.972  -2.258  0.00  0.00    -0.267 OA
ATOM      3  N   UNL d   1      26.975 -14.480  -3.992  0.00  0.00    -0.264 N 
ATOM      4  H   UNL d   1      26.586 -15.308  -4.444  0.00  0.00     0.190 HD
ENDROOT
BRANCH   1   5
ATOM      5  C   UNL d   1      25.450 -14.744  -2.112  0.00  0.00     0.076 C 
ATOM      6  C   UNL d   1      25.574 -16.033  -1.720  0.00  0.00     0.017 C 
BRANCH   6   7
ATOM      7  C   UNL d   1      24.502 -16.867  -1.101  0.00  0.00    -0.036 A 
ATOM      8  C   UNL d   1      24.751 -18.176  -0.638  0.00  0.00     0.013 A 
ATOM      9  C   UNL d   1      23.705 -19.005  -0.156  0.00  0.00     0.030 A 
ATOM     10  C   UNL d   1      22.393 -18.526  -0.106  0.00  0.00     0.034 A 
ATOM     11  C   UNL d   1      22.155 -17.220  -0.520  0.00  0.00     0.030 A 
ATOM     12  C   UNL d   1      23.187 -16.404  -0.996  0.00  0.00     0.013 A 
BRANCH  10  13
ATOM     13  N   UNL d   1      21.330 -19.315   0.401  0.00  0.00    -0.328 N 
ATOM     14  C   UNL d   1      20.315 -19.805  -0.412  0.00  0.00     0.218 C 
ATOM     15  C   UNL d   1      19.215 -20.548   0.304  0.00  0.00     0.117 C 
ATOM     16  O   UNL d   1      20.280 -19.700  -1.637  0.00  0.00    -0.274 OA
ATOM     17  H   UNL d   1      21.382 -19.616   1.366  0.00  0.00     0.169 HD
ENDBRANCH  10  13
ENDBRANCH   6   7
ENDBRANCH   1   5
BRANCH   3  18
ATOM     18  N   UNL d   1      28.015 -13.820  -4.711  0.00  0.00    -0.267 N 
ATOM     19  C   UNL d   1      28.334 -14.254  -5.987  0.00  0.00     0.236 C 
ATOM     20  O   UNL d   1      27.744 -15.200  -6.513  0.00  0.00    -0.272 OA
ATOM     21  H   UNL d   1      28.474 -13.045  -4.234  0.00  0.00     0.190 HD
BRANCH  19  22
ATOM     22  C   UNL d   1      29.461 -13.485  -6.685  0.00  0.00     0.105 C 
BRANCH  22  23
ATOM     23  C   UNL d   1      28.981 -12.877  -8.013  0.00  0.00     0.014 C 
BRANCH  23  24
ATOM     24  C   UNL d   1      28.614 -11.396  -7.900  0.00  0.00     0.039 C 
BRANCH  24  25
ATOM     25  C   UNL d   1      27.914 -11.098  -6.594  0.00  0.00    -0.058 A 
ATOM     26  C   UNL d   1      28.630 -10.574  -5.509  0.00  0.00     0.007 A 
ATOM     27  C   UNL d   1      28.000 -10.352  -4.285  0.00  0.00     0.001 A 
ATOM     28  C   UNL d   1      26.633 -10.584  -4.153  0.00  0.00     0.000 A 
ATOM     29  C   UNL d   1      25.904 -11.080  -5.233  0.00  0.00     0.001 A 
ATOM     30  C   UNL d   1      26.543 -11.346  -6.445  0.00  0.00     0.007 A 
ENDBRANCH  24  25
ENDBRANCH  23  24
ENDBRANCH  22  23
ENDBRANCH  19  22
ENDBRANCH   3  18
TORSDOF 8
ENDMDL
MODEL 7
REMARK VINA RESULT:    -8.056      2.279      4.028
REMARK INTER + INTRA:         -13.092
REMARK INTER:                 -10.443
REMARK INTRA:                  -2.649
REMARK CONF_INDEPENDENT:        2.386
REMARK UNBOUND:                -2.649
REMARK  8 active torsions:
REMARK  status: ('A' for Active; 'I' for Inactive)
REMARK       I    between atoms: C_2  and  N_4 
REMARK    1  A    between atoms: N_4  and  C_5 
REMARK    2  A    between atoms: C_8  and  C_9 
REMARK    3  A    between atoms: C_10  and  C_11 
REMARK       I    between atoms: C_11  and  N_13 
REMARK    4  A    between atoms: N_13  and  N_14 
REMARK       I    between atoms: N_14  and  C_15 
REMARK    5  A    between atoms: C_15  and  C_17 
REMARK    6  A    between atoms: C_17  and  C_18 
REMARK    7  A    between atoms: C_18  and  C_19 
REMARK    8  A    between atoms: C_19  and  C_20 
ROOT
ATOM      1  C   UNL d   1      27.952 -15.416  -2.342  0.00  0.00     0.259 C 
ATOM      2  O   UNL d   1      28.740 -14.729  -1.687  0.00  0.00    -0.267 OA
ATOM      3  N   UNL d   1      27.950 -15.439  -3.728  0.00  0.00    -0.264 N 
ATOM      4  H   UNL d   1      27.315 -15.994  -4.300  0.00  0.00     0.190 HD
ENDROOT
BRANCH   1   5
ATOM      5  C   UNL d   1      26.921 -16.290  -1.691  0.00  0.00     0.076 C 
ATOM      6  C   UNL d   1      25.590 -16.077  -1.809  0.00  0.00     0.017 C 
BRANCH   6   7
ATOM      7  C   UNL d   1      24.514 -16.878  -1.153  0.00  0.00    -0.036 A 
ATOM      8  C   UNL d   1      24.745 -18.185  -0.676  0.00  0.00     0.013 A 
ATOM      9  C   UNL d   1      23.692 -18.983  -0.158  0.00  0.00     0.030 A 
ATOM     10  C   UNL d   1      22.392 -18.474  -0.086  0.00  0.00     0.034 A 
ATOM     11  C   UNL d   1      22.174 -17.169  -0.516  0.00  0.00     0.030 A 
ATOM     12  C   UNL d   1      23.213 -16.384  -1.026  0.00  0.00     0.013 A 
BRANCH  10  13
ATOM     13  N   UNL d   1      21.323 -19.231   0.456  0.00  0.00    -0.328 N 
ATOM     14  C   UNL d   1      20.303 -19.749  -0.333  0.00  0.00     0.218 C 
ATOM     15  C   UNL d   1      19.199 -20.451   0.416  0.00  0.00     0.117 C 
ATOM     16  O   UNL d   1      20.268 -19.698  -1.562  0.00  0.00    -0.274 OA
ATOM     17  H   UNL d   1      21.374 -19.489   1.433  0.00  0.00     0.169 HD
ENDBRANCH  10  13
ENDBRANCH   6   7
ENDBRANCH   1   5
BRANCH   3  18
ATOM     18  N   UNL d   1      28.881 -14.634  -4.449  0.00  0.00    -0.267 N 
ATOM     19  C   UNL d   1      28.793 -14.575  -5.830  0.00  0.00     0.236 C 
ATOM     20  O   UNL d   1      27.934 -15.204  -6.449  0.00  0.00    -0.272 OA
ATOM     21  H   UNL d   1      29.574 -14.134  -3.893  0.00  0.00     0.190 HD
BRANCH  19  22
ATOM     22  C   UNL d   1      29.832 -13.684  -6.522  0.00  0.00     0.105 C 
BRANCH  22  23
ATOM     23  C   UNL d   1      29.962 -12.327  -5.813  0.00  0.00     0.014 C 
BRANCH  23  24
ATOM     24  C   UNL d   1      28.694 -11.475  -5.904  0.00  0.00     0.039 C 
BRANCH  24  25
ATOM     25  C   UNL d   1      27.683 -11.877  -4.855  0.00  0.00    -0.058 A 
ATOM     26  C   UNL d   1      26.448 -12.421  -5.234  0.00  0.00     0.007 A 
ATOM     27  C   UNL d   1      25.488 -12.739  -4.273  0.00  0.00     0.001 A 
ATOM     28  C   UNL d   1      25.781 -12.585  -2.920  0.00  0.00     0.000 A 
ATOM     29  C   UNL d   1      27.016 -12.070  -2.529  0.00  0.00     0.001 A 
ATOM     30  C   UNL d   1      27.959 -11.708  -3.493  0.00  0.00     0.007 A 
ENDBRANCH  24  25
ENDBRANCH  23  24
ENDBRANCH  22  23
ENDBRANCH  19  22
ENDBRANCH   3  18
TORSDOF 8
ENDMDL
MODEL 8
REMARK VINA RESULT:    -7.479      2.833      3.851
REMARK INTER + INTRA:         -12.454
REMARK INTER:                  -9.865
REMARK INTRA:                  -2.588
REMARK CONF_INDEPENDENT:        2.386
REMARK UNBOUND:                -2.588
REMARK  8 active torsions:
REMARK  status: ('A' for Active; 'I' for Inactive)
REMARK       I    between atoms: C_2  and  N_4 
REMARK    1  A    between atoms: N_4  and  C_5 
REMARK    2  A    between atoms: C_8  and  C_9 
REMARK    3  A    between atoms: C_10  and  C_11 
REMARK       I    between atoms: C_11  and  N_13 
REMARK    4  A    between atoms: N_13  and  N_14 
REMARK       I    between atoms: N_14  and  C_15 
REMARK    5  A    between atoms: C_15  and  C_17 
REMARK    6  A    between atoms: C_17  and  C_18 
REMARK    7  A    between atoms: C_18  and  C_19 
REMARK    8  A    between atoms: C_19  and  C_20 
ROOT
ATOM      1  C   UNL d   1      27.622 -15.352  -1.960  0.00  0.00     0.259 C 
ATOM      2  O   UNL d   1      28.624 -15.774  -2.543  0.00  0.00    -0.267 OA
ATOM      3  N   UNL d   1      27.348 -14.000  -1.824  0.00  0.00    -0.264 N 
ATOM      4  H   UNL d   1      26.530 -13.618  -1.351  0.00  0.00     0.190 HD
ENDROOT
BRANCH   1   5
ATOM      5  C   UNL d   1      26.609 -16.271  -1.345  0.00  0.00     0.076 C 
ATOM      6  C   UNL d   1      25.297 -16.253  -1.676  0.00  0.00     0.017 C 
BRANCH   6   7
ATOM      7  C   UNL d   1      24.230 -17.106  -1.073  0.00  0.00    -0.036 A 
ATOM      8  C   UNL d   1      24.493 -18.412  -0.611  0.00  0.00     0.013 A 
ATOM      9  C   UNL d   1      23.454 -19.258  -0.145  0.00  0.00     0.030 A 
ATOM     10  C   UNL d   1      22.135 -18.800  -0.110  0.00  0.00     0.034 A 
ATOM     11  C   UNL d   1      21.882 -17.496  -0.523  0.00  0.00     0.030 A 
ATOM     12  C   UNL d   1      22.907 -16.663  -0.983  0.00  0.00     0.013 A 
BRANCH  10  13
ATOM     13  N   UNL d   1      21.077 -19.607   0.380  0.00  0.00    -0.328 N 
ATOM     14  C   UNL d   1      19.984 -19.957  -0.403  0.00  0.00     0.218 C 
ATOM     15  C   UNL d   1      18.908 -20.744   0.302  0.00  0.00     0.117 C 
ATOM     16  O   UNL d   1      19.864 -19.702  -1.601  0.00  0.00    -0.274 OA
ATOM     17  H   UNL d   1      21.186 -20.026   1.295  0.00  0.00     0.169 HD
ENDBRANCH  10  13
ENDBRANCH   6   7
ENDBRANCH   1   5
BRANCH   3  18
ATOM     18  N   UNL d   1      28.254 -13.038  -2.362  0.00  0.00    -0.267 N 
ATOM     19  C   UNL d   1      27.906 -11.698  -2.337  0.00  0.00     0.236 C 
ATOM     20  O   UNL d   1      26.832 -11.319  -1.867  0.00  0.00    -0.272 OA
ATOM     21  H   UNL d   1      29.127 -13.400  -2.741  0.00  0.00     0.190 HD
BRANCH  19  22
ATOM     22  C   UNL d   1      28.939 -10.735  -2.933  0.00  0.00     0.105 C 
BRANCH  22  23
ATOM     23  C   UNL d   1      29.015 -10.876  -4.462  0.00  0.00     0.014 C 
BRANCH  23  24
ATOM     24  C   UNL d   1      27.644 -11.033  -5.122  0.00  0.00     0.039 C 
BRANCH  24  25
ATOM     25  C   UNL d   1      27.193 -12.476  -5.120  0.00  0.00    -0.058 A 
ATOM     26  C   UNL d   1      25.911 -12.817  -4.666  0.00  0.00     0.007 A 
ATOM     27  C   UNL d   1      25.512 -14.152  -4.608  0.00  0.00     0.001 A 
ATOM     28  C   UNL d   1      26.362 -15.154  -5.072  0.00  0.00     0.000 A 
ATOM     29  C   UNL d   1      27.628 -14.824  -5.552  0.00  0.00     0.001 A 
ATOM     30  C   UNL d   1      28.046 -13.492  -5.567  0.00  0.00     0.007 A 
ENDBRANCH  24  25
ENDBRANCH  23  24
ENDBRANCH  22  23
ENDBRANCH  19  22
ENDBRANCH   3  18
TORSDOF 8
ENDMDL
