MODEL 1
REMARK VINA RESULT:    -8.685      0.000      0.000
REMARK INTER + INTRA:         -12.600
REMARK INTER:                 -11.071
REMARK INTRA:                  -1.529
REMARK CONF_INDEPENDENT:        2.386
REMARK UNBOUND:                -1.529
REMARK  8 active torsions:
REMARK  status: ('A' for Active; 'I' for Inactive)
REMARK    1  A    between atoms: C_3  and  C_4 
REMARK       I    between atoms: C_4  and  N_6 
REMARK    2  A    between atoms: N_6  and  C_7 
REMARK    3  A    between atoms: C_14  and  C_15 
REMARK    4  A    between atoms: C_18  and  O_19 
REMARK    5  A    between atoms: C_24  and  C_25 
REMARK    6  A    between atoms: C_25  and  C_26 
REMARK    7  A    between atoms: C_26  and  C_27 
REMARK    8  A    between atoms: C_27  and  O_28 
ROOT
ATOM      1  C   UNL d   1      28.946 -14.716   1.552  0.00  0.00     0.070 C 
ATOM      2  C   UNL d   1      27.806 -15.035   0.636  0.00  0.00     0.037 C 
ATOM      3  C   UNL d   1      27.186 -14.203  -0.244  0.00  0.00     0.062 C 
ATOM      4  C   UNL d   1      26.027 -14.785  -1.135  0.00  0.00     0.202 C 
ATOM      5  N   UNL d   1      25.566 -16.102  -0.643  0.00  0.00    -0.083 N 
ATOM      6  N   UNL d   1      24.439 -16.744  -1.035  0.00  0.00    -0.140 NA
ATOM      7  C   UNL d   1      24.568 -17.918  -0.389  0.00  0.00     0.166 A 
ATOM      8  N   UNL d   1      25.693 -18.023   0.399  0.00  0.00    -0.046 NA
ATOM      9  C   UNL d   1      26.282 -16.868   0.229  0.00  0.00     0.726 A 
ATOM     10  N   UNL d   1      27.405 -16.364   0.759  0.00  0.00    -0.192 N 
ATOM     11  H   UNL d   1      27.955 -16.967   1.366  0.00  0.00     0.184 HD
ENDROOT
BRANCH   3  12
ATOM     12  C   UNL d   1      27.470 -12.743  -0.572  0.00  0.00     0.256 C 
ATOM     13  O   UNL d   1      28.238 -12.139   0.158  0.00  0.00    -0.267 OA
ATOM     14  N   UNL d   1      26.833 -12.133  -1.638  0.00  0.00    -0.323 N 
ATOM     15  H   UNL d   1      26.070 -12.510  -2.131  0.00  0.00     0.169 HD
BRANCH  14  16
ATOM     16  C   UNL d   1      27.030 -10.835  -2.117  0.00  0.00     0.041 A 
ATOM     17  C   UNL d   1      27.381  -9.860  -1.161  0.00  0.00     0.030 A 
ATOM     18  C   UNL d   1      27.545  -8.535  -1.545  0.00  0.00     0.002 A 
ATOM     19  C   UNL d   1      27.302  -8.186  -2.869  0.00  0.00     0.001 A 
ATOM     20  C   UNL d   1      26.854  -9.144  -3.788  0.00  0.00     0.009 A 
ATOM     21  C   UNL d   1      26.694 -10.481  -3.420  0.00  0.00    -0.035 A 
ATOM     22  C   UNL d   1      26.033 -11.454  -4.357  0.00  0.00     0.050 C 
ENDBRANCH  14  16
ENDBRANCH   3  12
BRANCH   4  23
ATOM     23  C   UNL d   1      26.454 -14.947  -2.597  0.00  0.00    -0.028 A 
ATOM     24  C   UNL d   1      25.520 -14.766  -3.634  0.00  0.00     0.012 A 
ATOM     25  C   UNL d   1      25.906 -14.854  -4.971  0.00  0.00     0.037 A 
ATOM     26  C   UNL d   1      27.230 -15.136  -5.280  0.00  0.00     0.065 A 
ATOM     27  C   UNL d   1      28.164 -15.357  -4.274  0.00  0.00     0.037 A 
ATOM     28  C   UNL d   1      27.781 -15.265  -2.934  0.00  0.00     0.012 A 
BRANCH  26  29
ATOM     29  O   UNL d   1      27.663 -15.200  -6.571  0.00  0.00    -0.361 OA
ATOM     30  H   UNL d   1      27.777 -14.297  -6.907  0.00  0.00     0.217 HD
ENDBRANCH  26  29
ENDBRANCH   4  23
BRANCH   7  31
ATOM     31  C   UNL d   1      23.574 -19.036  -0.471  0.00  0.00     0.085 C 
BRANCH  31  32
ATOM     32  C   UNL d   1      22.175 -18.646   0.003  0.00  0.00     0.034 C 
BRANCH  32  33
ATOM     33  C   UNL d   1      21.106 -18.900  -1.050  0.00  0.00     0.164 C 
BRANCH  33  34
ATOM     34  O   UNL d   1      20.045 -17.964  -0.895  0.00  0.00    -0.401 OA
ATOM     35  H   UNL d   1      19.999 -17.432  -1.709  0.00  0.00     0.209 HD
ENDBRANCH  33  34
ENDBRANCH  32  33
ENDBRANCH  31  32
ENDBRANCH   7  31
TORSDOF 8
ENDMDL
MODEL 2
REMARK VINA RESULT:    -8.479      2.808      5.218
REMARK INTER + INTRA:         -12.300
REMARK INTER:                 -10.865
REMARK INTRA:                  -1.434
REMARK CONF_INDEPENDENT:        2.386
REMARK UNBOUND:                -1.434
REMARK  8 active torsions:
REMARK  status: ('A' for Active; 'I' for Inactive)
REMARK    1  A    between atoms: C_3  and  C_4 
REMARK       I    between atoms: C_4  and  N_6 
REMARK    2  A    between atoms: N_6  and  C_7 
REMARK    3  A    between atoms: C_14  and  C_15 
REMARK    4  A    between atoms: C_18  and  O_19 
REMARK    5  A    between atoms: C_24  and  C_25 
REMARK    6  A    between atoms: C_25  and  C_26 
REMARK    7  A    between atoms: C_26  and  C_27 
REMARK    8  A    between atoms: C_27  and  O_28 
ROOT
ATOM      1  C   UNL d   1      24.834 -13.414  -4.172  0.00  0.00     0.070 C 
ATOM      2  C   UNL d   1      25.144 -14.523  -3.217  0.00  0.00     0.037 C 
ATOM      3  C   UNL d   1      26.320 -15.192  -3.069  0.00  0.00     0.062 C 
ATOM      4  C   UNL d   1      26.415 -16.301  -1.958  0.00  0.00     0.202 C 
ATOM      5  N   UNL d   1      25.081 -16.675  -1.439  0.00  0.00    -0.083 N 
ATOM      6  N   UNL d   1      24.804 -17.752  -0.665  0.00  0.00    -0.140 NA
ATOM      7  C   UNL d   1      23.503 -17.548  -0.386  0.00  0.00     0.166 A 
ATOM      8  N   UNL d   1      22.958 -16.424  -0.968  0.00  0.00    -0.046 NA
ATOM      9  C   UNL d   1      23.965 -15.915  -1.628  0.00  0.00     0.726 A 
ATOM     10  N   UNL d   1      24.046 -14.833  -2.415  0.00  0.00    -0.192 N 
ATOM     11  H   UNL d   1      23.220 -14.247  -2.504  0.00  0.00     0.184 HD
ENDROOT
BRANCH   3  12
ATOM     12  C   UNL d   1      27.646 -15.006  -3.796  0.00  0.00     0.256 C 
ATOM     13  O   UNL d   1      28.498 -14.325  -3.251  0.00  0.00    -0.267 OA
ATOM     14  N   UNL d   1      27.836 -15.563  -5.048  0.00  0.00    -0.323 N 
ATOM     15  H   UNL d   1      27.126 -15.950  -5.608  0.00  0.00     0.169 HD
BRANCH  14  16
ATOM     16  C   UNL d   1      29.003 -15.551  -5.816  0.00  0.00     0.041 A 
ATOM     17  C   UNL d   1      29.909 -16.610  -5.598  0.00  0.00     0.030 A 
ATOM     18  C   UNL d   1      31.116 -16.646  -6.283  0.00  0.00     0.002 A 
ATOM     19  C   UNL d   1      31.434 -15.596  -7.137  0.00  0.00     0.001 A 
ATOM     20  C   UNL d   1      30.574 -14.498  -7.268  0.00  0.00     0.009 A 
ATOM     21  C   UNL d   1      29.351 -14.451  -6.594  0.00  0.00    -0.035 A 
ATOM     22  C   UNL d   1      28.532 -13.191  -6.592  0.00  0.00     0.050 C 
ENDBRANCH  14  16
ENDBRANCH   3  12
BRANCH   4  23
ATOM     23  C   UNL d   1      27.277 -15.853  -0.773  0.00  0.00    -0.028 A 
ATOM     24  C   UNL d   1      28.674 -16.022  -0.806  0.00  0.00     0.012 A 
ATOM     25  C   UNL d   1      29.476 -15.567   0.240  0.00  0.00     0.037 A 
ATOM     26  C   UNL d   1      28.885 -14.950   1.334  0.00  0.00     0.065 A 
ATOM     27  C   UNL d   1      27.504 -14.806   1.409  0.00  0.00     0.037 A 
ATOM     28  C   UNL d   1      26.698 -15.256   0.360  0.00  0.00     0.012 A 
BRANCH  26  29
ATOM     29  O   UNL d   1      29.629 -14.460   2.365  0.00  0.00    -0.361 OA
ATOM     30  H   UNL d   1      29.936 -15.204   2.908  0.00  0.00     0.217 HD
ENDBRANCH  26  29
ENDBRANCH   4  23
BRANCH   7  31
ATOM     31  C   UNL d   1      22.672 -18.462   0.461  0.00  0.00     0.085 C 
BRANCH  31  32
ATOM     32  C   UNL d   1      21.822 -19.440  -0.349  0.00  0.00     0.034 C 
BRANCH  32  33
ATOM     33  C   UNL d   1      20.834 -18.737  -1.268  0.00  0.00     0.164 C 
BRANCH  33  34
ATOM     34  O   UNL d   1      20.091 -19.701  -2.005  0.00  0.00    -0.401 OA
ATOM     35  H   UNL d   1      19.907 -19.324  -2.884  0.00  0.00     0.209 HD
ENDBRANCH  33  34
ENDBRANCH  32  33
ENDBRANCH  31  32
ENDBRANCH   7  31
TORSDOF 8
ENDMDL
MODEL 3
REMARK VINA RESULT:    -8.413      1.587      2.293
REMARK INTER + INTRA:         -12.113
REMARK INTER:                 -10.799
REMARK INTRA:                  -1.314
REMARK CONF_INDEPENDENT:        2.386
REMARK UNBOUND:                -1.314
REMARK  8 active torsions:
REMARK  status: ('A' for Active; 'I' for Inactive)
REMARK    1  A    between atoms: C_3  and  C_4 
REMARK       I    between atoms: C_4  and  N_6 
REMARK    2  A    between atoms: N_6  and  C_7 
REMARK    3  A    between atoms: C_14  and  C_15 
REMARK    4  A    between atoms: C_18  and  O_19 
REMARK    5  A    between atoms: C_24  and  C_25 
REMARK    6  A    between atoms: C_25  and  C_26 
REMARK    7  A    between atoms: C_26  and  C_27 
REMARK    8  A    between atoms: C_27  and  O_28 
ROOT
ATOM      1  C   UNL d   1      28.897 -14.695   1.639  0.00  0.00     0.070 C 
ATOM      2  C   UNL d   1      27.756 -14.978   0.713  0.00  0.00     0.037 C 
ATOM      3  C   UNL d   1      27.130 -14.111  -0.129  0.00  0.00     0.062 C 
ATOM      4  C   UNL d   1      25.972 -14.660  -1.041  0.00  0.00     0.202 C 
ATOM      5  N   UNL d   1      25.517 -15.999  -0.606  0.00  0.00    -0.083 N 
ATOM      6  N   UNL d   1      24.392 -16.628  -1.023  0.00  0.00    -0.140 NA
ATOM      7  C   UNL d   1      24.527 -17.829  -0.429  0.00  0.00     0.166 A 
ATOM      8  N   UNL d   1      25.655 -17.963   0.352  0.00  0.00    -0.046 NA
ATOM      9  C   UNL d   1      26.238 -16.799   0.230  0.00  0.00     0.726 A 
ATOM     10  N   UNL d   1      27.361 -16.314   0.779  0.00  0.00    -0.192 N 
ATOM     11  H   UNL d   1      27.915 -16.939   1.358  0.00  0.00     0.184 HD
ENDROOT
BRANCH   3  12
ATOM     12  C   UNL d   1      27.407 -12.637  -0.394  0.00  0.00     0.256 C 
ATOM     13  O   UNL d   1      27.448 -12.270  -1.556  0.00  0.00    -0.267 OA
ATOM     14  N   UNL d   1      27.646 -11.775   0.660  0.00  0.00    -0.323 N 
ATOM     15  H   UNL d   1      27.816 -12.051   1.590  0.00  0.00     0.169 HD
BRANCH  14  16
ATOM     16  C   UNL d   1      27.844 -10.393   0.601  0.00  0.00     0.041 A 
ATOM     17  C   UNL d   1      28.953  -9.949  -0.149  0.00  0.00     0.030 A 
ATOM     18  C   UNL d   1      29.251  -8.595  -0.218  0.00  0.00     0.002 A 
ATOM     19  C   UNL d   1      28.473  -7.700   0.509  0.00  0.00     0.001 A 
ATOM     20  C   UNL d   1      27.437  -8.160   1.332  0.00  0.00     0.009 A 
ATOM     21  C   UNL d   1      27.118  -9.518   1.404  0.00  0.00    -0.035 A 
ATOM     22  C   UNL d   1      26.140 -10.016   2.431  0.00  0.00     0.050 C 
ENDBRANCH  14  16
ENDBRANCH   3  12
BRANCH   4  23
ATOM     23  C   UNL d   1      26.395 -14.757  -2.510  0.00  0.00    -0.028 A 
ATOM     24  C   UNL d   1      27.679 -15.223  -2.850  0.00  0.00     0.012 A 
ATOM     25  C   UNL d   1      28.059 -15.371  -4.184  0.00  0.00     0.037 A 
ATOM     26  C   UNL d   1      27.159 -15.042  -5.188  0.00  0.00     0.065 A 
ATOM     27  C   UNL d   1      25.898 -14.543  -4.880  0.00  0.00     0.037 A 
ATOM     28  C   UNL d   1      25.514 -14.398  -3.544  0.00  0.00     0.012 A 
BRANCH  26  29
ATOM     29  O   UNL d   1      27.472 -15.200  -6.506  0.00  0.00    -0.361 OA
ATOM     30  H   UNL d   1      27.912 -14.394  -6.820  0.00  0.00     0.217 HD
ENDBRANCH  26  29
ENDBRANCH   4  23
BRANCH   7  31
ATOM     31  C   UNL d   1      23.538 -18.946  -0.557  0.00  0.00     0.085 C 
BRANCH  31  32
ATOM     32  C   UNL d   1      22.134 -18.578  -0.080  0.00  0.00     0.034 C 
BRANCH  32  33
ATOM     33  C   UNL d   1      21.052 -18.983  -1.069  0.00  0.00     0.164 C 
BRANCH  33  34
ATOM     34  O   UNL d   1      19.913 -18.145  -0.909  0.00  0.00    -0.401 OA
ATOM     35  H   UNL d   1      19.918 -17.497  -1.635  0.00  0.00     0.209 HD
ENDBRANCH  33  34
ENDBRANCH  32  33
ENDBRANCH  31  32
ENDBRANCH   7  31
TORSDOF 8
ENDMDL
MODEL 4
REMARK VINA RESULT:    -8.351      3.853      6.984
REMARK INTER + INTRA:         -12.683
REMARK INTER:                 -10.738
REMARK INTRA:                  -1.945
REMARK CONF_INDEPENDENT:        2.386
REMARK UNBOUND:                -1.945
REMARK  8 active torsions:
REMARK  status: ('A' for Active; 'I' for Inactive)
REMARK    1  A    between atoms: C_3  and  C_4 
REMARK       I    between atoms: C_4  and  N_6 
REMARK    2  A    between atoms: N_6  and  C_7 
REMARK    3  A    between atoms: C_14  and  C_15 
REMARK    4  A    between atoms: C_18  and  O_19 
REMARK    5  A    between atoms: C_24  and  C_25 
REMARK    6  A    between atoms: C_25  and  C_26 
REMARK    7  A    between atoms: C_26  and  C_27 
REMARK    8  A    between atoms: C_27  and  O_28 
ROOT
ATOM      1  C   UNL d   1      31.575 -17.082  -0.568  0.00  0.00     0.070 C 
ATOM      2  C   UNL d   1      30.258 -16.395  -0.387  0.00  0.00     0.037 C 
ATOM      3  C   UNL d   1      29.276 -16.217  -1.311  0.00  0.00     0.062 C 
ATOM      4  C   UNL d   1      27.953 -15.492  -0.866  0.00  0.00     0.202 C 
ATOM      5  N   UNL d   1      28.108 -14.818   0.442  0.00  0.00    -0.083 N 
ATOM      6  N   UNL d   1      27.248 -13.920   0.978  0.00  0.00    -0.140 NA
ATOM      7  C   UNL d   1      27.792 -13.730   2.195  0.00  0.00     0.166 A 
ATOM      8  N   UNL d   1      28.952 -14.437   2.426  0.00  0.00    -0.046 NA
ATOM      9  C   UNL d   1      29.126 -15.091   1.307  0.00  0.00     0.726 A 
ATOM     10  N   UNL d   1      30.100 -15.925   0.917  0.00  0.00    -0.192 N 
ATOM     11  H   UNL d   1      30.824 -16.159   1.591  0.00  0.00     0.184 HD
ENDROOT
BRANCH   3  12
ATOM     12  C   UNL d   1      29.211 -16.668  -2.765  0.00  0.00     0.256 C 
ATOM     13  O   UNL d   1      28.241 -16.325  -3.420  0.00  0.00    -0.267 OA
ATOM     14  N   UNL d   1      30.205 -17.475  -3.286  0.00  0.00    -0.323 N 
ATOM     15  H   UNL d   1      30.896 -17.934  -2.758  0.00  0.00     0.169 HD
BRANCH  14  16
ATOM     16  C   UNL d   1      30.337 -17.917  -4.606  0.00  0.00     0.041 A 
ATOM     17  C   UNL d   1      30.417 -19.312  -4.795  0.00  0.00     0.030 A 
ATOM     18  C   UNL d   1      30.600 -19.833  -6.070  0.00  0.00     0.002 A 
ATOM     19  C   UNL d   1      30.759 -18.954  -7.136  0.00  0.00     0.001 A 
ATOM     20  C   UNL d   1      30.780 -17.570  -6.922  0.00  0.00     0.009 A 
ATOM     21  C   UNL d   1      30.588 -17.030  -5.649  0.00  0.00    -0.035 A 
ATOM     22  C   UNL d   1      30.805 -15.564  -5.403  0.00  0.00     0.050 C 
ENDBRANCH  14  16
ENDBRANCH   3  12
BRANCH   4  23
ATOM     23  C   UNL d   1      26.773 -16.464  -0.762  0.00  0.00    -0.028 A 
ATOM     24  C   UNL d   1      26.872 -17.618   0.038  0.00  0.00     0.012 A 
ATOM     25  C   UNL d   1      25.788 -18.482   0.188  0.00  0.00     0.037 A 
ATOM     26  C   UNL d   1      24.599 -18.203  -0.470  0.00  0.00     0.065 A 
ATOM     27  C   UNL d   1      24.487 -17.091  -1.297  0.00  0.00     0.037 A 
ATOM     28  C   UNL d   1      25.570 -16.221  -1.446  0.00  0.00     0.012 A 
BRANCH  26  29
ATOM     29  O   UNL d   1      23.502 -19.000  -0.330  0.00  0.00    -0.361 OA
ATOM     30  H   UNL d   1      23.468 -19.325   0.584  0.00  0.00     0.217 HD
ENDBRANCH  26  29
ENDBRANCH   4  23
BRANCH   7  31
ATOM     31  C   UNL d   1      27.228 -12.808   3.233  0.00  0.00     0.085 C 
BRANCH  31  32
ATOM     32  C   UNL d   1      27.781 -13.056   4.635  0.00  0.00     0.034 C 
BRANCH  32  33
ATOM     33  C   UNL d   1      27.570 -14.488   5.105  0.00  0.00     0.164 C 
BRANCH  33  34
ATOM     34  O   UNL d   1      28.811 -15.184   5.102  0.00  0.00    -0.401 OA
ATOM     35  H   UNL d   1      28.907 -15.614   4.235  0.00  0.00     0.209 HD
ENDBRANCH  33  34
ENDBRANCH  32  33
ENDBRANCH  31  32
ENDBRANCH   7  31
TORSDOF 8
ENDMDL
MODEL 5
REMARK VINA RESULT:    -8.172      3.609      7.096
REMARK INTER + INTRA:         -11.881
REMARK INTER:                 -10.558
REMARK INTRA:                  -1.323
REMARK CONF_INDEPENDENT:        2.386
REMARK UNBOUND:                -1.323
REMARK  8 active torsions:
REMARK  status: ('A' for Active; 'I' for Inactive)
REMARK    1  A    between atoms: C_3  and  C_4 
REMARK       I    between atoms: C_4  and  N_6 
REMARK    2  A    between atoms: N_6  and  C_7 
REMARK    3  A    between atoms: C_14  and  C_15 
REMARK    4  A    between atoms: C_18  and  O_19 
REMARK    5  A    between atoms: C_24  and  C_25 
REMARK    6  A    between atoms: C_25  and  C_26 
REMARK    7  A    between atoms: C_26  and  C_27 
REMARK    8  A    between atoms: C_27  and  O_28 
ROOT
ATOM      1  C   UNL d   1      31.459 -16.931  -0.461  0.00  0.00     0.070 C 
ATOM      2  C   UNL d   1      30.136 -16.249  -0.312  0.00  0.00     0.037 C 
ATOM      3  C   UNL d   1      29.166 -16.095  -1.254  0.00  0.00     0.062 C 
ATOM      4  C   UNL d   1      27.832 -15.371  -0.842  0.00  0.00     0.202 C 
ATOM      5  N   UNL d   1      27.964 -14.671   0.455  0.00  0.00    -0.083 N 
ATOM      6  N   UNL d   1      27.091 -13.768   0.961  0.00  0.00    -0.140 NA
ATOM      7  C   UNL d   1      27.615 -13.550   2.181  0.00  0.00     0.166 A 
ATOM      8  N   UNL d   1      28.776 -14.245   2.443  0.00  0.00    -0.046 NA
ATOM      9  C   UNL d   1      28.971 -14.920   1.340  0.00  0.00     0.726 A 
ATOM     10  N   UNL d   1      29.956 -15.755   0.979  0.00  0.00    -0.192 N 
ATOM     11  H   UNL d   1      30.671 -15.971   1.669  0.00  0.00     0.184 HD
ENDROOT
BRANCH   3  12
ATOM     12  C   UNL d   1      29.125 -16.575  -2.699  0.00  0.00     0.256 C 
ATOM     13  O   UNL d   1      28.145 -16.283  -3.363  0.00  0.00    -0.267 OA
ATOM     14  N   UNL d   1      30.152 -17.352  -3.202  0.00  0.00    -0.323 N 
ATOM     15  H   UNL d   1      30.859 -17.774  -2.663  0.00  0.00     0.169 HD
BRANCH  14  16
ATOM     16  C   UNL d   1      30.307 -17.812  -4.513  0.00  0.00     0.041 A 
ATOM     17  C   UNL d   1      30.404 -19.210  -4.680  0.00  0.00     0.030 A 
ATOM     18  C   UNL d   1      30.611 -19.747  -5.943  0.00  0.00     0.002 A 
ATOM     19  C   UNL d   1      30.774 -18.884  -7.021  0.00  0.00     0.001 A 
ATOM     20  C   UNL d   1      30.778 -17.496  -6.828  0.00  0.00     0.009 A 
ATOM     21  C   UNL d   1      30.562 -16.939  -5.566  0.00  0.00    -0.035 A 
ATOM     22  C   UNL d   1      30.760 -15.467  -5.340  0.00  0.00     0.050 C 
ENDBRANCH  14  16
ENDBRANCH   3  12
BRANCH   4  23
ATOM     23  C   UNL d   1      26.657 -16.349  -0.735  0.00  0.00    -0.028 A 
ATOM     24  C   UNL d   1      26.748 -17.480   0.097  0.00  0.00     0.012 A 
ATOM     25  C   UNL d   1      25.667 -18.348   0.249  0.00  0.00     0.037 A 
ATOM     26  C   UNL d   1      24.489 -18.096  -0.442  0.00  0.00     0.065 A 
ATOM     27  C   UNL d   1      24.387 -17.007  -1.301  0.00  0.00     0.037 A 
ATOM     28  C   UNL d   1      25.467 -16.133  -1.450  0.00  0.00     0.012 A 
BRANCH  26  29
ATOM     29  O   UNL d   1      23.395 -18.896  -0.302  0.00  0.00    -0.361 OA
ATOM     30  H   UNL d   1      23.540 -19.494   0.449  0.00  0.00     0.217 HD
ENDBRANCH  26  29
ENDBRANCH   4  23
BRANCH   7  31
ATOM     31  C   UNL d   1      27.030 -12.613   3.193  0.00  0.00     0.085 C 
BRANCH  31  32
ATOM     32  C   UNL d   1      27.099 -11.144   2.777  0.00  0.00     0.034 C 
BRANCH  32  33
ATOM     33  C   UNL d   1      27.595 -10.240   3.895  0.00  0.00     0.164 C 
BRANCH  33  34
ATOM     34  O   UNL d   1      26.653  -9.200   4.128  0.00  0.00    -0.401 OA
ATOM     35  H   UNL d   1      26.502  -9.148   5.089  0.00  0.00     0.209 HD
ENDBRANCH  33  34
ENDBRANCH  32  33
ENDBRANCH  31  32
ENDBRANCH   7  31
TORSDOF 8
ENDMDL
MODEL 6
REMARK VINA RESULT:    -7.556      3.706      6.759
REMARK INTER + INTRA:         -11.728
REMARK INTER:                  -9.942
REMARK INTRA:                  -1.786
REMARK CONF_INDEPENDENT:        2.386
REMARK UNBOUND:                -1.786
REMARK  8 active torsions:
REMARK  status: ('A' for Active; 'I' for Inactive)
REMARK    1  A    between atoms: C_3  and  C_4 
REMARK       I    between atoms: C_4  and  N_6 
REMARK    2  A    between atoms: N_6  and  C_7 
REMARK    3  A    between atoms: C_14  and  C_15 
REMARK    4  A    between atoms: C_18  and  O_19 
REMARK    5  A    between atoms: C_24  and  C_25 
REMARK    6  A    between atoms: C_25  and  C_26 
REMARK    7  A    between atoms: C_26  and  C_27 
REMARK    8  A    between atoms: C_27  and  O_28 
ROOT
ATOM      1  C   UNL d   1      30.377 -18.571  -0.919  0.00  0.00     0.070 C 
ATOM      2  C   UNL d   1      29.839 -17.176  -0.944  0.00  0.00     0.037 C 
ATOM      3  C   UNL d   1      29.886 -16.282  -1.970  0.00  0.00     0.062 C 
ATOM      4  C   UNL d   1      29.209 -14.876  -1.769  0.00  0.00     0.202 C 
ATOM      5  N   UNL d   1      28.889 -14.619  -0.347  0.00  0.00    -0.083 N 
ATOM      6  N   UNL d   1      28.531 -13.424   0.181  0.00  0.00    -0.140 NA
ATOM      7  C   UNL d   1      28.242 -13.773   1.448  0.00  0.00     0.166 A 
ATOM      8  N   UNL d   1      28.430 -15.107   1.737  0.00  0.00    -0.046 NA
ATOM      9  C   UNL d   1      28.848 -15.599   0.600  0.00  0.00     0.726 A 
ATOM     10  N   UNL d   1      29.224 -16.841   0.261  0.00  0.00    -0.192 N 
ATOM     11  H   UNL d   1      29.138 -17.570   0.964  0.00  0.00     0.184 HD
ENDROOT
BRANCH   3  12
ATOM     12  C   UNL d   1      30.465 -16.434  -3.370  0.00  0.00     0.256 C 
ATOM     13  O   UNL d   1      31.206 -15.553  -3.774  0.00  0.00    -0.267 OA
ATOM     14  N   UNL d   1      30.113 -17.518  -4.153  0.00  0.00    -0.323 N 
ATOM     15  H   UNL d   1      29.381 -18.145  -3.955  0.00  0.00     0.169 HD
BRANCH  14  16
ATOM     16  C   UNL d   1      30.602 -17.847  -5.421  0.00  0.00     0.041 A 
ATOM     17  C   UNL d   1      30.691 -16.792  -6.352  0.00  0.00     0.030 A 
ATOM     18  C   UNL d   1      31.118 -17.041  -7.649  0.00  0.00     0.002 A 
ATOM     19  C   UNL d   1      31.400 -18.351  -8.022  0.00  0.00     0.001 A 
ATOM     20  C   UNL d   1      31.211 -19.406  -7.119  0.00  0.00     0.009 A 
ATOM     21  C   UNL d   1      30.791 -19.170  -5.808  0.00  0.00    -0.035 A 
ATOM     22  C   UNL d   1      30.408 -20.316  -4.914  0.00  0.00     0.050 C 
ENDBRANCH  14  16
ENDBRANCH   3  12
BRANCH   4  23
ATOM     23  C   UNL d   1      27.915 -14.743  -2.578  0.00  0.00    -0.028 A 
ATOM     24  C   UNL d   1      26.830 -15.605  -2.332  0.00  0.00     0.012 A 
ATOM     25  C   UNL d   1      25.627 -15.459  -3.020  0.00  0.00     0.037 A 
ATOM     26  C   UNL d   1      25.503 -14.453  -3.969  0.00  0.00     0.065 A 
ATOM     27  C   UNL d   1      26.572 -13.612  -4.259  0.00  0.00     0.037 A 
ATOM     28  C   UNL d   1      27.777 -13.754  -3.567  0.00  0.00     0.012 A 
BRANCH  26  29
ATOM     29  O   UNL d   1      24.337 -14.249  -4.645  0.00  0.00    -0.361 OA
ATOM     30  H   UNL d   1      24.408 -13.422  -5.146  0.00  0.00     0.217 HD
ENDBRANCH  26  29
ENDBRANCH   4  23
BRANCH   7  31
ATOM     31  C   UNL d   1      27.778 -12.812   2.500  0.00  0.00     0.085 C 
BRANCH  31  32
ATOM     32  C   UNL d   1      27.242 -13.494   3.757  0.00  0.00     0.034 C 
BRANCH  32  33
ATOM     33  C   UNL d   1      28.336 -14.163   4.575  0.00  0.00     0.164 C 
BRANCH  33  34
ATOM     34  O   UNL d   1      28.172 -15.576   4.537  0.00  0.00    -0.401 OA
ATOM     35  H   UNL d   1      28.882 -15.942   3.981  0.00  0.00     0.209 HD
ENDBRANCH  33  34
ENDBRANCH  32  33
ENDBRANCH  31  32
ENDBRANCH   7  31
TORSDOF 8
ENDMDL
MODEL 7
REMARK VINA RESULT:    -7.452      3.514      8.223
REMARK INTER + INTRA:         -11.617
REMARK INTER:                  -9.838
REMARK INTRA:                  -1.779
REMARK CONF_INDEPENDENT:        2.386
REMARK UNBOUND:                -1.779
REMARK  8 active torsions:
REMARK  status: ('A' for Active; 'I' for Inactive)
REMARK    1  A    between atoms: C_3  and  C_4 
REMARK       I    between atoms: C_4  and  N_6 
REMARK    2  A    between atoms: N_6  and  C_7 
REMARK    3  A    between atoms: C_14  and  C_15 
REMARK    4  A    between atoms: C_18  and  O_19 
REMARK    5  A    between atoms: C_24  and  C_25 
REMARK    6  A    between atoms: C_25  and  C_26 
REMARK    7  A    between atoms: C_26  and  C_27 
REMARK    8  A    between atoms: C_27  and  O_28 
ROOT
ATOM      1  C   UNL d   1      29.412 -15.978  -3.108  0.00  0.00     0.070 C 
ATOM      2  C   UNL d   1      28.787 -15.063  -4.112  0.00  0.00     0.037 C 
ATOM      3  C   UNL d   1      27.462 -14.812  -4.302  0.00  0.00     0.062 C 
ATOM      4  C   UNL d   1      27.049 -13.770  -5.405  0.00  0.00     0.202 C 
ATOM      5  N   UNL d   1      28.177 -13.446  -6.305  0.00  0.00    -0.083 N 
ATOM      6  N   UNL d   1      28.087 -12.781  -7.482  0.00  0.00    -0.140 NA
ATOM      7  C   UNL d   1      29.385 -12.654  -7.813  0.00  0.00     0.166 A 
ATOM      8  N   UNL d   1      30.266 -13.227  -6.922  0.00  0.00    -0.046 NA
ATOM      9  C   UNL d   1      29.478 -13.723  -6.004  0.00  0.00     0.726 A 
ATOM     10  N   UNL d   1      29.749 -14.425  -4.895  0.00  0.00    -0.192 N 
ATOM     11  H   UNL d   1      30.725 -14.579  -4.657  0.00  0.00     0.184 HD
ENDROOT
BRANCH   3  12
ATOM     12  C   UNL d   1      26.251 -15.356  -3.556  0.00  0.00     0.256 C 
ATOM     13  O   UNL d   1      25.155 -15.200  -4.069  0.00  0.00    -0.267 OA
ATOM     14  N   UNL d   1      26.408 -15.960  -2.322  0.00  0.00    -0.323 N 
ATOM     15  H   UNL d   1      27.230 -15.938  -1.782  0.00  0.00     0.169 HD
BRANCH  14  16
ATOM     16  C   UNL d   1      25.422 -16.571  -1.542  0.00  0.00     0.041 A 
ATOM     17  C   UNL d   1      24.116 -16.052  -1.661  0.00  0.00     0.030 A 
ATOM     18  C   UNL d   1      23.088 -16.568  -0.884  0.00  0.00     0.002 A 
ATOM     19  C   UNL d   1      23.383 -17.559   0.045  0.00  0.00     0.001 A 
ATOM     20  C   UNL d   1      24.702 -17.996   0.228  0.00  0.00     0.009 A 
ATOM     21  C   UNL d   1      25.745 -17.494  -0.553  0.00  0.00    -0.035 A 
ATOM     22  C   UNL d   1      27.173 -17.826  -0.218  0.00  0.00     0.050 C 
ENDBRANCH  14  16
ENDBRANCH   3  12
BRANCH   4  23
ATOM     23  C   UNL d   1      26.538 -12.461  -4.794  0.00  0.00    -0.028 A 
ATOM     24  C   UNL d   1      26.672 -12.221  -3.414  0.00  0.00     0.012 A 
ATOM     25  C   UNL d   1      26.264 -11.012  -2.852  0.00  0.00     0.037 A 
ATOM     26  C   UNL d   1      25.707 -10.036  -3.668  0.00  0.00     0.065 A 
ATOM     27  C   UNL d   1      25.528 -10.263  -5.028  0.00  0.00     0.037 A 
ATOM     28  C   UNL d   1      25.940 -11.472  -5.593  0.00  0.00     0.012 A 
BRANCH  26  29
ATOM     29  O   UNL d   1      25.323  -8.826  -3.172  0.00  0.00    -0.361 OA
ATOM     30  H   UNL d   1      24.411  -8.650  -3.453  0.00  0.00     0.217 HD
ENDBRANCH  26  29
ENDBRANCH   4  23
BRANCH   7  31
ATOM     31  C   UNL d   1      29.873 -11.976  -9.056  0.00  0.00     0.085 C 
BRANCH  31  32
ATOM     32  C   UNL d   1      31.283 -11.402  -8.926  0.00  0.00     0.034 C 
BRANCH  32  33
ATOM     33  C   UNL d   1      32.363 -12.469  -9.028  0.00  0.00     0.164 C 
BRANCH  33  34
ATOM     34  O   UNL d   1      31.786 -13.701  -9.445  0.00  0.00    -0.401 OA
ATOM     35  H   UNL d   1      31.074 -13.921  -8.819  0.00  0.00     0.209 HD
ENDBRANCH  33  34
ENDBRANCH  32  33
ENDBRANCH  31  32
ENDBRANCH   7  31
TORSDOF 8
ENDMDL
MODEL 8
REMARK VINA RESULT:    -7.354      3.350      6.012
REMARK INTER + INTRA:         -11.679
REMARK INTER:                  -9.740
REMARK INTRA:                  -1.939
REMARK CONF_INDEPENDENT:        2.386
REMARK UNBOUND:                -1.939
REMARK  8 active torsions:
REMARK  status: ('A' for Active; 'I' for Inactive)
REMARK    1  A    between atoms: C_3  and  C_4 
REMARK       I    between atoms: C_4  and  N_6 
REMARK    2  A    between atoms: N_6  and  C_7 
REMARK    3  A    between atoms: C_14  and  C_15 
REMARK    4  A    between atoms: C_18  and  O_19 
REMARK    5  A    between atoms: C_24  and  C_25 
REMARK    6  A    between atoms: C_25  and  C_26 
REMARK    7  A    between atoms: C_26  and  C_27 
REMARK    8  A    between atoms: C_27  and  O_28 
ROOT
ATOM      1  C   UNL d   1      31.429 -15.843  -0.786  0.00  0.00     0.070 C 
ATOM      2  C   UNL d   1      30.095 -15.432  -0.247  0.00  0.00     0.037 C 
ATOM      3  C   UNL d   1      28.954 -15.184  -0.945  0.00  0.00     0.062 C 
ATOM      4  C   UNL d   1      27.655 -14.802  -0.144  0.00  0.00     0.202 C 
ATOM      5  N   UNL d   1      27.959 -14.455   1.261  0.00  0.00    -0.083 N 
ATOM      6  N   UNL d   1      27.110 -13.858   2.132  0.00  0.00    -0.140 NA
ATOM      7  C   UNL d   1      27.831 -13.891   3.268  0.00  0.00     0.166 A 
ATOM      8  N   UNL d   1      29.085 -14.447   3.139  0.00  0.00    -0.046 NA
ATOM      9  C   UNL d   1      29.135 -14.772   1.873  0.00  0.00     0.726 A 
ATOM     10  N   UNL d   1      30.114 -15.326   1.143  0.00  0.00    -0.192 N 
ATOM     11  H   UNL d   1      30.965 -15.605   1.624  0.00  0.00     0.184 HD
ENDROOT
BRANCH   3  12
ATOM     12  C   UNL d   1      28.689 -15.269  -2.443  0.00  0.00     0.256 C 
ATOM     13  O   UNL d   1      27.897 -16.112  -2.829  0.00  0.00    -0.267 OA
ATOM     14  N   UNL d   1      29.368 -14.439  -3.317  0.00  0.00    -0.323 N 
ATOM     15  H   UNL d   1      30.146 -13.886  -3.081  0.00  0.00     0.169 HD
BRANCH  14  16
ATOM     16  C   UNL d   1      29.195 -14.336  -4.699  0.00  0.00     0.041 A 
ATOM     17  C   UNL d   1      28.420 -13.250  -5.156  0.00  0.00     0.030 A 
ATOM     18  C   UNL d   1      28.156 -13.103  -6.511  0.00  0.00     0.002 A 
ATOM     19  C   UNL d   1      28.621 -14.072  -7.394  0.00  0.00     0.001 A 
ATOM     20  C   UNL d   1      29.302 -15.201  -6.919  0.00  0.00     0.009 A 
ATOM     21  C   UNL d   1      29.583 -15.359  -5.560  0.00  0.00    -0.035 A 
ATOM     22  C   UNL d   1      30.139 -16.656  -5.044  0.00  0.00     0.050 C 
ENDBRANCH  14  16
ENDBRANCH   3  12
BRANCH   4  23
ATOM     23  C   UNL d   1      26.628 -15.939  -0.141  0.00  0.00    -0.028 A 
ATOM     24  C   UNL d   1      25.379 -15.770  -0.767  0.00  0.00     0.012 A 
ATOM     25  C   UNL d   1      24.457 -16.814  -0.822  0.00  0.00     0.037 A 
ATOM     26  C   UNL d   1      24.774 -18.034  -0.240  0.00  0.00     0.065 A 
ATOM     27  C   UNL d   1      25.986 -18.215   0.418  0.00  0.00     0.037 A 
ATOM     28  C   UNL d   1      26.913 -17.172   0.470  0.00  0.00     0.012 A 
BRANCH  26  29
ATOM     29  O   UNL d   1      23.920 -19.095  -0.295  0.00  0.00    -0.361 OA
ATOM     30  H   UNL d   1      23.637 -19.314   0.607  0.00  0.00     0.217 HD
ENDBRANCH  26  29
ENDBRANCH   4  23
BRANCH   7  31
ATOM     31  C   UNL d   1      27.356 -13.351   4.582  0.00  0.00     0.085 C 
BRANCH  31  32
ATOM     32  C   UNL d   1      28.473 -13.172   5.609  0.00  0.00     0.034 C 
BRANCH  32  33
ATOM     33  C   UNL d   1      28.998 -14.497   6.142  0.00  0.00     0.164 C 
BRANCH  33  34
ATOM     34  O   UNL d   1      28.344 -15.575   5.483  0.00  0.00    -0.401 OA
ATOM     35  H   UNL d   1      28.910 -15.855   4.742  0.00  0.00     0.209 HD
ENDBRANCH  33  34
ENDBRANCH  32  33
ENDBRANCH  31  32
ENDBRANCH   7  31
TORSDOF 8
ENDMDL
MODEL 9
REMARK VINA RESULT:    -6.582      3.490      5.546
REMARK INTER + INTRA:         -11.243
REMARK INTER:                  -8.969
REMARK INTRA:                  -2.274
REMARK CONF_INDEPENDENT:        2.386
REMARK UNBOUND:                -2.274
REMARK  8 active torsions:
REMARK  status: ('A' for Active; 'I' for Inactive)
REMARK    1  A    between atoms: C_3  and  C_4 
REMARK       I    between atoms: C_4  and  N_6 
REMARK    2  A    between atoms: N_6  and  C_7 
REMARK    3  A    between atoms: C_14  and  C_15 
REMARK    4  A    between atoms: C_18  and  O_19 
REMARK    5  A    between atoms: C_24  and  C_25 
REMARK    6  A    between atoms: C_25  and  C_26 
REMARK    7  A    between atoms: C_26  and  C_27 
REMARK    8  A    between atoms: C_27  and  O_28 
ROOT
ATOM      1  C   UNL d   1      30.487 -17.735  -1.099  0.00  0.00     0.070 C 
ATOM      2  C   UNL d   1      29.757 -16.440  -0.930  0.00  0.00     0.037 C 
ATOM      3  C   UNL d   1      29.598 -15.447  -1.847  0.00  0.00     0.062 C 
ATOM      4  C   UNL d   1      28.746 -14.187  -1.444  0.00  0.00     0.202 C 
ATOM      5  N   UNL d   1      28.505 -14.131   0.014  0.00  0.00    -0.083 N 
ATOM      6  N   UNL d   1      28.023 -13.065   0.698  0.00  0.00    -0.140 NA
ATOM      7  C   UNL d   1      27.885 -13.584   1.932  0.00  0.00     0.166 A 
ATOM      8  N   UNL d   1      28.282 -14.898   2.053  0.00  0.00    -0.046 NA
ATOM      9  C   UNL d   1      28.676 -15.200   0.843  0.00  0.00     0.726 A 
ATOM     10  N   UNL d   1      29.196 -16.329   0.341  0.00  0.00    -0.192 N 
ATOM     11  H   UNL d   1      29.269 -17.133   0.959  0.00  0.00     0.184 HD
ENDROOT
BRANCH   3  12
ATOM     12  C   UNL d   1      30.082 -15.363  -3.289  0.00  0.00     0.256 C 
ATOM     13  O   UNL d   1      30.652 -16.337  -3.750  0.00  0.00    -0.267 OA
ATOM     14  N   UNL d   1      29.911 -14.197  -4.012  0.00  0.00    -0.323 N 
ATOM     15  H   UNL d   1      29.638 -13.331  -3.634  0.00  0.00     0.169 HD
BRANCH  14  16
ATOM     16  C   UNL d   1      30.227 -13.975  -5.355  0.00  0.00     0.041 A 
ATOM     17  C   UNL d   1      31.565 -13.625  -5.635  0.00  0.00     0.030 A 
ATOM     18  C   UNL d   1      31.952 -13.338  -6.937  0.00  0.00     0.002 A 
ATOM     19  C   UNL d   1      30.989 -13.348  -7.941  0.00  0.00     0.001 A 
ATOM     20  C   UNL d   1      29.644 -13.597  -7.636  0.00  0.00     0.009 A 
ATOM     21  C   UNL d   1      29.241 -13.897  -6.333  0.00  0.00    -0.035 A 
ATOM     22  C   UNL d   1      27.780 -13.971  -5.988  0.00  0.00     0.050 C 
ENDBRANCH  14  16
ENDBRANCH   3  12
BRANCH   4  23
ATOM     23  C   UNL d   1      27.388 -14.163  -2.152  0.00  0.00    -0.028 A 
ATOM     24  C   UNL d   1      26.689 -15.362  -2.389  0.00  0.00     0.012 A 
ATOM     25  C   UNL d   1      25.426 -15.351  -2.980  0.00  0.00     0.037 A 
ATOM     26  C   UNL d   1      24.857 -14.140  -3.348  0.00  0.00     0.065 A 
ATOM     27  C   UNL d   1      25.542 -12.945  -3.160  0.00  0.00     0.037 A 
ATOM     28  C   UNL d   1      26.806 -12.952  -2.564  0.00  0.00     0.012 A 
BRANCH  26  29
ATOM     29  O   UNL d   1      23.612 -14.075  -3.899  0.00  0.00    -0.361 OA
ATOM     30  H   UNL d   1      23.650 -13.511  -4.689  0.00  0.00     0.217 HD
ENDBRANCH  26  29
ENDBRANCH   4  23
BRANCH   7  31
ATOM     31  C   UNL d   1      27.373 -12.819   3.114  0.00  0.00     0.085 C 
BRANCH  31  32
ATOM     32  C   UNL d   1      27.030 -13.702   4.312  0.00  0.00     0.034 C 
BRANCH  32  33
ATOM     33  C   UNL d   1      28.262 -14.138   5.092  0.00  0.00     0.164 C 
BRANCH  33  34
ATOM     34  O   UNL d   1      28.477 -15.533   4.914  0.00  0.00    -0.401 OA
ATOM     35  H   UNL d   1      28.794 -15.670   4.004  0.00  0.00     0.209 HD
ENDBRANCH  33  34
ENDBRANCH  32  33
ENDBRANCH  31  32
ENDBRANCH   7  31
TORSDOF 8
ENDMDL
