MODEL 1
REMARK VINA RESULT:    -8.196      0.000      0.000
REMARK INTER + INTRA:         -13.685
REMARK INTER:                 -10.881
REMARK INTRA:                  -2.803
REMARK CONF_INDEPENDENT:        2.685
REMARK UNBOUND:                -2.803
REMARK  9 active torsions:
REMARK  status: ('A' for Active; 'I' for Inactive)
REMARK    1  A    between atoms: C_4  and  O_5 
REMARK    2  A    between atoms: O_5  and  C_6 
REMARK    3  A    between atoms: C_6  and  C_7 
REMARK       I    between atoms: C_7  and  N_9 
REMARK    4  A    between atoms: N_9  and  C_10 
REMARK    5  A    between atoms: C_10  and  N_12 
REMARK    6  A    between atoms: N_12  and  N_13 
REMARK       I    between atoms: N_13  and  C_14 
REMARK    7  A    between atoms: C_14  and  C_16 
REMARK    8  A    between atoms: C_16  and  O_17 
REMARK    9  A    between atoms: O_17  and  C_18 
ROOT
ATOM      1  N   UNL d   1      26.707 -15.613  -2.833  0.00  0.00    -0.273 N 
ATOM      2  H   UNL d   1      27.263 -16.266  -2.283  0.00  0.00     0.189 HD
ENDROOT
BRANCH   1   3
ATOM      3  C   UNL d   1      25.340 -15.305  -2.664  0.00  0.00     0.193 C 
ATOM      4  S   UNL d   1      24.734 -13.903  -3.389  0.00  0.00    -0.039 SA
BRANCH   3   5
ATOM      5  N   UNL d   1      24.576 -16.219  -1.883  0.00  0.00    -0.301 N 
ATOM      6  C   UNL d   1      25.092 -17.318  -1.139  0.00  0.00     0.248 C 
ATOM      7  O   UNL d   1      26.298 -17.586  -1.106  0.00  0.00    -0.271 OA
ATOM      8  H   UNL d   1      23.574 -16.076  -1.853  0.00  0.00     0.171 HD
BRANCH   6   9
ATOM      9  C   UNL d   1      24.126 -18.232  -0.328  0.00  0.00     0.278 C 
BRANCH   9  10
ATOM     10  O   UNL d   1      22.772 -17.720  -0.466  0.00  0.00    -0.342 OA
BRANCH  10  11
ATOM     11  C   UNL d   1      21.697 -18.508  -0.154  0.00  0.00     0.070 A 
ATOM     12  C   UNL d   1      21.394 -18.950   1.130  0.00  0.00     0.044 A 
ATOM     13  C   UNL d   1      20.269 -19.758   1.387  0.00  0.00    -0.042 A 
ATOM     14  C   UNL d   1      20.014 -20.199   2.799  0.00  0.00     0.049 C 
ATOM     15  C   UNL d   1      19.432 -20.127   0.322  0.00  0.00     0.017 A 
ATOM     16  C   UNL d   1      19.722 -19.696  -0.972  0.00  0.00     0.022 A 
ATOM     17 BR   UNL d   1      17.897 -21.216   0.586  0.00  0.00    -0.051 Br
ATOM     18  C   UNL d   1      20.851 -18.893  -1.208  0.00  0.00     0.038 A 
ENDBRANCH  10  11
ENDBRANCH   9  10
ENDBRANCH   6   9
ENDBRANCH   3   5
ENDBRANCH   1   3
BRANCH   1  19
ATOM     19  N   UNL d   1      27.459 -14.942  -3.912  0.00  0.00    -0.266 N 
ATOM     20  C   UNL d   1      27.175 -15.167  -5.255  0.00  0.00     0.260 C 
ATOM     21  O   UNL d   1      26.273 -15.948  -5.582  0.00  0.00    -0.269 OA
ATOM     22  H   UNL d   1      28.189 -14.304  -3.593  0.00  0.00     0.190 HD
BRANCH  20  23
ATOM     23  C   UNL d   1      28.059 -14.394  -6.297  0.00  0.00     0.280 C 
BRANCH  23  24
ATOM     24  O   UNL d   1      28.546 -13.158  -5.740  0.00  0.00    -0.341 OA
BRANCH  24  25
ATOM     25  C   UNL d   1      28.070 -11.971  -6.261  0.00  0.00     0.080 A 
ATOM     26  C   UNL d   1      28.323 -11.579  -7.579  0.00  0.00     0.037 A 
ATOM     27  C   UNL d   1      27.783 -10.391  -8.080  0.00  0.00     0.004 A 
ATOM     28  C   UNL d   1      26.969  -9.590  -7.280  0.00  0.00     0.012 A 
ATOM     29  C   UNL d   1      26.647  -9.985  -5.977  0.00  0.00    -0.023 A 
ATOM     30  C   UNL d   1      25.782  -9.197  -5.195  0.00  0.00     0.012 A 
ATOM     31  C   UNL d   1      27.192 -11.191  -5.454  0.00  0.00     0.007 A 
ATOM     32  C   UNL d   1      25.443  -9.581  -3.899  0.00  0.00     0.001 A 
ATOM     33  C   UNL d   1      25.961 -10.759  -3.374  0.00  0.00     0.001 A 
ATOM     34  C   UNL d   1      26.823 -11.552  -4.141  0.00  0.00     0.015 A 
ENDBRANCH  24  25
ENDBRANCH  23  24
ENDBRANCH  20  23
ENDBRANCH   1  19
TORSDOF 9
ENDMDL
MODEL 2
REMARK VINA RESULT:    -7.944      4.378      7.501
REMARK INTER + INTRA:         -13.588
REMARK INTER:                 -10.629
REMARK INTRA:                  -2.959
REMARK CONF_INDEPENDENT:        2.685
REMARK UNBOUND:                -2.959
REMARK  9 active torsions:
REMARK  status: ('A' for Active; 'I' for Inactive)
REMARK    1  A    between atoms: C_4  and  O_5 
REMARK    2  A    between atoms: O_5  and  C_6 
REMARK    3  A    between atoms: C_6  and  C_7 
REMARK       I    between atoms: C_7  and  N_9 
REMARK    4  A    between atoms: N_9  and  C_10 
REMARK    5  A    between atoms: C_10  and  N_12 
REMARK    6  A    between atoms: N_12  and  N_13 
REMARK       I    between atoms: N_13  and  C_14 
REMARK    7  A    between atoms: C_14  and  C_16 
REMARK    8  A    between atoms: C_16  and  O_17 
REMARK    9  A    between atoms: O_17  and  C_18 
ROOT
ATOM      1  N   UNL d   1      28.599 -13.844  -7.297  0.00  0.00    -0.273 N 
ATOM      2  H   UNL d   1      28.755 -14.049  -8.283  0.00  0.00     0.189 HD
ENDROOT
BRANCH   1   3
ATOM      3  C   UNL d   1      27.779 -12.829  -6.757  0.00  0.00     0.193 C 
ATOM      4  S   UNL d   1      27.968 -11.250  -7.331  0.00  0.00    -0.039 SA
BRANCH   3   5
ATOM      5  N   UNL d   1      26.847 -13.232  -5.757  0.00  0.00    -0.301 N 
ATOM      6  C   UNL d   1      26.264 -12.388  -4.770  0.00  0.00     0.248 C 
ATOM      7  O   UNL d   1      26.527 -11.184  -4.689  0.00  0.00    -0.271 OA
ATOM      8  H   UNL d   1      26.573 -14.206  -5.747  0.00  0.00     0.171 HD
BRANCH   6   9
ATOM      9  C   UNL d   1      25.254 -12.977  -3.740  0.00  0.00     0.278 C 
BRANCH   9  10
ATOM     10  O   UNL d   1      25.170 -14.415  -3.939  0.00  0.00    -0.342 OA
BRANCH  10  11
ATOM     11  C   UNL d   1      25.425 -15.275  -2.904  0.00  0.00     0.070 A 
ATOM     12  C   UNL d   1      24.443 -15.913  -2.154  0.00  0.00     0.044 A 
ATOM     13  C   UNL d   1      24.770 -16.791  -1.101  0.00  0.00    -0.042 A 
ATOM     14  C   UNL d   1      23.652 -17.435  -0.334  0.00  0.00     0.049 C 
ATOM     15  C   UNL d   1      26.121 -17.028  -0.802  0.00  0.00     0.017 A 
ATOM     16  C   UNL d   1      27.119 -16.395  -1.542  0.00  0.00     0.022 A 
ATOM     17 BR   UNL d   1      26.645 -18.196   0.603  0.00  0.00    -0.051 Br
ATOM     18  C   UNL d   1      26.771 -15.520  -2.585  0.00  0.00     0.038 A 
ENDBRANCH  10  11
ENDBRANCH   9  10
ENDBRANCH   6   9
ENDBRANCH   3   5
ENDBRANCH   1   3
BRANCH   1  19
ATOM     19  N   UNL d   1      29.333 -14.732  -6.374  0.00  0.00    -0.266 N 
ATOM     20  C   UNL d   1      28.673 -15.564  -5.475  0.00  0.00     0.260 C 
ATOM     21  O   UNL d   1      27.437 -15.576  -5.424  0.00  0.00    -0.269 OA
ATOM     22  H   UNL d   1      30.350 -14.691  -6.457  0.00  0.00     0.190 HD
BRANCH  20  23
ATOM     23  C   UNL d   1      29.578 -16.450  -4.547  0.00  0.00     0.280 C 
BRANCH  23  24
ATOM     24  O   UNL d   1      30.895 -16.603  -5.109  0.00  0.00    -0.341 OA
BRANCH  24  25
ATOM     25  C   UNL d   1      31.081 -17.551  -6.096  0.00  0.00     0.080 A 
ATOM     26  C   UNL d   1      31.292 -17.205  -7.434  0.00  0.00     0.037 A 
ATOM     27  C   UNL d   1      31.523 -18.195  -8.394  0.00  0.00     0.004 A 
ATOM     28  C   UNL d   1      31.565 -19.540  -8.027  0.00  0.00     0.012 A 
ATOM     29  C   UNL d   1      31.418 -19.915  -6.688  0.00  0.00    -0.023 A 
ATOM     30  C   UNL d   1      31.514 -21.270  -6.320  0.00  0.00     0.012 A 
ATOM     31  C   UNL d   1      31.181 -18.917  -5.702  0.00  0.00     0.007 A 
ATOM     32  C   UNL d   1      31.381 -21.659  -4.988  0.00  0.00     0.001 A 
ATOM     33  C   UNL d   1      31.155 -20.697  -4.011  0.00  0.00     0.001 A 
ATOM     34  C   UNL d   1      31.056 -19.346  -4.363  0.00  0.00     0.015 A 
ENDBRANCH  24  25
ENDBRANCH  23  24
ENDBRANCH  20  23
ENDBRANCH   1  19
TORSDOF 9
ENDMDL
MODEL 3
REMARK VINA RESULT:    -7.935      4.240      8.973
REMARK INTER + INTRA:         -13.481
REMARK INTER:                 -10.620
REMARK INTRA:                  -2.861
REMARK CONF_INDEPENDENT:        2.685
REMARK UNBOUND:                -2.861
REMARK  9 active torsions:
REMARK  status: ('A' for Active; 'I' for Inactive)
REMARK    1  A    between atoms: C_4  and  O_5 
REMARK    2  A    between atoms: O_5  and  C_6 
REMARK    3  A    between atoms: C_6  and  C_7 
REMARK       I    between atoms: C_7  and  N_9 
REMARK    4  A    between atoms: N_9  and  C_10 
REMARK    5  A    between atoms: C_10  and  N_12 
REMARK    6  A    between atoms: N_12  and  N_13 
REMARK       I    between atoms: N_13  and  C_14 
REMARK    7  A    between atoms: C_14  and  C_16 
REMARK    8  A    between atoms: C_16  and  O_17 
REMARK    9  A    between atoms: O_17  and  C_18 
ROOT
ATOM      1  N   UNL d   1      28.167 -12.657  -5.790  0.00  0.00    -0.273 N 
ATOM      2  H   UNL d   1      28.591 -12.018  -5.119  0.00  0.00     0.189 HD
ENDROOT
BRANCH   1   3
ATOM      3  C   UNL d   1      28.547 -12.856  -7.135  0.00  0.00     0.193 C 
ATOM      4  S   UNL d   1      27.963 -11.784  -8.304  0.00  0.00    -0.039 SA
BRANCH   3   5
ATOM      5  N   UNL d   1      29.404 -13.964  -7.394  0.00  0.00    -0.301 N 
ATOM      6  C   UNL d   1      30.802 -14.018  -7.129  0.00  0.00     0.248 C 
ATOM      7  O   UNL d   1      31.420 -13.070  -6.633  0.00  0.00    -0.271 OA
ATOM      8  H   UNL d   1      28.983 -14.788  -7.803  0.00  0.00     0.171 HD
BRANCH   6   9
ATOM      9  C   UNL d   1      31.610 -15.307  -7.468  0.00  0.00     0.278 C 
BRANCH   9  10
ATOM     10  O   UNL d   1      30.677 -16.410  -7.643  0.00  0.00    -0.342 OA
BRANCH  10  11
ATOM     11  C   UNL d   1      30.729 -17.499  -6.815  0.00  0.00     0.070 A 
ATOM     12  C   UNL d   1      30.727 -17.430  -5.426  0.00  0.00     0.044 A 
ATOM     13  C   UNL d   1      30.779 -18.591  -4.628  0.00  0.00    -0.042 A 
ATOM     14  C   UNL d   1      30.780 -18.432  -3.135  0.00  0.00     0.049 C 
ATOM     15  C   UNL d   1      30.833 -19.847  -5.249  0.00  0.00     0.017 A 
ATOM     16  C   UNL d   1      30.838 -19.936  -6.641  0.00  0.00     0.022 A 
ATOM     17 BR   UNL d   1      30.906 -21.459  -4.244  0.00  0.00    -0.051 Br
ATOM     18  C   UNL d   1      30.790 -18.767  -7.418  0.00  0.00     0.038 A 
ENDBRANCH  10  11
ENDBRANCH   9  10
ENDBRANCH   6   9
ENDBRANCH   3   5
ENDBRANCH   1   3
BRANCH   1  19
ATOM     19  N   UNL d   1      27.036 -13.436  -5.247  0.00  0.00    -0.266 N 
ATOM     20  C   UNL d   1      26.928 -14.809  -5.442  0.00  0.00     0.260 C 
ATOM     21  O   UNL d   1      27.790 -15.419  -6.088  0.00  0.00    -0.269 OA
ATOM     22  H   UNL d   1      26.355 -12.890  -4.718  0.00  0.00     0.190 HD
BRANCH  20  23
ATOM     23  C   UNL d   1      25.670 -15.509  -4.816  0.00  0.00     0.280 C 
BRANCH  23  24
ATOM     24  O   UNL d   1      25.513 -15.140  -3.433  0.00  0.00    -0.341 OA
BRANCH  24  25
ATOM     25  C   UNL d   1      26.195 -15.869  -2.478  0.00  0.00     0.080 A 
ATOM     26  C   UNL d   1      27.576 -15.751  -2.293  0.00  0.00     0.037 A 
ATOM     27  C   UNL d   1      28.219 -16.473  -1.283  0.00  0.00     0.004 A 
ATOM     28  C   UNL d   1      27.491 -17.305  -0.434  0.00  0.00     0.012 A 
ATOM     29  C   UNL d   1      26.101 -17.398  -0.554  0.00  0.00    -0.023 A 
ATOM     30  C   UNL d   1      25.368 -18.200   0.341  0.00  0.00     0.012 A 
ATOM     31  C   UNL d   1      25.433 -16.671  -1.579  0.00  0.00     0.007 A 
ATOM     32  C   UNL d   1      23.981 -18.296   0.243  0.00  0.00     0.001 A 
ATOM     33  C   UNL d   1      23.313 -17.587  -0.749  0.00  0.00     0.001 A 
ATOM     34  C   UNL d   1      24.029 -16.787  -1.646  0.00  0.00     0.015 A 
ENDBRANCH  24  25
ENDBRANCH  23  24
ENDBRANCH  20  23
ENDBRANCH   1  19
TORSDOF 9
ENDMDL
MODEL 4
REMARK VINA RESULT:    -7.880      6.272      8.650
REMARK INTER + INTRA:         -13.851
REMARK INTER:                 -10.565
REMARK INTRA:                  -3.286
REMARK CONF_INDEPENDENT:        2.685
REMARK UNBOUND:                -3.286
REMARK  9 active torsions:
REMARK  status: ('A' for Active; 'I' for Inactive)
REMARK    1  A    between atoms: C_4  and  O_5 
REMARK    2  A    between atoms: O_5  and  C_6 
REMARK    3  A    between atoms: C_6  and  C_7 
REMARK       I    between atoms: C_7  and  N_9 
REMARK    4  A    between atoms: N_9  and  C_10 
REMARK    5  A    between atoms: C_10  and  N_12 
REMARK    6  A    between atoms: N_12  and  N_13 
REMARK       I    between atoms: N_13  and  C_14 
REMARK    7  A    between atoms: C_14  and  C_16 
REMARK    8  A    between atoms: C_16  and  O_17 
REMARK    9  A    between atoms: O_17  and  C_18 
ROOT
ATOM      1  N   UNL d   1      31.504 -14.240   3.420  0.00  0.00    -0.273 N 
ATOM      2  H   UNL d   1      32.082 -13.776   4.118  0.00  0.00     0.189 HD
ENDROOT
BRANCH   1   3
ATOM      3  C   UNL d   1      31.774 -14.369   2.040  0.00  0.00     0.193 C 
ATOM      4  S   UNL d   1      33.202 -13.700   1.432  0.00  0.00    -0.039 SA
BRANCH   3   5
ATOM      5  N   UNL d   1      30.800 -15.065   1.266  0.00  0.00    -0.301 N 
ATOM      6  C   UNL d   1      30.620 -14.957  -0.142  0.00  0.00     0.248 C 
ATOM      7  O   UNL d   1      31.318 -14.219  -0.845  0.00  0.00    -0.271 OA
ATOM      8  H   UNL d   1      30.181 -15.694   1.761  0.00  0.00     0.171 HD
BRANCH   6   9
ATOM      9  C   UNL d   1      29.507 -15.787  -0.851  0.00  0.00     0.278 C 
BRANCH   9  10
ATOM     10  O   UNL d   1      28.740 -16.497   0.160  0.00  0.00    -0.342 OA
BRANCH  10  11
ATOM     11  C   UNL d   1      27.414 -16.773  -0.042  0.00  0.00     0.070 A 
ATOM     12  C   UNL d   1      26.588 -16.063  -0.906  0.00  0.00     0.044 A 
ATOM     13  C   UNL d   1      25.229 -16.399  -1.073  0.00  0.00    -0.042 A 
ATOM     14  C   UNL d   1      24.402 -15.578  -2.020  0.00  0.00     0.049 C 
ATOM     15  C   UNL d   1      24.697 -17.478  -0.352  0.00  0.00     0.017 A 
ATOM     16  C   UNL d   1      25.509 -18.200   0.522  0.00  0.00     0.022 A 
ATOM     17 BR   UNL d   1      22.875 -17.993  -0.520  0.00  0.00    -0.051 Br
ATOM     18  C   UNL d   1      26.860 -17.846   0.677  0.00  0.00     0.038 A 
ENDBRANCH  10  11
ENDBRANCH   9  10
ENDBRANCH   6   9
ENDBRANCH   3   5
ENDBRANCH   1   3
BRANCH   1  19
ATOM     19  N   UNL d   1      30.261 -14.825   3.960  0.00  0.00    -0.266 N 
ATOM     20  C   UNL d   1      29.784 -14.498   5.225  0.00  0.00     0.260 C 
ATOM     21  O   UNL d   1      30.402 -13.699   5.939  0.00  0.00    -0.269 OA
ATOM     22  H   UNL d   1      29.785 -15.474   3.332  0.00  0.00     0.190 HD
BRANCH  20  23
ATOM     23  C   UNL d   1      28.454 -15.200   5.676  0.00  0.00     0.280 C 
BRANCH  23  24
ATOM     24  O   UNL d   1      27.316 -14.356   5.418  0.00  0.00    -0.341 OA
BRANCH  24  25
ATOM     25  C   UNL d   1      27.540 -13.079   4.945  0.00  0.00     0.080 A 
ATOM     26  C   UNL d   1      27.822 -12.006   5.795  0.00  0.00     0.037 A 
ATOM     27  C   UNL d   1      28.089 -10.737   5.270  0.00  0.00     0.004 A 
ATOM     28  C   UNL d   1      28.096 -10.529   3.891  0.00  0.00     0.012 A 
ATOM     29  C   UNL d   1      27.877 -11.595   3.012  0.00  0.00    -0.023 A 
ATOM     30  C   UNL d   1      27.938 -11.386   1.622  0.00  0.00     0.012 A 
ATOM     31  C   UNL d   1      27.603 -12.890   3.533  0.00  0.00     0.007 A 
ATOM     32  C   UNL d   1      27.733 -12.438   0.732  0.00  0.00     0.001 A 
ATOM     33  C   UNL d   1      27.470 -13.712   1.223  0.00  0.00     0.001 A 
ATOM     34  C   UNL d   1      27.406 -13.933   2.604  0.00  0.00     0.015 A 
ENDBRANCH  24  25
ENDBRANCH  23  24
ENDBRANCH  20  23
ENDBRANCH   1  19
TORSDOF 9
ENDMDL
MODEL 5
REMARK VINA RESULT:    -7.858      3.707      8.928
REMARK INTER + INTRA:         -13.455
REMARK INTER:                 -10.543
REMARK INTRA:                  -2.912
REMARK CONF_INDEPENDENT:        2.685
REMARK UNBOUND:                -2.912
REMARK  9 active torsions:
REMARK  status: ('A' for Active; 'I' for Inactive)
REMARK    1  A    between atoms: C_4  and  O_5 
REMARK    2  A    between atoms: O_5  and  C_6 
REMARK    3  A    between atoms: C_6  and  C_7 
REMARK       I    between atoms: C_7  and  N_9 
REMARK    4  A    between atoms: N_9  and  C_10 
REMARK    5  A    between atoms: C_10  and  N_12 
REMARK    6  A    between atoms: N_12  and  N_13 
REMARK       I    between atoms: N_13  and  C_14 
REMARK    7  A    between atoms: C_14  and  C_16 
REMARK    8  A    between atoms: C_16  and  O_17 
REMARK    9  A    between atoms: O_17  and  C_18 
ROOT
ATOM      1  N   UNL d   1      25.531 -11.479  -5.359  0.00  0.00    -0.273 N 
ATOM      2  H   UNL d   1      24.899 -10.707  -5.150  0.00  0.00     0.189 HD
ENDROOT
BRANCH   1   3
ATOM      3  C   UNL d   1      26.691 -11.437  -6.161  0.00  0.00     0.193 C 
ATOM      4  S   UNL d   1      27.109  -9.974  -6.897  0.00  0.00    -0.039 SA
BRANCH   3   5
ATOM      5  N   UNL d   1      27.422 -12.654  -6.284  0.00  0.00    -0.301 N 
ATOM      6  C   UNL d   1      28.430 -12.929  -7.250  0.00  0.00     0.248 C 
ATOM      7  O   UNL d   1      28.773 -12.104  -8.103  0.00  0.00    -0.271 OA
ATOM      8  H   UNL d   1      27.206 -13.390  -5.624  0.00  0.00     0.171 HD
BRANCH   6   9
ATOM      9  C   UNL d   1      29.145 -14.314  -7.257  0.00  0.00     0.278 C 
BRANCH   9  10
ATOM     10  O   UNL d   1      28.418 -15.219  -6.381  0.00  0.00    -0.342 OA
BRANCH  10  11
ATOM     11  C   UNL d   1      29.078 -15.922  -5.408  0.00  0.00     0.070 A 
ATOM     12  C   UNL d   1      30.129 -16.800  -5.651  0.00  0.00     0.044 A 
ATOM     13  C   UNL d   1      30.769 -17.492  -4.604  0.00  0.00    -0.042 A 
ATOM     14  C   UNL d   1      31.892 -18.428  -4.949  0.00  0.00     0.049 C 
ATOM     15  C   UNL d   1      30.338 -17.291  -3.284  0.00  0.00     0.017 A 
ATOM     16  C   UNL d   1      29.284 -16.416  -3.022  0.00  0.00     0.022 A 
ATOM     17 BR   UNL d   1      31.148 -18.188  -1.818  0.00  0.00    -0.051 Br
ATOM     18  C   UNL d   1      28.656 -15.739  -4.081  0.00  0.00     0.038 A 
ENDBRANCH  10  11
ENDBRANCH   9  10
ENDBRANCH   6   9
ENDBRANCH   3   5
ENDBRANCH   1   3
BRANCH   1  19
ATOM     19  N   UNL d   1      25.147 -12.758  -4.729  0.00  0.00    -0.266 N 
ATOM     20  C   UNL d   1      25.971 -13.403  -3.812  0.00  0.00     0.260 C 
ATOM     21  O   UNL d   1      27.064 -12.913  -3.501  0.00  0.00    -0.269 OA
ATOM     22  H   UNL d   1      24.235 -13.119  -5.014  0.00  0.00     0.190 HD
BRANCH  20  23
ATOM     23  C   UNL d   1      25.442 -14.760  -3.227  0.00  0.00     0.280 C 
BRANCH  23  24
ATOM     24  O   UNL d   1      25.538 -14.770  -1.790  0.00  0.00    -0.341 OA
BRANCH  24  25
ATOM     25  C   UNL d   1      25.765 -15.976  -1.156  0.00  0.00     0.080 A 
ATOM     26  C   UNL d   1      27.032 -16.356  -0.705  0.00  0.00     0.037 A 
ATOM     27  C   UNL d   1      27.209 -17.566  -0.027  0.00  0.00     0.004 A 
ATOM     28  C   UNL d   1      26.122 -18.401   0.226  0.00  0.00     0.012 A 
ATOM     29  C   UNL d   1      24.832 -18.022  -0.158  0.00  0.00    -0.023 A 
ATOM     30  C   UNL d   1      23.733 -18.847   0.148  0.00  0.00     0.012 A 
ATOM     31  C   UNL d   1      24.638 -16.794  -0.851  0.00  0.00     0.007 A 
ATOM     32  C   UNL d   1      22.440 -18.478  -0.218  0.00  0.00     0.001 A 
ATOM     33  C   UNL d   1      22.232 -17.280  -0.890  0.00  0.00     0.001 A 
ATOM     34  C   UNL d   1      23.315 -16.450  -1.201  0.00  0.00     0.015 A 
ENDBRANCH  24  25
ENDBRANCH  23  24
ENDBRANCH  20  23
ENDBRANCH   1  19
TORSDOF 9
ENDMDL
MODEL 6
REMARK VINA RESULT:    -7.847      4.716      9.564
REMARK INTER + INTRA:         -13.806
REMARK INTER:                 -10.532
REMARK INTRA:                  -3.274
REMARK CONF_INDEPENDENT:        2.685
REMARK UNBOUND:                -3.274
REMARK  9 active torsions:
REMARK  status: ('A' for Active; 'I' for Inactive)
REMARK    1  A    between atoms: C_4  and  O_5 
REMARK    2  A    between atoms: O_5  and  C_6 
REMARK    3  A    between atoms: C_6  and  C_7 
REMARK       I    between atoms: C_7  and  N_9 
REMARK    4  A    between atoms: N_9  and  C_10 
REMARK    5  A    between atoms: C_10  and  N_12 
REMARK    6  A    between atoms: N_12  and  N_13 
REMARK       I    between atoms: N_13  and  C_14 
REMARK    7  A    between atoms: C_14  and  C_16 
REMARK    8  A    between atoms: C_16  and  O_17 
REMARK    9  A    between atoms: O_17  and  C_18 
ROOT
ATOM      1  N   UNL d   1      27.361 -12.300  -5.871  0.00  0.00    -0.273 N 
ATOM      2  H   UNL d   1      27.228 -11.302  -5.716  0.00  0.00     0.189 HD
ENDROOT
BRANCH   1   3
ATOM      3  C   UNL d   1      28.256 -12.910  -6.777  0.00  0.00     0.193 C 
ATOM      4  S   UNL d   1      28.301 -12.343  -8.369  0.00  0.00    -0.039 SA
BRANCH   3   5
ATOM      5  N   UNL d   1      29.057 -13.969  -6.262  0.00  0.00    -0.301 N 
ATOM      6  C   UNL d   1      28.579 -15.222  -5.783  0.00  0.00     0.248 C 
ATOM      7  O   UNL d   1      27.378 -15.511  -5.770  0.00  0.00    -0.271 OA
ATOM      8  H   UNL d   1      30.058 -13.820  -6.233  0.00  0.00     0.171 HD
BRANCH   6   9
ATOM      9  C   UNL d   1      29.583 -16.287  -5.248  0.00  0.00     0.278 C 
BRANCH   9  10
ATOM     10  O   UNL d   1      30.782 -16.251  -6.071  0.00  0.00    -0.342 OA
BRANCH  10  11
ATOM     11  C   UNL d   1      31.102 -17.312  -6.876  0.00  0.00     0.070 A 
ATOM     12  C   UNL d   1      31.977 -17.242  -7.955  0.00  0.00     0.044 A 
ATOM     13  C   UNL d   1      32.269 -18.372  -8.744  0.00  0.00    -0.042 A 
ATOM     14  C   UNL d   1      33.219 -18.213  -9.896  0.00  0.00     0.049 C 
ATOM     15  C   UNL d   1      31.662 -19.599  -8.435  0.00  0.00     0.017 A 
ATOM     16  C   UNL d   1      30.780 -19.688  -7.358  0.00  0.00     0.022 A 
ATOM     17 BR   UNL d   1      32.002 -21.168  -9.451  0.00  0.00    -0.051 Br
ATOM     18  C   UNL d   1      30.500 -18.548  -6.586  0.00  0.00     0.038 A 
ENDBRANCH  10  11
ENDBRANCH   9  10
ENDBRANCH   6   9
ENDBRANCH   3   5
ENDBRANCH   1   3
BRANCH   1  19
ATOM     19  N   UNL d   1      26.501 -13.160  -5.034  0.00  0.00    -0.266 N 
ATOM     20  C   UNL d   1      25.625 -12.628  -4.092  0.00  0.00     0.260 C 
ATOM     21  O   UNL d   1      25.548 -11.404  -3.930  0.00  0.00    -0.269 OA
ATOM     22  H   UNL d   1      26.596 -14.161  -5.208  0.00  0.00     0.190 HD
BRANCH  20  23
ATOM     23  C   UNL d   1      24.776 -13.658  -3.266  0.00  0.00     0.280 C 
BRANCH  23  24
ATOM     24  O   UNL d   1      25.156 -15.010  -3.585  0.00  0.00    -0.341 OA
BRANCH  24  25
ATOM     25  C   UNL d   1      25.995 -15.678  -2.716  0.00  0.00     0.080 A 
ATOM     26  C   UNL d   1      27.375 -15.454  -2.690  0.00  0.00     0.037 A 
ATOM     27  C   UNL d   1      28.183 -16.118  -1.761  0.00  0.00     0.004 A 
ATOM     28  C   UNL d   1      27.622 -16.998  -0.837  0.00  0.00     0.012 A 
ATOM     29  C   UNL d   1      26.238 -17.198  -0.798  0.00  0.00    -0.023 A 
ATOM     30  C   UNL d   1      25.676 -18.048   0.173  0.00  0.00     0.012 A 
ATOM     31  C   UNL d   1      25.405 -16.530  -1.738  0.00  0.00     0.007 A 
ATOM     32  C   UNL d   1      24.298 -18.250   0.233  0.00  0.00     0.001 A 
ATOM     33  C   UNL d   1      23.469 -17.601  -0.674  0.00  0.00     0.001 A 
ATOM     34  C   UNL d   1      24.015 -16.753  -1.645  0.00  0.00     0.015 A 
ENDBRANCH  24  25
ENDBRANCH  23  24
ENDBRANCH  20  23
ENDBRANCH   1  19
TORSDOF 9
ENDMDL
MODEL 7
REMARK VINA RESULT:    -7.501      3.858      8.611
REMARK INTER + INTRA:         -14.284
REMARK INTER:                 -10.185
REMARK INTRA:                  -4.099
REMARK CONF_INDEPENDENT:        2.685
REMARK UNBOUND:                -4.099
REMARK  9 active torsions:
REMARK  status: ('A' for Active; 'I' for Inactive)
REMARK    1  A    between atoms: C_4  and  O_5 
REMARK    2  A    between atoms: O_5  and  C_6 
REMARK    3  A    between atoms: C_6  and  C_7 
REMARK       I    between atoms: C_7  and  N_9 
REMARK    4  A    between atoms: N_9  and  C_10 
REMARK    5  A    between atoms: C_10  and  N_12 
REMARK    6  A    between atoms: N_12  and  N_13 
REMARK       I    between atoms: N_13  and  C_14 
REMARK    7  A    between atoms: C_14  and  C_16 
REMARK    8  A    between atoms: C_16  and  O_17 
REMARK    9  A    between atoms: O_17  and  C_18 
ROOT
ATOM      1  N   UNL d   1      25.849 -11.262  -3.440  0.00  0.00    -0.273 N 
ATOM      2  H   UNL d   1      25.763 -10.317  -3.070  0.00  0.00     0.189 HD
ENDROOT
BRANCH   1   3
ATOM      3  C   UNL d   1      25.913 -11.644  -4.798  0.00  0.00     0.193 C 
ATOM      4  S   UNL d   1      25.615 -10.472  -5.979  0.00  0.00    -0.039 SA
BRANCH   3   5
ATOM      5  N   UNL d   1      26.228 -13.009  -5.059  0.00  0.00    -0.301 N 
ATOM      6  C   UNL d   1      25.457 -14.136  -4.657  0.00  0.00     0.248 C 
ATOM      7  O   UNL d   1      24.405 -14.025  -4.019  0.00  0.00    -0.271 OA
ATOM      8  H   UNL d   1      27.077 -13.195  -5.578  0.00  0.00     0.171 HD
BRANCH   6   9
ATOM      9  C   UNL d   1      25.932 -15.575  -5.020  0.00  0.00     0.278 C 
BRANCH   9  10
ATOM     10  O   UNL d   1      27.305 -15.506  -5.496  0.00  0.00    -0.342 OA
BRANCH  10  11
ATOM     11  C   UNL d   1      28.347 -15.768  -4.648  0.00  0.00     0.070 A 
ATOM     12  C   UNL d   1      29.467 -16.519  -4.989  0.00  0.00     0.044 A 
ATOM     13  C   UNL d   1      30.510 -16.751  -4.070  0.00  0.00    -0.042 A 
ATOM     14  C   UNL d   1      31.682 -17.578  -4.513  0.00  0.00     0.049 C 
ATOM     15  C   UNL d   1      30.417 -16.211  -2.778  0.00  0.00     0.017 A 
ATOM     16  C   UNL d   1      29.300 -15.458  -2.417  0.00  0.00     0.022 A 
ATOM     17 BR   UNL d   1      31.779 -16.480  -1.480  0.00  0.00    -0.051 Br
ATOM     18  C   UNL d   1      28.270 -15.241  -3.347  0.00  0.00     0.038 A 
ENDBRANCH  10  11
ENDBRANCH   9  10
ENDBRANCH   6   9
ENDBRANCH   3   5
ENDBRANCH   1   3
BRANCH   1  19
ATOM     19  N   UNL d   1      25.909 -12.311  -2.402  0.00  0.00    -0.266 N 
ATOM     20  C   UNL d   1      27.031 -12.485  -1.597  0.00  0.00     0.260 C 
ATOM     21  O   UNL d   1      28.020 -11.755  -1.736  0.00  0.00    -0.269 OA
ATOM     22  H   UNL d   1      25.068 -12.884  -2.322  0.00  0.00     0.190 HD
BRANCH  20  23
ATOM     23  C   UNL d   1      26.961 -13.644  -0.540  0.00  0.00     0.280 C 
BRANCH  23  24
ATOM     24  O   UNL d   1      25.903 -14.567  -0.860  0.00  0.00    -0.341 OA
BRANCH  24  25
ATOM     25  C   UNL d   1      26.071 -15.897  -0.529  0.00  0.00     0.080 A 
ATOM     26  C   UNL d   1      27.293 -16.408  -0.083  0.00  0.00     0.037 A 
ATOM     27  C   UNL d   1      27.407 -17.752   0.286  0.00  0.00     0.004 A 
ATOM     28  C   UNL d   1      26.299 -18.597   0.233  0.00  0.00     0.012 A 
ATOM     29  C   UNL d   1      25.048 -18.102  -0.151  0.00  0.00    -0.023 A 
ATOM     30  C   UNL d   1      23.925 -18.950  -0.152  0.00  0.00     0.012 A 
ATOM     31  C   UNL d   1      24.919 -16.737  -0.531  0.00  0.00     0.007 A 
ATOM     32  C   UNL d   1      22.669 -18.471  -0.522  0.00  0.00     0.001 A 
ATOM     33  C   UNL d   1      22.524 -17.139  -0.890  0.00  0.00     0.001 A 
ATOM     34  C   UNL d   1      23.633 -16.285  -0.894  0.00  0.00     0.015 A 
ENDBRANCH  24  25
ENDBRANCH  23  24
ENDBRANCH  20  23
ENDBRANCH   1  19
TORSDOF 9
ENDMDL
MODEL 8
REMARK VINA RESULT:    -7.156      3.631      5.465
REMARK INTER + INTRA:         -13.686
REMARK INTER:                  -9.840
REMARK INTRA:                  -3.846
REMARK CONF_INDEPENDENT:        2.685
REMARK UNBOUND:                -3.846
REMARK  9 active torsions:
REMARK  status: ('A' for Active; 'I' for Inactive)
REMARK    1  A    between atoms: C_4  and  O_5 
REMARK    2  A    between atoms: O_5  and  C_6 
REMARK    3  A    between atoms: C_6  and  C_7 
REMARK       I    between atoms: C_7  and  N_9 
REMARK    4  A    between atoms: N_9  and  C_10 
REMARK    5  A    between atoms: C_10  and  N_12 
REMARK    6  A    between atoms: N_12  and  N_13 
REMARK       I    between atoms: N_13  and  C_14 
REMARK    7  A    between atoms: C_14  and  C_16 
REMARK    8  A    between atoms: C_16  and  O_17 
REMARK    9  A    between atoms: O_17  and  C_18 
ROOT
ATOM      1  N   UNL d   1      26.224 -12.656  -2.497  0.00  0.00    -0.273 N 
ATOM      2  H   UNL d   1      25.300 -12.236  -2.591  0.00  0.00     0.189 HD
ENDROOT
BRANCH   1   3
ATOM      3  C   UNL d   1      27.171 -12.413  -1.479  0.00  0.00     0.193 C 
ATOM      4  S   UNL d   1      27.501 -10.811  -1.051  0.00  0.00    -0.039 SA
BRANCH   3   5
ATOM      5  N   UNL d   1      27.777 -13.560  -0.890  0.00  0.00    -0.301 N 
ATOM      6  C   UNL d   1      28.728 -14.416  -1.514  0.00  0.00     0.248 C 
ATOM      7  O   UNL d   1      29.126 -14.232  -2.669  0.00  0.00    -0.271 OA
ATOM      8  H   UNL d   1      27.508 -13.788   0.059  0.00  0.00     0.171 HD
BRANCH   6   9
ATOM      9  C   UNL d   1      29.305 -15.637  -0.737  0.00  0.00     0.278 C 
BRANCH   9  10
ATOM     10  O   UNL d   1      28.395 -15.972   0.347  0.00  0.00    -0.342 OA
BRANCH  10  11
ATOM     11  C   UNL d   1      27.195 -16.577   0.083  0.00  0.00     0.070 A 
ATOM     12  C   UNL d   1      26.158 -15.984  -0.629  0.00  0.00     0.044 A 
ATOM     13  C   UNL d   1      24.946 -16.661  -0.871  0.00  0.00    -0.042 A 
ATOM     14  C   UNL d   1      23.872 -15.950  -1.642  0.00  0.00     0.049 C 
ATOM     15  C   UNL d   1      24.780 -17.965  -0.381  0.00  0.00     0.017 A 
ATOM     16  C   UNL d   1      25.808 -18.575   0.338  0.00  0.00     0.022 A 
ATOM     17 BR   UNL d   1      23.176 -18.944  -0.663  0.00  0.00    -0.051 Br
ATOM     18  C   UNL d   1      27.007 -17.881   0.571  0.00  0.00     0.038 A 
ENDBRANCH  10  11
ENDBRANCH   9  10
ENDBRANCH   6   9
ENDBRANCH   3   5
ENDBRANCH   1   3
BRANCH   1  19
ATOM     19  N   UNL d   1      26.561 -13.614  -3.569  0.00  0.00    -0.266 N 
ATOM     20  C   UNL d   1      25.578 -14.285  -4.290  0.00  0.00     0.260 C 
ATOM     21  O   UNL d   1      24.381 -14.093  -4.045  0.00  0.00    -0.269 OA
ATOM     22  H   UNL d   1      27.560 -13.735  -3.737  0.00  0.00     0.190 HD
BRANCH  20  23
ATOM     23  C   UNL d   1      26.078 -15.282  -5.395  0.00  0.00     0.280 C 
BRANCH  23  24
ATOM     24  O   UNL d   1      27.487 -15.545  -5.249  0.00  0.00    -0.341 OA
BRANCH  24  25
ATOM     25  C   UNL d   1      28.371 -14.846  -6.047  0.00  0.00     0.080 A 
ATOM     26  C   UNL d   1      28.119 -13.539  -6.474  0.00  0.00     0.037 A 
ATOM     27  C   UNL d   1      29.063 -12.850  -7.243  0.00  0.00     0.004 A 
ATOM     28  C   UNL d   1      30.276 -13.451  -7.579  0.00  0.00     0.012 A 
ATOM     29  C   UNL d   1      30.583 -14.735  -7.117  0.00  0.00    -0.023 A 
ATOM     30  C   UNL d   1      31.831 -15.313  -7.418  0.00  0.00     0.012 A 
ATOM     31  C   UNL d   1      29.631 -15.447  -6.336  0.00  0.00     0.007 A 
ATOM     32  C   UNL d   1      32.158 -16.587  -6.957  0.00  0.00     0.001 A 
ATOM     33  C   UNL d   1      31.242 -17.294  -6.187  0.00  0.00     0.001 A 
ATOM     34  C   UNL d   1      29.997 -16.732  -5.881  0.00  0.00     0.015 A 
ENDBRANCH  24  25
ENDBRANCH  23  24
ENDBRANCH  20  23
ENDBRANCH   1  19
TORSDOF 9
ENDMDL
MODEL 9
REMARK VINA RESULT:    -6.048      4.244      6.435
REMARK INTER + INTRA:         -13.739
REMARK INTER:                  -8.732
REMARK INTRA:                  -5.007
REMARK CONF_INDEPENDENT:        2.685
REMARK UNBOUND:                -5.007
REMARK  9 active torsions:
REMARK  status: ('A' for Active; 'I' for Inactive)
REMARK    1  A    between atoms: C_4  and  O_5 
REMARK    2  A    between atoms: O_5  and  C_6 
REMARK    3  A    between atoms: C_6  and  C_7 
REMARK       I    between atoms: C_7  and  N_9 
REMARK    4  A    between atoms: N_9  and  C_10 
REMARK    5  A    between atoms: C_10  and  N_12 
REMARK    6  A    between atoms: N_12  and  N_13 
REMARK       I    between atoms: N_13  and  C_14 
REMARK    7  A    between atoms: C_14  and  C_16 
REMARK    8  A    between atoms: C_16  and  O_17 
REMARK    9  A    between atoms: O_17  and  C_18 
ROOT
ATOM      1  N   UNL d   1      25.530 -11.707  -4.022  0.00  0.00    -0.273 N 
ATOM      2  H   UNL d   1      24.559 -11.524  -4.269  0.00  0.00     0.189 HD
ENDROOT
BRANCH   1   3
ATOM      3  C   UNL d   1      26.403 -10.855  -3.310  0.00  0.00     0.193 C 
ATOM      4  S   UNL d   1      26.247  -9.185  -3.517  0.00  0.00    -0.039 SA
BRANCH   3   5
ATOM      5  N   UNL d   1      27.357 -11.490  -2.463  0.00  0.00    -0.301 N 
ATOM      6  C   UNL d   1      28.554 -12.133  -2.887  0.00  0.00     0.248 C 
ATOM      7  O   UNL d   1      28.883 -12.202  -4.076  0.00  0.00    -0.271 OA
ATOM      8  H   UNL d   1      27.168 -11.483  -1.468  0.00  0.00     0.171 HD
BRANCH   6   9
ATOM      9  C   UNL d   1      29.503 -12.784  -1.837  0.00  0.00     0.278 C 
BRANCH   9  10
ATOM     10  O   UNL d   1      28.752 -13.025  -0.615  0.00  0.00    -0.342 OA
BRANCH  10  11
ATOM     11  C   UNL d   1      28.000 -14.161  -0.476  0.00  0.00     0.070 A 
ATOM     12  C   UNL d   1      26.792 -14.388  -1.128  0.00  0.00     0.044 A 
ATOM     13  C   UNL d   1      26.066 -15.581  -0.944  0.00  0.00    -0.042 A 
ATOM     14  C   UNL d   1      24.767 -15.747  -1.679  0.00  0.00     0.049 C 
ATOM     15  C   UNL d   1      26.573 -16.567  -0.083  0.00  0.00     0.017 A 
ATOM     16  C   UNL d   1      27.781 -16.356   0.581  0.00  0.00     0.022 A 
ATOM     17 BR   UNL d   1      25.653 -18.202   0.219  0.00  0.00    -0.051 Br
ATOM     18  C   UNL d   1      28.487 -15.157   0.387  0.00  0.00     0.038 A 
ENDBRANCH  10  11
ENDBRANCH   9  10
ENDBRANCH   6   9
ENDBRANCH   3   5
ENDBRANCH   1   3
BRANCH   1  19
ATOM     19  N   UNL d   1      26.032 -13.017  -4.481  0.00  0.00    -0.266 N 
ATOM     20  C   UNL d   1      25.217 -14.144  -4.516  0.00  0.00     0.260 C 
ATOM     21  O   UNL d   1      24.036 -14.075  -4.154  0.00  0.00    -0.269 OA
ATOM     22  H   UNL d   1      27.010 -13.023  -4.774  0.00  0.00     0.190 HD
BRANCH  20  23
ATOM     23  C   UNL d   1      25.883 -15.474  -5.019  0.00  0.00     0.280 C 
BRANCH  23  24
ATOM     24  O   UNL d   1      27.118 -15.201  -5.709  0.00  0.00    -0.341 OA
BRANCH  24  25
ATOM     25  C   UNL d   1      28.298 -15.272  -4.996  0.00  0.00     0.080 A 
ATOM     26  C   UNL d   1      28.384 -15.915  -3.757  0.00  0.00     0.037 A 
ATOM     27  C   UNL d   1      29.610 -16.005  -3.090  0.00  0.00     0.004 A 
ATOM     28  C   UNL d   1      30.766 -15.472  -3.659  0.00  0.00     0.012 A 
ATOM     29  C   UNL d   1      30.724 -14.877  -4.924  0.00  0.00    -0.023 A 
ATOM     30  C   UNL d   1      31.906 -14.389  -5.513  0.00  0.00     0.012 A 
ATOM     31  C   UNL d   1      29.483 -14.777  -5.612  0.00  0.00     0.007 A 
ATOM     32  C   UNL d   1      31.884 -13.803  -6.777  0.00  0.00     0.001 A 
ATOM     33  C   UNL d   1      30.681 -13.703  -7.467  0.00  0.00     0.001 A 
ATOM     34  C   UNL d   1      29.499 -14.183  -6.892  0.00  0.00     0.015 A 
ENDBRANCH  24  25
ENDBRANCH  23  24
ENDBRANCH  20  23
ENDBRANCH   1  19
TORSDOF 9
ENDMDL
