MODEL 1
REMARK VINA RESULT:    -7.891      0.000      0.000
REMARK INTER + INTRA:         -11.768
REMARK INTER:                 -10.278
REMARK INTRA:                  -1.490
REMARK CONF_INDEPENDENT:        2.386
REMARK UNBOUND:                -1.490
REMARK  8 active torsions:
REMARK  status: ('A' for Active; 'I' for Inactive)
REMARK    1  A    between atoms: C_2  and  C_3 
REMARK    2  A    between atoms: C_3  and  C_4 
REMARK    3  A    between atoms: C_4  and  N_5 
REMARK       I    between atoms: N_5  and  C_6 
REMARK       I    between atoms: C_6  and  N_8 
REMARK    4  A    between atoms: N_8  and  N_9 
REMARK       I    between atoms: N_9  and  C_10 
REMARK    5  A    between atoms: C_10  and  C_12 
REMARK    6  A    between atoms: C_12  and  C_13 
REMARK    7  A    between atoms: C_13  and  C_14 
REMARK    8  A    between atoms: C_14  and  C_16 
ROOT
ATOM      1  N   UNL d   1      24.222 -16.842  -1.476  0.00  0.00    -0.266 N 
ATOM      2  C   UNL d   1      24.385 -17.911  -0.604  0.00  0.00     0.236 C 
ATOM      3  O   UNL d   1      25.438 -18.092   0.011  0.00  0.00    -0.272 OA
ATOM      4  H   UNL d   1      23.368 -16.655  -2.002  0.00  0.00     0.190 HD
ENDROOT
BRANCH   1   5
ATOM      5  N   UNL d   1      25.300 -15.915  -1.679  0.00  0.00    -0.249 N 
ATOM      6  C   UNL d   1      25.082 -14.745  -2.391  0.00  0.00     0.334 C 
ATOM      7  N   UNL d   1      26.189 -13.926  -2.528  0.00  0.00    -0.342 N 
ATOM      8  O   UNL d   1      23.978 -14.463  -2.863  0.00  0.00    -0.246 OA
ATOM      9  H   UNL d   1      27.071 -14.202  -2.122  0.00  0.00     0.164 HD
ATOM     10  H   UNL d   1      26.196 -16.178  -1.279  0.00  0.00     0.192 HD
BRANCH   7  11
ATOM     11  C   UNL d   1      26.113 -12.653  -3.255  0.00  0.00     0.124 C 
BRANCH  11  12
ATOM     12  C   UNL d   1      25.974 -12.800  -4.778  0.00  0.00     0.019 C 
BRANCH  12  13
ATOM     13  C   UNL d   1      27.039 -13.736  -5.375  0.00  0.00    -0.003 C 
ATOM     14  C   UNL d   1      26.628 -15.200  -5.267  0.00  0.00     0.005 C 
ENDBRANCH  12  13
ENDBRANCH  11  12
ENDBRANCH   7  11
ENDBRANCH   1   5
BRANCH   2  15
ATOM     15  C   UNL d   1      23.179 -18.851  -0.447  0.00  0.00     0.112 C 
BRANCH  15  16
ATOM     16  C   UNL d   1      21.867 -18.211  -0.958  0.00  0.00     0.093 C 
BRANCH  16  17
ATOM     17  C   UNL d   1      20.759 -19.232  -1.170  0.00  0.00     0.160 C 
ATOM     18  O   UNL d   1      20.494 -19.700  -2.277  0.00  0.00    -0.292 OA
BRANCH  17  19
ATOM     19  C   UNL d   1      19.976 -19.717   0.006  0.00  0.00     0.010 A 
ATOM     20  C   UNL d   1      20.505 -19.511   1.288  0.00  0.00     0.015 A 
ATOM     21  C   UNL d   1      19.886 -20.075   2.407  0.00  0.00     0.001 A 
ATOM     22  C   UNL d   1      18.703 -20.796   2.260  0.00  0.00     0.000 A 
ATOM     23  C   UNL d   1      18.160 -20.987   0.988  0.00  0.00     0.001 A 
ATOM     24  C   UNL d   1      18.796 -20.455  -0.141  0.00  0.00     0.015 A 
ENDBRANCH  17  19
ENDBRANCH  16  17
ENDBRANCH  15  16
ENDBRANCH   2  15
TORSDOF 8
ENDMDL
MODEL 2
REMARK VINA RESULT:    -7.882      1.574      2.168
REMARK INTER + INTRA:         -11.640
REMARK INTER:                 -10.268
REMARK INTRA:                  -1.372
REMARK CONF_INDEPENDENT:        2.386
REMARK UNBOUND:                -1.372
REMARK  8 active torsions:
REMARK  status: ('A' for Active; 'I' for Inactive)
REMARK    1  A    between atoms: C_2  and  C_3 
REMARK    2  A    between atoms: C_3  and  C_4 
REMARK    3  A    between atoms: C_4  and  N_5 
REMARK       I    between atoms: N_5  and  C_6 
REMARK       I    between atoms: C_6  and  N_8 
REMARK    4  A    between atoms: N_8  and  N_9 
REMARK       I    between atoms: N_9  and  C_10 
REMARK    5  A    between atoms: C_10  and  C_12 
REMARK    6  A    between atoms: C_12  and  C_13 
REMARK    7  A    between atoms: C_13  and  C_14 
REMARK    8  A    between atoms: C_14  and  C_16 
ROOT
ATOM      1  N   UNL d   1      24.654 -16.486  -1.915  0.00  0.00    -0.266 N 
ATOM      2  C   UNL d   1      24.609 -17.444  -0.910  0.00  0.00     0.236 C 
ATOM      3  O   UNL d   1      25.585 -18.148  -0.640  0.00  0.00    -0.272 OA
ATOM      4  H   UNL d   1      23.873 -15.882  -2.168  0.00  0.00     0.190 HD
ENDROOT
BRANCH   1   5
ATOM      5  N   UNL d   1      25.862 -16.300  -2.671  0.00  0.00    -0.249 N 
ATOM      6  C   UNL d   1      25.884 -15.407  -3.732  0.00  0.00     0.334 C 
ATOM      7  N   UNL d   1      27.096 -15.308  -4.390  0.00  0.00    -0.342 N 
ATOM      8  O   UNL d   1      24.889 -14.754  -4.057  0.00  0.00    -0.246 OA
ATOM      9  H   UNL d   1      27.881 -15.865  -4.085  0.00  0.00     0.164 HD
ATOM     10  H   UNL d   1      26.661 -16.854  -2.377  0.00  0.00     0.192 HD
BRANCH   7  11
ATOM     11  C   UNL d   1      27.274 -14.403  -5.533  0.00  0.00     0.124 C 
BRANCH  11  12
ATOM     12  C   UNL d   1      28.510 -14.705  -6.394  0.00  0.00     0.019 C 
BRANCH  12  13
ATOM     13  C   UNL d   1      29.580 -13.604  -6.289  0.00  0.00    -0.003 C 
ATOM     14  C   UNL d   1      30.340 -13.429  -7.598  0.00  0.00     0.005 C 
ENDBRANCH  12  13
ENDBRANCH  11  12
ENDBRANCH   7  11
ENDBRANCH   1   5
BRANCH   2  15
ATOM     15  C   UNL d   1      23.278 -17.573  -0.153  0.00  0.00     0.112 C 
BRANCH  15  16
ATOM     16  C   UNL d   1      22.480 -18.828  -0.580  0.00  0.00     0.093 C 
BRANCH  16  17
ATOM     17  C   UNL d   1      20.978 -18.587  -0.610  0.00  0.00     0.160 C 
ATOM     18  O   UNL d   1      20.467 -17.683  -1.270  0.00  0.00    -0.292 OA
BRANCH  17  19
ATOM     19  C   UNL d   1      20.076 -19.494   0.160  0.00  0.00     0.010 A 
ATOM     20  C   UNL d   1      18.998 -20.088  -0.512  0.00  0.00     0.015 A 
ATOM     21  C   UNL d   1      18.043 -20.825   0.195  0.00  0.00     0.001 A 
ATOM     22  C   UNL d   1      18.191 -21.022   1.566  0.00  0.00     0.000 A 
ATOM     23  C   UNL d   1      19.273 -20.450   2.237  0.00  0.00     0.001 A 
ATOM     24  C   UNL d   1      20.213 -19.681   1.540  0.00  0.00     0.015 A 
ENDBRANCH  17  19
ENDBRANCH  16  17
ENDBRANCH  15  16
ENDBRANCH   2  15
TORSDOF 8
ENDMDL
MODEL 3
REMARK VINA RESULT:    -7.788      1.676      8.669
REMARK INTER + INTRA:         -12.404
REMARK INTER:                 -10.174
REMARK INTRA:                  -2.229
REMARK CONF_INDEPENDENT:        2.386
REMARK UNBOUND:                -2.229
REMARK  8 active torsions:
REMARK  status: ('A' for Active; 'I' for Inactive)
REMARK    1  A    between atoms: C_2  and  C_3 
REMARK    2  A    between atoms: C_3  and  C_4 
REMARK    3  A    between atoms: C_4  and  N_5 
REMARK       I    between atoms: N_5  and  C_6 
REMARK       I    between atoms: C_6  and  N_8 
REMARK    4  A    between atoms: N_8  and  N_9 
REMARK       I    between atoms: N_9  and  C_10 
REMARK    5  A    between atoms: C_10  and  C_12 
REMARK    6  A    between atoms: C_12  and  C_13 
REMARK    7  A    between atoms: C_13  and  C_14 
REMARK    8  A    between atoms: C_14  and  C_16 
ROOT
ATOM      1  N   UNL d   1      23.934 -17.591  -0.222  0.00  0.00    -0.266 N 
ATOM      2  C   UNL d   1      25.263 -17.624   0.182  0.00  0.00     0.236 C 
ATOM      3  O   UNL d   1      25.723 -18.574   0.819  0.00  0.00    -0.272 OA
ATOM      4  H   UNL d   1      23.513 -16.827  -0.751  0.00  0.00     0.190 HD
ENDROOT
BRANCH   1   5
ATOM      5  N   UNL d   1      23.060 -18.684   0.105  0.00  0.00    -0.249 N 
ATOM      6  C   UNL d   1      21.728 -18.644  -0.280  0.00  0.00     0.334 C 
ATOM      7  N   UNL d   1      20.978 -19.746   0.087  0.00  0.00    -0.342 N 
ATOM      8  O   UNL d   1      21.256 -17.691  -0.906  0.00  0.00    -0.246 OA
ATOM      9  H   UNL d   1      21.411 -20.502   0.599  0.00  0.00     0.164 HD
ATOM     10  H   UNL d   1      23.480 -19.451   0.621  0.00  0.00     0.192 HD
BRANCH   7  11
ATOM     11  C   UNL d   1      19.553 -19.849  -0.251  0.00  0.00     0.124 C 
BRANCH  11  12
ATOM     12  C   UNL d   1      18.762 -20.832   0.626  0.00  0.00     0.019 C 
BRANCH  12  13
ATOM     13  C   UNL d   1      18.599 -20.328   2.070  0.00  0.00    -0.003 C 
ATOM     14  C   UNL d   1      19.897 -20.448   2.860  0.00  0.00     0.005 C 
ENDBRANCH  12  13
ENDBRANCH  11  12
ENDBRANCH   7  11
ENDBRANCH   1   5
BRANCH   2  15
ATOM     15  C   UNL d   1      26.123 -16.414  -0.212  0.00  0.00     0.112 C 
BRANCH  15  16
ATOM     16  C   UNL d   1      26.361 -16.335  -1.739  0.00  0.00     0.093 C 
BRANCH  16  17
ATOM     17  C   UNL d   1      25.306 -15.505  -2.456  0.00  0.00     0.160 C 
ATOM     18  O   UNL d   1      24.110 -15.573  -2.177  0.00  0.00    -0.292 OA
BRANCH  17  19
ATOM     19  C   UNL d   1      25.729 -14.544  -3.517  0.00  0.00     0.010 A 
ATOM     20  C   UNL d   1      26.612 -14.993  -4.509  0.00  0.00     0.015 A 
ATOM     21  C   UNL d   1      27.151 -14.096  -5.436  0.00  0.00     0.001 A 
ATOM     22  C   UNL d   1      26.765 -12.758  -5.415  0.00  0.00     0.000 A 
ATOM     23  C   UNL d   1      25.870 -12.308  -4.442  0.00  0.00     0.001 A 
ATOM     24  C   UNL d   1      25.354 -13.196  -3.489  0.00  0.00     0.015 A 
ENDBRANCH  17  19
ENDBRANCH  16  17
ENDBRANCH  15  16
ENDBRANCH   2  15
TORSDOF 8
ENDMDL
MODEL 4
REMARK VINA RESULT:    -7.738      3.427      4.322
REMARK INTER + INTRA:         -11.615
REMARK INTER:                 -10.125
REMARK INTRA:                  -1.491
REMARK CONF_INDEPENDENT:        2.386
REMARK UNBOUND:                -1.491
REMARK  8 active torsions:
REMARK  status: ('A' for Active; 'I' for Inactive)
REMARK    1  A    between atoms: C_2  and  C_3 
REMARK    2  A    between atoms: C_3  and  C_4 
REMARK    3  A    between atoms: C_4  and  N_5 
REMARK       I    between atoms: N_5  and  C_6 
REMARK       I    between atoms: C_6  and  N_8 
REMARK    4  A    between atoms: N_8  and  N_9 
REMARK       I    between atoms: N_9  and  C_10 
REMARK    5  A    between atoms: C_10  and  C_12 
REMARK    6  A    between atoms: C_12  and  C_13 
REMARK    7  A    between atoms: C_13  and  C_14 
REMARK    8  A    between atoms: C_14  and  C_16 
ROOT
ATOM      1  N   UNL d   1      25.262 -16.605  -0.336  0.00  0.00    -0.266 N 
ATOM      2  C   UNL d   1      24.721 -17.868  -0.542  0.00  0.00     0.236 C 
ATOM      3  O   UNL d   1      25.278 -18.887  -0.130  0.00  0.00    -0.272 OA
ATOM      4  H   UNL d   1      24.834 -15.737  -0.658  0.00  0.00     0.190 HD
ENDROOT
BRANCH   1   5
ATOM      5  N   UNL d   1      26.503 -16.467   0.374  0.00  0.00    -0.249 N 
ATOM      6  C   UNL d   1      27.031 -15.205   0.606  0.00  0.00     0.334 C 
ATOM      7  N   UNL d   1      28.229 -15.189   1.297  0.00  0.00    -0.342 N 
ATOM      8  O   UNL d   1      26.465 -14.178   0.222  0.00  0.00    -0.246 OA
ATOM      9  H   UNL d   1      28.653 -16.057   1.590  0.00  0.00     0.164 HD
ATOM     10  H   UNL d   1      26.943 -17.331   0.675  0.00  0.00     0.192 HD
BRANCH   7  11
ATOM     11  C   UNL d   1      28.909 -13.928   1.618  0.00  0.00     0.124 C 
BRANCH  11  12
ATOM     12  C   UNL d   1      29.166 -13.710   3.117  0.00  0.00     0.019 C 
BRANCH  12  13
ATOM     13  C   UNL d   1      27.917 -13.985   3.972  0.00  0.00    -0.003 C 
ATOM     14  C   UNL d   1      28.144 -15.131   4.951  0.00  0.00     0.005 C 
ENDBRANCH  12  13
ENDBRANCH  11  12
ENDBRANCH   7  11
ENDBRANCH   1   5
BRANCH   2  15
ATOM     15  C   UNL d   1      23.391 -17.920  -1.309  0.00  0.00     0.112 C 
BRANCH  15  16
ATOM     16  C   UNL d   1      22.494 -19.094  -0.850  0.00  0.00     0.093 C 
BRANCH  16  17
ATOM     17  C   UNL d   1      21.033 -18.694  -0.702  0.00  0.00     0.160 C 
ATOM     18  O   UNL d   1      20.561 -17.701  -1.253  0.00  0.00    -0.292 OA
BRANCH  17  19
ATOM     19  C   UNL d   1      20.120 -19.549   0.113  0.00  0.00     0.010 A 
ATOM     20  C   UNL d   1      19.007 -20.124  -0.518  0.00  0.00     0.015 A 
ATOM     21  C   UNL d   1      18.045 -20.808   0.231  0.00  0.00     0.001 A 
ATOM     22  C   UNL d   1      18.219 -20.974   1.603  0.00  0.00     0.000 A 
ATOM     23  C   UNL d   1      19.335 -20.422   2.233  0.00  0.00     0.001 A 
ATOM     24  C   UNL d   1      20.284 -19.704   1.494  0.00  0.00     0.015 A 
ENDBRANCH  17  19
ENDBRANCH  16  17
ENDBRANCH  15  16
ENDBRANCH   2  15
TORSDOF 8
ENDMDL
MODEL 5
REMARK VINA RESULT:    -7.681      1.686      8.635
REMARK INTER + INTRA:         -12.217
REMARK INTER:                 -10.067
REMARK INTRA:                  -2.150
REMARK CONF_INDEPENDENT:        2.386
REMARK UNBOUND:                -2.150
REMARK  8 active torsions:
REMARK  status: ('A' for Active; 'I' for Inactive)
REMARK    1  A    between atoms: C_2  and  C_3 
REMARK    2  A    between atoms: C_3  and  C_4 
REMARK    3  A    between atoms: C_4  and  N_5 
REMARK       I    between atoms: N_5  and  C_6 
REMARK       I    between atoms: C_6  and  N_8 
REMARK    4  A    between atoms: N_8  and  N_9 
REMARK       I    between atoms: N_9  and  C_10 
REMARK    5  A    between atoms: C_10  and  C_12 
REMARK    6  A    between atoms: C_12  and  C_13 
REMARK    7  A    between atoms: C_13  and  C_14 
REMARK    8  A    between atoms: C_14  and  C_16 
ROOT
ATOM      1  N   UNL d   1      24.140 -17.729  -0.318  0.00  0.00    -0.266 N 
ATOM      2  C   UNL d   1      25.419 -17.719   0.224  0.00  0.00     0.236 C 
ATOM      3  O   UNL d   1      25.789 -18.576   1.029  0.00  0.00    -0.272 OA
ATOM      4  H   UNL d   1      23.795 -17.042  -0.988  0.00  0.00     0.190 HD
ENDROOT
BRANCH   1   5
ATOM      5  N   UNL d   1      23.212 -18.759   0.061  0.00  0.00    -0.249 N 
ATOM      6  C   UNL d   1      21.879 -18.660  -0.311  0.00  0.00     0.334 C 
ATOM      7  N   UNL d   1      21.075 -19.704   0.108  0.00  0.00    -0.342 N 
ATOM      8  O   UNL d   1      21.452 -17.706  -0.967  0.00  0.00    -0.246 OA
ATOM      9  H   UNL d   1      21.472 -20.462   0.644  0.00  0.00     0.164 HD
ATOM     10  H   UNL d   1      23.596 -19.528   0.601  0.00  0.00     0.192 HD
BRANCH   7  11
ATOM     11  C   UNL d   1      19.642 -19.740  -0.210  0.00  0.00     0.124 C 
BRANCH  11  12
ATOM     12  C   UNL d   1      18.848 -20.808   0.559  0.00  0.00     0.019 C 
BRANCH  12  13
ATOM     13  C   UNL d   1      18.613 -20.418   2.028  0.00  0.00    -0.003 C 
ATOM     14  C   UNL d   1      19.919 -20.077   2.738  0.00  0.00     0.005 C 
ENDBRANCH  12  13
ENDBRANCH  11  12
ENDBRANCH   7  11
ENDBRANCH   1   5
BRANCH   2  15
ATOM     15  C   UNL d   1      26.344 -16.583  -0.239  0.00  0.00     0.112 C 
BRANCH  15  16
ATOM     16  C   UNL d   1      26.462 -16.513  -1.779  0.00  0.00     0.093 C 
BRANCH  16  17
ATOM     17  C   UNL d   1      25.469 -15.544  -2.402  0.00  0.00     0.160 C 
ATOM     18  O   UNL d   1      24.269 -15.560  -2.128  0.00  0.00    -0.292 OA
BRANCH  17  19
ATOM     19  C   UNL d   1      25.958 -14.507  -3.358  0.00  0.00     0.010 A 
ATOM     20  C   UNL d   1      25.544 -13.180  -3.172  0.00  0.00     0.015 A 
ATOM     21  C   UNL d   1      25.854 -12.203  -4.121  0.00  0.00     0.001 A 
ATOM     22  C   UNL d   1      26.630 -12.530  -5.231  0.00  0.00     0.000 A 
ATOM     23  C   UNL d   1      27.062 -13.845  -5.412  0.00  0.00     0.001 A 
ATOM     24  C   UNL d   1      26.725 -14.837  -4.482  0.00  0.00     0.015 A 
ENDBRANCH  17  19
ENDBRANCH  16  17
ENDBRANCH  15  16
ENDBRANCH   2  15
TORSDOF 8
ENDMDL
MODEL 6
REMARK VINA RESULT:    -7.454      4.103      5.065
REMARK INTER + INTRA:         -11.190
REMARK INTER:                  -9.841
REMARK INTRA:                  -1.349
REMARK CONF_INDEPENDENT:        2.386
REMARK UNBOUND:                -1.349
REMARK  8 active torsions:
REMARK  status: ('A' for Active; 'I' for Inactive)
REMARK    1  A    between atoms: C_2  and  C_3 
REMARK    2  A    between atoms: C_3  and  C_4 
REMARK    3  A    between atoms: C_4  and  N_5 
REMARK       I    between atoms: N_5  and  C_6 
REMARK       I    between atoms: C_6  and  N_8 
REMARK    4  A    between atoms: N_8  and  N_9 
REMARK       I    between atoms: N_9  and  C_10 
REMARK    5  A    between atoms: C_10  and  C_12 
REMARK    6  A    between atoms: C_12  and  C_13 
REMARK    7  A    between atoms: C_13  and  C_14 
REMARK    8  A    between atoms: C_14  and  C_16 
ROOT
ATOM      1  N   UNL d   1      26.114 -15.873   0.018  0.00  0.00    -0.266 N 
ATOM      2  C   UNL d   1      25.548 -17.103  -0.298  0.00  0.00     0.236 C 
ATOM      3  O   UNL d   1      26.067 -18.164   0.053  0.00  0.00    -0.272 OA
ATOM      4  H   UNL d   1      25.717 -14.973  -0.250  0.00  0.00     0.190 HD
ENDROOT
BRANCH   1   5
ATOM      5  N   UNL d   1      27.337 -15.821   0.770  0.00  0.00    -0.249 N 
ATOM      6  C   UNL d   1      27.637 -14.698   1.527  0.00  0.00     0.334 C 
ATOM      7  N   UNL d   1      28.838 -14.755   2.209  0.00  0.00    -0.342 N 
ATOM      8  O   UNL d   1      26.881 -13.725   1.581  0.00  0.00    -0.246 OA
ATOM      9  H   UNL d   1      29.423 -15.575   2.132  0.00  0.00     0.164 HD
ATOM     10  H   UNL d   1      27.936 -16.638   0.703  0.00  0.00     0.192 HD
BRANCH   7  11
ATOM     11  C   UNL d   1      29.292 -13.642   3.052  0.00  0.00     0.124 C 
BRANCH  11  12
ATOM     12  C   UNL d   1      29.507 -14.011   4.528  0.00  0.00     0.019 C 
BRANCH  12  13
ATOM     13  C   UNL d   1      28.189 -14.350   5.245  0.00  0.00    -0.003 C 
ATOM     14  C   UNL d   1      27.485 -13.097   5.755  0.00  0.00     0.005 C 
ENDBRANCH  12  13
ENDBRANCH  11  12
ENDBRANCH   7  11
ENDBRANCH   1   5
BRANCH   2  15
ATOM     15  C   UNL d   1      24.241 -17.062  -1.103  0.00  0.00     0.112 C 
BRANCH  15  16
ATOM     16  C   UNL d   1      23.026 -17.544  -0.276  0.00  0.00     0.093 C 
BRANCH  16  17
ATOM     17  C   UNL d   1      22.281 -18.693  -0.940  0.00  0.00     0.160 C 
ATOM     18  O   UNL d   1      22.647 -19.190  -2.005  0.00  0.00    -0.292 OA
BRANCH  17  19
ATOM     19  C   UNL d   1      21.078 -19.269  -0.270  0.00  0.00     0.010 A 
ATOM     20  C   UNL d   1      19.997 -19.668  -1.070  0.00  0.00     0.015 A 
ATOM     21  C   UNL d   1      18.795 -20.075  -0.483  0.00  0.00     0.001 A 
ATOM     22  C   UNL d   1      18.685 -20.143   0.904  0.00  0.00     0.000 A 
ATOM     23  C   UNL d   1      19.765 -19.767   1.705  0.00  0.00     0.001 A 
ATOM     24  C   UNL d   1      20.960 -19.324   1.124  0.00  0.00     0.015 A 
ENDBRANCH  17  19
ENDBRANCH  16  17
ENDBRANCH  15  16
ENDBRANCH   2  15
TORSDOF 8
ENDMDL
MODEL 7
REMARK VINA RESULT:    -7.217      1.755      2.169
REMARK INTER + INTRA:         -11.054
REMARK INTER:                  -9.604
REMARK INTRA:                  -1.450
REMARK CONF_INDEPENDENT:        2.386
REMARK UNBOUND:                -1.450
REMARK  8 active torsions:
REMARK  status: ('A' for Active; 'I' for Inactive)
REMARK    1  A    between atoms: C_2  and  C_3 
REMARK    2  A    between atoms: C_3  and  C_4 
REMARK    3  A    between atoms: C_4  and  N_5 
REMARK       I    between atoms: N_5  and  C_6 
REMARK       I    between atoms: C_6  and  N_8 
REMARK    4  A    between atoms: N_8  and  N_9 
REMARK       I    between atoms: N_9  and  C_10 
REMARK    5  A    between atoms: C_10  and  C_12 
REMARK    6  A    between atoms: C_12  and  C_13 
REMARK    7  A    between atoms: C_13  and  C_14 
REMARK    8  A    between atoms: C_14  and  C_16 
ROOT
ATOM      1  N   UNL d   1      24.731 -16.006  -2.108  0.00  0.00    -0.266 N 
ATOM      2  C   UNL d   1      23.742 -16.506  -1.269  0.00  0.00     0.236 C 
ATOM      3  O   UNL d   1      22.702 -15.881  -1.049  0.00  0.00    -0.272 OA
ATOM      4  H   UNL d   1      25.603 -16.489  -2.319  0.00  0.00     0.190 HD
ENDROOT
BRANCH   1   5
ATOM      5  N   UNL d   1      24.552 -14.728  -2.740  0.00  0.00    -0.249 N 
ATOM      6  C   UNL d   1      25.572 -14.188  -3.509  0.00  0.00     0.334 C 
ATOM      7  N   UNL d   1      25.294 -12.954  -4.070  0.00  0.00    -0.342 N 
ATOM      8  O   UNL d   1      26.645 -14.772  -3.676  0.00  0.00    -0.246 OA
ATOM      9  H   UNL d   1      24.399 -12.516  -3.903  0.00  0.00     0.164 HD
ATOM     10  H   UNL d   1      23.658 -14.273  -2.582  0.00  0.00     0.192 HD
BRANCH   7  11
ATOM     11  C   UNL d   1      26.275 -12.257  -4.910  0.00  0.00     0.124 C 
BRANCH  11  12
ATOM     12  C   UNL d   1      25.669 -11.212  -5.859  0.00  0.00     0.019 C 
BRANCH  12  13
ATOM     13  C   UNL d   1      26.493 -11.043  -7.147  0.00  0.00    -0.003 C 
ATOM     14  C   UNL d   1      26.736  -9.573  -7.472  0.00  0.00     0.005 C 
ENDBRANCH  12  13
ENDBRANCH  11  12
ENDBRANCH   7  11
ENDBRANCH   1   5
BRANCH   2  15
ATOM     15  C   UNL d   1      24.017 -17.879  -0.638  0.00  0.00     0.112 C 
BRANCH  15  16
ATOM     16  C   UNL d   1      22.852 -18.356   0.261  0.00  0.00     0.093 C 
BRANCH  16  17
ATOM     17  C   UNL d   1      21.701 -18.951  -0.536  0.00  0.00     0.160 C 
ATOM     18  O   UNL d   1      21.725 -19.044  -1.762  0.00  0.00    -0.292 OA
BRANCH  17  19
ATOM     19  C   UNL d   1      20.505 -19.477   0.188  0.00  0.00     0.010 A 
ATOM     20  C   UNL d   1      20.513 -19.457   1.590  0.00  0.00     0.015 A 
ATOM     21  C   UNL d   1      19.485 -20.070   2.312  0.00  0.00     0.001 A 
ATOM     22  C   UNL d   1      18.413 -20.653   1.639  0.00  0.00     0.000 A 
ATOM     23  C   UNL d   1      18.389 -20.658   0.243  0.00  0.00     0.001 A 
ATOM     24  C   UNL d   1      19.435 -20.076  -0.486  0.00  0.00     0.015 A 
ENDBRANCH  17  19
ENDBRANCH  16  17
ENDBRANCH  15  16
ENDBRANCH   2  15
TORSDOF 8
ENDMDL
MODEL 8
REMARK VINA RESULT:    -7.109      3.840      4.350
REMARK INTER + INTRA:         -10.913
REMARK INTER:                  -9.495
REMARK INTRA:                  -1.417
REMARK CONF_INDEPENDENT:        2.386
REMARK UNBOUND:                -1.417
REMARK  8 active torsions:
REMARK  status: ('A' for Active; 'I' for Inactive)
REMARK    1  A    between atoms: C_2  and  C_3 
REMARK    2  A    between atoms: C_3  and  C_4 
REMARK    3  A    between atoms: C_4  and  N_5 
REMARK       I    between atoms: N_5  and  C_6 
REMARK       I    between atoms: C_6  and  N_8 
REMARK    4  A    between atoms: N_8  and  N_9 
REMARK       I    between atoms: N_9  and  C_10 
REMARK    5  A    between atoms: C_10  and  C_12 
REMARK    6  A    between atoms: C_12  and  C_13 
REMARK    7  A    between atoms: C_13  and  C_14 
REMARK    8  A    between atoms: C_14  and  C_16 
ROOT
ATOM      1  N   UNL d   1      26.004 -17.162  -0.873  0.00  0.00    -0.266 N 
ATOM      2  C   UNL d   1      24.865 -17.711  -0.297  0.00  0.00     0.236 C 
ATOM      3  O   UNL d   1      24.882 -18.200   0.834  0.00  0.00    -0.272 OA
ATOM      4  H   UNL d   1      26.034 -16.746  -1.804  0.00  0.00     0.190 HD
ENDROOT
BRANCH   1   5
ATOM      5  N   UNL d   1      27.243 -17.158  -0.144  0.00  0.00    -0.249 N 
ATOM      6  C   UNL d   1      28.416 -16.774  -0.776  0.00  0.00     0.334 C 
ATOM      7  N   UNL d   1      29.548 -16.809   0.019  0.00  0.00    -0.342 N 
ATOM      8  O   UNL d   1      28.439 -16.427  -1.959  0.00  0.00    -0.246 OA
ATOM      9  H   UNL d   1      29.477 -17.100   0.983  0.00  0.00     0.164 HD
ATOM     10  H   UNL d   1      27.189 -17.449   0.827  0.00  0.00     0.192 HD
BRANCH   7  11
ATOM     11  C   UNL d   1      30.864 -16.429  -0.509  0.00  0.00     0.124 C 
BRANCH  11  12
ATOM     12  C   UNL d   1      31.592 -15.355   0.315  0.00  0.00     0.019 C 
BRANCH  12  13
ATOM     13  C   UNL d   1      32.316 -15.946   1.537  0.00  0.00    -0.003 C 
ATOM     14  C   UNL d   1      31.912 -15.242   2.827  0.00  0.00     0.005 C 
ENDBRANCH  12  13
ENDBRANCH  11  12
ENDBRANCH   7  11
ENDBRANCH   1   5
BRANCH   2  15
ATOM     15  C   UNL d   1      23.587 -17.671  -1.148  0.00  0.00     0.112 C 
BRANCH  15  16
ATOM     16  C   UNL d   1      22.674 -18.894  -0.895  0.00  0.00     0.093 C 
BRANCH  16  17
ATOM     17  C   UNL d   1      21.213 -18.510  -0.717  0.00  0.00     0.160 C 
ATOM     18  O   UNL d   1      20.715 -17.529  -1.269  0.00  0.00    -0.292 OA
BRANCH  17  19
ATOM     19  C   UNL d   1      20.330 -19.365   0.131  0.00  0.00     0.010 A 
ATOM     20  C   UNL d   1      19.290 -20.070  -0.492  0.00  0.00     0.015 A 
ATOM     21  C   UNL d   1      18.349 -20.765   0.274  0.00  0.00     0.001 A 
ATOM     22  C   UNL d   1      18.475 -20.809   1.660  0.00  0.00     0.000 A 
ATOM     23  C   UNL d   1      19.520 -20.126   2.284  0.00  0.00     0.001 A 
ATOM     24  C   UNL d   1      20.445 -19.399   1.525  0.00  0.00     0.015 A 
ENDBRANCH  17  19
ENDBRANCH  16  17
ENDBRANCH  15  16
ENDBRANCH   2  15
TORSDOF 8
ENDMDL
MODEL 9
REMARK VINA RESULT:    -6.983      2.344      8.814
REMARK INTER + INTRA:         -10.901
REMARK INTER:                  -9.370
REMARK INTRA:                  -1.531
REMARK CONF_INDEPENDENT:        2.386
REMARK UNBOUND:                -1.531
REMARK  8 active torsions:
REMARK  status: ('A' for Active; 'I' for Inactive)
REMARK    1  A    between atoms: C_2  and  C_3 
REMARK    2  A    between atoms: C_3  and  C_4 
REMARK    3  A    between atoms: C_4  and  N_5 
REMARK       I    between atoms: N_5  and  C_6 
REMARK       I    between atoms: C_6  and  N_8 
REMARK    4  A    between atoms: N_8  and  N_9 
REMARK       I    between atoms: N_9  and  C_10 
REMARK    5  A    between atoms: C_10  and  C_12 
REMARK    6  A    between atoms: C_12  and  C_13 
REMARK    7  A    between atoms: C_13  and  C_14 
REMARK    8  A    between atoms: C_14  and  C_16 
ROOT
ATOM      1  N   UNL d   1      23.083 -17.813  -0.524  0.00  0.00    -0.266 N 
ATOM      2  C   UNL d   1      24.433 -17.702  -0.215  0.00  0.00     0.236 C 
ATOM      3  O   UNL d   1      25.022 -18.565   0.440  0.00  0.00    -0.272 OA
ATOM      4  H   UNL d   1      22.559 -17.125  -1.063  0.00  0.00     0.190 HD
ENDROOT
BRANCH   1   5
ATOM      5  N   UNL d   1      22.340 -18.958  -0.075  0.00  0.00    -0.249 N 
ATOM      6  C   UNL d   1      20.990 -19.068  -0.376  0.00  0.00     0.334 C 
ATOM      7  N   UNL d   1      20.373 -20.208   0.106  0.00  0.00    -0.342 N 
ATOM      8  O   UNL d   1      20.393 -18.208  -1.028  0.00  0.00    -0.246 OA
ATOM      9  H   UNL d   1      20.906 -20.883   0.635  0.00  0.00     0.164 HD
ATOM     10  H   UNL d   1      22.861 -19.646   0.460  0.00  0.00     0.192 HD
BRANCH   7  11
ATOM     11  C   UNL d   1      18.948 -20.465  -0.134  0.00  0.00     0.124 C 
BRANCH  11  12
ATOM     12  C   UNL d   1      18.174 -20.950   1.102  0.00  0.00     0.019 C 
BRANCH  12  13
ATOM     13  C   UNL d   1      18.433 -20.070   2.337  0.00  0.00    -0.003 C 
ATOM     14  C   UNL d   1      19.727 -20.456   3.044  0.00  0.00     0.005 C 
ENDBRANCH  12  13
ENDBRANCH  11  12
ENDBRANCH   7  11
ENDBRANCH   1   5
BRANCH   2  15
ATOM     15  C   UNL d   1      25.149 -16.446  -0.736  0.00  0.00     0.112 C 
BRANCH  15  16
ATOM     16  C   UNL d   1      24.493 -15.889  -2.021  0.00  0.00     0.093 C 
BRANCH  16  17
ATOM     17  C   UNL d   1      25.484 -15.163  -2.920  0.00  0.00     0.160 C 
ATOM     18  O   UNL d   1      25.148 -14.624  -3.974  0.00  0.00    -0.292 OA
BRANCH  17  19
ATOM     19  C   UNL d   1      26.914 -15.065  -2.503  0.00  0.00     0.010 A 
ATOM     20  C   UNL d   1      27.260 -14.118  -1.529  0.00  0.00     0.015 A 
ATOM     21  C   UNL d   1      28.602 -13.886  -1.213  0.00  0.00     0.001 A 
ATOM     22  C   UNL d   1      29.601 -14.640  -1.823  0.00  0.00     0.000 A 
ATOM     23  C   UNL d   1      29.262 -15.599  -2.779  0.00  0.00     0.001 A 
ATOM     24  C   UNL d   1      27.921 -15.810  -3.126  0.00  0.00     0.015 A 
ENDBRANCH  17  19
ENDBRANCH  16  17
ENDBRANCH  15  16
ENDBRANCH   2  15
TORSDOF 8
ENDMDL
