MODEL 1
REMARK VINA RESULT:    -8.265      0.000      0.000
REMARK INTER + INTRA:         -11.031
REMARK INTER:                 -10.055
REMARK INTRA:                  -0.976
REMARK CONF_INDEPENDENT:        1.790
REMARK UNBOUND:                -0.976
REMARK  6 active torsions:
REMARK  status: ('A' for Active; 'I' for Inactive)
REMARK    1  A    between atoms: C_7  and  C_8 
REMARK       I    between atoms: C_8  and  N_10 
REMARK    2  A    between atoms: N_10  and  C_11 
REMARK    3  A    between atoms: C_13  and  C_11 
REMARK    4  A    between atoms: C_13  and  C_15 
REMARK    5  A    between atoms: C_13  and  O_14 
REMARK    6  A    between atoms: C_18  and  O_19 
ROOT
ATOM      1  C   UNL d   1      22.642 -18.262  -0.366  0.00  0.00     0.114 C 
ATOM      2  C   UNL d   1      23.494 -19.527  -0.518  0.00  0.00     0.035 C 
ENDROOT
BRANCH   1   3
ATOM      3  N   UNL d   1      23.392 -17.087  -0.794  0.00  0.00    -0.350 N 
ATOM      4  C   UNL d   1      24.732 -16.949  -0.505  0.00  0.00     0.252 C 
ATOM      5  O   UNL d   1      25.357 -17.780   0.155  0.00  0.00    -0.268 OA
ATOM      6  H   UNL d   1      22.915 -16.438  -1.400  0.00  0.00     0.163 HD
BRANCH   4   7
ATOM      7  C   UNL d   1      25.439 -15.741  -0.994  0.00  0.00     0.033 A 
ATOM      8  C   UNL d   1      25.249 -15.382  -2.336  0.00  0.00     0.023 A 
ATOM      9  C   UNL d   1      25.894 -14.268  -2.881  0.00  0.00    -0.061 A 
ATOM     10  C   UNL d   1      26.742 -13.510  -2.065  0.00  0.00     0.013 A 
ATOM     11  C   UNL d   1      25.663 -13.918  -4.320  0.00  0.00     0.048 C 
ATOM     12  C   UNL d   1      26.937 -13.853  -0.721  0.00  0.00    -0.061 A 
ATOM     13  C   UNL d   1      27.831 -13.047   0.171  0.00  0.00     0.048 C 
ATOM     14  C   UNL d   1      26.282 -14.971  -0.191  0.00  0.00     0.023 A 
ENDBRANCH   4   7
ENDBRANCH   1   3
BRANCH   1  15
ATOM     15  C   UNL d   1      21.262 -18.385  -1.083  0.00  0.00     0.173 C 
BRANCH  15  16
ATOM     16  C   UNL d   1      20.265 -19.232  -0.315  0.00  0.00    -0.028 A 
ATOM     17  C   UNL d   1      19.109 -19.700  -0.960  0.00  0.00     0.012 A 
ATOM     18  C   UNL d   1      18.215 -20.539  -0.288  0.00  0.00     0.037 A 
ATOM     19  C   UNL d   1      18.483 -20.913   1.027  0.00  0.00     0.065 A 
ATOM     20  C   UNL d   1      19.612 -20.450   1.682  0.00  0.00     0.037 A 
ATOM     21  C   UNL d   1      20.488 -19.597   1.022  0.00  0.00     0.012 A 
BRANCH  19  22
ATOM     22  O   UNL d   1      17.661 -21.742   1.730  0.00  0.00    -0.361 OA
ATOM     23  H   UNL d   1      16.991 -22.101   1.129  0.00  0.00     0.217 HD
ENDBRANCH  19  22
ENDBRANCH  15  16
BRANCH  15  24
ATOM     24  O   UNL d   1      20.691 -17.082  -1.273  0.00  0.00    -0.389 OA
ATOM     25  H   UNL d   1      19.763 -17.205  -1.522  0.00  0.00     0.210 HD
ENDBRANCH  15  24
ENDBRANCH   1  15
TORSDOF 6
ENDMDL
MODEL 2
REMARK VINA RESULT:    -8.260      0.218      2.120
REMARK INTER + INTRA:         -10.895
REMARK INTER:                 -10.050
REMARK INTRA:                  -0.845
REMARK CONF_INDEPENDENT:        1.790
REMARK UNBOUND:                -0.845
REMARK  6 active torsions:
REMARK  status: ('A' for Active; 'I' for Inactive)
REMARK    1  A    between atoms: C_7  and  C_8 
REMARK       I    between atoms: C_8  and  N_10 
REMARK    2  A    between atoms: N_10  and  C_11 
REMARK    3  A    between atoms: C_13  and  C_11 
REMARK    4  A    between atoms: C_13  and  C_15 
REMARK    5  A    between atoms: C_13  and  O_14 
REMARK    6  A    between atoms: C_18  and  O_19 
ROOT
ATOM      1  C   UNL d   1      22.677 -18.189  -0.481  0.00  0.00     0.114 C 
ATOM      2  C   UNL d   1      23.482 -19.494  -0.519  0.00  0.00     0.035 C 
ENDROOT
BRANCH   1   3
ATOM      3  N   UNL d   1      23.460 -17.091  -1.035  0.00  0.00    -0.350 N 
ATOM      4  C   UNL d   1      24.746 -16.841  -0.607  0.00  0.00     0.252 C 
ATOM      5  O   UNL d   1      25.288 -17.497   0.283  0.00  0.00    -0.268 OA
ATOM      6  H   UNL d   1      23.060 -16.596  -1.817  0.00  0.00     0.163 HD
BRANCH   4   7
ATOM      7  C   UNL d   1      25.493 -15.724  -1.233  0.00  0.00     0.033 A 
ATOM      8  C   UNL d   1      26.292 -14.933  -0.396  0.00  0.00     0.023 A 
ATOM      9  C   UNL d   1      27.014 -13.849  -0.905  0.00  0.00    -0.061 A 
ATOM     10  C   UNL d   1      26.925 -13.557  -2.272  0.00  0.00     0.013 A 
ATOM     11  C   UNL d   1      27.857 -13.029   0.024  0.00  0.00     0.048 C 
ATOM     12  C   UNL d   1      26.134 -14.342  -3.121  0.00  0.00    -0.061 A 
ATOM     13  C   UNL d   1      26.036 -14.053  -4.588  0.00  0.00     0.048 C 
ATOM     14  C   UNL d   1      25.420 -15.424  -2.596  0.00  0.00     0.023 A 
ENDBRANCH   4   7
ENDBRANCH   1   3
BRANCH   1  15
ATOM     15  C   UNL d   1      21.281 -18.333  -1.161  0.00  0.00     0.173 C 
BRANCH  15  16
ATOM     16  C   UNL d   1      20.342 -19.254  -0.407  0.00  0.00    -0.028 A 
ATOM     17  C   UNL d   1      20.654 -19.642   0.905  0.00  0.00     0.012 A 
ATOM     18  C   UNL d   1      19.767 -20.434   1.640  0.00  0.00     0.037 A 
ATOM     19  C   UNL d   1      18.564 -20.831   1.060  0.00  0.00     0.065 A 
ATOM     20  C   UNL d   1      18.245 -20.468  -0.238  0.00  0.00     0.037 A 
ATOM     21  C   UNL d   1      19.138 -19.701  -0.975  0.00  0.00     0.012 A 
BRANCH  19  22
ATOM     22  O   UNL d   1      17.648 -21.588   1.729  0.00  0.00    -0.361 OA
ATOM     23  H   UNL d   1      17.205 -22.173   1.096  0.00  0.00     0.217 HD
ENDBRANCH  19  22
ENDBRANCH  15  16
BRANCH  15  24
ATOM     24  O   UNL d   1      20.655 -17.046  -1.270  0.00  0.00    -0.389 OA
ATOM     25  H   UNL d   1      19.991 -17.104  -1.974  0.00  0.00     0.210 HD
ENDBRANCH  15  24
ENDBRANCH   1  15
TORSDOF 6
ENDMDL
MODEL 3
REMARK VINA RESULT:    -7.147      4.107      9.484
REMARK INTER + INTRA:         -10.333
REMARK INTER:                  -8.936
REMARK INTRA:                  -1.397
REMARK CONF_INDEPENDENT:        1.790
REMARK UNBOUND:                -1.397
REMARK  6 active torsions:
REMARK  status: ('A' for Active; 'I' for Inactive)
REMARK    1  A    between atoms: C_7  and  C_8 
REMARK       I    between atoms: C_8  and  N_10 
REMARK    2  A    between atoms: N_10  and  C_11 
REMARK    3  A    between atoms: C_13  and  C_11 
REMARK    4  A    between atoms: C_13  and  C_15 
REMARK    5  A    between atoms: C_13  and  O_14 
REMARK    6  A    between atoms: C_18  and  O_19 
ROOT
ATOM      1  C   UNL d   1      27.012 -13.705  -3.903  0.00  0.00     0.114 C 
ATOM      2  C   UNL d   1      26.159 -12.458  -3.645  0.00  0.00     0.035 C 
ENDROOT
BRANCH   1   3
ATOM      3  N   UNL d   1      26.701 -14.746  -2.930  0.00  0.00    -0.350 N 
ATOM      4  C   UNL d   1      25.418 -15.224  -2.777  0.00  0.00     0.252 C 
ATOM      5  O   UNL d   1      24.465 -14.779  -3.417  0.00  0.00    -0.268 OA
ATOM      6  H   UNL d   1      27.482 -15.173  -2.456  0.00  0.00     0.163 HD
BRANCH   4   7
ATOM      7  C   UNL d   1      25.180 -16.302  -1.788  0.00  0.00     0.033 A 
ATOM      8  C   UNL d   1      23.859 -16.733  -1.609  0.00  0.00     0.023 A 
ATOM      9  C   UNL d   1      23.548 -17.732  -0.682  0.00  0.00    -0.061 A 
ATOM     10  C   UNL d   1      24.579 -18.299   0.075  0.00  0.00     0.013 A 
ATOM     11  C   UNL d   1      22.121 -18.165  -0.522  0.00  0.00     0.048 C 
ATOM     12  C   UNL d   1      25.905 -17.882  -0.096  0.00  0.00    -0.061 A 
ATOM     13  C   UNL d   1      27.025 -18.486   0.696  0.00  0.00     0.048 C 
ATOM     14  C   UNL d   1      26.200 -16.883  -1.030  0.00  0.00     0.023 A 
ENDBRANCH   4   7
ENDBRANCH   1   3
BRANCH   1  15
ATOM     15  C   UNL d   1      26.897 -14.208  -5.376  0.00  0.00     0.173 C 
BRANCH  15  16
ATOM     16  C   UNL d   1      28.207 -14.130  -6.136  0.00  0.00    -0.028 A 
ATOM     17  C   UNL d   1      29.106 -15.207  -6.086  0.00  0.00     0.012 A 
ATOM     18  C   UNL d   1      30.285 -15.180  -6.835  0.00  0.00     0.037 A 
ATOM     19  C   UNL d   1      30.560 -14.076  -7.640  0.00  0.00     0.065 A 
ATOM     20  C   UNL d   1      29.691 -12.999  -7.692  0.00  0.00     0.037 A 
ATOM     21  C   UNL d   1      28.531 -13.016  -6.928  0.00  0.00     0.012 A 
BRANCH  19  22
ATOM     22  O   UNL d   1      31.683 -13.997  -8.408  0.00  0.00    -0.361 OA
ATOM     23  H   UNL d   1      31.430 -14.081  -9.340  0.00  0.00     0.217 HD
ENDBRANCH  19  22
ENDBRANCH  15  16
BRANCH  15  24
ATOM     24  O   UNL d   1      26.449 -15.571  -5.394  0.00  0.00    -0.389 OA
ATOM     25  H   UNL d   1      25.514 -15.573  -5.141  0.00  0.00     0.210 HD
ENDBRANCH  15  24
ENDBRANCH   1  15
TORSDOF 6
ENDMDL
MODEL 4
REMARK VINA RESULT:    -7.124      4.053      9.581
REMARK INTER + INTRA:         -10.320
REMARK INTER:                  -8.914
REMARK INTRA:                  -1.407
REMARK CONF_INDEPENDENT:        1.790
REMARK UNBOUND:                -1.407
REMARK  6 active torsions:
REMARK  status: ('A' for Active; 'I' for Inactive)
REMARK    1  A    between atoms: C_7  and  C_8 
REMARK       I    between atoms: C_8  and  N_10 
REMARK    2  A    between atoms: N_10  and  C_11 
REMARK    3  A    between atoms: C_13  and  C_11 
REMARK    4  A    between atoms: C_13  and  C_15 
REMARK    5  A    between atoms: C_13  and  O_14 
REMARK    6  A    between atoms: C_18  and  O_19 
ROOT
ATOM      1  C   UNL d   1      27.024 -13.810  -3.719  0.00  0.00     0.114 C 
ATOM      2  C   UNL d   1      26.295 -12.508  -3.372  0.00  0.00     0.035 C 
ENDROOT
BRANCH   1   3
ATOM      3  N   UNL d   1      26.632 -14.875  -2.803  0.00  0.00    -0.350 N 
ATOM      4  C   UNL d   1      25.322 -15.289  -2.705  0.00  0.00     0.252 C 
ATOM      5  O   UNL d   1      24.411 -14.767  -3.349  0.00  0.00    -0.268 OA
ATOM      6  H   UNL d   1      27.375 -15.363  -2.328  0.00  0.00     0.163 HD
BRANCH   4   7
ATOM      7  C   UNL d   1      25.000 -16.396  -1.772  0.00  0.00     0.033 A 
ATOM      8  C   UNL d   1      26.058 -16.948  -1.037  0.00  0.00     0.023 A 
ATOM      9  C   UNL d   1      25.841 -18.007  -0.150  0.00  0.00    -0.061 A 
ATOM     10  C   UNL d   1      24.545 -18.516  -0.006  0.00  0.00     0.013 A 
ATOM     11  C   UNL d   1      27.000 -18.569   0.617  0.00  0.00     0.048 C 
ATOM     12  C   UNL d   1      23.478 -17.970  -0.729  0.00  0.00    -0.061 A 
ATOM     13  C   UNL d   1      22.081 -18.493  -0.579  0.00  0.00     0.048 C 
ATOM     14  C   UNL d   1      23.711 -16.909  -1.611  0.00  0.00     0.023 A 
ENDBRANCH   4   7
ENDBRANCH   1   3
BRANCH   1  15
ATOM     15  C   UNL d   1      26.843 -14.211  -5.216  0.00  0.00     0.173 C 
BRANCH  15  16
ATOM     16  C   UNL d   1      28.106 -14.038  -6.037  0.00  0.00    -0.028 A 
ATOM     17  C   UNL d   1      29.092 -15.037  -6.015  0.00  0.00     0.012 A 
ATOM     18  C   UNL d   1      30.230 -14.925  -6.819  0.00  0.00     0.037 A 
ATOM     19  C   UNL d   1      30.376 -13.816  -7.648  0.00  0.00     0.065 A 
ATOM     20  C   UNL d   1      29.420 -12.814  -7.673  0.00  0.00     0.037 A 
ATOM     21  C   UNL d   1      28.300 -12.914  -6.856  0.00  0.00     0.012 A 
BRANCH  19  22
ATOM     22  O   UNL d   1      31.453 -13.657  -8.469  0.00  0.00    -0.361 OA
ATOM     23  H   UNL d   1      31.154 -13.708  -9.389  0.00  0.00     0.217 HD
ENDBRANCH  19  22
ENDBRANCH  15  16
BRANCH  15  24
ATOM     24  O   UNL d   1      26.432 -15.583  -5.309  0.00  0.00    -0.389 OA
ATOM     25  H   UNL d   1      25.513 -15.633  -5.006  0.00  0.00     0.210 HD
ENDBRANCH  15  24
ENDBRANCH   1  15
TORSDOF 6
ENDMDL
MODEL 5
REMARK VINA RESULT:    -6.880      4.169      9.203
REMARK INTER + INTRA:         -10.070
REMARK INTER:                  -8.670
REMARK INTRA:                  -1.400
REMARK CONF_INDEPENDENT:        1.790
REMARK UNBOUND:                -1.400
REMARK  6 active torsions:
REMARK  status: ('A' for Active; 'I' for Inactive)
REMARK    1  A    between atoms: C_7  and  C_8 
REMARK       I    between atoms: C_8  and  N_10 
REMARK    2  A    between atoms: N_10  and  C_11 
REMARK    3  A    between atoms: C_13  and  C_11 
REMARK    4  A    between atoms: C_13  and  C_15 
REMARK    5  A    between atoms: C_13  and  O_14 
REMARK    6  A    between atoms: C_18  and  O_19 
ROOT
ATOM      1  C   UNL d   1      27.394 -13.930  -4.001  0.00  0.00     0.114 C 
ATOM      2  C   UNL d   1      26.511 -12.681  -3.905  0.00  0.00     0.035 C 
ENDROOT
BRANCH   1   3
ATOM      3  N   UNL d   1      26.999 -14.912  -2.998  0.00  0.00    -0.350 N 
ATOM      4  C   UNL d   1      25.685 -15.301  -2.855  0.00  0.00     0.252 C 
ATOM      5  O   UNL d   1      24.774 -14.821  -3.531  0.00  0.00    -0.268 OA
ATOM      6  H   UNL d   1      27.741 -15.370  -2.492  0.00  0.00     0.163 HD
BRANCH   4   7
ATOM      7  C   UNL d   1      25.359 -16.324  -1.833  0.00  0.00     0.033 A 
ATOM      8  C   UNL d   1      24.006 -16.641  -1.645  0.00  0.00     0.023 A 
ATOM      9  C   UNL d   1      23.614 -17.580  -0.687  0.00  0.00    -0.061 A 
ATOM     10  C   UNL d   1      24.596 -18.205   0.092  0.00  0.00     0.013 A 
ATOM     11  C   UNL d   1      22.157 -17.890  -0.518  0.00  0.00     0.048 C 
ATOM     12  C   UNL d   1      25.951 -17.903  -0.089  0.00  0.00    -0.061 A 
ATOM     13  C   UNL d   1      27.018 -18.570   0.727  0.00  0.00     0.048 C 
ATOM     14  C   UNL d   1      26.327 -16.961  -1.053  0.00  0.00     0.023 A 
ENDBRANCH   4   7
ENDBRANCH   1   3
BRANCH   1  15
ATOM     15  C   UNL d   1      27.426 -14.526  -5.442  0.00  0.00     0.173 C 
BRANCH  15  16
ATOM     16  C   UNL d   1      28.780 -15.091  -5.824  0.00  0.00    -0.028 A 
ATOM     17  C   UNL d   1      29.280 -16.215  -5.149  0.00  0.00     0.012 A 
ATOM     18  C   UNL d   1      30.495 -16.790  -5.534  0.00  0.00     0.037 A 
ATOM     19  C   UNL d   1      31.204 -16.242  -6.599  0.00  0.00     0.065 A 
ATOM     20  C   UNL d   1      30.733 -15.125  -7.269  0.00  0.00     0.037 A 
ATOM     21  C   UNL d   1      29.537 -14.540  -6.870  0.00  0.00     0.012 A 
BRANCH  19  22
ATOM     22  O   UNL d   1      32.384 -16.766  -7.036  0.00  0.00    -0.361 OA
ATOM     23  H   UNL d   1      33.095 -16.135  -6.845  0.00  0.00     0.217 HD
ENDBRANCH  19  22
ENDBRANCH  15  16
BRANCH  15  24
ATOM     24  O   UNL d   1      26.453 -15.575  -5.560  0.00  0.00    -0.389 OA
ATOM     25  H   UNL d   1      25.582 -15.183  -5.395  0.00  0.00     0.210 HD
ENDBRANCH  15  24
ENDBRANCH   1  15
TORSDOF 6
ENDMDL
MODEL 6
REMARK VINA RESULT:    -6.842      4.159      9.210
REMARK INTER + INTRA:         -10.044
REMARK INTER:                  -8.632
REMARK INTRA:                  -1.412
REMARK CONF_INDEPENDENT:        1.790
REMARK UNBOUND:                -1.412
REMARK  6 active torsions:
REMARK  status: ('A' for Active; 'I' for Inactive)
REMARK    1  A    between atoms: C_7  and  C_8 
REMARK       I    between atoms: C_8  and  N_10 
REMARK    2  A    between atoms: N_10  and  C_11 
REMARK    3  A    between atoms: C_13  and  C_11 
REMARK    4  A    between atoms: C_13  and  C_15 
REMARK    5  A    between atoms: C_13  and  O_14 
REMARK    6  A    between atoms: C_18  and  O_19 
ROOT
ATOM      1  C   UNL d   1      27.443 -13.982  -3.996  0.00  0.00     0.114 C 
ATOM      2  C   UNL d   1      26.598 -12.704  -3.965  0.00  0.00     0.035 C 
ENDROOT
BRANCH   1   3
ATOM      3  N   UNL d   1      26.971 -14.930  -2.994  0.00  0.00    -0.350 N 
ATOM      4  C   UNL d   1      25.642 -15.282  -2.911  0.00  0.00     0.252 C 
ATOM      5  O   UNL d   1      24.780 -14.795  -3.643  0.00  0.00    -0.268 OA
ATOM      6  H   UNL d   1      27.674 -15.395  -2.441  0.00  0.00     0.163 HD
BRANCH   4   7
ATOM      7  C   UNL d   1      25.237 -16.273  -1.885  0.00  0.00     0.033 A 
ATOM      8  C   UNL d   1      26.256 -16.884  -1.141  0.00  0.00     0.023 A 
ATOM      9  C   UNL d   1      25.960 -17.843  -0.168  0.00  0.00    -0.061 A 
ATOM     10  C   UNL d   1      24.622 -18.192   0.056  0.00  0.00     0.013 A 
ATOM     11  C   UNL d   1      27.079 -18.473   0.605  0.00  0.00     0.048 C 
ATOM     12  C   UNL d   1      23.594 -17.585  -0.676  0.00  0.00    -0.061 A 
ATOM     13  C   UNL d   1      22.155 -17.936  -0.442  0.00  0.00     0.048 C 
ATOM     14  C   UNL d   1      23.907 -16.626  -1.645  0.00  0.00     0.023 A 
ENDBRANCH   4   7
ENDBRANCH   1   3
BRANCH   1  15
ATOM     15  C   UNL d   1      27.521 -14.608  -5.423  0.00  0.00     0.173 C 
BRANCH  15  16
ATOM     16  C   UNL d   1      28.845 -15.291  -5.703  0.00  0.00    -0.028 A 
ATOM     17  C   UNL d   1      29.286 -16.325  -4.863  0.00  0.00     0.012 A 
ATOM     18  C   UNL d   1      30.471 -17.011  -5.147  0.00  0.00     0.037 A 
ATOM     19  C   UNL d   1      31.209 -16.665  -6.276  0.00  0.00     0.065 A 
ATOM     20  C   UNL d   1      30.796 -15.639  -7.109  0.00  0.00     0.037 A 
ATOM     21  C   UNL d   1      29.631 -14.941  -6.813  0.00  0.00     0.012 A 
BRANCH  19  22
ATOM     22  O   UNL d   1      32.361 -17.307  -6.617  0.00  0.00    -0.361 OA
ATOM     23  H   UNL d   1      32.761 -17.678  -5.816  0.00  0.00     0.217 HD
ENDBRANCH  19  22
ENDBRANCH  15  16
BRANCH  15  24
ATOM     24  O   UNL d   1      26.473 -15.575  -5.591  0.00  0.00    -0.389 OA
ATOM     25  H   UNL d   1      25.634 -15.129  -5.403  0.00  0.00     0.210 HD
ENDBRANCH  15  24
ENDBRANCH   1  15
TORSDOF 6
ENDMDL
MODEL 7
REMARK VINA RESULT:    -6.665      3.228      5.262
REMARK INTER + INTRA:          -9.846
REMARK INTER:                  -8.455
REMARK INTRA:                  -1.391
REMARK CONF_INDEPENDENT:        1.790
REMARK UNBOUND:                -1.391
REMARK  6 active torsions:
REMARK  status: ('A' for Active; 'I' for Inactive)
REMARK    1  A    between atoms: C_7  and  C_8 
REMARK       I    between atoms: C_8  and  N_10 
REMARK    2  A    between atoms: N_10  and  C_11 
REMARK    3  A    between atoms: C_13  and  C_11 
REMARK    4  A    between atoms: C_13  and  C_15 
REMARK    5  A    between atoms: C_13  and  O_14 
REMARK    6  A    between atoms: C_18  and  O_19 
ROOT
ATOM      1  C   UNL d   1      26.634 -16.128  -0.442  0.00  0.00     0.114 C 
ATOM      2  C   UNL d   1      27.561 -15.494   0.602  0.00  0.00     0.035 C 
ENDROOT
BRANCH   1   3
ATOM      3  N   UNL d   1      27.342 -16.324  -1.701  0.00  0.00    -0.350 N 
ATOM      4  C   UNL d   1      27.671 -15.259  -2.511  0.00  0.00     0.252 C 
ATOM      5  O   UNL d   1      27.358 -14.099  -2.242  0.00  0.00    -0.268 OA
ATOM      6  H   UNL d   1      27.672 -17.256  -1.897  0.00  0.00     0.163 HD
BRANCH   4   7
ATOM      7  C   UNL d   1      28.415 -15.530  -3.764  0.00  0.00     0.033 A 
ATOM      8  C   UNL d   1      29.280 -16.634  -3.776  0.00  0.00     0.023 A 
ATOM      9  C   UNL d   1      30.032 -16.947  -4.912  0.00  0.00    -0.061 A 
ATOM     10  C   UNL d   1      29.914 -16.136  -6.047  0.00  0.00     0.013 A 
ATOM     11  C   UNL d   1      30.944 -18.136  -4.882  0.00  0.00     0.048 C 
ATOM     12  C   UNL d   1      29.050 -15.034  -6.052  0.00  0.00    -0.061 A 
ATOM     13  C   UNL d   1      28.901 -14.161  -7.262  0.00  0.00     0.048 C 
ATOM     14  C   UNL d   1      28.303 -14.736  -4.907  0.00  0.00     0.023 A 
ENDBRANCH   4   7
ENDBRANCH   1   3
BRANCH   1  15
ATOM     15  C   UNL d   1      25.960 -17.435   0.078  0.00  0.00     0.173 C 
BRANCH  15  16
ATOM     16  C   UNL d   1      24.498 -17.547  -0.309  0.00  0.00    -0.028 A 
ATOM     17  C   UNL d   1      23.897 -18.813  -0.395  0.00  0.00     0.012 A 
ATOM     18  C   UNL d   1      22.534 -18.930  -0.682  0.00  0.00     0.037 A 
ATOM     19  C   UNL d   1      21.773 -17.780  -0.877  0.00  0.00     0.065 A 
ATOM     20  C   UNL d   1      22.353 -16.524  -0.808  0.00  0.00     0.037 A 
ATOM     21  C   UNL d   1      23.712 -16.408  -0.546  0.00  0.00     0.012 A 
BRANCH  19  22
ATOM     22  O   UNL d   1      20.437 -17.826  -1.141  0.00  0.00    -0.361 OA
ATOM     23  H   UNL d   1      20.280 -17.450  -2.020  0.00  0.00     0.217 HD
ENDBRANCH  19  22
ENDBRANCH  15  16
BRANCH  15  24
ATOM     24  O   UNL d   1      26.651 -18.581  -0.442  0.00  0.00    -0.389 OA
ATOM     25  H   UNL d   1      27.573 -18.522  -0.150  0.00  0.00     0.210 HD
ENDBRANCH  15  24
ENDBRANCH   1  15
TORSDOF 6
ENDMDL
MODEL 8
REMARK VINA RESULT:    -6.629      2.500      4.439
REMARK INTER + INTRA:          -9.704
REMARK INTER:                  -8.418
REMARK INTRA:                  -1.286
REMARK CONF_INDEPENDENT:        1.790
REMARK UNBOUND:                -1.286
REMARK  6 active torsions:
REMARK  status: ('A' for Active; 'I' for Inactive)
REMARK    1  A    between atoms: C_7  and  C_8 
REMARK       I    between atoms: C_8  and  N_10 
REMARK    2  A    between atoms: N_10  and  C_11 
REMARK    3  A    between atoms: C_13  and  C_11 
REMARK    4  A    between atoms: C_13  and  C_15 
REMARK    5  A    between atoms: C_13  and  O_14 
REMARK    6  A    between atoms: C_18  and  O_19 
ROOT
ATOM      1  C   UNL d   1      26.289 -16.218   0.095  0.00  0.00     0.114 C 
ATOM      2  C   UNL d   1      27.512 -15.961   0.982  0.00  0.00     0.035 C 
ENDROOT
BRANCH   1   3
ATOM      3  N   UNL d   1      26.577 -15.862  -1.289  0.00  0.00    -0.350 N 
ATOM      4  C   UNL d   1      26.675 -14.546  -1.684  0.00  0.00     0.252 C 
ATOM      5  O   UNL d   1      26.488 -13.606  -0.910  0.00  0.00    -0.268 OA
ATOM      6  H   UNL d   1      26.809 -16.618  -1.914  0.00  0.00     0.163 HD
BRANCH   4   7
ATOM      7  C   UNL d   1      26.997 -14.257  -3.102  0.00  0.00     0.033 A 
ATOM      8  C   UNL d   1      26.366 -13.155  -3.696  0.00  0.00     0.023 A 
ATOM      9  C   UNL d   1      26.602 -12.827  -5.034  0.00  0.00    -0.061 A 
ATOM     10  C   UNL d   1      27.480 -13.619  -5.782  0.00  0.00     0.013 A 
ATOM     11  C   UNL d   1      25.906 -11.640  -5.631  0.00  0.00     0.048 C 
ATOM     12  C   UNL d   1      28.123 -14.720  -5.200  0.00  0.00    -0.061 A 
ATOM     13  C   UNL d   1      29.076 -15.573  -5.981  0.00  0.00     0.048 C 
ATOM     14  C   UNL d   1      27.877 -15.034  -3.859  0.00  0.00     0.023 A 
ENDBRANCH   4   7
ENDBRANCH   1   3
BRANCH   1  15
ATOM     15  C   UNL d   1      25.746 -17.674   0.239  0.00  0.00     0.173 C 
BRANCH  15  16
ATOM     16  C   UNL d   1      24.275 -17.799  -0.105  0.00  0.00    -0.028 A 
ATOM     17  C   UNL d   1      23.537 -16.650  -0.431  0.00  0.00     0.012 A 
ATOM     18  C   UNL d   1      22.198 -16.755  -0.818  0.00  0.00     0.037 A 
ATOM     19  C   UNL d   1      21.601 -18.012  -0.882  0.00  0.00     0.065 A 
ATOM     20  C   UNL d   1      22.309 -19.155  -0.552  0.00  0.00     0.037 A 
ATOM     21  C   UNL d   1      23.634 -19.047  -0.145  0.00  0.00     0.012 A 
BRANCH  19  22
ATOM     22  O   UNL d   1      20.305 -18.183  -1.269  0.00  0.00    -0.361 OA
ATOM     23  H   UNL d   1      20.026 -17.407  -1.778  0.00  0.00     0.217 HD
ENDBRANCH  19  22
ENDBRANCH  15  16
BRANCH  15  24
ATOM     24  O   UNL d   1      26.484 -18.558  -0.618  0.00  0.00    -0.389 OA
ATOM     25  H   UNL d   1      27.380 -18.632  -0.258  0.00  0.00     0.210 HD
ENDBRANCH  15  24
ENDBRANCH   1  15
TORSDOF 6
ENDMDL
MODEL 9
REMARK VINA RESULT:    -6.518      2.602      4.873
REMARK INTER + INTRA:          -9.871
REMARK INTER:                  -8.307
REMARK INTRA:                  -1.564
REMARK CONF_INDEPENDENT:        1.790
REMARK UNBOUND:                -1.564
REMARK  6 active torsions:
REMARK  status: ('A' for Active; 'I' for Inactive)
REMARK    1  A    between atoms: C_7  and  C_8 
REMARK       I    between atoms: C_8  and  N_10 
REMARK    2  A    between atoms: N_10  and  C_11 
REMARK    3  A    between atoms: C_13  and  C_11 
REMARK    4  A    between atoms: C_13  and  C_15 
REMARK    5  A    between atoms: C_13  and  O_14 
REMARK    6  A    between atoms: C_18  and  O_19 
ROOT
ATOM      1  C   UNL d   1      26.001 -15.108  -0.687  0.00  0.00     0.114 C 
ATOM      2  C   UNL d   1      26.770 -14.641   0.554  0.00  0.00     0.035 C 
ENDROOT
BRANCH   1   3
ATOM      3  N   UNL d   1      26.612 -14.572  -1.897  0.00  0.00    -0.350 N 
ATOM      4  C   UNL d   1      25.940 -14.575  -3.100  0.00  0.00     0.252 C 
ATOM      5  O   UNL d   1      24.815 -15.058  -3.230  0.00  0.00    -0.268 OA
ATOM      6  H   UNL d   1      27.499 -14.105  -1.791  0.00  0.00     0.163 HD
BRANCH   4   7
ATOM      7  C   UNL d   1      26.612 -13.989  -4.285  0.00  0.00     0.033 A 
ATOM      8  C   UNL d   1      27.570 -14.777  -4.938  0.00  0.00     0.023 A 
ATOM      9  C   UNL d   1      28.263 -14.291  -6.051  0.00  0.00    -0.061 A 
ATOM     10  C   UNL d   1      27.989 -12.997  -6.508  0.00  0.00     0.013 A 
ATOM     11  C   UNL d   1      29.280 -15.166  -6.720  0.00  0.00     0.048 C 
ATOM     12  C   UNL d   1      27.030 -12.201  -5.869  0.00  0.00    -0.061 A 
ATOM     13  C   UNL d   1      26.714 -10.817  -6.351  0.00  0.00     0.048 C 
ATOM     14  C   UNL d   1      26.344 -12.703  -4.757  0.00  0.00     0.023 A 
ENDBRANCH   4   7
ENDBRANCH   1   3
BRANCH   1  15
ATOM     15  C   UNL d   1      25.836 -16.658  -0.734  0.00  0.00     0.173 C 
BRANCH  15  16
ATOM     16  C   UNL d   1      24.386 -17.104  -0.725  0.00  0.00    -0.028 A 
ATOM     17  C   UNL d   1      23.364 -16.147  -0.832  0.00  0.00     0.012 A 
ATOM     18  C   UNL d   1      22.026 -16.546  -0.894  0.00  0.00     0.037 A 
ATOM     19  C   UNL d   1      21.713 -17.902  -0.856  0.00  0.00     0.065 A 
ATOM     20  C   UNL d   1      22.707 -18.859  -0.739  0.00  0.00     0.037 A 
ATOM     21  C   UNL d   1      24.036 -18.461  -0.652  0.00  0.00     0.012 A 
BRANCH  19  22
ATOM     22  O   UNL d   1      20.430 -18.356  -0.932  0.00  0.00    -0.361 OA
ATOM     23  H   UNL d   1      19.960 -17.851  -1.613  0.00  0.00     0.217 HD
ENDBRANCH  19  22
ENDBRANCH  15  16
BRANCH  15  24
ATOM     24  O   UNL d   1      26.458 -17.181  -1.917  0.00  0.00    -0.389 OA
ATOM     25  H   UNL d   1      25.999 -16.798  -2.680  0.00  0.00     0.210 HD
ENDBRANCH  15  24
ENDBRANCH   1  15
TORSDOF 6
ENDMDL
