MODEL 1
REMARK VINA RESULT:    -9.955      0.000      0.000
REMARK INTER + INTRA:         -16.699
REMARK INTER:                 -14.727
REMARK INTRA:                  -1.971
REMARK CONF_INDEPENDENT:        4.773
REMARK UNBOUND:                -1.971
REMARK  16 active torsions:
REMARK  status: ('A' for Active; 'I' for Inactive)
REMARK    1  A    between atoms: C_2  and  C_3 
REMARK    2  A    between atoms: C_5  and  C_6 
REMARK    3  A    between atoms: C_9  and  O_10 
REMARK    4  A    between atoms: C_12  and  O_13 
REMARK    5  A    between atoms: O_13  and  C_14 
REMARK    6  A    between atoms: C_14  and  C_15 
REMARK    7  A    between atoms: C_19  and  C_20 
REMARK       I    between atoms: C_20  and  N_22 
REMARK    8  A    between atoms: N_22  and  C_24 
REMARK    9  A    between atoms: C_24  and  C_25 
REMARK   10  A    between atoms: C_25  and  C_26 
REMARK   11  A    between atoms: C_26  and  C_27 
REMARK   12  A    between atoms: C_27  and  C_28 
REMARK   13  A    between atoms: C_28  and  C_29 
REMARK   14  A    between atoms: C_29  and  C_30 
REMARK   15  A    between atoms: C_30  and  C_31 
REMARK   16  A    between atoms: C_31  and  C_32 
REMARK       I    between atoms: C_32  and  N_33 
ROOT
ATOM      1  C   UNL d   1      28.917 -15.433  -5.750  0.00  0.00     0.059 C 
ATOM      2  C   UNL d   1      29.225 -14.304  -6.522  0.00  0.00     0.029 C 
ATOM      3  C   UNL d   1      28.386 -13.248  -6.441  0.00  0.00     0.005 C 
ATOM      4  C   UNL d   1      27.313 -13.375  -5.587  0.00  0.00     0.037 C 
ATOM      5  C   UNL d   1      26.975 -14.558  -4.929  0.00  0.00     0.124 C 
ATOM      6  N   UNL d   1      27.812 -15.594  -5.007  0.00  0.00    -0.246 NA
ENDROOT
BRANCH   5   7
ATOM      7  C   UNL d   1      25.770 -14.841  -4.054  0.00  0.00     0.272 C 
ATOM      8  O   UNL d   1      24.658 -14.450  -4.423  0.00  0.00    -0.266 OA
ATOM      9  N   UNL d   1      25.891 -15.523  -2.840  0.00  0.00    -0.351 N 
ATOM     10  C   UNL d   1      27.089 -16.042  -2.225  0.00  0.00     0.152 C 
BRANCH   9  11
ATOM     11  C   UNL d   1      24.662 -15.754  -2.074  0.00  0.00     0.125 C 
BRANCH  11  12
ATOM     12  C   UNL d   1      24.971 -16.520  -0.795  0.00  0.00     0.020 C 
BRANCH  12  13
ATOM     13  C   UNL d   1      24.681 -17.980  -0.864  0.00  0.00     0.002 C 
BRANCH  13  14
ATOM     14  C   UNL d   1      23.317 -18.199  -0.230  0.00  0.00     0.000 C 
BRANCH  14  15
ATOM     15  C   UNL d   1      22.429 -18.885  -1.235  0.00  0.00     0.000 C 
BRANCH  15  16
ATOM     16  C   UNL d   1      20.971 -18.635  -0.903  0.00  0.00     0.000 C 
BRANCH  16  17
ATOM     17  C   UNL d   1      20.514 -19.707   0.064  0.00  0.00     0.009 C 
BRANCH  17  18
ATOM     18  C   UNL d   1      19.071 -20.109  -0.176  0.00  0.00     0.102 C 
BRANCH  18  19
ATOM     19  C   UNL d   1      18.430 -20.800   1.007  0.00  0.00     0.215 C 
ATOM     20  N   UNL d   1      17.654 -21.890   0.779  0.00  0.00    -0.370 N 
ATOM     21  H   UNL d   1      17.469 -22.280  -0.135  0.00  0.00     0.159 HD
ATOM     22  H   UNL d   1      17.229 -22.346   1.574  0.00  0.00     0.159 HD
ATOM     23  O   UNL d   1      18.598 -20.394   2.167  0.00  0.00    -0.274 OA
ENDBRANCH  18  19
ENDBRANCH  17  18
ENDBRANCH  16  17
ENDBRANCH  15  16
ENDBRANCH  14  15
ENDBRANCH  13  14
ENDBRANCH  12  13
ENDBRANCH  11  12
ENDBRANCH   9  11
ENDBRANCH   5   7
BRANCH   1  24
ATOM     24  C   UNL d   1      29.958 -16.476  -5.619  0.00  0.00     0.235 C 
BRANCH  24  25
ATOM     25  O   UNL d   1      30.392 -17.033  -6.850  0.00  0.00    -0.345 OA
BRANCH  25  26
ATOM     26  C   UNL d   1      30.909 -18.303  -6.834  0.00  0.00     0.078 A 
ATOM     27  C   UNL d   1      30.384 -19.131  -5.833  0.00  0.00     0.074 A 
ATOM     28  C   UNL d   1      30.789 -20.465  -5.715  0.00  0.00     0.082 A 
ATOM     29  C   UNL d   1      31.741 -21.005  -6.591  0.00  0.00     0.043 A 
ATOM     30  C   UNL d   1      32.253 -20.175  -7.590  0.00  0.00     0.027 A 
ATOM     31  C   UNL d   1      31.819 -18.848  -7.752  0.00  0.00    -0.024 A 
BRANCH  28  32
ATOM     32  O   UNL d   1      30.197 -21.190  -4.712  0.00  0.00    -0.360 OA
ATOM     33  H   UNL d   1      30.076 -22.114  -5.029  0.00  0.00     0.217 HD
ENDBRANCH  28  32
BRANCH  29  34
ATOM     34  C   UNL d   1      32.155 -22.439  -6.494  0.00  0.00     0.158 C 
ATOM     35  C   UNL d   1      32.677 -23.190  -7.701  0.00  0.00     0.097 C 
ATOM     36  O   UNL d   1      32.055 -23.009  -5.404  0.00  0.00    -0.293 OA
ENDBRANCH  29  34
BRANCH  31  37
ATOM     37  C   UNL d   1      32.265 -18.153  -9.013  0.00  0.00     0.037 C 
ATOM     38  C   UNL d   1      32.927 -16.811  -8.650  0.00  0.00     0.010 C 
ENDBRANCH  31  37
ENDBRANCH  25  26
ENDBRANCH  24  25
ENDBRANCH   1  24
TORSDOF 16
ENDMDL
MODEL 2
REMARK VINA RESULT:    -9.007      1.699      2.498
REMARK INTER + INTRA:         -16.299
REMARK INTER:                 -13.780
REMARK INTRA:                  -2.519
REMARK CONF_INDEPENDENT:        4.773
REMARK UNBOUND:                -2.519
REMARK  16 active torsions:
REMARK  status: ('A' for Active; 'I' for Inactive)
REMARK    1  A    between atoms: C_2  and  C_3 
REMARK    2  A    between atoms: C_5  and  C_6 
REMARK    3  A    between atoms: C_9  and  O_10 
REMARK    4  A    between atoms: C_12  and  O_13 
REMARK    5  A    between atoms: O_13  and  C_14 
REMARK    6  A    between atoms: C_14  and  C_15 
REMARK    7  A    between atoms: C_19  and  C_20 
REMARK       I    between atoms: C_20  and  N_22 
REMARK    8  A    between atoms: N_22  and  C_24 
REMARK    9  A    between atoms: C_24  and  C_25 
REMARK   10  A    between atoms: C_25  and  C_26 
REMARK   11  A    between atoms: C_26  and  C_27 
REMARK   12  A    between atoms: C_27  and  C_28 
REMARK   13  A    between atoms: C_28  and  C_29 
REMARK   14  A    between atoms: C_29  and  C_30 
REMARK   15  A    between atoms: C_30  and  C_31 
REMARK   16  A    between atoms: C_31  and  C_32 
REMARK       I    between atoms: C_32  and  N_33 
ROOT
ATOM      1  C   UNL d   1      28.747 -14.890  -6.442  0.00  0.00     0.059 C 
ATOM      2  C   UNL d   1      29.039 -13.572  -6.821  0.00  0.00     0.029 C 
ATOM      3  C   UNL d   1      28.326 -12.584  -6.237  0.00  0.00     0.005 C 
ATOM      4  C   UNL d   1      27.388 -12.969  -5.304  0.00  0.00     0.037 C 
ATOM      5  C   UNL d   1      27.044 -14.295  -5.044  0.00  0.00     0.124 C 
ATOM      6  N   UNL d   1      27.758 -15.265  -5.618  0.00  0.00    -0.246 NA
ENDROOT
BRANCH   5   7
ATOM      7  C   UNL d   1      25.964 -14.828  -4.123  0.00  0.00     0.272 C 
ATOM      8  O   UNL d   1      24.780 -14.636  -4.417  0.00  0.00    -0.266 OA
ATOM      9  N   UNL d   1      26.279 -15.517  -2.948  0.00  0.00    -0.351 N 
ATOM     10  C   UNL d   1      27.585 -15.828  -2.419  0.00  0.00     0.152 C 
BRANCH   9  11
ATOM     11  C   UNL d   1      25.160 -16.000  -2.132  0.00  0.00     0.125 C 
BRANCH  11  12
ATOM     12  C   UNL d   1      25.632 -17.081  -1.171  0.00  0.00     0.020 C 
BRANCH  12  13
ATOM     13  C   UNL d   1      24.598 -17.541  -0.202  0.00  0.00     0.002 C 
BRANCH  13  14
ATOM     14  C   UNL d   1      23.247 -17.400  -0.885  0.00  0.00     0.000 C 
BRANCH  14  15
ATOM     15  C   UNL d   1      22.605 -18.760  -0.955  0.00  0.00     0.000 C 
BRANCH  15  16
ATOM     16  C   UNL d   1      21.652 -18.951   0.209  0.00  0.00     0.000 C 
BRANCH  16  17
ATOM     17  C   UNL d   1      20.271 -19.224  -0.348  0.00  0.00     0.009 C 
BRANCH  17  18
ATOM     18  C   UNL d   1      19.670 -20.495   0.223  0.00  0.00     0.102 C 
BRANCH  18  19
ATOM     19  C   UNL d   1      19.225 -20.361   1.662  0.00  0.00     0.215 C 
ATOM     20  N   UNL d   1      20.167 -20.141   2.614  0.00  0.00    -0.370 N 
ATOM     21  H   UNL d   1      21.158 -20.058   2.431  0.00  0.00     0.159 HD
ATOM     22  H   UNL d   1      19.862 -20.053   3.574  0.00  0.00     0.159 HD
ATOM     23  O   UNL d   1      18.031 -20.449   1.984  0.00  0.00    -0.274 OA
ENDBRANCH  18  19
ENDBRANCH  17  18
ENDBRANCH  16  17
ENDBRANCH  15  16
ENDBRANCH  14  15
ENDBRANCH  13  14
ENDBRANCH  12  13
ENDBRANCH  11  12
ENDBRANCH   9  11
ENDBRANCH   5   7
BRANCH   1  24
ATOM     24  C   UNL d   1      29.693 -15.947  -6.862  0.00  0.00     0.235 C 
BRANCH  24  25
ATOM     25  O   UNL d   1      30.778 -16.157  -5.971  0.00  0.00    -0.345 OA
BRANCH  25  26
ATOM     26  C   UNL d   1      30.842 -17.355  -5.309  0.00  0.00     0.078 A 
ATOM     27  C   UNL d   1      30.720 -18.482  -6.133  0.00  0.00     0.074 A 
ATOM     28  C   UNL d   1      30.803 -19.775  -5.604  0.00  0.00     0.082 A 
ATOM     29  C   UNL d   1      31.001 -19.976  -4.231  0.00  0.00     0.043 A 
ATOM     30  C   UNL d   1      31.129 -18.847  -3.418  0.00  0.00     0.027 A 
ATOM     31  C   UNL d   1      31.099 -17.544  -3.942  0.00  0.00    -0.024 A 
BRANCH  28  32
ATOM     32  O   UNL d   1      30.688 -20.805  -6.503  0.00  0.00    -0.360 OA
ATOM     33  H   UNL d   1      30.777 -21.654  -6.013  0.00  0.00     0.217 HD
ENDBRANCH  28  32
BRANCH  29  34
ATOM     34  C   UNL d   1      31.125 -21.353  -3.661  0.00  0.00     0.158 C 
ATOM     35  C   UNL d   1      31.885 -21.607  -2.376  0.00  0.00     0.097 C 
ATOM     36  O   UNL d   1      30.597 -22.291  -4.267  0.00  0.00    -0.293 OA
ENDBRANCH  29  34
BRANCH  31  37
ATOM     37  C   UNL d   1      31.498 -16.439  -2.998  0.00  0.00     0.037 C 
ATOM     38  C   UNL d   1      30.663 -16.542  -1.708  0.00  0.00     0.010 C 
ENDBRANCH  31  37
ENDBRANCH  25  26
ENDBRANCH  24  25
ENDBRANCH   1  24
TORSDOF 16
ENDMDL
MODEL 3
REMARK VINA RESULT:    -8.530      3.226      9.622
REMARK INTER + INTRA:         -17.623
REMARK INTER:                 -13.302
REMARK INTRA:                  -4.321
REMARK CONF_INDEPENDENT:        4.773
REMARK UNBOUND:                -4.321
REMARK  16 active torsions:
REMARK  status: ('A' for Active; 'I' for Inactive)
REMARK    1  A    between atoms: C_2  and  C_3 
REMARK    2  A    between atoms: C_5  and  C_6 
REMARK    3  A    between atoms: C_9  and  O_10 
REMARK    4  A    between atoms: C_12  and  O_13 
REMARK    5  A    between atoms: O_13  and  C_14 
REMARK    6  A    between atoms: C_14  and  C_15 
REMARK    7  A    between atoms: C_19  and  C_20 
REMARK       I    between atoms: C_20  and  N_22 
REMARK    8  A    between atoms: N_22  and  C_24 
REMARK    9  A    between atoms: C_24  and  C_25 
REMARK   10  A    between atoms: C_25  and  C_26 
REMARK   11  A    between atoms: C_26  and  C_27 
REMARK   12  A    between atoms: C_27  and  C_28 
REMARK   13  A    between atoms: C_28  and  C_29 
REMARK   14  A    between atoms: C_29  and  C_30 
REMARK   15  A    between atoms: C_30  and  C_31 
REMARK   16  A    between atoms: C_31  and  C_32 
REMARK       I    between atoms: C_32  and  N_33 
ROOT
ATOM      1  C   UNL d   1      26.072 -14.927  -2.783  0.00  0.00     0.059 C 
ATOM      2  C   UNL d   1      24.955 -14.080  -2.772  0.00  0.00     0.029 C 
ATOM      3  C   UNL d   1      24.725 -13.340  -3.879  0.00  0.00     0.005 C 
ATOM      4  C   UNL d   1      25.605 -13.505  -4.926  0.00  0.00     0.037 C 
ATOM      5  C   UNL d   1      26.771 -14.266  -4.852  0.00  0.00     0.124 C 
ATOM      6  N   UNL d   1      26.988 -15.000  -3.759  0.00  0.00    -0.246 NA
ENDROOT
BRANCH   5   7
ATOM      7  C   UNL d   1      27.857 -14.435  -5.897  0.00  0.00     0.272 C 
ATOM      8  O   UNL d   1      28.236 -15.574  -6.186  0.00  0.00    -0.266 OA
ATOM      9  N   UNL d   1      28.442 -13.334  -6.530  0.00  0.00    -0.351 N 
ATOM     10  C   UNL d   1      28.158 -11.934  -6.325  0.00  0.00     0.152 C 
BRANCH   9  11
ATOM     11  C   UNL d   1      29.476 -13.607  -7.533  0.00  0.00     0.125 C 
BRANCH  11  12
ATOM     12  C   UNL d   1      30.799 -13.934  -6.855  0.00  0.00     0.020 C 
BRANCH  12  13
ATOM     13  C   UNL d   1      31.483 -15.146  -7.388  0.00  0.00     0.002 C 
BRANCH  13  14
ATOM     14  C   UNL d   1      31.418 -16.213  -6.307  0.00  0.00     0.000 C 
BRANCH  14  15
ATOM     15  C   UNL d   1      30.761 -17.438  -6.887  0.00  0.00     0.000 C 
BRANCH  15  16
ATOM     16  C   UNL d   1      31.432 -18.691  -6.360  0.00  0.00     0.000 C 
BRANCH  16  17
ATOM     17  C   UNL d   1      30.697 -19.135  -5.114  0.00  0.00     0.009 C 
BRANCH  17  18
ATOM     18  C   UNL d   1      31.097 -18.321  -3.898  0.00  0.00     0.102 C 
BRANCH  18  19
ATOM     19  C   UNL d   1      29.992 -17.430  -3.374  0.00  0.00     0.215 C 
ATOM     20  N   UNL d   1      29.281 -16.690  -4.262  0.00  0.00    -0.370 N 
ATOM     21  H   UNL d   1      29.436 -16.689  -5.261  0.00  0.00     0.159 HD
ATOM     22  H   UNL d   1      28.545 -16.097  -3.905  0.00  0.00     0.159 HD
ATOM     23  O   UNL d   1      29.728 -17.365  -2.165  0.00  0.00    -0.274 OA
ENDBRANCH  18  19
ENDBRANCH  17  18
ENDBRANCH  16  17
ENDBRANCH  15  16
ENDBRANCH  14  15
ENDBRANCH  13  14
ENDBRANCH  12  13
ENDBRANCH  11  12
ENDBRANCH   9  11
ENDBRANCH   5   7
BRANCH   1  24
ATOM     24  C   UNL d   1      26.178 -15.931  -1.701  0.00  0.00     0.235 C 
BRANCH  24  25
ATOM     25  O   UNL d   1      25.205 -15.800  -0.677  0.00  0.00    -0.345 OA
BRANCH  25  26
ATOM     26  C   UNL d   1      24.245 -16.773  -0.574  0.00  0.00     0.078 A 
ATOM     27  C   UNL d   1      22.953 -16.354  -0.918  0.00  0.00     0.074 A 
ATOM     28  C   UNL d   1      21.875 -17.247  -0.897  0.00  0.00     0.082 A 
ATOM     29  C   UNL d   1      22.060 -18.584  -0.519  0.00  0.00     0.043 A 
ATOM     30  C   UNL d   1      23.352 -18.995  -0.185  0.00  0.00     0.027 A 
ATOM     31  C   UNL d   1      24.452 -18.123  -0.250  0.00  0.00    -0.024 A 
BRANCH  28  32
ATOM     32  O   UNL d   1      20.659 -16.735  -1.270  0.00  0.00    -0.360 OA
ATOM     33  H   UNL d   1      20.031 -17.484  -1.388  0.00  0.00     0.217 HD
ENDBRANCH  28  32
BRANCH  29  34
ATOM     34  C   UNL d   1      20.921 -19.553  -0.525  0.00  0.00     0.158 C 
ATOM     35  C   UNL d   1      20.557 -20.347   0.712  0.00  0.00     0.097 C 
ATOM     36  O   UNL d   1      20.280 -19.702  -1.570  0.00  0.00    -0.293 OA
ENDBRANCH  29  34
BRANCH  31  37
ATOM     37  C   UNL d   1      25.812 -18.758  -0.108  0.00  0.00     0.037 C 
ATOM     38  C   UNL d   1      26.627 -17.988   0.947  0.00  0.00     0.010 C 
ENDBRANCH  31  37
ENDBRANCH  25  26
ENDBRANCH  24  25
ENDBRANCH   1  24
TORSDOF 16
ENDMDL
MODEL 4
REMARK VINA RESULT:    -8.521      4.820      9.830
REMARK INTER + INTRA:         -16.509
REMARK INTER:                 -13.293
REMARK INTRA:                  -3.215
REMARK CONF_INDEPENDENT:        4.773
REMARK UNBOUND:                -3.215
REMARK  16 active torsions:
REMARK  status: ('A' for Active; 'I' for Inactive)
REMARK    1  A    between atoms: C_2  and  C_3 
REMARK    2  A    between atoms: C_5  and  C_6 
REMARK    3  A    between atoms: C_9  and  O_10 
REMARK    4  A    between atoms: C_12  and  O_13 
REMARK    5  A    between atoms: O_13  and  C_14 
REMARK    6  A    between atoms: C_14  and  C_15 
REMARK    7  A    between atoms: C_19  and  C_20 
REMARK       I    between atoms: C_20  and  N_22 
REMARK    8  A    between atoms: N_22  and  C_24 
REMARK    9  A    between atoms: C_24  and  C_25 
REMARK   10  A    between atoms: C_25  and  C_26 
REMARK   11  A    between atoms: C_26  and  C_27 
REMARK   12  A    between atoms: C_27  and  C_28 
REMARK   13  A    between atoms: C_28  and  C_29 
REMARK   14  A    between atoms: C_29  and  C_30 
REMARK   15  A    between atoms: C_30  and  C_31 
REMARK   16  A    between atoms: C_31  and  C_32 
REMARK       I    between atoms: C_32  and  N_33 
ROOT
ATOM      1  C   UNL d   1      26.738 -15.318  -2.344  0.00  0.00     0.059 C 
ATOM      2  C   UNL d   1      27.754 -15.559  -1.409  0.00  0.00     0.029 C 
ATOM      3  C   UNL d   1      29.031 -15.435  -1.834  0.00  0.00     0.005 C 
ATOM      4  C   UNL d   1      29.212 -15.062  -3.147  0.00  0.00     0.037 C 
ATOM      5  C   UNL d   1      28.178 -14.950  -4.076  0.00  0.00     0.124 C 
ATOM      6  N   UNL d   1      26.919 -15.066  -3.649  0.00  0.00    -0.246 NA
ENDROOT
BRANCH   5   7
ATOM      7  C   UNL d   1      28.269 -14.650  -5.559  0.00  0.00     0.272 C 
ATOM      8  O   UNL d   1      27.471 -15.194  -6.329  0.00  0.00    -0.266 OA
ATOM      9  N   UNL d   1      29.239 -13.784  -6.073  0.00  0.00    -0.351 N 
ATOM     10  C   UNL d   1      30.265 -13.069  -5.355  0.00  0.00     0.152 C 
BRANCH   9  11
ATOM     11  C   UNL d   1      29.234 -13.554  -7.521  0.00  0.00     0.125 C 
BRANCH  11  12
ATOM     12  C   UNL d   1      28.131 -12.575  -7.899  0.00  0.00     0.020 C 
BRANCH  12  13
ATOM     13  C   UNL d   1      28.387 -11.167  -7.485  0.00  0.00     0.002 C 
BRANCH  13  14
ATOM     14  C   UNL d   1      27.783 -10.987  -6.102  0.00  0.00     0.000 C 
BRANCH  14  15
ATOM     15  C   UNL d   1      26.345 -11.431  -6.150  0.00  0.00     0.000 C 
BRANCH  15  16
ATOM     16  C   UNL d   1      25.890 -11.884  -4.776  0.00  0.00     0.000 C 
BRANCH  16  17
ATOM     17  C   UNL d   1      27.026 -11.658  -3.801  0.00  0.00     0.009 C 
BRANCH  17  18
ATOM     18  C   UNL d   1      26.648 -10.679  -2.706  0.00  0.00     0.102 C 
BRANCH  18  19
ATOM     19  C   UNL d   1      26.334  -9.290  -3.216  0.00  0.00     0.215 C 
ATOM     20  N   UNL d   1      25.130  -8.744  -2.909  0.00  0.00    -0.370 N 
ATOM     21  H   UNL d   1      24.417  -9.202  -2.358  0.00  0.00     0.159 HD
ATOM     22  H   UNL d   1      24.927  -7.816  -3.254  0.00  0.00     0.159 HD
ATOM     23  O   UNL d   1      27.145  -8.650  -3.901  0.00  0.00    -0.274 OA
ENDBRANCH  18  19
ENDBRANCH  17  18
ENDBRANCH  16  17
ENDBRANCH  15  16
ENDBRANCH  14  15
ENDBRANCH  13  14
ENDBRANCH  12  13
ENDBRANCH  11  12
ENDBRANCH   9  11
ENDBRANCH   5   7
BRANCH   1  24
ATOM     24  C   UNL d   1      25.356 -15.182  -1.832  0.00  0.00     0.235 C 
BRANCH  24  25
ATOM     25  O   UNL d   1      25.129 -15.804  -0.577  0.00  0.00    -0.345 OA
BRANCH  25  26
ATOM     26  C   UNL d   1      24.171 -16.782  -0.508  0.00  0.00     0.078 A 
ATOM     27  C   UNL d   1      22.885 -16.362  -0.870  0.00  0.00     0.074 A 
ATOM     28  C   UNL d   1      21.810 -17.259  -0.883  0.00  0.00     0.082 A 
ATOM     29  C   UNL d   1      21.993 -18.601  -0.523  0.00  0.00     0.043 A 
ATOM     30  C   UNL d   1      23.280 -19.013  -0.172  0.00  0.00     0.027 A 
ATOM     31  C   UNL d   1      24.378 -18.136  -0.202  0.00  0.00    -0.024 A 
BRANCH  28  32
ATOM     32  O   UNL d   1      20.599 -16.745  -1.271  0.00  0.00    -0.360 OA
ATOM     33  H   UNL d   1      20.033 -17.488  -1.581  0.00  0.00     0.217 HD
ENDBRANCH  28  32
BRANCH  29  34
ATOM     34  C   UNL d   1      20.858 -19.574  -0.567  0.00  0.00     0.158 C 
ATOM     35  C   UNL d   1      20.478 -20.394   0.648  0.00  0.00     0.097 C 
ATOM     36  O   UNL d   1      20.234 -19.704  -1.625  0.00  0.00    -0.293 OA
ENDBRANCH  29  34
BRANCH  31  37
ATOM     37  C   UNL d   1      25.737 -18.768  -0.044  0.00  0.00     0.037 C 
ATOM     38  C   UNL d   1      26.705 -17.749   0.585  0.00  0.00     0.010 C 
ENDBRANCH  31  37
ENDBRANCH  25  26
ENDBRANCH  24  25
ENDBRANCH   1  24
TORSDOF 16
ENDMDL
MODEL 5
REMARK VINA RESULT:    -8.177      3.021      4.752
REMARK INTER + INTRA:         -16.503
REMARK INTER:                 -12.949
REMARK INTRA:                  -3.554
REMARK CONF_INDEPENDENT:        4.773
REMARK UNBOUND:                -3.554
REMARK  16 active torsions:
REMARK  status: ('A' for Active; 'I' for Inactive)
REMARK    1  A    between atoms: C_2  and  C_3 
REMARK    2  A    between atoms: C_5  and  C_6 
REMARK    3  A    between atoms: C_9  and  O_10 
REMARK    4  A    between atoms: C_12  and  O_13 
REMARK    5  A    between atoms: O_13  and  C_14 
REMARK    6  A    between atoms: C_14  and  C_15 
REMARK    7  A    between atoms: C_19  and  C_20 
REMARK       I    between atoms: C_20  and  N_22 
REMARK    8  A    between atoms: N_22  and  C_24 
REMARK    9  A    between atoms: C_24  and  C_25 
REMARK   10  A    between atoms: C_25  and  C_26 
REMARK   11  A    between atoms: C_26  and  C_27 
REMARK   12  A    between atoms: C_27  and  C_28 
REMARK   13  A    between atoms: C_28  and  C_29 
REMARK   14  A    between atoms: C_29  and  C_30 
REMARK   15  A    between atoms: C_30  and  C_31 
REMARK   16  A    between atoms: C_31  and  C_32 
REMARK       I    between atoms: C_32  and  N_33 
ROOT
ATOM      1  C   UNL d   1      29.435 -15.565  -6.230  0.00  0.00     0.059 C 
ATOM      2  C   UNL d   1      29.847 -14.520  -7.068  0.00  0.00     0.029 C 
ATOM      3  C   UNL d   1      29.067 -13.417  -7.116  0.00  0.00     0.005 C 
ATOM      4  C   UNL d   1      27.946 -13.419  -6.317  0.00  0.00     0.037 C 
ATOM      5  C   UNL d   1      27.506 -14.526  -5.591  0.00  0.00     0.124 C 
ATOM      6  N   UNL d   1      28.285 -15.608  -5.542  0.00  0.00    -0.246 NA
ENDROOT
BRANCH   5   7
ATOM      7  C   UNL d   1      26.243 -14.674  -4.767  0.00  0.00     0.272 C 
ATOM      8  O   UNL d   1      25.393 -15.498  -5.119  0.00  0.00    -0.266 OA
ATOM      9  N   UNL d   1      26.015 -13.895  -3.628  0.00  0.00    -0.351 N 
ATOM     10  C   UNL d   1      26.864 -12.875  -3.062  0.00  0.00     0.152 C 
BRANCH   9  11
ATOM     11  C   UNL d   1      24.766 -14.125  -2.896  0.00  0.00     0.125 C 
BRANCH  11  12
ATOM     12  C   UNL d   1      24.705 -15.558  -2.386  0.00  0.00     0.020 C 
BRANCH  12  13
ATOM     13  C   UNL d   1      25.875 -15.969  -1.559  0.00  0.00     0.002 C 
BRANCH  13  14
ATOM     14  C   UNL d   1      25.331 -16.704  -0.345  0.00  0.00     0.000 C 
BRANCH  14  15
ATOM     15  C   UNL d   1      23.914 -17.122  -0.637  0.00  0.00     0.000 C 
BRANCH  15  16
ATOM     16  C   UNL d   1      23.539 -18.325   0.205  0.00  0.00     0.000 C 
BRANCH  16  17
ATOM     17  C   UNL d   1      22.570 -19.177  -0.589  0.00  0.00     0.009 C 
BRANCH  17  18
ATOM     18  C   UNL d   1      21.219 -19.285   0.093  0.00  0.00     0.102 C 
BRANCH  18  19
ATOM     19  C   UNL d   1      20.072 -19.509  -0.867  0.00  0.00     0.215 C 
ATOM     20  N   UNL d   1      18.807 -19.499  -0.377  0.00  0.00    -0.370 N 
ATOM     21  H   UNL d   1      18.569 -19.351   0.594  0.00  0.00     0.159 HD
ATOM     22  H   UNL d   1      18.045 -19.650  -1.025  0.00  0.00     0.159 HD
ATOM     23  O   UNL d   1      20.265 -19.700  -2.077  0.00  0.00    -0.274 OA
ENDBRANCH  18  19
ENDBRANCH  17  18
ENDBRANCH  16  17
ENDBRANCH  15  16
ENDBRANCH  14  15
ENDBRANCH  13  14
ENDBRANCH  12  13
ENDBRANCH  11  12
ENDBRANCH   9  11
ENDBRANCH   5   7
BRANCH   1  24
ATOM     24  C   UNL d   1      30.407 -16.648  -5.962  0.00  0.00     0.235 C 
BRANCH  24  25
ATOM     25  O   UNL d   1      31.236 -16.430  -4.832  0.00  0.00    -0.345 OA
BRANCH  25  26
ATOM     26  C   UNL d   1      30.630 -16.175  -3.629  0.00  0.00     0.078 A 
ATOM     27  C   UNL d   1      30.418 -17.308  -2.834  0.00  0.00     0.074 A 
ATOM     28  C   UNL d   1      29.841 -17.200  -1.563  0.00  0.00     0.082 A 
ATOM     29  C   UNL d   1      29.451 -15.952  -1.057  0.00  0.00     0.043 A 
ATOM     30  C   UNL d   1      29.673 -14.827  -1.854  0.00  0.00     0.027 A 
ATOM     31  C   UNL d   1      30.297 -14.914  -3.110  0.00  0.00    -0.024 A 
BRANCH  28  32
ATOM     32  O   UNL d   1      29.697 -18.370  -0.862  0.00  0.00    -0.360 OA
ATOM     33  H   UNL d   1      29.360 -18.153   0.036  0.00  0.00     0.217 HD
ENDBRANCH  28  32
BRANCH  29  34
ATOM     34  C   UNL d   1      28.865 -15.822   0.312  0.00  0.00     0.158 C 
ATOM     35  C   UNL d   1      29.407 -14.817   1.308  0.00  0.00     0.097 C 
ATOM     36  O   UNL d   1      27.927 -16.561   0.625  0.00  0.00    -0.293 OA
ENDBRANCH  29  34
BRANCH  31  37
ATOM     37  C   UNL d   1      30.697 -13.607  -3.745  0.00  0.00     0.037 C 
ATOM     38  C   UNL d   1      31.964 -13.818  -4.595  0.00  0.00     0.010 C 
ENDBRANCH  31  37
ENDBRANCH  25  26
ENDBRANCH  24  25
ENDBRANCH   1  24
TORSDOF 16
ENDMDL
MODEL 6
REMARK VINA RESULT:    -7.793      4.798     10.032
REMARK INTER + INTRA:         -16.583
REMARK INTER:                 -12.566
REMARK INTRA:                  -4.017
REMARK CONF_INDEPENDENT:        4.773
REMARK UNBOUND:                -4.017
REMARK  16 active torsions:
REMARK  status: ('A' for Active; 'I' for Inactive)
REMARK    1  A    between atoms: C_2  and  C_3 
REMARK    2  A    between atoms: C_5  and  C_6 
REMARK    3  A    between atoms: C_9  and  O_10 
REMARK    4  A    between atoms: C_12  and  O_13 
REMARK    5  A    between atoms: O_13  and  C_14 
REMARK    6  A    between atoms: C_14  and  C_15 
REMARK    7  A    between atoms: C_19  and  C_20 
REMARK       I    between atoms: C_20  and  N_22 
REMARK    8  A    between atoms: N_22  and  C_24 
REMARK    9  A    between atoms: C_24  and  C_25 
REMARK   10  A    between atoms: C_25  and  C_26 
REMARK   11  A    between atoms: C_26  and  C_27 
REMARK   12  A    between atoms: C_27  and  C_28 
REMARK   13  A    between atoms: C_28  and  C_29 
REMARK   14  A    between atoms: C_29  and  C_30 
REMARK   15  A    between atoms: C_30  and  C_31 
REMARK   16  A    between atoms: C_31  and  C_32 
REMARK       I    between atoms: C_32  and  N_33 
ROOT
ATOM      1  C   UNL d   1      26.135 -14.046  -2.153  0.00  0.00     0.059 C 
ATOM      2  C   UNL d   1      27.025 -13.748  -1.112  0.00  0.00     0.029 C 
ATOM      3  C   UNL d   1      27.489 -12.480  -1.035  0.00  0.00     0.005 C 
ATOM      4  C   UNL d   1      27.025 -11.595  -1.982  0.00  0.00     0.037 C 
ATOM      5  C   UNL d   1      26.236 -11.960  -3.073  0.00  0.00     0.124 C 
ATOM      6  N   UNL d   1      25.775 -13.210  -3.137  0.00  0.00    -0.246 NA
ENDROOT
BRANCH   5   7
ATOM      7  C   UNL d   1      25.757 -11.097  -4.223  0.00  0.00     0.272 C 
ATOM      8  O   UNL d   1      25.639 -11.606  -5.343  0.00  0.00    -0.266 OA
ATOM      9  N   UNL d   1      25.457  -9.743  -4.048  0.00  0.00    -0.351 N 
ATOM     10  C   UNL d   1      25.544  -8.960  -2.839  0.00  0.00     0.152 C 
BRANCH   9  11
ATOM     11  C   UNL d   1      24.991  -9.000  -5.224  0.00  0.00     0.125 C 
BRANCH  11  12
ATOM     12  C   UNL d   1      26.167  -8.631  -6.117  0.00  0.00     0.020 C 
BRANCH  12  13
ATOM     13  C   UNL d   1      26.344  -9.516  -7.303  0.00  0.00     0.002 C 
BRANCH  13  14
ATOM     14  C   UNL d   1      27.736 -10.121  -7.209  0.00  0.00     0.000 C 
BRANCH  14  15
ATOM     15  C   UNL d   1      27.881 -11.149  -8.300  0.00  0.00     0.000 C 
BRANCH  15  16
ATOM     16  C   UNL d   1      29.082 -12.034  -8.029  0.00  0.00     0.000 C 
BRANCH  16  17
ATOM     17  C   UNL d   1      28.581 -13.416  -7.668  0.00  0.00     0.009 C 
BRANCH  17  18
ATOM     18  C   UNL d   1      28.984 -13.816  -6.261  0.00  0.00     0.102 C 
BRANCH  18  19
ATOM     19  C   UNL d   1      27.976 -14.710  -5.573  0.00  0.00     0.215 C 
ATOM     20  N   UNL d   1      26.810 -14.163  -5.145  0.00  0.00    -0.370 N 
ATOM     21  H   UNL d   1      26.562 -13.189  -5.252  0.00  0.00     0.159 HD
ATOM     22  H   UNL d   1      26.142 -14.766  -4.686  0.00  0.00     0.159 HD
ATOM     23  O   UNL d   1      28.193 -15.918  -5.396  0.00  0.00    -0.274 OA
ENDBRANCH  18  19
ENDBRANCH  17  18
ENDBRANCH  16  17
ENDBRANCH  15  16
ENDBRANCH  14  15
ENDBRANCH  13  14
ENDBRANCH  12  13
ENDBRANCH  11  12
ENDBRANCH   9  11
ENDBRANCH   5   7
BRANCH   1  24
ATOM     24  C   UNL d   1      25.416 -15.338  -2.086  0.00  0.00     0.235 C 
BRANCH  24  25
ATOM     25  O   UNL d   1      25.117 -15.780  -0.772  0.00  0.00    -0.345 OA
BRANCH  25  26
ATOM     26  C   UNL d   1      24.154 -16.744  -0.621  0.00  0.00     0.078 A 
ATOM     27  C   UNL d   1      22.860 -16.330  -0.963  0.00  0.00     0.074 A 
ATOM     28  C   UNL d   1      21.778 -17.216  -0.895  0.00  0.00     0.082 A 
ATOM     29  C   UNL d   1      21.961 -18.539  -0.472  0.00  0.00     0.043 A 
ATOM     30  C   UNL d   1      23.255 -18.945  -0.141  0.00  0.00     0.027 A 
ATOM     31  C   UNL d   1      24.359 -18.082  -0.253  0.00  0.00    -0.024 A 
BRANCH  28  32
ATOM     32  O   UNL d   1      20.559 -16.710  -1.270  0.00  0.00    -0.360 OA
ATOM     33  H   UNL d   1      19.991 -17.459  -1.564  0.00  0.00     0.217 HD
ENDBRANCH  28  32
BRANCH  29  34
ATOM     34  C   UNL d   1      20.817 -19.502  -0.429  0.00  0.00     0.158 C 
ATOM     35  C   UNL d   1      20.305 -20.055   0.884  0.00  0.00     0.097 C 
ATOM     36  O   UNL d   1      20.297 -19.847  -1.494  0.00  0.00    -0.293 OA
ENDBRANCH  29  34
BRANCH  31  37
ATOM     37  C   UNL d   1      25.717 -18.719  -0.106  0.00  0.00     0.037 C 
ATOM     38  C   UNL d   1      26.664 -17.742   0.615  0.00  0.00     0.010 C 
ENDBRANCH  31  37
ENDBRANCH  25  26
ENDBRANCH  24  25
ENDBRANCH   1  24
TORSDOF 16
ENDMDL
