MODEL 1
REMARK VINA RESULT:    -8.769      0.000      0.000
REMARK INTER + INTRA:         -13.600
REMARK INTER:                 -11.454
REMARK INTRA:                  -2.146
REMARK CONF_INDEPENDENT:        2.685
REMARK UNBOUND:                -2.146
REMARK  9 active torsions:
REMARK  status: ('A' for Active; 'I' for Inactive)
REMARK    1  A    between atoms: C_2  and  C_3 
REMARK    2  A    between atoms: C_3  and  N_4 
REMARK       I    between atoms: N_4  and  C_5 
REMARK    3  A    between atoms: C_5  and  C_7 
REMARK    4  A    between atoms: C_10  and  N_11 
REMARK       I    between atoms: N_11  and  C_12 
REMARK       I    between atoms: C_12  and  N_14 
REMARK    5  A    between atoms: N_14  and  C_15 
REMARK    6  A    between atoms: C_15  and  C_16 
REMARK    7  A    between atoms: C_16  and  N_17 
REMARK    8  A    between atoms: N_17  and  C_18 
REMARK    9  A    between atoms: C_23  and  N_24 
ROOT
ATOM      1  N   UNL d   1      27.079 -16.779   0.231  0.00  0.00    -0.309 N 
ATOM      2  C   UNL d   1      28.033 -16.776  -0.778  0.00  0.00     0.320 C 
ATOM      3  O   UNL d   1      27.849 -17.097  -1.945  0.00  0.00    -0.247 OA
ATOM      4  N   UNL d   1      29.281 -16.326  -0.420  0.00  0.00    -0.341 N 
ATOM      5  H   UNL d   1      27.372 -16.572   1.176  0.00  0.00     0.170 HD
ATOM      6  H   UNL d   1      29.564 -16.314   0.549  0.00  0.00     0.164 HD
ENDROOT
BRANCH   1   7
ATOM      7  C   UNL d   1      25.713 -17.174   0.035  0.00  0.00     0.036 A 
ATOM      8  C   UNL d   1      25.299 -18.504   0.195  0.00  0.00     0.030 A 
ATOM      9  C   UNL d   1      23.963 -18.885  -0.106  0.00  0.00     0.019 A 
ATOM     10  C   UNL d   1      23.013 -17.934  -0.516  0.00  0.00     0.032 A 
ATOM     11  C   UNL d   1      23.409 -16.611  -0.625  0.00  0.00     0.019 A 
ATOM     12  C   UNL d   1      24.730 -16.251  -0.344  0.00  0.00     0.030 A 
BRANCH  10  13
ATOM     13  C   UNL d   1      21.570 -18.290  -0.672  0.00  0.00     0.251 C 
ATOM     14  N   UNL d   1      21.152 -19.507  -0.139  0.00  0.00    -0.353 N 
ATOM     15  H   UNL d   1      21.791 -20.067   0.406  0.00  0.00     0.163 HD
ATOM     16  O   UNL d   1      20.828 -17.530  -1.270  0.00  0.00    -0.268 OA
BRANCH  14  17
ATOM     17  C   UNL d   1      19.769 -19.917  -0.282  0.00  0.00     0.149 C 
BRANCH  17  18
ATOM     18  C   UNL d   1      19.148 -20.227   1.049  0.00  0.00    -0.018 C 
ATOM     19  C   UNL d   1      18.406 -21.328   1.255  0.00  0.00     0.008 C 
ENDBRANCH  17  18
ENDBRANCH  14  17
ENDBRANCH  10  13
ENDBRANCH   1   7
BRANCH   4  20
ATOM     20  C   UNL d   1      30.316 -16.319  -1.469  0.00  0.00     0.144 C 
BRANCH  20  21
ATOM     21  C   UNL d   1      30.383 -14.989  -2.214  0.00  0.00     0.139 C 
BRANCH  21  22
ATOM     22  N   UNL d   1      29.413 -14.878  -3.299  0.00  0.00    -0.386 N 
ATOM     23  H   UNL d   1      29.702 -15.116  -4.246  0.00  0.00     0.159 HD
BRANCH  22  24
ATOM     24  C   UNL d   1      28.109 -14.425  -3.134  0.00  0.00     0.061 A 
ATOM     25  C   UNL d   1      27.829 -13.745  -1.919  0.00  0.00     0.031 A 
ATOM     26  C   UNL d   1      26.549 -13.264  -1.600  0.00  0.00     0.002 A 
ATOM     27  C   UNL d   1      25.520 -13.379  -2.520  0.00  0.00     0.003 A 
ATOM     28  C   UNL d   1      25.761 -14.014  -3.732  0.00  0.00     0.038 A 
ATOM     29  C   UNL d   1      27.035 -14.545  -4.042  0.00  0.00     0.129 A 
BRANCH  29  30
ATOM     30  N   UNL d   1      27.087 -15.301  -5.306  0.00  0.00    -0.113 N 
ATOM     31  O   UNL d   1      26.007 -15.707  -5.766  0.00  0.00    -0.532 OA
ATOM     32  O   UNL d   1      28.181 -15.550  -5.831  0.00  0.00    -0.532 OA
ENDBRANCH  29  30
ENDBRANCH  22  24
ENDBRANCH  21  22
ENDBRANCH  20  21
ENDBRANCH   4  20
TORSDOF 9
ENDMDL
MODEL 2
REMARK VINA RESULT:    -8.550      1.790      2.322
REMARK INTER + INTRA:         -13.488
REMARK INTER:                 -11.235
REMARK INTRA:                  -2.253
REMARK CONF_INDEPENDENT:        2.685
REMARK UNBOUND:                -2.253
REMARK  9 active torsions:
REMARK  status: ('A' for Active; 'I' for Inactive)
REMARK    1  A    between atoms: C_2  and  C_3 
REMARK    2  A    between atoms: C_3  and  N_4 
REMARK       I    between atoms: N_4  and  C_5 
REMARK    3  A    between atoms: C_5  and  C_7 
REMARK    4  A    between atoms: C_10  and  N_11 
REMARK       I    between atoms: N_11  and  C_12 
REMARK       I    between atoms: C_12  and  N_14 
REMARK    5  A    between atoms: N_14  and  C_15 
REMARK    6  A    between atoms: C_15  and  C_16 
REMARK    7  A    between atoms: C_16  and  N_17 
REMARK    8  A    between atoms: N_17  and  C_18 
REMARK    9  A    between atoms: C_23  and  N_24 
ROOT
ATOM      1  N   UNL d   1      25.389 -15.896  -0.472  0.00  0.00    -0.309 N 
ATOM      2  C   UNL d   1      26.719 -16.294  -0.486  0.00  0.00     0.320 C 
ATOM      3  O   UNL d   1      27.126 -17.447  -0.551  0.00  0.00    -0.247 OA
ATOM      4  N   UNL d   1      27.647 -15.280  -0.471  0.00  0.00    -0.341 N 
ATOM      5  H   UNL d   1      25.176 -14.918  -0.333  0.00  0.00     0.170 HD
ATOM      6  H   UNL d   1      27.394 -14.358  -0.147  0.00  0.00     0.164 HD
ENDROOT
BRANCH   1   7
ATOM      7  C   UNL d   1      24.284 -16.811  -0.528  0.00  0.00     0.036 A 
ATOM      8  C   UNL d   1      24.463 -18.194  -0.378  0.00  0.00     0.030 A 
ATOM      9  C   UNL d   1      23.367 -19.085  -0.540  0.00  0.00     0.019 A 
ATOM     10  C   UNL d   1      22.072 -18.601  -0.797  0.00  0.00     0.032 A 
ATOM     11  C   UNL d   1      21.886 -17.232  -0.895  0.00  0.00     0.019 A 
ATOM     12  C   UNL d   1      22.974 -16.367  -0.752  0.00  0.00     0.030 A 
BRANCH  10  13
ATOM     13  C   UNL d   1      20.886 -19.512  -0.802  0.00  0.00     0.251 C 
ATOM     14  N   UNL d   1      20.550 -20.127   0.401  0.00  0.00    -0.353 N 
ATOM     15  H   UNL d   1      21.041 -19.885   1.249  0.00  0.00     0.163 HD
ATOM     16  O   UNL d   1      20.282 -19.700  -1.844  0.00  0.00    -0.268 OA
BRANCH  14  17
ATOM     17  C   UNL d   1      19.425 -21.039   0.451  0.00  0.00     0.149 C 
BRANCH  17  18
ATOM     18  C   UNL d   1      18.598 -20.826   1.685  0.00  0.00    -0.018 C 
ATOM     19  C   UNL d   1      19.139 -20.453   2.857  0.00  0.00     0.008 C 
ENDBRANCH  17  18
ENDBRANCH  14  17
ENDBRANCH  10  13
ENDBRANCH   1   7
BRANCH   4  20
ATOM     20  C   UNL d   1      29.067 -15.673  -0.478  0.00  0.00     0.144 C 
BRANCH  20  21
ATOM     21  C   UNL d   1      29.503 -16.263  -1.815  0.00  0.00     0.139 C 
BRANCH  21  22
ATOM     22  N   UNL d   1      28.423 -16.354  -2.793  0.00  0.00    -0.386 N 
ATOM     23  H   UNL d   1      27.642 -16.981  -2.609  0.00  0.00     0.159 HD
BRANCH  22  24
ATOM     24  C   UNL d   1      28.404 -15.662  -3.998  0.00  0.00     0.061 A 
ATOM     25  C   UNL d   1      29.665 -15.428  -4.609  0.00  0.00     0.031 A 
ATOM     26  C   UNL d   1      29.803 -14.711  -5.808  0.00  0.00     0.002 A 
ATOM     27  C   UNL d   1      28.675 -14.269  -6.480  0.00  0.00     0.003 A 
ATOM     28  C   UNL d   1      27.422 -14.501  -5.929  0.00  0.00     0.038 A 
ATOM     29  C   UNL d   1      27.276 -15.180  -4.697  0.00  0.00     0.129 A 
BRANCH  29  30
ATOM     30  N   UNL d   1      25.893 -15.226  -4.188  0.00  0.00    -0.113 N 
ATOM     31  O   UNL d   1      25.632 -16.097  -3.342  0.00  0.00    -0.532 OA
ATOM     32  O   UNL d   1      25.043 -14.452  -4.645  0.00  0.00    -0.532 OA
ENDBRANCH  29  30
ENDBRANCH  22  24
ENDBRANCH  21  22
ENDBRANCH  20  21
ENDBRANCH   4  20
TORSDOF 9
ENDMDL
MODEL 3
REMARK VINA RESULT:    -8.186      1.753      2.353
REMARK INTER + INTRA:         -13.310
REMARK INTER:                 -10.871
REMARK INTRA:                  -2.439
REMARK CONF_INDEPENDENT:        2.685
REMARK UNBOUND:                -2.439
REMARK  9 active torsions:
REMARK  status: ('A' for Active; 'I' for Inactive)
REMARK    1  A    between atoms: C_2  and  C_3 
REMARK    2  A    between atoms: C_3  and  N_4 
REMARK       I    between atoms: N_4  and  C_5 
REMARK    3  A    between atoms: C_5  and  C_7 
REMARK    4  A    between atoms: C_10  and  N_11 
REMARK       I    between atoms: N_11  and  C_12 
REMARK       I    between atoms: C_12  and  N_14 
REMARK    5  A    between atoms: N_14  and  C_15 
REMARK    6  A    between atoms: C_15  and  C_16 
REMARK    7  A    between atoms: C_16  and  N_17 
REMARK    8  A    between atoms: N_17  and  C_18 
REMARK    9  A    between atoms: C_23  and  N_24 
ROOT
ATOM      1  N   UNL d   1      26.698 -16.380  -0.627  0.00  0.00    -0.309 N 
ATOM      2  C   UNL d   1      26.966 -15.023  -0.507  0.00  0.00     0.320 C 
ATOM      3  O   UNL d   1      26.140 -14.138  -0.321  0.00  0.00    -0.247 OA
ATOM      4  N   UNL d   1      28.293 -14.669  -0.559  0.00  0.00    -0.341 N 
ATOM      5  H   UNL d   1      27.456 -17.006  -0.861  0.00  0.00     0.170 HD
ATOM      6  H   UNL d   1      28.974 -15.288  -0.973  0.00  0.00     0.164 HD
ENDROOT
BRANCH   1   7
ATOM      7  C   UNL d   1      25.378 -16.940  -0.553  0.00  0.00     0.036 A 
ATOM      8  C   UNL d   1      25.160 -18.264  -0.143  0.00  0.00     0.030 A 
ATOM      9  C   UNL d   1      23.853 -18.824  -0.177  0.00  0.00     0.019 A 
ATOM     10  C   UNL d   1      22.745 -18.052  -0.567  0.00  0.00     0.032 A 
ATOM     11  C   UNL d   1      22.953 -16.730  -0.922  0.00  0.00     0.019 A 
ATOM     12  C   UNL d   1      24.244 -16.195  -0.902  0.00  0.00     0.030 A 
BRANCH  10  13
ATOM     13  C   UNL d   1      21.350 -18.575  -0.446  0.00  0.00     0.251 C 
ATOM     14  N   UNL d   1      21.185 -19.818   0.160  0.00  0.00    -0.353 N 
ATOM     15  H   UNL d   1      21.976 -20.288   0.576  0.00  0.00     0.163 HD
ATOM     16  O   UNL d   1      20.425 -17.921  -0.896  0.00  0.00    -0.268 OA
BRANCH  14  17
ATOM     17  C   UNL d   1      19.858 -20.388   0.283  0.00  0.00     0.149 C 
BRANCH  17  18
ATOM     18  C   UNL d   1      19.235 -20.052   1.606  0.00  0.00    -0.018 C 
ATOM     19  C   UNL d   1      19.928 -20.091   2.756  0.00  0.00     0.008 C 
ENDBRANCH  17  18
ENDBRANCH  14  17
ENDBRANCH  10  13
ENDBRANCH   1   7
BRANCH   4  20
ATOM     20  C   UNL d   1      28.608 -13.234  -0.441  0.00  0.00     0.144 C 
BRANCH  20  21
ATOM     21  C   UNL d   1      28.103 -12.426  -1.632  0.00  0.00     0.139 C 
BRANCH  21  22
ATOM     22  N   UNL d   1      27.353 -13.220  -2.600  0.00  0.00    -0.386 N 
ATOM     23  H   UNL d   1      26.410 -13.523  -2.366  0.00  0.00     0.159 HD
BRANCH  22  24
ATOM     24  C   UNL d   1      27.859 -13.632  -3.828  0.00  0.00     0.061 A 
ATOM     25  C   UNL d   1      29.139 -13.130  -4.180  0.00  0.00     0.031 A 
ATOM     26  C   UNL d   1      29.759 -13.431  -5.404  0.00  0.00     0.002 A 
ATOM     27  C   UNL d   1      29.152 -14.309  -6.286  0.00  0.00     0.003 A 
ATOM     28  C   UNL d   1      27.910 -14.842  -5.966  0.00  0.00     0.038 A 
ATOM     29  C   UNL d   1      27.256 -14.507  -4.757  0.00  0.00     0.129 A 
BRANCH  29  30
ATOM     30  N   UNL d   1      25.893 -15.052  -4.632  0.00  0.00    -0.113 N 
ATOM     31  O   UNL d   1      25.568 -15.949  -5.427  0.00  0.00    -0.532 OA
ATOM     32  O   UNL d   1      25.114 -14.577  -3.796  0.00  0.00    -0.532 OA
ENDBRANCH  29  30
ENDBRANCH  22  24
ENDBRANCH  21  22
ENDBRANCH  20  21
ENDBRANCH   4  20
TORSDOF 9
ENDMDL
MODEL 4
REMARK VINA RESULT:    -8.009      1.549      2.396
REMARK INTER + INTRA:         -12.940
REMARK INTER:                 -10.694
REMARK INTRA:                  -2.247
REMARK CONF_INDEPENDENT:        2.685
REMARK UNBOUND:                -2.247
REMARK  9 active torsions:
REMARK  status: ('A' for Active; 'I' for Inactive)
REMARK    1  A    between atoms: C_2  and  C_3 
REMARK    2  A    between atoms: C_3  and  N_4 
REMARK       I    between atoms: N_4  and  C_5 
REMARK    3  A    between atoms: C_5  and  C_7 
REMARK    4  A    between atoms: C_10  and  N_11 
REMARK       I    between atoms: N_11  and  C_12 
REMARK       I    between atoms: C_12  and  N_14 
REMARK    5  A    between atoms: N_14  and  C_15 
REMARK    6  A    between atoms: C_15  and  C_16 
REMARK    7  A    between atoms: C_16  and  N_17 
REMARK    8  A    between atoms: N_17  and  C_18 
REMARK    9  A    between atoms: C_23  and  N_24 
ROOT
ATOM      1  N   UNL d   1      27.240 -16.636   0.381  0.00  0.00    -0.309 N 
ATOM      2  C   UNL d   1      28.293 -16.804  -0.509  0.00  0.00     0.320 C 
ATOM      3  O   UNL d   1      28.219 -17.291  -1.631  0.00  0.00    -0.247 OA
ATOM      4  N   UNL d   1      29.514 -16.332  -0.088  0.00  0.00    -0.341 N 
ATOM      5  H   UNL d   1      27.441 -16.296   1.311  0.00  0.00     0.170 HD
ATOM      6  H   UNL d   1      29.695 -16.182   0.893  0.00  0.00     0.164 HD
ENDROOT
BRANCH   1   7
ATOM      7  C   UNL d   1      25.889 -17.026   0.097  0.00  0.00     0.036 A 
ATOM      8  C   UNL d   1      25.048 -16.243  -0.708  0.00  0.00     0.030 A 
ATOM      9  C   UNL d   1      23.684 -16.601  -0.888  0.00  0.00     0.019 A 
ATOM     10  C   UNL d   1      23.160 -17.772  -0.314  0.00  0.00     0.032 A 
ATOM     11  C   UNL d   1      24.003 -18.572   0.439  0.00  0.00     0.019 A 
ATOM     12  C   UNL d   1      25.338 -18.201   0.624  0.00  0.00     0.030 A 
BRANCH  10  13
ATOM     13  C   UNL d   1      21.779 -18.246  -0.633  0.00  0.00     0.251 C 
ATOM     14  N   UNL d   1      21.430 -19.525  -0.208  0.00  0.00    -0.353 N 
ATOM     15  H   UNL d   1      22.064 -20.058   0.368  0.00  0.00     0.163 HD
ATOM     16  O   UNL d   1      21.028 -17.520  -1.262  0.00  0.00    -0.268 OA
BRANCH  14  17
ATOM     17  C   UNL d   1      20.112 -20.048  -0.510  0.00  0.00     0.149 C 
BRANCH  17  18
ATOM     18  C   UNL d   1      19.586 -20.896   0.611  0.00  0.00    -0.018 C 
ATOM     19  C   UNL d   1      18.330 -20.777   1.073  0.00  0.00     0.008 C 
ENDBRANCH  17  18
ENDBRANCH  14  17
ENDBRANCH  10  13
ENDBRANCH   1   7
BRANCH   4  20
ATOM     20  C   UNL d   1      30.651 -16.504  -1.009  0.00  0.00     0.144 C 
BRANCH  20  21
ATOM     21  C   UNL d   1      30.715 -15.408  -2.068  0.00  0.00     0.139 C 
BRANCH  21  22
ATOM     22  N   UNL d   1      29.516 -15.326  -2.896  0.00  0.00    -0.386 N 
ATOM     23  H   UNL d   1      28.607 -15.490  -2.467  0.00  0.00     0.159 HD
BRANCH  22  24
ATOM     24  C   UNL d   1      29.530 -15.073  -4.263  0.00  0.00     0.061 A 
ATOM     25  C   UNL d   1      30.796 -14.773  -4.834  0.00  0.00     0.031 A 
ATOM     26  C   UNL d   1      30.957 -14.461  -6.193  0.00  0.00     0.002 A 
ATOM     27  C   UNL d   1      29.867 -14.513  -7.046  0.00  0.00     0.003 A 
ATOM     28  C   UNL d   1      28.617 -14.829  -6.531  0.00  0.00     0.038 A 
ATOM     29  C   UNL d   1      28.436 -15.097  -5.154  0.00  0.00     0.129 A 
BRANCH  29  30
ATOM     30  N   UNL d   1      27.030 -15.283  -4.750  0.00  0.00    -0.113 N 
ATOM     31  O   UNL d   1      26.767 -15.145  -3.545  0.00  0.00    -0.532 OA
ATOM     32  O   UNL d   1      26.186 -15.614  -5.593  0.00  0.00    -0.532 OA
ENDBRANCH  29  30
ENDBRANCH  22  24
ENDBRANCH  21  22
ENDBRANCH  20  21
ENDBRANCH   4  20
TORSDOF 9
ENDMDL
MODEL 5
REMARK VINA RESULT:    -8.005      4.687      5.581
REMARK INTER + INTRA:         -12.605
REMARK INTER:                 -10.689
REMARK INTRA:                  -1.916
REMARK CONF_INDEPENDENT:        2.685
REMARK UNBOUND:                -1.916
REMARK  9 active torsions:
REMARK  status: ('A' for Active; 'I' for Inactive)
REMARK    1  A    between atoms: C_2  and  C_3 
REMARK    2  A    between atoms: C_3  and  N_4 
REMARK       I    between atoms: N_4  and  C_5 
REMARK    3  A    between atoms: C_5  and  C_7 
REMARK    4  A    between atoms: C_10  and  N_11 
REMARK       I    between atoms: N_11  and  C_12 
REMARK       I    between atoms: C_12  and  N_14 
REMARK    5  A    between atoms: N_14  and  C_15 
REMARK    6  A    between atoms: C_15  and  C_16 
REMARK    7  A    between atoms: C_16  and  N_17 
REMARK    8  A    between atoms: N_17  and  C_18 
REMARK    9  A    between atoms: C_23  and  N_24 
ROOT
ATOM      1  N   UNL d   1      27.103 -16.487  -0.038  0.00  0.00    -0.309 N 
ATOM      2  C   UNL d   1      27.459 -15.289   0.568  0.00  0.00     0.320 C 
ATOM      3  O   UNL d   1      26.690 -14.471   1.057  0.00  0.00    -0.247 OA
ATOM      4  N   UNL d   1      28.809 -15.042   0.656  0.00  0.00    -0.341 N 
ATOM      5  H   UNL d   1      27.824 -17.041  -0.477  0.00  0.00     0.170 HD
ATOM      6  H   UNL d   1      29.459 -15.519   0.050  0.00  0.00     0.164 HD
ENDROOT
BRANCH   1   7
ATOM      7  C   UNL d   1      25.746 -16.934  -0.180  0.00  0.00     0.036 A 
ATOM      8  C   UNL d   1      25.293 -18.119   0.420  0.00  0.00     0.030 A 
ATOM      9  C   UNL d   1      23.974 -18.591   0.178  0.00  0.00     0.019 A 
ATOM     10  C   UNL d   1      23.077 -17.857  -0.617  0.00  0.00     0.032 A 
ATOM     11  C   UNL d   1      23.508 -16.661  -1.167  0.00  0.00     0.019 A 
ATOM     12  C   UNL d   1      24.812 -16.216  -0.937  0.00  0.00     0.030 A 
BRANCH  10  13
ATOM     13  C   UNL d   1      21.641 -18.254  -0.741  0.00  0.00     0.251 C 
ATOM     14  N   UNL d   1      21.283 -19.511  -0.261  0.00  0.00    -0.353 N 
ATOM     15  H   UNL d   1      21.960 -20.077   0.230  0.00  0.00     0.163 HD
ATOM     16  O   UNL d   1      20.853 -17.489  -1.270  0.00  0.00    -0.268 OA
BRANCH  14  17
ATOM     17  C   UNL d   1      19.910 -19.960  -0.376  0.00  0.00     0.149 C 
BRANCH  17  18
ATOM     18  C   UNL d   1      19.391 -20.483   0.932  0.00  0.00    -0.018 C 
ATOM     19  C   UNL d   1      19.838 -20.030   2.115  0.00  0.00     0.008 C 
ENDBRANCH  17  18
ENDBRANCH  14  17
ENDBRANCH  10  13
ENDBRANCH   1   7
BRANCH   4  20
ATOM     20  C   UNL d   1      29.216 -13.774   1.289  0.00  0.00     0.144 C 
BRANCH  20  21
ATOM     21  C   UNL d   1      28.776 -13.681   2.746  0.00  0.00     0.139 C 
BRANCH  21  22
ATOM     22  N   UNL d   1      27.773 -12.649   2.988  0.00  0.00    -0.386 N 
ATOM     23  H   UNL d   1      26.882 -12.702   2.499  0.00  0.00     0.159 HD
BRANCH  22  24
ATOM     24  C   UNL d   1      27.967 -11.557   3.826  0.00  0.00     0.061 A 
ATOM     25  C   UNL d   1      28.919 -11.724   4.866  0.00  0.00     0.031 A 
ATOM     26  C   UNL d   1      29.192 -10.719   5.809  0.00  0.00     0.002 A 
ATOM     27  C   UNL d   1      28.577  -9.483   5.698  0.00  0.00     0.003 A 
ATOM     28  C   UNL d   1      27.659  -9.272   4.677  0.00  0.00     0.038 A 
ATOM     29  C   UNL d   1      27.342 -10.293   3.751  0.00  0.00     0.129 A 
BRANCH  29  30
ATOM     30  N   UNL d   1      26.255  -9.950   2.816  0.00  0.00    -0.113 N 
ATOM     31  O   UNL d   1      25.936 -10.812   1.980  0.00  0.00    -0.532 OA
ATOM     32  O   UNL d   1      25.741  -8.825   2.856  0.00  0.00    -0.532 OA
ENDBRANCH  29  30
ENDBRANCH  22  24
ENDBRANCH  21  22
ENDBRANCH  20  21
ENDBRANCH   4  20
TORSDOF 9
ENDMDL
MODEL 6
REMARK VINA RESULT:    -7.582      2.006      2.467
REMARK INTER + INTRA:         -13.249
REMARK INTER:                 -10.267
REMARK INTRA:                  -2.982
REMARK CONF_INDEPENDENT:        2.685
REMARK UNBOUND:                -2.982
REMARK  9 active torsions:
REMARK  status: ('A' for Active; 'I' for Inactive)
REMARK    1  A    between atoms: C_2  and  C_3 
REMARK    2  A    between atoms: C_3  and  N_4 
REMARK       I    between atoms: N_4  and  C_5 
REMARK    3  A    between atoms: C_5  and  C_7 
REMARK    4  A    between atoms: C_10  and  N_11 
REMARK       I    between atoms: N_11  and  C_12 
REMARK       I    between atoms: C_12  and  N_14 
REMARK    5  A    between atoms: N_14  and  C_15 
REMARK    6  A    between atoms: C_15  and  C_16 
REMARK    7  A    between atoms: C_16  and  N_17 
REMARK    8  A    between atoms: N_17  and  C_18 
REMARK    9  A    between atoms: C_23  and  N_24 
ROOT
ATOM      1  N   UNL d   1      25.390 -16.230  -0.460  0.00  0.00    -0.309 N 
ATOM      2  C   UNL d   1      26.702 -16.679  -0.530  0.00  0.00     0.320 C 
ATOM      3  O   UNL d   1      27.061 -17.847  -0.614  0.00  0.00    -0.247 OA
ATOM      4  N   UNL d   1      27.669 -15.703  -0.551  0.00  0.00    -0.341 N 
ATOM      5  H   UNL d   1      25.223 -15.244  -0.310  0.00  0.00     0.170 HD
ATOM      6  H   UNL d   1      27.467 -14.773  -0.216  0.00  0.00     0.164 HD
ENDROOT
BRANCH   1   7
ATOM      7  C   UNL d   1      24.249 -17.100  -0.472  0.00  0.00     0.036 A 
ATOM      8  C   UNL d   1      24.360 -18.467  -0.180  0.00  0.00     0.030 A 
ATOM      9  C   UNL d   1      23.233 -19.325  -0.299  0.00  0.00     0.019 A 
ATOM     10  C   UNL d   1      21.971 -18.817  -0.656  0.00  0.00     0.032 A 
ATOM     11  C   UNL d   1      21.850 -17.458  -0.895  0.00  0.00     0.019 A 
ATOM     12  C   UNL d   1      22.970 -16.628  -0.792  0.00  0.00     0.030 A 
BRANCH  10  13
ATOM     13  C   UNL d   1      20.748 -19.675  -0.621  0.00  0.00     0.251 C 
ATOM     14  N   UNL d   1      20.537 -20.439   0.524  0.00  0.00    -0.353 N 
ATOM     15  H   UNL d   1      21.146 -20.334   1.322  0.00  0.00     0.163 HD
ATOM     16  O   UNL d   1      20.004 -19.695  -1.587  0.00  0.00    -0.268 OA
BRANCH  14  17
ATOM     17  C   UNL d   1      19.380 -21.308   0.605  0.00  0.00     0.149 C 
BRANCH  17  18
ATOM     18  C   UNL d   1      18.405 -20.832   1.641  0.00  0.00    -0.018 C 
ATOM     19  C   UNL d   1      18.409 -19.571   2.105  0.00  0.00     0.008 C 
ENDBRANCH  17  18
ENDBRANCH  14  17
ENDBRANCH  10  13
ENDBRANCH   1   7
BRANCH   4  20
ATOM     20  C   UNL d   1      29.072 -16.151  -0.618  0.00  0.00     0.144 C 
BRANCH  20  21
ATOM     21  C   UNL d   1      29.775 -15.681  -1.886  0.00  0.00     0.139 C 
BRANCH  21  22
ATOM     22  N   UNL d   1      29.183 -14.482  -2.473  0.00  0.00    -0.386 N 
ATOM     23  H   UNL d   1      29.681 -13.598  -2.396  0.00  0.00     0.159 HD
BRANCH  22  24
ATOM     24  C   UNL d   1      27.946 -14.455  -3.105  0.00  0.00     0.061 A 
ATOM     25  C   UNL d   1      27.850 -15.169  -4.329  0.00  0.00     0.031 A 
ATOM     26  C   UNL d   1      26.674 -15.199  -5.096  0.00  0.00     0.002 A 
ATOM     27  C   UNL d   1      25.528 -14.580  -4.627  0.00  0.00     0.003 A 
ATOM     28  C   UNL d   1      25.574 -13.894  -3.420  0.00  0.00     0.038 A 
ATOM     29  C   UNL d   1      26.767 -13.817  -2.663  0.00  0.00     0.129 A 
BRANCH  29  30
ATOM     30  N   UNL d   1      26.680 -12.943  -1.479  0.00  0.00    -0.113 N 
ATOM     31  O   UNL d   1      27.073 -11.772  -1.612  0.00  0.00    -0.532 OA
ATOM     32  O   UNL d   1      26.280 -13.403  -0.402  0.00  0.00    -0.532 OA
ENDBRANCH  29  30
ENDBRANCH  22  24
ENDBRANCH  21  22
ENDBRANCH  20  21
ENDBRANCH   4  20
TORSDOF 9
ENDMDL
MODEL 7
REMARK VINA RESULT:    -7.330      1.699      2.181
REMARK INTER + INTRA:         -13.860
REMARK INTER:                 -10.015
REMARK INTRA:                  -3.846
REMARK CONF_INDEPENDENT:        2.685
REMARK UNBOUND:                -3.846
REMARK  9 active torsions:
REMARK  status: ('A' for Active; 'I' for Inactive)
REMARK    1  A    between atoms: C_2  and  C_3 
REMARK    2  A    between atoms: C_3  and  N_4 
REMARK       I    between atoms: N_4  and  C_5 
REMARK    3  A    between atoms: C_5  and  C_7 
REMARK    4  A    between atoms: C_10  and  N_11 
REMARK       I    between atoms: N_11  and  C_12 
REMARK       I    between atoms: C_12  and  N_14 
REMARK    5  A    between atoms: N_14  and  C_15 
REMARK    6  A    between atoms: C_15  and  C_16 
REMARK    7  A    between atoms: C_16  and  N_17 
REMARK    8  A    between atoms: N_17  and  C_18 
REMARK    9  A    between atoms: C_23  and  N_24 
ROOT
ATOM      1  N   UNL d   1      26.588 -16.592  -0.505  0.00  0.00    -0.309 N 
ATOM      2  C   UNL d   1      26.944 -15.355   0.014  0.00  0.00     0.320 C 
ATOM      3  O   UNL d   1      26.190 -14.553   0.550  0.00  0.00    -0.247 OA
ATOM      4  N   UNL d   1      28.281 -15.042  -0.050  0.00  0.00    -0.341 N 
ATOM      5  H   UNL d   1      27.286 -17.131  -0.998  0.00  0.00     0.170 HD
ATOM      6  H   UNL d   1      28.888 -15.514  -0.703  0.00  0.00     0.164 HD
ENDROOT
BRANCH   1   7
ATOM      7  C   UNL d   1      25.248 -17.107  -0.487  0.00  0.00     0.036 A 
ATOM      8  C   UNL d   1      24.975 -18.440  -0.148  0.00  0.00     0.030 A 
ATOM      9  C   UNL d   1      23.651 -18.951  -0.237  0.00  0.00     0.019 A 
ATOM     10  C   UNL d   1      22.579 -18.121  -0.611  0.00  0.00     0.032 A 
ATOM     11  C   UNL d   1      22.841 -16.792  -0.896  0.00  0.00     0.019 A 
ATOM     12  C   UNL d   1      24.149 -16.306  -0.822  0.00  0.00     0.030 A 
BRANCH  10  13
ATOM     13  C   UNL d   1      21.164 -18.600  -0.545  0.00  0.00     0.251 C 
ATOM     14  N   UNL d   1      20.925 -19.795   0.128  0.00  0.00    -0.353 N 
ATOM     15  H   UNL d   1      21.675 -20.256   0.623  0.00  0.00     0.163 HD
ATOM     16  O   UNL d   1      20.288 -17.953  -1.094  0.00  0.00    -0.268 OA
BRANCH  14  17
ATOM     17  C   UNL d   1      19.577 -20.321   0.203  0.00  0.00     0.149 C 
BRANCH  17  18
ATOM     18  C   UNL d   1      19.164 -20.576   1.623  0.00  0.00    -0.018 C 
ATOM     19  C   UNL d   1      19.842 -20.076   2.669  0.00  0.00     0.008 C 
ENDBRANCH  17  18
ENDBRANCH  14  17
ENDBRANCH  10  13
ENDBRANCH   1   7
BRANCH   4  20
ATOM     20  C   UNL d   1      28.688 -13.731   0.488  0.00  0.00     0.144 C 
BRANCH  20  21
ATOM     21  C   UNL d   1      28.021 -12.569  -0.241  0.00  0.00     0.139 C 
BRANCH  21  22
ATOM     22  N   UNL d   1      28.205 -12.605  -1.689  0.00  0.00    -0.386 N 
ATOM     23  H   UNL d   1      28.952 -12.052  -2.105  0.00  0.00     0.159 HD
BRANCH  22  24
ATOM     24  C   UNL d   1      27.393 -13.322  -2.559  0.00  0.00     0.061 A 
ATOM     25  C   UNL d   1      26.196 -12.680  -2.974  0.00  0.00     0.031 A 
ATOM     26  C   UNL d   1      25.262 -13.297  -3.822  0.00  0.00     0.002 A 
ATOM     27  C   UNL d   1      25.531 -14.551  -4.347  0.00  0.00     0.003 A 
ATOM     28  C   UNL d   1      26.704 -15.200  -3.986  0.00  0.00     0.038 A 
ATOM     29  C   UNL d   1      27.628 -14.607  -3.095  0.00  0.00     0.129 A 
BRANCH  29  30
ATOM     30  N   UNL d   1      28.752 -15.480  -2.713  0.00  0.00    -0.113 N 
ATOM     31  O   UNL d   1      28.492 -16.677  -2.507  0.00  0.00    -0.532 OA
ATOM     32  O   UNL d   1      29.882 -14.999  -2.560  0.00  0.00    -0.532 OA
ENDBRANCH  29  30
ENDBRANCH  22  24
ENDBRANCH  21  22
ENDBRANCH  20  21
ENDBRANCH   4  20
TORSDOF 9
ENDMDL
MODEL 8
REMARK VINA RESULT:    -7.242      2.095      3.587
REMARK INTER + INTRA:         -13.119
REMARK INTER:                  -9.927
REMARK INTRA:                  -3.192
REMARK CONF_INDEPENDENT:        2.685
REMARK UNBOUND:                -3.192
REMARK  9 active torsions:
REMARK  status: ('A' for Active; 'I' for Inactive)
REMARK    1  A    between atoms: C_2  and  C_3 
REMARK    2  A    between atoms: C_3  and  N_4 
REMARK       I    between atoms: N_4  and  C_5 
REMARK    3  A    between atoms: C_5  and  C_7 
REMARK    4  A    between atoms: C_10  and  N_11 
REMARK       I    between atoms: N_11  and  C_12 
REMARK       I    between atoms: C_12  and  N_14 
REMARK    5  A    between atoms: N_14  and  C_15 
REMARK    6  A    between atoms: C_15  and  C_16 
REMARK    7  A    between atoms: C_16  and  N_17 
REMARK    8  A    between atoms: N_17  and  C_18 
REMARK    9  A    between atoms: C_23  and  N_24 
ROOT
ATOM      1  N   UNL d   1      25.237 -15.527  -1.629  0.00  0.00    -0.309 N 
ATOM      2  C   UNL d   1      25.108 -14.530  -2.586  0.00  0.00     0.320 C 
ATOM      3  O   UNL d   1      24.127 -14.330  -3.292  0.00  0.00    -0.247 OA
ATOM      4  N   UNL d   1      26.175 -13.671  -2.704  0.00  0.00    -0.341 N 
ATOM      5  H   UNL d   1      26.128 -15.642  -1.166  0.00  0.00     0.170 HD
ATOM      6  H   UNL d   1      27.087 -13.937  -2.365  0.00  0.00     0.164 HD
ENDROOT
BRANCH   1   7
ATOM      7  C   UNL d   1      24.211 -16.486  -1.335  0.00  0.00     0.036 A 
ATOM      8  C   UNL d   1      24.479 -17.862  -1.285  0.00  0.00     0.030 A 
ATOM      9  C   UNL d   1      23.425 -18.797  -1.094  0.00  0.00     0.019 A 
ATOM     10  C   UNL d   1      22.102 -18.365  -0.896  0.00  0.00     0.032 A 
ATOM     11  C   UNL d   1      21.844 -17.004  -0.895  0.00  0.00     0.019 A 
ATOM     12  C   UNL d   1      22.886 -16.096  -1.101  0.00  0.00     0.030 A 
BRANCH  10  13
ATOM     13  C   UNL d   1      21.016 -19.324  -0.527  0.00  0.00     0.251 C 
ATOM     14  N   UNL d   1      20.928 -19.705   0.809  0.00  0.00    -0.353 N 
ATOM     15  H   UNL d   1      21.523 -19.271   1.500  0.00  0.00     0.163 HD
ATOM     16  O   UNL d   1      20.275 -19.750  -1.396  0.00  0.00    -0.268 OA
BRANCH  14  17
ATOM     17  C   UNL d   1      19.910 -20.652   1.221  0.00  0.00     0.149 C 
BRANCH  17  18
ATOM     18  C   UNL d   1      18.594 -20.366   0.560  0.00  0.00    -0.018 C 
ATOM     19  C   UNL d   1      17.654 -21.312   0.392  0.00  0.00     0.008 C 
ENDBRANCH  17  18
ENDBRANCH  14  17
ENDBRANCH  10  13
ENDBRANCH   1   7
BRANCH   4  20
ATOM     20  C   UNL d   1      26.068 -12.606  -3.717  0.00  0.00     0.144 C 
BRANCH  20  21
ATOM     21  C   UNL d   1      27.052 -12.795  -4.867  0.00  0.00     0.139 C 
BRANCH  21  22
ATOM     22  N   UNL d   1      27.164 -14.178  -5.320  0.00  0.00    -0.386 N 
ATOM     23  H   UNL d   1      26.327 -14.661  -5.640  0.00  0.00     0.159 HD
BRANCH  22  24
ATOM     24  C   UNL d   1      28.347 -14.907  -5.308  0.00  0.00     0.061 A 
ATOM     25  C   UNL d   1      28.916 -15.202  -6.576  0.00  0.00     0.031 A 
ATOM     26  C   UNL d   1      30.088 -15.961  -6.720  0.00  0.00     0.002 A 
ATOM     27  C   UNL d   1      30.776 -16.388  -5.596  0.00  0.00     0.003 A 
ATOM     28  C   UNL d   1      30.266 -16.096  -4.337  0.00  0.00     0.038 A 
ATOM     29  C   UNL d   1      29.060 -15.374  -4.183  0.00  0.00     0.129 A 
BRANCH  29  30
ATOM     30  N   UNL d   1      28.590 -15.266  -2.790  0.00  0.00    -0.113 N 
ATOM     31  O   UNL d   1      27.704 -16.058  -2.430  0.00  0.00    -0.532 OA
ATOM     32  O   UNL d   1      29.041 -14.377  -2.055  0.00  0.00    -0.532 OA
ENDBRANCH  29  30
ENDBRANCH  22  24
ENDBRANCH  21  22
ENDBRANCH  20  21
ENDBRANCH   4  20
TORSDOF 9
ENDMDL
MODEL 9
REMARK VINA RESULT:    -7.069      2.979      4.076
REMARK INTER + INTRA:         -13.336
REMARK INTER:                  -9.754
REMARK INTRA:                  -3.582
REMARK CONF_INDEPENDENT:        2.685
REMARK UNBOUND:                -3.582
REMARK  9 active torsions:
REMARK  status: ('A' for Active; 'I' for Inactive)
REMARK    1  A    between atoms: C_2  and  C_3 
REMARK    2  A    between atoms: C_3  and  N_4 
REMARK       I    between atoms: N_4  and  C_5 
REMARK    3  A    between atoms: C_5  and  C_7 
REMARK    4  A    between atoms: C_10  and  N_11 
REMARK       I    between atoms: N_11  and  C_12 
REMARK       I    between atoms: C_12  and  N_14 
REMARK    5  A    between atoms: N_14  and  C_15 
REMARK    6  A    between atoms: C_15  and  C_16 
REMARK    7  A    between atoms: C_16  and  N_17 
REMARK    8  A    between atoms: N_17  and  C_18 
REMARK    9  A    between atoms: C_23  and  N_24 
ROOT
ATOM      1  N   UNL d   1      26.569 -15.978  -0.542  0.00  0.00    -0.309 N 
ATOM      2  C   UNL d   1      27.762 -16.616  -0.229  0.00  0.00     0.320 C 
ATOM      3  O   UNL d   1      27.889 -17.792   0.088  0.00  0.00    -0.247 OA
ATOM      4  N   UNL d   1      28.897 -15.848  -0.335  0.00  0.00    -0.341 N 
ATOM      5  H   UNL d   1      26.582 -14.981  -0.709  0.00  0.00     0.170 HD
ATOM      6  H   UNL d   1      28.839 -14.841  -0.319  0.00  0.00     0.164 HD
ENDROOT
BRANCH   1   7
ATOM      7  C   UNL d   1      25.291 -16.630  -0.531  0.00  0.00     0.036 A 
ATOM      8  C   UNL d   1      25.156 -17.983  -0.186  0.00  0.00     0.030 A 
ATOM      9  C   UNL d   1      23.893 -18.629  -0.282  0.00  0.00     0.019 A 
ATOM     10  C   UNL d   1      22.743 -17.919  -0.669  0.00  0.00     0.032 A 
ATOM     11  C   UNL d   1      22.867 -16.571  -0.960  0.00  0.00     0.019 A 
ATOM     12  C   UNL d   1      24.117 -15.950  -0.879  0.00  0.00     0.030 A 
BRANCH  10  13
ATOM     13  C   UNL d   1      21.386 -18.542  -0.612  0.00  0.00     0.251 C 
ATOM     14  N   UNL d   1      21.276 -19.772   0.033  0.00  0.00    -0.353 N 
ATOM     15  H   UNL d   1      22.071 -20.165   0.514  0.00  0.00     0.163 HD
ATOM     16  O   UNL d   1      20.445 -17.976  -1.141  0.00  0.00    -0.268 OA
BRANCH  14  17
ATOM     17  C   UNL d   1      19.989 -20.436   0.098  0.00  0.00     0.149 C 
BRANCH  17  18
ATOM     18  C   UNL d   1      19.452 -20.459   1.499  0.00  0.00    -0.018 C 
ATOM     19  C   UNL d   1      19.972 -19.702   2.480  0.00  0.00     0.008 C 
ENDBRANCH  17  18
ENDBRANCH  14  17
ENDBRANCH  10  13
ENDBRANCH   1   7
BRANCH   4  20
ATOM     20  C   UNL d   1      30.178 -16.497  -0.001  0.00  0.00     0.144 C 
BRANCH  20  21
ATOM     21  C   UNL d   1      31.009 -15.678   0.980  0.00  0.00     0.139 C 
BRANCH  21  22
ATOM     22  N   UNL d   1      30.403 -14.399   1.334  0.00  0.00    -0.386 N 
ATOM     23  H   UNL d   1      30.672 -13.564   0.817  0.00  0.00     0.159 HD
BRANCH  22  24
ATOM     24  C   UNL d   1      29.495 -14.229   2.373  0.00  0.00     0.061 A 
ATOM     25  C   UNL d   1      29.994 -14.450   3.685  0.00  0.00     0.031 A 
ATOM     26  C   UNL d   1      29.184 -14.350   4.828  0.00  0.00     0.002 A 
ATOM     27  C   UNL d   1      27.864 -13.951   4.705  0.00  0.00     0.003 A 
ATOM     28  C   UNL d   1      27.346 -13.700   3.441  0.00  0.00     0.038 A 
ATOM     29  C   UNL d   1      28.141 -13.844   2.279  0.00  0.00     0.129 A 
BRANCH  29  30
ATOM     30  N   UNL d   1      27.405 -13.669   1.014  0.00  0.00    -0.113 N 
ATOM     31  O   UNL d   1      28.078 -13.428  -0.002  0.00  0.00    -0.532 OA
ATOM     32  O   UNL d   1      26.168 -13.714   1.009  0.00  0.00    -0.532 OA
ENDBRANCH  29  30
ENDBRANCH  22  24
ENDBRANCH  21  22
ENDBRANCH  20  21
ENDBRANCH   4  20
TORSDOF 9
ENDMDL
