MODEL 1
REMARK VINA RESULT:    -9.706      0.000      0.000
REMARK INTER + INTRA:         -16.340
REMARK INTER:                 -13.285
REMARK INTRA:                  -3.055
REMARK CONF_INDEPENDENT:        3.580
REMARK UNBOUND:                -3.055
REMARK  12 active torsions:
REMARK  status: ('A' for Active; 'I' for Inactive)
REMARK    1  A    between atoms: O_2  and  C_3 
REMARK    2  A    between atoms: C_3  and  C_5 
REMARK    3  A    between atoms: C_9  and  C_10 
REMARK    4  A    between atoms: C_10  and  N_11 
REMARK    5  A    between atoms: N_11  and  C_12 
REMARK    6  A    between atoms: N_11  and  C_16 
REMARK    7  A    between atoms: C_12  and  C_13 
REMARK    8  A    between atoms: C_16  and  C_17 
REMARK    9  A    between atoms: C_17  and  O_18 
REMARK   10  A    between atoms: C_17  and  C_19 
REMARK   11  A    between atoms: C_19  and  O_20 
REMARK   12  A    between atoms: O_20  and  C_21 
ROOT
ATOM      1  N   UNL d   1      29.615 -14.688   1.909  0.00  0.00    -0.062 N 
ATOM      2  H   UNL d   1      30.045 -15.604   1.741  0.00  0.00     0.280 HD
ENDROOT
BRANCH   1   3
ATOM      3  C   UNL d   1      30.370 -13.651   1.029  0.00  0.00     0.313 C 
BRANCH   3   4
ATOM      4  C   UNL d   1      29.762 -13.408  -0.392  0.00  0.00     0.134 C 
ATOM      5  N   UNL d   1      29.693 -14.415  -1.213  0.00  0.00    -0.225 NA
ATOM      6  C   UNL d   1      28.738 -14.289  -2.184  0.00  0.00     0.116 C 
ATOM      7  S   UNL d   1      28.430 -15.537  -3.287  0.00  0.00    -0.063 SA
ATOM      8  C   UNL d   1      27.821 -13.263  -2.325  0.00  0.00     0.075 C 
ATOM      9  C   UNL d   1      27.185 -14.645  -4.055  0.00  0.00     0.089 C 
ATOM     10  C   UNL d   1      26.864 -13.478  -3.374  0.00  0.00    -0.020 C 
ATOM     11  C   UNL d   1      25.730 -12.563  -3.743  0.00  0.00     0.051 C 
ATOM     12  C   UNL d   1      27.935 -12.177  -1.386  0.00  0.00     0.260 C 
ATOM     13  N   UNL d   1      29.085 -12.219  -0.608  0.00  0.00    -0.309 N 
ATOM     14  O   UNL d   1      27.037 -11.378  -1.132  0.00  0.00    -0.267 OA
ATOM     15  H   UNL d   1      29.023 -11.531   0.120  0.00  0.00     0.170 HD
BRANCH   9  16
ATOM     16  C   UNL d   1      26.644 -15.200  -5.280  0.00  0.00     0.300 C 
ATOM     17  O   UNL d   1      25.531 -15.654  -5.427  0.00  0.00    -0.259 OA
BRANCH  16  18
ATOM     18  O   UNL d   1      27.624 -15.199  -6.239  0.00  0.00    -0.322 OA
ATOM     19  C   UNL d   1      28.348 -13.971  -6.292  0.00  0.00     0.213 C 
ENDBRANCH  16  18
ENDBRANCH   9  16
ENDBRANCH   3   4
ENDBRANCH   1   3
BRANCH   1  20
ATOM     20  C   UNL d   1      29.531 -14.418   3.440  0.00  0.00     0.239 C 
BRANCH  20  21
ATOM     21  C   UNL d   1      28.186 -14.556   4.111  0.00  0.00     0.003 C 
ATOM     22  C   UNL d   1      28.306 -15.200   5.474  0.00  0.00     0.011 C 
ATOM     23  C   UNL d   1      27.463 -13.258   4.410  0.00  0.00     0.011 C 
ENDBRANCH  20  21
ENDBRANCH   1  20
BRANCH   1  24
ATOM     24  C   UNL d   1      28.173 -14.858   1.378  0.00  0.00     0.269 C 
BRANCH  24  25
ATOM     25  C   UNL d   1      28.086 -16.043   0.384  0.00  0.00     0.168 C 
BRANCH  25  26
ATOM     26  O   UNL d   1      29.331 -16.717   0.226  0.00  0.00    -0.392 OA
ATOM     27  H   UNL d   1      29.659 -17.017   1.091  0.00  0.00     0.210 HD
ENDBRANCH  25  26
BRANCH  25  28
ATOM     28  C   UNL d   1      27.084 -17.058   0.881  0.00  0.00     0.209 C 
BRANCH  28  29
ATOM     29  O   UNL d   1      26.511 -17.736  -0.238  0.00  0.00    -0.348 OA
BRANCH  29  30
ATOM     30  C   UNL d   1      25.157 -17.560  -0.364  0.00  0.00     0.074 C 
ATOM     31  C   UNL d   1      24.348 -18.588   0.130  0.00  0.00     0.037 C 
ATOM     32  C   UNL d   1      22.964 -18.416   0.181  0.00  0.00     0.003 C 
ATOM     33  C   UNL d   1      22.374 -17.368  -0.516  0.00  0.00     0.001 C 
ATOM     34  C   UNL d   1      23.175 -16.422  -1.143  0.00  0.00     0.009 C 
ATOM     35  C   UNL d   1      24.566 -16.455  -0.993  0.00  0.00    -0.029 C 
ATOM     36  C   UNL d   1      25.337 -15.277  -1.495  0.00  0.00     0.051 C 
ENDBRANCH  29  30
ENDBRANCH  28  29
ENDBRANCH  25  28
ENDBRANCH  24  25
ENDBRANCH   1  24
TORSDOF 12
ENDMDL
MODEL 2
REMARK VINA RESULT:    -9.028      2.563      5.821
REMARK INTER + INTRA:         -16.198
REMARK INTER:                 -12.608
REMARK INTRA:                  -3.591
REMARK CONF_INDEPENDENT:        3.580
REMARK UNBOUND:                -3.591
REMARK  12 active torsions:
REMARK  status: ('A' for Active; 'I' for Inactive)
REMARK    1  A    between atoms: O_2  and  C_3 
REMARK    2  A    between atoms: C_3  and  C_5 
REMARK    3  A    between atoms: C_9  and  C_10 
REMARK    4  A    between atoms: C_10  and  N_11 
REMARK    5  A    between atoms: N_11  and  C_12 
REMARK    6  A    between atoms: N_11  and  C_16 
REMARK    7  A    between atoms: C_12  and  C_13 
REMARK    8  A    between atoms: C_16  and  C_17 
REMARK    9  A    between atoms: C_17  and  O_18 
REMARK   10  A    between atoms: C_17  and  C_19 
REMARK   11  A    between atoms: C_19  and  O_20 
REMARK   12  A    between atoms: O_20  and  C_21 
ROOT
ATOM      1  N   UNL d   1      31.529 -15.916   1.794  0.00  0.00    -0.062 N 
ATOM      2  H   UNL d   1      30.578 -16.204   2.050  0.00  0.00     0.280 HD
ENDROOT
BRANCH   1   3
ATOM      3  C   UNL d   1      31.451 -15.243   0.394  0.00  0.00     0.313 C 
BRANCH   3   4
ATOM      4  C   UNL d   1      30.007 -15.033  -0.170  0.00  0.00     0.134 C 
ATOM      5  N   UNL d   1      29.877 -14.659  -1.409  0.00  0.00    -0.225 NA
ATOM      6  C   UNL d   1      28.673 -14.977  -1.973  0.00  0.00     0.116 C 
ATOM      7  S   UNL d   1      28.352 -14.660  -3.606  0.00  0.00    -0.063 SA
ATOM      8  C   UNL d   1      27.645 -15.700  -1.395  0.00  0.00     0.075 C 
ATOM      9  C   UNL d   1      26.782 -15.339  -3.500  0.00  0.00     0.089 C 
ATOM     10  C   UNL d   1      26.554 -15.976  -2.288  0.00  0.00    -0.020 C 
ATOM     11  C   UNL d   1      25.317 -16.766  -1.962  0.00  0.00     0.051 C 
ATOM     12  C   UNL d   1      27.842 -16.097  -0.025  0.00  0.00     0.260 C 
ATOM     13  N   UNL d   1      28.946 -15.513   0.581  0.00  0.00    -0.309 N 
ATOM     14  O   UNL d   1      27.229 -17.005   0.532  0.00  0.00    -0.267 OA
ATOM     15  H   UNL d   1      29.110 -15.949   1.471  0.00  0.00     0.170 HD
BRANCH   9  16
ATOM     16  C   UNL d   1      25.916 -15.164  -4.651  0.00  0.00     0.300 C 
ATOM     17  O   UNL d   1      26.126 -15.575  -5.770  0.00  0.00    -0.259 OA
BRANCH  16  18
ATOM     18  O   UNL d   1      24.846 -14.390  -4.287  0.00  0.00    -0.322 OA
ATOM     19  C   UNL d   1      25.151 -12.997  -4.260  0.00  0.00     0.213 C 
ENDBRANCH  16  18
ENDBRANCH   9  16
ENDBRANCH   3   4
ENDBRANCH   1   3
BRANCH   1  20
ATOM     20  C   UNL d   1      32.507 -17.115   1.971  0.00  0.00     0.239 C 
BRANCH  20  21
ATOM     21  C   UNL d   1      32.853 -17.934   0.752  0.00  0.00     0.003 C 
ATOM     22  C   UNL d   1      31.627 -18.245  -0.078  0.00  0.00     0.011 C 
ATOM     23  C   UNL d   1      33.781 -17.271  -0.245  0.00  0.00     0.011 C 
ENDBRANCH  20  21
ENDBRANCH   1  20
BRANCH   1  24
ATOM     24  C   UNL d   1      31.887 -14.852   2.856  0.00  0.00     0.269 C 
BRANCH  24  25
ATOM     25  C   UNL d   1      30.618 -14.366   3.601  0.00  0.00     0.168 C 
BRANCH  25  26
ATOM     26  O   UNL d   1      29.440 -14.479   2.809  0.00  0.00    -0.392 OA
ATOM     27  H   UNL d   1      28.881 -15.200   3.147  0.00  0.00     0.210 HD
ENDBRANCH  25  26
BRANCH  25  28
ATOM     28  C   UNL d   1      30.405 -15.196   4.846  0.00  0.00     0.209 C 
BRANCH  28  29
ATOM     29  O   UNL d   1      29.054 -15.042   5.284  0.00  0.00    -0.348 OA
BRANCH  29  30
ATOM     30  C   UNL d   1      28.849 -13.953   6.092  0.00  0.00     0.074 C 
ATOM     31  C   UNL d   1      29.270 -14.075   7.420  0.00  0.00     0.037 C 
ATOM     32  C   UNL d   1      29.239 -12.962   8.260  0.00  0.00     0.003 C 
ATOM     33  C   UNL d   1      28.530 -11.830   7.878  0.00  0.00     0.001 C 
ATOM     34  C   UNL d   1      27.974 -11.763   6.608  0.00  0.00     0.009 C 
ATOM     35  C   UNL d   1      28.208 -12.778   5.673  0.00  0.00    -0.029 C 
ATOM     36  C   UNL d   1      27.779 -12.525   4.264  0.00  0.00     0.051 C 
ENDBRANCH  29  30
ENDBRANCH  28  29
ENDBRANCH  25  28
ENDBRANCH  24  25
ENDBRANCH   1  24
TORSDOF 12
ENDMDL
MODEL 3
REMARK VINA RESULT:    -8.683      1.144      1.757
REMARK INTER + INTRA:         -16.189
REMARK INTER:                 -12.262
REMARK INTRA:                  -3.926
REMARK CONF_INDEPENDENT:        3.580
REMARK UNBOUND:                -3.926
REMARK  12 active torsions:
REMARK  status: ('A' for Active; 'I' for Inactive)
REMARK    1  A    between atoms: O_2  and  C_3 
REMARK    2  A    between atoms: C_3  and  C_5 
REMARK    3  A    between atoms: C_9  and  C_10 
REMARK    4  A    between atoms: C_10  and  N_11 
REMARK    5  A    between atoms: N_11  and  C_12 
REMARK    6  A    between atoms: N_11  and  C_16 
REMARK    7  A    between atoms: C_12  and  C_13 
REMARK    8  A    between atoms: C_16  and  C_17 
REMARK    9  A    between atoms: C_17  and  O_18 
REMARK   10  A    between atoms: C_17  and  C_19 
REMARK   11  A    between atoms: C_19  and  O_20 
REMARK   12  A    between atoms: O_20  and  C_21 
ROOT
ATOM      1  N   UNL d   1      29.789 -14.641   2.485  0.00  0.00    -0.062 N 
ATOM      2  H   UNL d   1      29.329 -15.556   2.429  0.00  0.00     0.280 HD
ENDROOT
BRANCH   1   3
ATOM      3  C   UNL d   1      30.814 -14.562   1.319  0.00  0.00     0.313 C 
BRANCH   3   4
ATOM      4  C   UNL d   1      30.221 -14.154  -0.070  0.00  0.00     0.134 C 
ATOM      5  N   UNL d   1      29.970 -15.094  -0.933  0.00  0.00    -0.225 NA
ATOM      6  C   UNL d   1      29.026 -14.767  -1.868  0.00  0.00     0.116 C 
ATOM      7  S   UNL d   1      28.495 -15.893  -3.016  0.00  0.00    -0.063 SA
ATOM      8  C   UNL d   1      28.284 -13.601  -1.932  0.00  0.00     0.075 C 
ATOM      9  C   UNL d   1      27.393 -14.775  -3.703  0.00  0.00     0.089 C 
ATOM     10  C   UNL d   1      27.280 -13.607  -2.960  0.00  0.00    -0.020 C 
ATOM     11  C   UNL d   1      26.301 -12.505  -3.251  0.00  0.00     0.051 C 
ATOM     12  C   UNL d   1      28.594 -12.597  -0.948  0.00  0.00     0.260 C 
ATOM     13  N   UNL d   1      29.741 -12.862  -0.210  0.00  0.00    -0.309 N 
ATOM     14  O   UNL d   1      27.844 -11.678  -0.630  0.00  0.00    -0.267 OA
ATOM     15  H   UNL d   1      29.807 -12.210   0.551  0.00  0.00     0.170 HD
BRANCH   9  16
ATOM     16  C   UNL d   1      26.741 -15.174  -4.935  0.00  0.00     0.300 C 
ATOM     17  O   UNL d   1      25.563 -15.420  -5.071  0.00  0.00    -0.259 OA
BRANCH  16  18
ATOM     18  O   UNL d   1      27.687 -15.301  -5.918  0.00  0.00    -0.322 OA
ATOM     19  C   UNL d   1      28.158 -14.044  -6.402  0.00  0.00     0.213 C 
ENDBRANCH  16  18
ENDBRANCH   9  16
ENDBRANCH   3   4
ENDBRANCH   1   3
BRANCH   1  20
ATOM     20  C   UNL d   1      30.313 -14.404   3.932  0.00  0.00     0.239 C 
BRANCH  20  21
ATOM     21  C   UNL d   1      29.513 -14.972   5.079  0.00  0.00     0.003 C 
ATOM     22  C   UNL d   1      29.943 -14.387   6.405  0.00  0.00     0.011 C 
ATOM     23  C   UNL d   1      28.025 -14.690   5.047  0.00  0.00     0.011 C 
ENDBRANCH  20  21
ENDBRANCH   1  20
BRANCH   1  24
ATOM     24  C   UNL d   1      28.641 -13.639   2.228  0.00  0.00     0.269 C 
BRANCH  24  25
ATOM     25  C   UNL d   1      27.329 -14.382   1.868  0.00  0.00     0.168 C 
BRANCH  25  26
ATOM     26  O   UNL d   1      26.496 -13.630   0.992  0.00  0.00    -0.392 OA
ATOM     27  H   UNL d   1      26.952 -13.482   0.145  0.00  0.00     0.210 HD
ENDBRANCH  25  26
BRANCH  25  28
ATOM     28  C   UNL d   1      27.651 -15.685   1.175  0.00  0.00     0.209 C 
BRANCH  28  29
ATOM     29  O   UNL d   1      27.142 -15.643  -0.159  0.00  0.00    -0.348 OA
BRANCH  29  30
ATOM     30  C   UNL d   1      26.015 -16.399  -0.351  0.00  0.00     0.074 C 
ATOM     31  C   UNL d   1      24.914 -15.744  -0.914  0.00  0.00     0.037 C 
ATOM     32  C   UNL d   1      23.787 -16.478  -1.284  0.00  0.00     0.003 C 
ATOM     33  C   UNL d   1      23.638 -17.785  -0.835  0.00  0.00     0.001 C 
ATOM     34  C   UNL d   1      24.673 -18.395  -0.138  0.00  0.00     0.009 C 
ATOM     35  C   UNL d   1      25.901 -17.745   0.026  0.00  0.00    -0.029 C 
ATOM     36  C   UNL d   1      27.034 -18.550   0.574  0.00  0.00     0.051 C 
ENDBRANCH  29  30
ENDBRANCH  28  29
ENDBRANCH  25  28
ENDBRANCH  24  25
ENDBRANCH   1  24
TORSDOF 12
ENDMDL
MODEL 4
REMARK VINA RESULT:    -8.215      2.468      5.633
REMARK INTER + INTRA:         -15.915
REMARK INTER:                 -11.794
REMARK INTRA:                  -4.120
REMARK CONF_INDEPENDENT:        3.580
REMARK UNBOUND:                -4.120
REMARK  12 active torsions:
REMARK  status: ('A' for Active; 'I' for Inactive)
REMARK    1  A    between atoms: O_2  and  C_3 
REMARK    2  A    between atoms: C_3  and  C_5 
REMARK    3  A    between atoms: C_9  and  C_10 
REMARK    4  A    between atoms: C_10  and  N_11 
REMARK    5  A    between atoms: N_11  and  C_12 
REMARK    6  A    between atoms: N_11  and  C_16 
REMARK    7  A    between atoms: C_12  and  C_13 
REMARK    8  A    between atoms: C_16  and  C_17 
REMARK    9  A    between atoms: C_17  and  O_18 
REMARK   10  A    between atoms: C_17  and  C_19 
REMARK   11  A    between atoms: C_19  and  O_20 
REMARK   12  A    between atoms: O_20  and  C_21 
ROOT
ATOM      1  N   UNL d   1      30.578 -15.909   0.983  0.00  0.00    -0.062 N 
ATOM      2  H   UNL d   1      29.959 -16.244   1.729  0.00  0.00     0.280 HD
ENDROOT
BRANCH   1   3
ATOM      3  C   UNL d   1      30.493 -16.930  -0.186  0.00  0.00     0.313 C 
BRANCH   3   4
ATOM      4  C   UNL d   1      29.085 -17.073  -0.852  0.00  0.00     0.134 C 
ATOM      5  N   UNL d   1      28.158 -17.713  -0.202  0.00  0.00    -0.225 NA
ATOM      6  C   UNL d   1      26.881 -17.381  -0.562  0.00  0.00     0.116 C 
ATOM      7  S   UNL d   1      25.540 -18.036   0.238  0.00  0.00    -0.063 SA
ATOM      8  C   UNL d   1      26.496 -16.408  -1.466  0.00  0.00     0.075 C 
ATOM      9  C   UNL d   1      24.441 -17.146  -0.730  0.00  0.00     0.089 C 
ATOM     10  C   UNL d   1      25.075 -16.210  -1.537  0.00  0.00    -0.020 C 
ATOM     11  C   UNL d   1      24.359 -15.205  -2.396  0.00  0.00     0.051 C 
ATOM     12  C   UNL d   1      27.560 -15.723  -2.152  0.00  0.00     0.260 C 
ATOM     13  N   UNL d   1      28.814 -16.287  -1.960  0.00  0.00    -0.309 N 
ATOM     14  O   UNL d   1      27.443 -14.633  -2.707  0.00  0.00    -0.267 OA
ATOM     15  H   UNL d   1      29.518 -15.676  -2.334  0.00  0.00     0.170 HD
BRANCH   9  16
ATOM     16  C   UNL d   1      23.035 -17.473  -0.592  0.00  0.00     0.300 C 
ATOM     17  O   UNL d   1      22.132 -16.685  -0.423  0.00  0.00    -0.259 OA
BRANCH  16  18
ATOM     18  O   UNL d   1      22.893 -18.836  -0.610  0.00  0.00    -0.322 OA
ATOM     19  C   UNL d   1      21.610 -19.267  -0.159  0.00  0.00     0.213 C 
ENDBRANCH  16  18
ENDBRANCH   9  16
ENDBRANCH   3   4
ENDBRANCH   1   3
BRANCH   1  20
ATOM     20  C   UNL d   1      31.985 -15.589   1.570  0.00  0.00     0.239 C 
BRANCH  20  21
ATOM     21  C   UNL d   1      32.060 -14.702   2.789  0.00  0.00     0.003 C 
ATOM     22  C   UNL d   1      32.249 -13.250   2.411  0.00  0.00     0.011 C 
ATOM     23  C   UNL d   1      30.820 -14.671   3.658  0.00  0.00     0.011 C 
ENDBRANCH  20  21
ENDBRANCH   1  20
BRANCH   1  24
ATOM     24  C   UNL d   1      29.933 -14.574   0.546  0.00  0.00     0.269 C 
BRANCH  24  25
ATOM     25  C   UNL d   1      28.417 -14.562   0.864  0.00  0.00     0.168 C 
BRANCH  25  26
ATOM     26  O   UNL d   1      28.007 -15.698   1.619  0.00  0.00    -0.392 OA
ATOM     27  H   UNL d   1      27.062 -15.627   1.838  0.00  0.00     0.210 HD
ENDBRANCH  25  26
BRANCH  25  28
ATOM     28  C   UNL d   1      28.071 -13.335   1.674  0.00  0.00     0.209 C 
BRANCH  28  29
ATOM     29  O   UNL d   1      27.154 -13.699   2.707  0.00  0.00    -0.348 OA
BRANCH  29  30
ATOM     30  C   UNL d   1      27.673 -13.614   3.972  0.00  0.00     0.074 C 
ATOM     31  C   UNL d   1      27.867 -14.822   4.649  0.00  0.00     0.037 C 
ATOM     32  C   UNL d   1      28.535 -14.830   5.874  0.00  0.00     0.003 C 
ATOM     33  C   UNL d   1      28.742 -13.635   6.553  0.00  0.00     0.001 C 
ATOM     34  C   UNL d   1      28.407 -12.432   5.946  0.00  0.00     0.009 C 
ATOM     35  C   UNL d   1      27.962 -12.403   4.619  0.00  0.00    -0.029 C 
ATOM     36  C   UNL d   1      27.850 -11.065   3.963  0.00  0.00     0.051 C 
ENDBRANCH  29  30
ENDBRANCH  28  29
ENDBRANCH  25  28
ENDBRANCH  24  25
ENDBRANCH   1  24
TORSDOF 12
ENDMDL
MODEL 5
REMARK VINA RESULT:    -7.901      3.824      7.363
REMARK INTER + INTRA:         -15.881
REMARK INTER:                 -11.480
REMARK INTRA:                  -4.401
REMARK CONF_INDEPENDENT:        3.580
REMARK UNBOUND:                -4.401
REMARK  12 active torsions:
REMARK  status: ('A' for Active; 'I' for Inactive)
REMARK    1  A    between atoms: O_2  and  C_3 
REMARK    2  A    between atoms: C_3  and  C_5 
REMARK    3  A    between atoms: C_9  and  C_10 
REMARK    4  A    between atoms: C_10  and  N_11 
REMARK    5  A    between atoms: N_11  and  C_12 
REMARK    6  A    between atoms: N_11  and  C_16 
REMARK    7  A    between atoms: C_12  and  C_13 
REMARK    8  A    between atoms: C_16  and  C_17 
REMARK    9  A    between atoms: C_17  and  O_18 
REMARK   10  A    between atoms: C_17  and  C_19 
REMARK   11  A    between atoms: C_19  and  O_20 
REMARK   12  A    between atoms: O_20  and  C_21 
ROOT
ATOM      1  N   UNL d   1      29.870 -15.002   1.254  0.00  0.00    -0.062 N 
ATOM      2  H   UNL d   1      29.341 -15.873   1.369  0.00  0.00     0.280 HD
ENDROOT
BRANCH   1   3
ATOM      3  C   UNL d   1      31.129 -15.098   2.162  0.00  0.00     0.313 C 
BRANCH   3   4
ATOM      4  C   UNL d   1      30.984 -14.455   3.581  0.00  0.00     0.134 C 
ATOM      5  N   UNL d   1      31.225 -13.183   3.709  0.00  0.00    -0.225 NA
ATOM      6  C   UNL d   1      30.616 -12.597   4.785  0.00  0.00     0.116 C 
ATOM      7  S   UNL d   1      30.732 -10.931   5.064  0.00  0.00    -0.063 SA
ATOM      8  C   UNL d   1      29.738 -13.192   5.672  0.00  0.00     0.075 C 
ATOM      9  C   UNL d   1      29.744 -11.027   6.462  0.00  0.00     0.089 C 
ATOM     10  C   UNL d   1      29.168 -12.280   6.625  0.00  0.00    -0.020 C 
ATOM     11  C   UNL d   1      28.161 -12.620   7.688  0.00  0.00     0.051 C 
ATOM     12  C   UNL d   1      29.498 -14.598   5.482  0.00  0.00     0.260 C 
ATOM     13  N   UNL d   1      30.348 -15.199   4.562  0.00  0.00    -0.309 N 
ATOM     14  O   UNL d   1      28.526 -15.206   5.924  0.00  0.00    -0.267 OA
ATOM     15  H   UNL d   1      30.027 -16.129   4.366  0.00  0.00     0.170 HD
BRANCH   9  16
ATOM     16  C   UNL d   1      29.642  -9.829   7.273  0.00  0.00     0.300 C 
ATOM     17  O   UNL d   1      28.837  -8.937   7.128  0.00  0.00    -0.259 OA
BRANCH  16  18
ATOM     18  O   UNL d   1      30.656  -9.829   8.195  0.00  0.00    -0.322 OA
ATOM     19  C   UNL d   1      30.289 -10.452   9.425  0.00  0.00     0.213 C 
ENDBRANCH  16  18
ENDBRANCH   9  16
ENDBRANCH   3   4
ENDBRANCH   1   3
BRANCH   1  20
ATOM     20  C   UNL d   1      28.923 -13.781   1.450  0.00  0.00     0.239 C 
BRANCH  20  21
ATOM     21  C   UNL d   1      27.519 -14.044   1.937  0.00  0.00     0.003 C 
ATOM     22  C   UNL d   1      27.389 -13.799   3.424  0.00  0.00     0.011 C 
ATOM     23  C   UNL d   1      26.441 -13.158   1.350  0.00  0.00     0.011 C 
ENDBRANCH  20  21
ENDBRANCH   1  20
BRANCH   1  24
ATOM     24  C   UNL d   1      30.304 -15.031  -0.229  0.00  0.00     0.269 C 
BRANCH  24  25
ATOM     25  C   UNL d   1      30.147 -16.454  -0.823  0.00  0.00     0.168 C 
BRANCH  25  26
ATOM     26  O   UNL d   1      30.522 -17.475   0.096  0.00  0.00    -0.392 OA
ATOM     27  H   UNL d   1      29.739 -17.792   0.579  0.00  0.00     0.210 HD
ENDBRANCH  25  26
BRANCH  25  28
ATOM     28  C   UNL d   1      28.705 -16.696  -1.201  0.00  0.00     0.209 C 
BRANCH  28  29
ATOM     29  O   UNL d   1      27.909 -16.726  -0.015  0.00  0.00    -0.348 OA
BRANCH  29  30
ATOM     30  C   UNL d   1      26.571 -16.916  -0.244  0.00  0.00     0.074 C 
ATOM     31  C   UNL d   1      26.009 -18.082   0.286  0.00  0.00     0.037 C 
ATOM     32  C   UNL d   1      24.628 -18.271   0.232  0.00  0.00     0.003 C 
ATOM     33  C   UNL d   1      23.854 -17.463  -0.592  0.00  0.00     0.001 C 
ATOM     34  C   UNL d   1      24.440 -16.388  -1.248  0.00  0.00     0.009 C 
ATOM     35  C   UNL d   1      25.776 -16.048  -1.005  0.00  0.00    -0.029 C 
ATOM     36  C   UNL d   1      26.264 -14.749  -1.560  0.00  0.00     0.051 C 
ENDBRANCH  29  30
ENDBRANCH  28  29
ENDBRANCH  25  28
ENDBRANCH  24  25
ENDBRANCH   1  24
TORSDOF 12
ENDMDL
MODEL 6
REMARK VINA RESULT:    -7.719      2.705      5.063
REMARK INTER + INTRA:         -16.012
REMARK INTER:                 -11.298
REMARK INTRA:                  -4.714
REMARK CONF_INDEPENDENT:        3.580
REMARK UNBOUND:                -4.714
REMARK  12 active torsions:
REMARK  status: ('A' for Active; 'I' for Inactive)
REMARK    1  A    between atoms: O_2  and  C_3 
REMARK    2  A    between atoms: C_3  and  C_5 
REMARK    3  A    between atoms: C_9  and  C_10 
REMARK    4  A    between atoms: C_10  and  N_11 
REMARK    5  A    between atoms: N_11  and  C_12 
REMARK    6  A    between atoms: N_11  and  C_16 
REMARK    7  A    between atoms: C_12  and  C_13 
REMARK    8  A    between atoms: C_16  and  C_17 
REMARK    9  A    between atoms: C_17  and  O_18 
REMARK   10  A    between atoms: C_17  and  C_19 
REMARK   11  A    between atoms: C_19  and  O_20 
REMARK   12  A    between atoms: O_20  and  C_21 
ROOT
ATOM      1  N   UNL d   1      31.869 -16.552   1.579  0.00  0.00    -0.062 N 
ATOM      2  H   UNL d   1      31.068 -16.067   1.997  0.00  0.00     0.280 HD
ENDROOT
BRANCH   1   3
ATOM      3  C   UNL d   1      31.512 -16.846   0.094  0.00  0.00     0.313 C 
BRANCH   3   4
ATOM      4  C   UNL d   1      30.229 -16.129  -0.442  0.00  0.00     0.134 C 
ATOM      5  N   UNL d   1      30.109 -15.962  -1.726  0.00  0.00    -0.225 NA
ATOM      6  C   UNL d   1      28.820 -15.814  -2.159  0.00  0.00     0.116 C 
ATOM      7  S   UNL d   1      28.452 -15.682  -3.807  0.00  0.00    -0.063 SA
ATOM      8  C   UNL d   1      27.669 -15.899  -1.397  0.00  0.00     0.075 C 
ATOM      9  C   UNL d   1      26.771 -15.575  -3.494  0.00  0.00     0.089 C 
ATOM     10  C   UNL d   1      26.456 -15.823  -2.164  0.00  0.00    -0.020 C 
ATOM     11  C   UNL d   1      25.056 -15.920  -1.625  0.00  0.00     0.051 C 
ATOM     12  C   UNL d   1      27.857 -16.093   0.017  0.00  0.00     0.260 C 
ATOM     13  N   UNL d   1      29.174 -15.955   0.437  0.00  0.00    -0.309 N 
ATOM     14  O   UNL d   1      26.999 -16.527   0.782  0.00  0.00    -0.267 OA
ATOM     15  H   UNL d   1      29.254 -16.253   1.393  0.00  0.00     0.170 HD
BRANCH   9  16
ATOM     16  C   UNL d   1      25.916 -15.246  -4.618  0.00  0.00     0.300 C 
ATOM     17  O   UNL d   1      26.093 -15.577  -5.769  0.00  0.00    -0.259 OA
BRANCH  16  18
ATOM     18  O   UNL d   1      24.904 -14.430  -4.183  0.00  0.00    -0.322 OA
ATOM     19  C   UNL d   1      25.373 -13.171  -3.703  0.00  0.00     0.213 C 
ENDBRANCH  16  18
ENDBRANCH   9  16
ENDBRANCH   3   4
ENDBRANCH   1   3
BRANCH   1  20
ATOM     20  C   UNL d   1      32.284 -17.754   2.479  0.00  0.00     0.239 C 
BRANCH  20  21
ATOM     21  C   UNL d   1      33.740 -18.151   2.503  0.00  0.00     0.003 C 
ATOM     22  C   UNL d   1      33.976 -19.356   3.386  0.00  0.00     0.011 C 
ATOM     23  C   UNL d   1      34.328 -18.580   1.175  0.00  0.00     0.011 C 
ENDBRANCH  20  21
ENDBRANCH   1  20
BRANCH   1  24
ATOM     24  C   UNL d   1      33.003 -15.503   1.637  0.00  0.00     0.269 C 
BRANCH  24  25
ATOM     25  C   UNL d   1      32.425 -14.066   1.650  0.00  0.00     0.168 C 
BRANCH  25  26
ATOM     26  O   UNL d   1      31.704 -13.754   0.463  0.00  0.00    -0.392 OA
ATOM     27  H   UNL d   1      30.768 -13.998   0.568  0.00  0.00     0.210 HD
ENDBRANCH  25  26
BRANCH  25  28
ATOM     28  C   UNL d   1      31.471 -13.907   2.811  0.00  0.00     0.209 C 
BRANCH  28  29
ATOM     29  O   UNL d   1      30.285 -14.659   2.548  0.00  0.00    -0.348 OA
BRANCH  29  30
ATOM     30  C   UNL d   1      29.260 -14.411   3.424  0.00  0.00     0.074 C 
ATOM     31  C   UNL d   1      29.456 -14.828   4.744  0.00  0.00     0.037 C 
ATOM     32  C   UNL d   1      28.530 -14.474   5.726  0.00  0.00     0.003 C 
ATOM     33  C   UNL d   1      27.288 -13.973   5.353  0.00  0.00     0.001 C 
ATOM     34  C   UNL d   1      27.031 -13.699   4.016  0.00  0.00     0.009 C 
ATOM     35  C   UNL d   1      28.041 -13.824   3.056  0.00  0.00    -0.029 C 
ATOM     36  C   UNL d   1      27.758 -13.289   1.690  0.00  0.00     0.051 C 
ENDBRANCH  29  30
ENDBRANCH  28  29
ENDBRANCH  25  28
ENDBRANCH  24  25
ENDBRANCH   1  24
TORSDOF 12
ENDMDL
MODEL 7
REMARK VINA RESULT:    -7.519      1.937      3.388
REMARK INTER + INTRA:         -15.937
REMARK INTER:                 -11.099
REMARK INTRA:                  -4.838
REMARK CONF_INDEPENDENT:        3.580
REMARK UNBOUND:                -4.838
REMARK  12 active torsions:
REMARK  status: ('A' for Active; 'I' for Inactive)
REMARK    1  A    between atoms: O_2  and  C_3 
REMARK    2  A    between atoms: C_3  and  C_5 
REMARK    3  A    between atoms: C_9  and  C_10 
REMARK    4  A    between atoms: C_10  and  N_11 
REMARK    5  A    between atoms: N_11  and  C_12 
REMARK    6  A    between atoms: N_11  and  C_16 
REMARK    7  A    between atoms: C_12  and  C_13 
REMARK    8  A    between atoms: C_16  and  C_17 
REMARK    9  A    between atoms: C_17  and  O_18 
REMARK   10  A    between atoms: C_17  and  C_19 
REMARK   11  A    between atoms: C_19  and  O_20 
REMARK   12  A    between atoms: O_20  and  C_21 
ROOT
ATOM      1  N   UNL d   1      29.477 -14.648   2.887  0.00  0.00    -0.062 N 
ATOM      2  H   UNL d   1      29.585 -15.558   3.348  0.00  0.00     0.280 HD
ENDROOT
BRANCH   1   3
ATOM      3  C   UNL d   1      30.405 -14.643   1.639  0.00  0.00     0.313 C 
BRANCH   3   4
ATOM      4  C   UNL d   1      29.807 -15.307   0.355  0.00  0.00     0.134 C 
ATOM      5  N   UNL d   1      29.458 -14.534  -0.632  0.00  0.00    -0.225 NA
ATOM      6  C   UNL d   1      29.433 -15.151  -1.852  0.00  0.00     0.116 C 
ATOM      7  S   UNL d   1      29.097 -14.288  -3.270  0.00  0.00    -0.063 SA
ATOM      8  C   UNL d   1      29.805 -16.452  -2.137  0.00  0.00     0.075 C 
ATOM      9  C   UNL d   1      29.288 -15.684  -4.246  0.00  0.00     0.089 C 
ATOM     10  C   UNL d   1      29.787 -16.769  -3.538  0.00  0.00    -0.020 C 
ATOM     11  C   UNL d   1      30.171 -18.084  -4.157  0.00  0.00     0.051 C 
ATOM     12  C   UNL d   1      30.191 -17.262  -1.011  0.00  0.00     0.260 C 
ATOM     13  N   UNL d   1      29.930 -16.680   0.223  0.00  0.00    -0.309 N 
ATOM     14  O   UNL d   1      30.861 -18.289  -1.088  0.00  0.00    -0.267 OA
ATOM     15  H   UNL d   1      30.361 -17.224   0.948  0.00  0.00     0.170 HD
BRANCH   9  16
ATOM     16  C   UNL d   1      28.913 -15.561  -5.642  0.00  0.00     0.300 C 
ATOM     17  O   UNL d   1      29.651 -15.691  -6.593  0.00  0.00    -0.259 OA
BRANCH  16  18
ATOM     18  O   UNL d   1      27.593 -15.199  -5.717  0.00  0.00    -0.322 OA
ATOM     19  C   UNL d   1      27.412 -13.794  -5.889  0.00  0.00     0.213 C 
ENDBRANCH  16  18
ENDBRANCH   9  16
ENDBRANCH   3   4
ENDBRANCH   1   3
BRANCH   1  20
ATOM     20  C   UNL d   1      29.654 -13.505   3.930  0.00  0.00     0.239 C 
BRANCH  20  21
ATOM     21  C   UNL d   1      29.032 -13.687   5.293  0.00  0.00     0.003 C 
ATOM     22  C   UNL d   1      27.788 -12.843   5.457  0.00  0.00     0.011 C 
ATOM     23  C   UNL d   1      28.541 -15.084   5.612  0.00  0.00     0.011 C 
ENDBRANCH  20  21
ENDBRANCH   1  20
BRANCH   1  24
ATOM     24  C   UNL d   1      28.001 -14.645   2.428  0.00  0.00     0.269 C 
BRANCH  24  25
ATOM     25  C   UNL d   1      27.575 -13.236   1.943  0.00  0.00     0.168 C 
BRANCH  25  26
ATOM     26  O   UNL d   1      28.593 -12.585   1.189  0.00  0.00    -0.392 OA
ATOM     27  H   UNL d   1      28.497 -12.802   0.245  0.00  0.00     0.210 HD
ENDBRANCH  25  26
BRANCH  25  28
ATOM     28  C   UNL d   1      26.358 -13.344   1.056  0.00  0.00     0.209 C 
BRANCH  28  29
ATOM     29  O   UNL d   1      26.779 -13.536  -0.295  0.00  0.00    -0.348 OA
BRANCH  29  30
ATOM     30  C   UNL d   1      26.279 -14.671  -0.881  0.00  0.00     0.074 C 
ATOM     31  C   UNL d   1      26.366 -15.848  -0.131  0.00  0.00     0.037 C 
ATOM     32  C   UNL d   1      25.741 -17.008  -0.590  0.00  0.00     0.003 C 
ATOM     33  C   UNL d   1      25.294 -17.076  -1.904  0.00  0.00     0.001 C 
ATOM     34  C   UNL d   1      25.347 -15.944  -2.708  0.00  0.00     0.009 C 
ATOM     35  C   UNL d   1      25.749 -14.713  -2.178  0.00  0.00    -0.029 C 
ATOM     36  C   UNL d   1      25.555 -13.503  -3.034  0.00  0.00     0.051 C 
ENDBRANCH  29  30
ENDBRANCH  28  29
ENDBRANCH  25  28
ENDBRANCH  24  25
ENDBRANCH   1  24
TORSDOF 12
ENDMDL
