MODEL 1
REMARK VINA RESULT:    -7.981      0.000      0.000
REMARK INTER + INTRA:         -10.228
REMARK INTER:                  -9.174
REMARK INTRA:                  -1.054
REMARK CONF_INDEPENDENT:        1.193
REMARK UNBOUND:                -1.054
REMARK  4 active torsions:
REMARK  status: ('A' for Active; 'I' for Inactive)
REMARK    1  A    between atoms: N_2  and  C_3 
REMARK    2  A    between atoms: C_8  and  C_9 
REMARK       I    between atoms: C_9  and  N_11 
REMARK    3  A    between atoms: N_11  and  C_12 
REMARK    4  A    between atoms: C_16  and  C_17 
ROOT
ATOM      1  C   UNL d   1      23.305 -17.333  -0.199  0.00  0.00     0.258 C 
ATOM      2  O   UNL d   1      22.651 -16.418  -0.667  0.00  0.00    -0.267 OA
ATOM      3  N   UNL d   1      22.753 -18.400   0.500  0.00  0.00    -0.323 N 
ATOM      4  H   UNL d   1      23.410 -18.980   1.018  0.00  0.00     0.169 HD
ENDROOT
BRANCH   3   5
ATOM      5  C   UNL d   1      21.457 -18.918   0.277  0.00  0.00     0.035 C 
ATOM      6  C   UNL d   1      20.919 -18.883  -1.014  0.00  0.00     0.029 C 
ATOM      7  C   UNL d   1      19.672 -19.460  -1.270  0.00  0.00     0.003 C 
ATOM      8  C   UNL d   1      18.965 -20.078  -0.241  0.00  0.00     0.016 C 
ATOM      9  C   UNL d   1      19.424 -19.987   1.078  0.00  0.00     0.050 C 
ATOM     10  C   UNL d   1      20.655 -19.372   1.325  0.00  0.00     0.045 C 
BRANCH   9  11
ATOM     11  C   UNL d   1      18.624 -20.570   2.211  0.00  0.00     0.417 C 
ATOM     12  F   UNL d   1      17.620 -19.741   2.614  0.00  0.00    -0.166 F 
ATOM     13  F   UNL d   1      18.025 -21.743   1.867  0.00  0.00    -0.166 F 
ATOM     14  F   UNL d   1      19.355 -20.831   3.329  0.00  0.00    -0.166 F 
ENDBRANCH   9  11
ENDBRANCH   3   5
BRANCH   1  15
ATOM     15  C   UNL d   1      24.797 -17.313  -0.358  0.00  0.00     0.058 A 
ATOM     16  C   UNL d   1      25.497 -18.198   0.492  0.00  0.00     0.019 A 
ATOM     17  C   UNL d   1      26.880 -18.340   0.422  0.00  0.00     0.001 A 
ATOM     18  C   UNL d   1      27.590 -17.578  -0.495  0.00  0.00     0.002 A 
ATOM     19  C   UNL d   1      26.915 -16.646  -1.303  0.00  0.00     0.030 A 
ATOM     20  C   UNL d   1      25.502 -16.522  -1.288  0.00  0.00     0.043 A 
BRANCH  20  21
ATOM     21  N   UNL d   1      24.875 -15.678  -2.211  0.00  0.00    -0.393 N 
ATOM     22  C   UNL d   1      25.532 -15.170  -3.415  0.00  0.00     0.146 C 
ATOM     23  H   UNL d   1      23.866 -15.790  -2.272  0.00  0.00     0.159 HD
ENDBRANCH  20  21
ENDBRANCH   1  15
TORSDOF 4
ENDMDL
MODEL 2
REMARK VINA RESULT:    -7.201      3.343      5.834
REMARK INTER + INTRA:          -9.114
REMARK INTER:                  -8.394
REMARK INTRA:                  -0.720
REMARK CONF_INDEPENDENT:        1.193
REMARK UNBOUND:                -0.720
REMARK  4 active torsions:
REMARK  status: ('A' for Active; 'I' for Inactive)
REMARK    1  A    between atoms: N_2  and  C_3 
REMARK    2  A    between atoms: C_8  and  C_9 
REMARK       I    between atoms: C_9  and  N_11 
REMARK    3  A    between atoms: N_11  and  C_12 
REMARK    4  A    between atoms: C_16  and  C_17 
ROOT
ATOM      1  C   UNL d   1      25.752 -14.682  -3.348  0.00  0.00     0.258 C 
ATOM      2  O   UNL d   1      24.544 -14.533  -3.411  0.00  0.00    -0.267 OA
ATOM      3  N   UNL d   1      26.403 -15.286  -2.279  0.00  0.00    -0.323 N 
ATOM      4  H   UNL d   1      27.412 -15.161  -2.244  0.00  0.00     0.169 HD
ENDROOT
BRANCH   3   5
ATOM      5  C   UNL d   1      25.840 -16.299  -1.469  0.00  0.00     0.035 C 
ATOM      6  C   UNL d   1      26.676 -17.063  -0.650  0.00  0.00     0.029 C 
ATOM      7  C   UNL d   1      26.132 -18.016   0.216  0.00  0.00     0.003 C 
ATOM      8  C   UNL d   1      24.751 -18.199   0.270  0.00  0.00     0.016 C 
ATOM      9  C   UNL d   1      23.921 -17.548  -0.649  0.00  0.00     0.050 C 
ATOM     10  C   UNL d   1      24.485 -16.627  -1.536  0.00  0.00     0.045 C 
BRANCH   9  11
ATOM     11  C   UNL d   1      22.439 -17.807  -0.662  0.00  0.00     0.417 C 
ATOM     12  F   UNL d   1      21.990 -18.296   0.529  0.00  0.00    -0.166 F 
ATOM     13  F   UNL d   1      21.721 -16.675  -0.896  0.00  0.00    -0.166 F 
ATOM     14  F   UNL d   1      22.042 -18.709  -1.601  0.00  0.00    -0.166 F 
ENDBRANCH   9  11
ENDBRANCH   3   5
BRANCH   1  15
ATOM     15  C   UNL d   1      26.605 -14.169  -4.471  0.00  0.00     0.058 A 
ATOM     16  C   UNL d   1      27.461 -15.130  -5.054  0.00  0.00     0.019 A 
ATOM     17  C   UNL d   1      28.269 -14.825  -6.146  0.00  0.00     0.001 A 
ATOM     18  C   UNL d   1      28.244 -13.538  -6.663  0.00  0.00     0.002 A 
ATOM     19  C   UNL d   1      27.447 -12.553  -6.053  0.00  0.00     0.030 A 
ATOM     20  C   UNL d   1      26.576 -12.852  -4.975  0.00  0.00     0.043 A 
BRANCH  20  21
ATOM     21  N   UNL d   1      25.705 -11.866  -4.500  0.00  0.00    -0.393 N 
ATOM     22  C   UNL d   1      25.801 -10.456  -4.874  0.00  0.00     0.146 C 
ATOM     23  H   UNL d   1      24.772 -12.200  -4.269  0.00  0.00     0.159 HD
ENDBRANCH  20  21
ENDBRANCH   1  15
TORSDOF 4
ENDMDL
MODEL 3
REMARK VINA RESULT:    -7.184      1.065      2.103
REMARK INTER + INTRA:          -8.919
REMARK INTER:                  -8.377
REMARK INTRA:                  -0.542
REMARK CONF_INDEPENDENT:        1.193
REMARK UNBOUND:                -0.542
REMARK  4 active torsions:
REMARK  status: ('A' for Active; 'I' for Inactive)
REMARK    1  A    between atoms: N_2  and  C_3 
REMARK    2  A    between atoms: C_8  and  C_9 
REMARK       I    between atoms: C_9  and  N_11 
REMARK    3  A    between atoms: N_11  and  C_12 
REMARK    4  A    between atoms: C_16  and  C_17 
ROOT
ATOM      1  C   UNL d   1      22.967 -17.025  -0.455  0.00  0.00     0.258 C 
ATOM      2  O   UNL d   1      22.155 -16.116  -0.461  0.00  0.00    -0.267 OA
ATOM      3  N   UNL d   1      22.692 -18.305   0.009  0.00  0.00    -0.323 N 
ATOM      4  H   UNL d   1      23.499 -18.908   0.159  0.00  0.00     0.169 HD
ENDROOT
BRANCH   3   5
ATOM      5  C   UNL d   1      21.419 -18.918  -0.040  0.00  0.00     0.035 C 
ATOM      6  C   UNL d   1      20.760 -19.029  -1.269  0.00  0.00     0.029 C 
ATOM      7  C   UNL d   1      19.537 -19.699  -1.352  0.00  0.00     0.003 C 
ATOM      8  C   UNL d   1      18.974 -20.266  -0.209  0.00  0.00     0.016 C 
ATOM      9  C   UNL d   1      19.548 -20.032   1.045  0.00  0.00     0.050 C 
ATOM     10  C   UNL d   1      20.752 -19.325   1.117  0.00  0.00     0.045 C 
BRANCH   9  11
ATOM     11  C   UNL d   1      18.901 -20.560   2.296  0.00  0.00     0.417 C 
ATOM     12  F   UNL d   1      17.848 -19.792   2.696  0.00  0.00    -0.166 F 
ATOM     13  F   UNL d   1      18.405 -21.816   2.128  0.00  0.00    -0.166 F 
ATOM     14  F   UNL d   1      19.737 -20.623   3.368  0.00  0.00    -0.166 F 
ENDBRANCH   9  11
ENDBRANCH   3   5
BRANCH   1  15
ATOM     15  C   UNL d   1      24.357 -16.758  -0.953  0.00  0.00     0.058 A 
ATOM     16  C   UNL d   1      24.438 -15.839  -2.023  0.00  0.00     0.019 A 
ATOM     17  C   UNL d   1      25.662 -15.441  -2.556  0.00  0.00     0.001 A 
ATOM     18  C   UNL d   1      26.830 -15.975  -2.032  0.00  0.00     0.002 A 
ATOM     19  C   UNL d   1      26.763 -16.940  -1.010  0.00  0.00     0.030 A 
ATOM     20  C   UNL d   1      25.533 -17.321  -0.416  0.00  0.00     0.043 A 
BRANCH  20  21
ATOM     21  N   UNL d   1      25.540 -18.179   0.689  0.00  0.00    -0.393 N 
ATOM     22  C   UNL d   1      26.762 -18.714   1.288  0.00  0.00     0.146 C 
ATOM     23  H   UNL d   1      24.751 -18.063   1.321  0.00  0.00     0.159 HD
ENDBRANCH  20  21
ENDBRANCH   1  15
TORSDOF 4
ENDMDL
MODEL 4
REMARK VINA RESULT:    -6.486      3.712      7.337
REMARK INTER + INTRA:          -8.139
REMARK INTER:                  -7.680
REMARK INTRA:                  -0.459
REMARK CONF_INDEPENDENT:        1.193
REMARK UNBOUND:                -0.459
REMARK  4 active torsions:
REMARK  status: ('A' for Active; 'I' for Inactive)
REMARK    1  A    between atoms: N_2  and  C_3 
REMARK    2  A    between atoms: C_8  and  C_9 
REMARK       I    between atoms: C_9  and  N_11 
REMARK    3  A    between atoms: N_11  and  C_12 
REMARK    4  A    between atoms: C_16  and  C_17 
ROOT
ATOM      1  C   UNL d   1      20.451 -19.064  -0.515  0.00  0.00     0.258 C 
ATOM      2  O   UNL d   1      20.114 -18.167  -1.268  0.00  0.00    -0.267 OA
ATOM      3  N   UNL d   1      21.774 -19.388  -0.240  0.00  0.00    -0.323 N 
ATOM      4  H   UNL d   1      21.926 -20.278   0.229  0.00  0.00     0.169 HD
ENDROOT
BRANCH   3   5
ATOM      5  C   UNL d   1      22.843 -18.463  -0.253  0.00  0.00     0.035 C 
ATOM      6  C   UNL d   1      22.632 -17.180  -0.766  0.00  0.00     0.029 C 
ATOM      7  C   UNL d   1      23.653 -16.227  -0.716  0.00  0.00     0.003 C 
ATOM      8  C   UNL d   1      24.882 -16.552  -0.146  0.00  0.00     0.016 C 
ATOM      9  C   UNL d   1      25.153 -17.872   0.232  0.00  0.00     0.050 C 
ATOM     10  C   UNL d   1      24.133 -18.824   0.140  0.00  0.00     0.045 C 
BRANCH   9  11
ATOM     11  C   UNL d   1      26.506 -18.256   0.763  0.00  0.00     0.417 C 
ATOM     12  F   UNL d   1      27.412 -17.244   0.648  0.00  0.00    -0.166 F 
ATOM     13  F   UNL d   1      26.469 -18.576   2.085  0.00  0.00    -0.166 F 
ATOM     14  F   UNL d   1      27.067 -19.323   0.131  0.00  0.00    -0.166 F 
ENDBRANCH   9  11
ENDBRANCH   3   5
BRANCH   1  15
ATOM     15  C   UNL d   1      19.389 -19.891   0.148  0.00  0.00     0.058 A 
ATOM     16  C   UNL d   1      18.403 -20.403  -0.725  0.00  0.00     0.019 A 
ATOM     17  C   UNL d   1      17.386 -21.239  -0.272  0.00  0.00     0.001 A 
ATOM     18  C   UNL d   1      17.330 -21.561   1.076  0.00  0.00     0.002 A 
ATOM     19  C   UNL d   1      18.264 -21.007   1.968  0.00  0.00     0.030 A 
ATOM     20  C   UNL d   1      19.341 -20.197   1.523  0.00  0.00     0.043 A 
BRANCH  20  21
ATOM     21  N   UNL d   1      20.318 -19.789   2.437  0.00  0.00    -0.393 N 
ATOM     22  C   UNL d   1      20.280 -20.120   3.861  0.00  0.00     0.146 C 
ATOM     23  H   UNL d   1      21.245 -19.660   2.038  0.00  0.00     0.159 HD
ENDBRANCH  20  21
ENDBRANCH   1  15
TORSDOF 4
ENDMDL
MODEL 5
REMARK VINA RESULT:    -6.441      3.402      5.953
REMARK INTER + INTRA:          -8.738
REMARK INTER:                  -7.635
REMARK INTRA:                  -1.103
REMARK CONF_INDEPENDENT:        1.193
REMARK UNBOUND:                -1.103
REMARK  4 active torsions:
REMARK  status: ('A' for Active; 'I' for Inactive)
REMARK    1  A    between atoms: N_2  and  C_3 
REMARK    2  A    between atoms: C_8  and  C_9 
REMARK       I    between atoms: C_9  and  N_11 
REMARK    3  A    between atoms: N_11  and  C_12 
REMARK    4  A    between atoms: C_16  and  C_17 
ROOT
ATOM      1  C   UNL d   1      25.613 -14.842  -3.925  0.00  0.00     0.258 C 
ATOM      2  O   UNL d   1      25.530 -15.834  -4.628  0.00  0.00    -0.267 OA
ATOM      3  N   UNL d   1      25.171 -14.785  -2.610  0.00  0.00    -0.323 N 
ATOM      4  H   UNL d   1      25.100 -13.855  -2.203  0.00  0.00     0.169 HD
ENDROOT
BRANCH   3   5
ATOM      5  C   UNL d   1      25.142 -15.889  -1.727  0.00  0.00     0.035 C 
ATOM      6  C   UNL d   1      26.322 -16.284  -1.087  0.00  0.00     0.029 C 
ATOM      7  C   UNL d   1      26.299 -17.322  -0.153  0.00  0.00     0.003 C 
ATOM      8  C   UNL d   1      25.099 -17.962   0.150  0.00  0.00     0.016 C 
ATOM      9  C   UNL d   1      23.947 -17.677  -0.591  0.00  0.00     0.050 C 
ATOM     10  C   UNL d   1      23.993 -16.662  -1.552  0.00  0.00     0.045 C 
BRANCH   9  11
ATOM     11  C   UNL d   1      22.667 -18.426  -0.338  0.00  0.00     0.417 C 
ATOM     12  F   UNL d   1      21.588 -17.807  -0.896  0.00  0.00    -0.166 F 
ATOM     13  F   UNL d   1      22.691 -19.680  -0.866  0.00  0.00    -0.166 F 
ATOM     14  F   UNL d   1      22.363 -18.575   0.980  0.00  0.00    -0.166 F 
ENDBRANCH   9  11
ENDBRANCH   3   5
BRANCH   1  15
ATOM     15  C   UNL d   1      26.207 -13.591  -4.506  0.00  0.00     0.058 A 
ATOM     16  C   UNL d   1      25.722 -12.388  -3.947  0.00  0.00     0.019 A 
ATOM     17  C   UNL d   1      26.219 -11.147  -4.336  0.00  0.00     0.001 A 
ATOM     18  C   UNL d   1      27.203 -11.092  -5.311  0.00  0.00     0.002 A 
ATOM     19  C   UNL d   1      27.650 -12.276  -5.924  0.00  0.00     0.030 A 
ATOM     20  C   UNL d   1      27.199 -13.555  -5.508  0.00  0.00     0.043 A 
BRANCH  20  21
ATOM     21  N   UNL d   1      27.780 -14.702  -6.057  0.00  0.00    -0.393 N 
ATOM     22  C   UNL d   1      29.214 -14.837  -6.312  0.00  0.00     0.146 C 
ATOM     23  H   UNL d   1      27.283 -15.567  -5.857  0.00  0.00     0.159 HD
ENDBRANCH  20  21
ENDBRANCH   1  15
TORSDOF 4
ENDMDL
MODEL 6
REMARK VINA RESULT:    -5.914      6.679      9.500
REMARK INTER + INTRA:          -8.060
REMARK INTER:                  -7.107
REMARK INTRA:                  -0.954
REMARK CONF_INDEPENDENT:        1.193
REMARK UNBOUND:                -0.954
REMARK  4 active torsions:
REMARK  status: ('A' for Active; 'I' for Inactive)
REMARK    1  A    between atoms: N_2  and  C_3 
REMARK    2  A    between atoms: C_8  and  C_9 
REMARK       I    between atoms: C_9  and  N_11 
REMARK    3  A    between atoms: N_11  and  C_12 
REMARK    4  A    between atoms: C_16  and  C_17 
ROOT
ATOM      1  C   UNL d   1      25.276 -15.639  -2.664  0.00  0.00     0.258 C 
ATOM      2  O   UNL d   1      24.249 -14.982  -2.656  0.00  0.00    -0.267 OA
ATOM      3  N   UNL d   1      26.225 -15.580  -3.676  0.00  0.00    -0.323 N 
ATOM      4  H   UNL d   1      26.923 -16.320  -3.676  0.00  0.00     0.169 HD
ENDROOT
BRANCH   3   5
ATOM      5  C   UNL d   1      26.488 -14.432  -4.460  0.00  0.00     0.035 C 
ATOM      6  C   UNL d   1      25.695 -13.293  -4.291  0.00  0.00     0.029 C 
ATOM      7  C   UNL d   1      25.987 -12.123  -4.999  0.00  0.00     0.003 C 
ATOM      8  C   UNL d   1      27.075 -12.089  -5.869  0.00  0.00     0.016 C 
ATOM      9  C   UNL d   1      27.780 -13.263  -6.157  0.00  0.00     0.050 C 
ATOM     10  C   UNL d   1      27.451 -14.435  -5.470  0.00  0.00     0.045 C 
BRANCH   9  11
ATOM     11  C   UNL d   1      28.898 -13.260  -7.164  0.00  0.00     0.417 C 
ATOM     12  F   UNL d   1      29.500 -14.478  -7.270  0.00  0.00    -0.166 F 
ATOM     13  F   UNL d   1      28.462 -12.948  -8.414  0.00  0.00    -0.166 F 
ATOM     14  F   UNL d   1      29.897 -12.380  -6.880  0.00  0.00    -0.166 F 
ENDBRANCH   9  11
ENDBRANCH   3   5
BRANCH   1  15
ATOM     15  C   UNL d   1      25.536 -16.591  -1.532  0.00  0.00     0.058 A 
ATOM     16  C   UNL d   1      26.880 -16.652  -1.105  0.00  0.00     0.019 A 
ATOM     17  C   UNL d   1      27.271 -17.442  -0.026  0.00  0.00     0.001 A 
ATOM     18  C   UNL d   1      26.315 -18.200   0.633  0.00  0.00     0.002 A 
ATOM     19  C   UNL d   1      24.984 -18.200   0.179  0.00  0.00     0.030 A 
ATOM     20  C   UNL d   1      24.552 -17.364  -0.882  0.00  0.00     0.043 A 
BRANCH  20  21
ATOM     21  N   UNL d   1      23.191 -17.302  -1.199  0.00  0.00    -0.393 N 
ATOM     22  C   UNL d   1      22.155 -18.014  -0.450  0.00  0.00     0.146 C 
ATOM     23  H   UNL d   1      22.898 -16.436  -1.645  0.00  0.00     0.159 HD
ENDBRANCH  20  21
ENDBRANCH   1  15
TORSDOF 4
ENDMDL
MODEL 7
REMARK VINA RESULT:    -5.898      4.516      6.765
REMARK INTER + INTRA:          -8.179
REMARK INTER:                  -7.091
REMARK INTRA:                  -1.088
REMARK CONF_INDEPENDENT:        1.193
REMARK UNBOUND:                -1.088
REMARK  4 active torsions:
REMARK  status: ('A' for Active; 'I' for Inactive)
REMARK    1  A    between atoms: N_2  and  C_3 
REMARK    2  A    between atoms: C_8  and  C_9 
REMARK       I    between atoms: C_9  and  N_11 
REMARK    3  A    between atoms: N_11  and  C_12 
REMARK    4  A    between atoms: C_16  and  C_17 
ROOT
ATOM      1  C   UNL d   1      25.458 -14.831  -3.831  0.00  0.00     0.258 C 
ATOM      2  O   UNL d   1      25.530 -15.869  -4.466  0.00  0.00    -0.267 OA
ATOM      3  N   UNL d   1      24.830 -14.721  -2.596  0.00  0.00    -0.323 N 
ATOM      4  H   UNL d   1      24.651 -13.774  -2.270  0.00  0.00     0.169 HD
ENDROOT
BRANCH   3   5
ATOM      5  C   UNL d   1      24.738 -15.768  -1.649  0.00  0.00     0.035 C 
ATOM      6  C   UNL d   1      23.488 -16.328  -1.369  0.00  0.00     0.029 C 
ATOM      7  C   UNL d   1      23.386 -17.414  -0.495  0.00  0.00     0.003 C 
ATOM      8  C   UNL d   1      24.533 -17.947   0.092  0.00  0.00     0.016 C 
ATOM      9  C   UNL d   1      25.765 -17.301  -0.065  0.00  0.00     0.050 C 
ATOM     10  C   UNL d   1      25.844 -16.191  -0.911  0.00  0.00     0.045 C 
BRANCH   9  11
ATOM     11  C   UNL d   1      26.993 -17.812   0.637  0.00  0.00     0.417 C 
ATOM     12  F   UNL d   1      27.780 -16.800   1.102  0.00  0.00    -0.166 F 
ATOM     13  F   UNL d   1      26.686 -18.575   1.721  0.00  0.00    -0.166 F 
ATOM     14  F   UNL d   1      27.803 -18.575  -0.147  0.00  0.00    -0.166 F 
ENDBRANCH   9  11
ENDBRANCH   3   5
BRANCH   1  15
ATOM     15  C   UNL d   1      26.057 -13.583  -4.411  0.00  0.00     0.058 A 
ATOM     16  C   UNL d   1      25.542 -12.377  -3.886  0.00  0.00     0.019 A 
ATOM     17  C   UNL d   1      26.039 -11.137  -4.278  0.00  0.00     0.001 A 
ATOM     18  C   UNL d   1      27.054 -11.086  -5.222  0.00  0.00     0.002 A 
ATOM     19  C   UNL d   1      27.532 -12.275  -5.802  0.00  0.00     0.030 A 
ATOM     20  C   UNL d   1      27.080 -13.551  -5.381  0.00  0.00     0.043 A 
BRANCH  20  21
ATOM     21  N   UNL d   1      27.691 -14.701  -5.893  0.00  0.00    -0.393 N 
ATOM     22  C   UNL d   1      29.091 -14.752  -6.312  0.00  0.00     0.146 C 
ATOM     23  H   UNL d   1      27.298 -15.576  -5.555  0.00  0.00     0.159 HD
ENDBRANCH  20  21
ENDBRANCH   1  15
TORSDOF 4
ENDMDL
MODEL 8
REMARK VINA RESULT:    -5.761      5.935      8.835
REMARK INTER + INTRA:          -8.041
REMARK INTER:                  -6.954
REMARK INTRA:                  -1.087
REMARK CONF_INDEPENDENT:        1.193
REMARK UNBOUND:                -1.087
REMARK  4 active torsions:
REMARK  status: ('A' for Active; 'I' for Inactive)
REMARK    1  A    between atoms: N_2  and  C_3 
REMARK    2  A    between atoms: C_8  and  C_9 
REMARK       I    between atoms: C_9  and  N_11 
REMARK    3  A    between atoms: N_11  and  C_12 
REMARK    4  A    between atoms: C_16  and  C_17 
ROOT
ATOM      1  C   UNL d   1      25.293 -15.422  -1.534  0.00  0.00     0.258 C 
ATOM      2  O   UNL d   1      26.333 -15.084  -0.995  0.00  0.00    -0.267 OA
ATOM      3  N   UNL d   1      24.773 -14.808  -2.666  0.00  0.00    -0.323 N 
ATOM      4  H   UNL d   1      23.808 -15.036  -2.893  0.00  0.00     0.169 HD
ENDROOT
BRANCH   3   5
ATOM      5  C   UNL d   1      25.554 -14.192  -3.671  0.00  0.00     0.035 C 
ATOM      6  C   UNL d   1      25.176 -12.936  -4.156  0.00  0.00     0.029 C 
ATOM      7  C   UNL d   1      25.977 -12.275  -5.093  0.00  0.00     0.003 C 
ATOM      8  C   UNL d   1      27.158 -12.865  -5.539  0.00  0.00     0.016 C 
ATOM      9  C   UNL d   1      27.466 -14.180  -5.175  0.00  0.00     0.050 C 
ATOM     10  C   UNL d   1      26.634 -14.844  -4.268  0.00  0.00     0.045 C 
BRANCH   9  11
ATOM     11  C   UNL d   1      28.690 -14.862  -5.723  0.00  0.00     0.417 C 
ATOM     12  F   UNL d   1      29.843 -14.302  -5.261  0.00  0.00    -0.166 F 
ATOM     13  F   UNL d   1      28.747 -16.176  -5.374  0.00  0.00    -0.166 F 
ATOM     14  F   UNL d   1      28.783 -14.826  -7.080  0.00  0.00    -0.166 F 
ENDBRANCH   9  11
ENDBRANCH   3   5
BRANCH   1  15
ATOM     15  C   UNL d   1      24.503 -16.551  -0.940  0.00  0.00     0.058 A 
ATOM     16  C   UNL d   1      23.129 -16.553  -1.268  0.00  0.00     0.019 A 
ATOM     17  C   UNL d   1      22.276 -17.568  -0.845  0.00  0.00     0.001 A 
ATOM     18  C   UNL d   1      22.787 -18.595  -0.064  0.00  0.00     0.002 A 
ATOM     19  C   UNL d   1      24.137 -18.573   0.325  0.00  0.00     0.030 A 
ATOM     20  C   UNL d   1      25.038 -17.580  -0.137  0.00  0.00     0.043 A 
BRANCH  20  21
ATOM     21  N   UNL d   1      26.398 -17.687   0.170  0.00  0.00    -0.393 N 
ATOM     22  C   UNL d   1      27.032 -18.933   0.602  0.00  0.00     0.146 C 
ATOM     23  H   UNL d   1      26.999 -17.036  -0.330  0.00  0.00     0.159 HD
ENDBRANCH  20  21
ENDBRANCH   1  15
TORSDOF 4
ENDMDL
MODEL 9
REMARK VINA RESULT:    -5.743      5.927      8.931
REMARK INTER + INTRA:          -8.003
REMARK INTER:                  -6.936
REMARK INTRA:                  -1.066
REMARK CONF_INDEPENDENT:        1.193
REMARK UNBOUND:                -1.066
REMARK  4 active torsions:
REMARK  status: ('A' for Active; 'I' for Inactive)
REMARK    1  A    between atoms: N_2  and  C_3 
REMARK    2  A    between atoms: C_8  and  C_9 
REMARK       I    between atoms: C_9  and  N_11 
REMARK    3  A    between atoms: N_11  and  C_12 
REMARK    4  A    between atoms: C_16  and  C_17 
ROOT
ATOM      1  C   UNL d   1      25.467 -15.616  -2.728  0.00  0.00     0.258 C 
ATOM      2  O   UNL d   1      24.452 -14.942  -2.770  0.00  0.00    -0.267 OA
ATOM      3  N   UNL d   1      26.465 -15.573  -3.694  0.00  0.00    -0.323 N 
ATOM      4  H   UNL d   1      27.150 -16.325  -3.660  0.00  0.00     0.169 HD
ENDROOT
BRANCH   3   5
ATOM      5  C   UNL d   1      26.783 -14.432  -4.466  0.00  0.00     0.035 C 
ATOM      6  C   UNL d   1      27.671 -14.557  -5.538  0.00  0.00     0.029 C 
ATOM      7  C   UNL d   1      27.939 -13.459  -6.360  0.00  0.00     0.003 C 
ATOM      8  C   UNL d   1      27.313 -12.238  -6.117  0.00  0.00     0.016 C 
ATOM      9  C   UNL d   1      26.542 -12.063  -4.963  0.00  0.00     0.050 C 
ATOM     10  C   UNL d   1      26.315 -13.161  -4.127  0.00  0.00     0.045 C 
BRANCH   9  11
ATOM     11  C   UNL d   1      25.936 -10.724  -4.640  0.00  0.00     0.417 C 
ATOM     12  F   UNL d   1      26.883  -9.767  -4.425  0.00  0.00    -0.166 F 
ATOM     13  F   UNL d   1      25.155 -10.256  -5.650  0.00  0.00    -0.166 F 
ATOM     14  F   UNL d   1      25.155 -10.724  -3.525  0.00  0.00    -0.166 F 
ENDBRANCH   9  11
ENDBRANCH   3   5
BRANCH   1  15
ATOM     15  C   UNL d   1      25.657 -16.569  -1.585  0.00  0.00     0.058 A 
ATOM     16  C   UNL d   1      26.992 -16.710  -1.144  0.00  0.00     0.019 A 
ATOM     17  C   UNL d   1      27.322 -17.510  -0.054  0.00  0.00     0.001 A 
ATOM     18  C   UNL d   1      26.315 -18.200   0.605  0.00  0.00     0.002 A 
ATOM     19  C   UNL d   1      24.991 -18.122   0.138  0.00  0.00     0.030 A 
ATOM     20  C   UNL d   1      24.621 -17.272  -0.936  0.00  0.00     0.043 A 
BRANCH  20  21
ATOM     21  N   UNL d   1      23.270 -17.129  -1.266  0.00  0.00    -0.393 N 
ATOM     22  C   UNL d   1      22.185 -17.767  -0.520  0.00  0.00     0.146 C 
ATOM     23  H   UNL d   1      23.036 -16.251  -1.723  0.00  0.00     0.159 HD
ENDBRANCH  20  21
ENDBRANCH   1  15
TORSDOF 4
ENDMDL
