MODEL 1
REMARK VINA RESULT:    -8.198      0.000      0.000
REMARK INTER + INTRA:         -10.506
REMARK INTER:                  -9.391
REMARK INTRA:                  -1.115
REMARK CONF_INDEPENDENT:        1.193
REMARK UNBOUND:                -1.115
REMARK  4 active torsions:
REMARK  status: ('A' for Active; 'I' for Inactive)
REMARK    1  A    between atoms: C_8  and  C_9 
REMARK    2  A    between atoms: C_10  and  C_11 
REMARK       I    between atoms: C_11  and  N_13 
REMARK    3  A    between atoms: N_13  and  N_14 
REMARK       I    between atoms: N_14  and  C_15 
REMARK       I    between atoms: C_15  and  N_17 
REMARK    4  A    between atoms: N_17  and  C_18 
ROOT
ATOM      1  N   UNL d   1      23.692 -14.078  -3.661  0.00  0.00    -0.191 NA
ATOM      2  C   UNL d   1      24.810 -14.345  -3.802  0.00  0.00     0.100 C 
ATOM      3  C   UNL d   1      26.197 -14.689  -3.935  0.00  0.00     0.054 A 
ATOM      4  C   UNL d   1      26.862 -14.068  -5.006  0.00  0.00     0.023 A 
ATOM      5  C   UNL d   1      28.229 -14.227  -5.184  0.00  0.00     0.002 A 
ATOM      6  C   UNL d   1      28.944 -15.013  -4.289  0.00  0.00     0.001 A 
ATOM      7  C   UNL d   1      28.280 -15.675  -3.238  0.00  0.00     0.013 A 
ATOM      8  C   UNL d   1      26.882 -15.546  -3.040  0.00  0.00    -0.015 A 
ENDROOT
BRANCH   8   9
ATOM      9  C   UNL d   1      26.242 -16.305  -1.907  0.00  0.00     0.018 C 
ATOM     10  C   UNL d   1      25.115 -17.048  -1.966  0.00  0.00     0.076 C 
BRANCH  10  11
ATOM     11  C   UNL d   1      24.466 -17.792  -0.843  0.00  0.00     0.259 C 
ATOM     12  O   UNL d   1      25.035 -17.963   0.229  0.00  0.00    -0.267 OA
ATOM     13  N   UNL d   1      23.184 -18.260  -1.126  0.00  0.00    -0.263 N 
ATOM     14  H   UNL d   1      22.692 -18.123  -2.013  0.00  0.00     0.190 HD
BRANCH  13  15
ATOM     15  N   UNL d   1      22.479 -19.013  -0.135  0.00  0.00    -0.249 N 
ATOM     16  C   UNL d   1      21.091 -18.989  -0.100  0.00  0.00     0.335 C 
ATOM     17  O   UNL d   1      20.431 -18.313  -0.886  0.00  0.00    -0.246 OA
ATOM     18  N   UNL d   1      20.520 -19.810   0.866  0.00  0.00    -0.337 N 
ATOM     19  H   UNL d   1      21.106 -20.251   1.563  0.00  0.00     0.164 HD
ATOM     20  H   UNL d   1      23.062 -19.532   0.514  0.00  0.00     0.192 HD
BRANCH  18  21
ATOM     21  C   UNL d   1      19.087 -19.883   1.064  0.00  0.00     0.086 A 
ATOM     22  C   UNL d   1      18.255 -20.813   0.215  0.00  0.00     0.027 A 
ATOM     23  C   UNL d   1      18.424 -21.098   1.677  0.00  0.00     0.027 A 
ENDBRANCH  18  21
ENDBRANCH  13  15
ENDBRANCH  10  11
ENDBRANCH   8   9
TORSDOF 4
ENDMDL
MODEL 2
REMARK VINA RESULT:    -7.825      1.477      2.110
REMARK INTER + INTRA:         -10.322
REMARK INTER:                  -9.018
REMARK INTRA:                  -1.304
REMARK CONF_INDEPENDENT:        1.193
REMARK UNBOUND:                -1.304
REMARK  4 active torsions:
REMARK  status: ('A' for Active; 'I' for Inactive)
REMARK    1  A    between atoms: C_8  and  C_9 
REMARK    2  A    between atoms: C_10  and  C_11 
REMARK       I    between atoms: C_11  and  N_13 
REMARK    3  A    between atoms: N_13  and  N_14 
REMARK       I    between atoms: N_14  and  C_15 
REMARK       I    between atoms: C_15  and  N_17 
REMARK    4  A    between atoms: N_17  and  C_18 
ROOT
ATOM      1  N   UNL d   1      28.783 -16.384  -2.125  0.00  0.00    -0.191 NA
ATOM      2  C   UNL d   1      28.030 -15.666  -2.632  0.00  0.00     0.100 C 
ATOM      3  C   UNL d   1      27.065 -14.803  -3.253  0.00  0.00     0.054 A 
ATOM      4  C   UNL d   1      27.591 -13.904  -4.195  0.00  0.00     0.023 A 
ATOM      5  C   UNL d   1      26.757 -13.089  -4.947  0.00  0.00     0.002 A 
ATOM      6  C   UNL d   1      25.382 -13.166  -4.758  0.00  0.00     0.001 A 
ATOM      7  C   UNL d   1      24.847 -14.033  -3.785  0.00  0.00     0.013 A 
ATOM      8  C   UNL d   1      25.675 -14.865  -2.990  0.00  0.00    -0.015 A 
ENDROOT
BRANCH   8   9
ATOM      9  C   UNL d   1      25.027 -15.746  -1.955  0.00  0.00     0.018 C 
ATOM     10  C   UNL d   1      25.204 -17.078  -1.800  0.00  0.00     0.076 C 
BRANCH  10  11
ATOM     11  C   UNL d   1      24.554 -17.962  -0.785  0.00  0.00     0.259 C 
ATOM     12  O   UNL d   1      25.204 -18.529   0.085  0.00  0.00    -0.267 OA
ATOM     13  N   UNL d   1      23.171 -18.074  -0.921  0.00  0.00    -0.263 N 
ATOM     14  H   UNL d   1      22.612 -17.605  -1.637  0.00  0.00     0.190 HD
BRANCH  13  15
ATOM     15  N   UNL d   1      22.447 -18.920  -0.023  0.00  0.00    -0.249 N 
ATOM     16  C   UNL d   1      21.059 -18.951  -0.063  0.00  0.00     0.335 C 
ATOM     17  O   UNL d   1      20.414 -18.248  -0.838  0.00  0.00    -0.246 OA
ATOM     18  N   UNL d   1      20.471 -19.857   0.813  0.00  0.00    -0.337 N 
ATOM     19  H   UNL d   1      21.038 -20.323   1.510  0.00  0.00     0.164 HD
ATOM     20  H   UNL d   1      23.015 -19.459   0.622  0.00  0.00     0.192 HD
BRANCH  18  21
ATOM     21  C   UNL d   1      19.035 -19.998   0.925  0.00  0.00     0.086 A 
ATOM     22  C   UNL d   1      18.378 -21.315   0.592  0.00  0.00     0.027 A 
ATOM     23  C   UNL d   1      18.394 -20.835   2.012  0.00  0.00     0.027 A 
ENDBRANCH  18  21
ENDBRANCH  13  15
ENDBRANCH  10  11
ENDBRANCH   8   9
TORSDOF 4
ENDMDL
MODEL 3
REMARK VINA RESULT:    -7.357      1.854      2.597
REMARK INTER + INTRA:          -9.858
REMARK INTER:                  -8.550
REMARK INTRA:                  -1.307
REMARK CONF_INDEPENDENT:        1.193
REMARK UNBOUND:                -1.307
REMARK  4 active torsions:
REMARK  status: ('A' for Active; 'I' for Inactive)
REMARK    1  A    between atoms: C_8  and  C_9 
REMARK    2  A    between atoms: C_10  and  C_11 
REMARK       I    between atoms: C_11  and  N_13 
REMARK    3  A    between atoms: N_13  and  N_14 
REMARK       I    between atoms: N_14  and  C_15 
REMARK       I    between atoms: C_15  and  N_17 
REMARK    4  A    between atoms: N_17  and  C_18 
ROOT
ATOM      1  N   UNL d   1      27.786 -15.575  -5.890  0.00  0.00    -0.191 NA
ATOM      2  C   UNL d   1      27.326 -14.643  -5.381  0.00  0.00     0.100 C 
ATOM      3  C   UNL d   1      26.722 -13.511  -4.736  0.00  0.00     0.054 A 
ATOM      4  C   UNL d   1      27.134 -12.260  -5.224  0.00  0.00     0.023 A 
ATOM      5  C   UNL d   1      26.550 -11.088  -4.766  0.00  0.00     0.002 A 
ATOM      6  C   UNL d   1      25.545 -11.160  -3.809  0.00  0.00     0.001 A 
ATOM      7  C   UNL d   1      25.155 -12.406  -3.281  0.00  0.00     0.013 A 
ATOM      8  C   UNL d   1      25.745 -13.619  -3.717  0.00  0.00    -0.015 A 
ENDROOT
BRANCH   8   9
ATOM      9  C   UNL d   1      25.289 -14.908  -3.086  0.00  0.00     0.018 C 
ATOM     10  C   UNL d   1      25.656 -15.391  -1.877  0.00  0.00     0.076 C 
BRANCH  10  11
ATOM     11  C   UNL d   1      25.220 -16.677  -1.251  0.00  0.00     0.259 C 
ATOM     12  O   UNL d   1      26.026 -17.467  -0.774  0.00  0.00    -0.267 OA
ATOM     13  N   UNL d   1      23.841 -16.884  -1.260  0.00  0.00    -0.263 N 
ATOM     14  H   UNL d   1      23.153 -16.235  -1.649  0.00  0.00     0.190 HD
BRANCH  13  15
ATOM     15  N   UNL d   1      23.313 -18.096  -0.715  0.00  0.00    -0.249 N 
ATOM     16  C   UNL d   1      21.946 -18.341  -0.759  0.00  0.00     0.335 C 
ATOM     17  O   UNL d   1      21.154 -17.529  -1.234  0.00  0.00    -0.246 OA
ATOM     18  N   UNL d   1      21.560 -19.579  -0.257  0.00  0.00    -0.337 N 
ATOM     19  H   UNL d   1      22.233 -20.156   0.230  0.00  0.00     0.164 HD
ATOM     20  H   UNL d   1      23.995 -18.724  -0.305  0.00  0.00     0.192 HD
BRANCH  18  21
ATOM     21  C   UNL d   1      20.172 -19.985  -0.195  0.00  0.00     0.086 A 
ATOM     22  C   UNL d   1      19.655 -20.722   1.017  0.00  0.00     0.027 A 
ATOM     23  C   UNL d   1      19.185 -19.325   0.744  0.00  0.00     0.027 A 
ENDBRANCH  18  21
ENDBRANCH  13  15
ENDBRANCH  10  11
ENDBRANCH   8   9
TORSDOF 4
ENDMDL
MODEL 4
REMARK VINA RESULT:    -6.702     12.283     14.124
REMARK INTER + INTRA:          -8.943
REMARK INTER:                  -7.896
REMARK INTRA:                  -1.047
REMARK CONF_INDEPENDENT:        1.193
REMARK UNBOUND:                -1.047
REMARK  4 active torsions:
REMARK  status: ('A' for Active; 'I' for Inactive)
REMARK    1  A    between atoms: C_8  and  C_9 
REMARK    2  A    between atoms: C_10  and  C_11 
REMARK       I    between atoms: C_11  and  N_13 
REMARK    3  A    between atoms: N_13  and  N_14 
REMARK       I    between atoms: N_14  and  C_15 
REMARK       I    between atoms: C_15  and  N_17 
REMARK    4  A    between atoms: N_17  and  C_18 
ROOT
ATOM      1  N   UNL d   1      34.597 -24.943   6.970  0.00  0.00    -0.191 NA
ATOM      2  C   UNL d   1      34.907 -24.021   7.597  0.00  0.00     0.100 C 
ATOM      3  C   UNL d   1      35.282 -22.852   8.342  0.00  0.00     0.054 A 
ATOM      4  C   UNL d   1      36.197 -23.079   9.383  0.00  0.00     0.023 A 
ATOM      5  C   UNL d   1      36.725 -22.023  10.112  0.00  0.00     0.002 A 
ATOM      6  C   UNL d   1      36.337 -20.724   9.803  0.00  0.00     0.001 A 
ATOM      7  C   UNL d   1      35.387 -20.489   8.790  0.00  0.00     0.013 A 
ATOM      8  C   UNL d   1      34.818 -21.549   8.040  0.00  0.00    -0.015 A 
ENDROOT
BRANCH   8   9
ATOM      9  C   UNL d   1      33.791 -21.216   6.989  0.00  0.00     0.018 C 
ATOM     10  C   UNL d   1      32.590 -21.812   6.814  0.00  0.00     0.076 C 
BRANCH  10  11
ATOM     11  C   UNL d   1      31.572 -21.498   5.765  0.00  0.00     0.259 C 
ATOM     12  O   UNL d   1      30.419 -21.201   6.056  0.00  0.00    -0.267 OA
ATOM     13  N   UNL d   1      32.050 -21.573   4.458  0.00  0.00    -0.263 N 
ATOM     14  H   UNL d   1      33.009 -21.815   4.197  0.00  0.00     0.190 HD
BRANCH  13  15
ATOM     15  N   UNL d   1      31.154 -21.323   3.371  0.00  0.00    -0.249 N 
ATOM     16  C   UNL d   1      31.355 -21.949   2.147  0.00  0.00     0.335 C 
ATOM     17  O   UNL d   1      32.304 -22.704   1.949  0.00  0.00    -0.246 OA
ATOM     18  N   UNL d   1      30.384 -21.677   1.189  0.00  0.00    -0.337 N 
ATOM     19  H   UNL d   1      29.693 -20.958   1.363  0.00  0.00     0.164 HD
ATOM     20  H   UNL d   1      30.404 -20.670   3.566  0.00  0.00     0.192 HD
BRANCH  18  21
ATOM     21  C   UNL d   1      30.453 -22.219  -0.151  0.00  0.00     0.086 A 
ATOM     22  C   UNL d   1      31.151 -23.535  -0.397  0.00  0.00     0.027 A 
ATOM     23  C   UNL d   1      29.663 -23.444  -0.561  0.00  0.00     0.027 A 
ENDBRANCH  18  21
ENDBRANCH  13  15
ENDBRANCH  10  11
ENDBRANCH   8   9
TORSDOF 4
ENDMDL
MODEL 5
REMARK VINA RESULT:    -6.679      3.877      9.265
REMARK INTER + INTRA:          -9.085
REMARK INTER:                  -7.872
REMARK INTRA:                  -1.213
REMARK CONF_INDEPENDENT:        1.193
REMARK UNBOUND:                -1.213
REMARK  4 active torsions:
REMARK  status: ('A' for Active; 'I' for Inactive)
REMARK    1  A    between atoms: C_8  and  C_9 
REMARK    2  A    between atoms: C_10  and  C_11 
REMARK       I    between atoms: C_11  and  N_13 
REMARK    3  A    between atoms: N_13  and  N_14 
REMARK       I    between atoms: N_14  and  C_15 
REMARK       I    between atoms: C_15  and  N_17 
REMARK    4  A    between atoms: N_17  and  C_18 
ROOT
ATOM      1  N   UNL d   1      21.852 -17.535  -0.741  0.00  0.00    -0.191 NA
ATOM      2  C   UNL d   1      22.999 -17.492  -0.587  0.00  0.00     0.100 C 
ATOM      3  C   UNL d   1      24.425 -17.427  -0.438  0.00  0.00     0.054 A 
ATOM      4  C   UNL d   1      24.949 -18.206   0.608  0.00  0.00     0.023 A 
ATOM      5  C   UNL d   1      26.319 -18.320   0.795  0.00  0.00     0.002 A 
ATOM      6  C   UNL d   1      27.180 -17.649  -0.066  0.00  0.00     0.001 A 
ATOM      7  C   UNL d   1      26.665 -16.831  -1.090  0.00  0.00     0.013 A 
ATOM      8  C   UNL d   1      25.270 -16.682  -1.295  0.00  0.00    -0.015 A 
ENDROOT
BRANCH   8   9
ATOM      9  C   UNL d   1      24.798 -15.769  -2.397  0.00  0.00     0.018 C 
ATOM     10  C   UNL d   1      25.392 -14.627  -2.811  0.00  0.00     0.076 C 
BRANCH  10  11
ATOM     11  C   UNL d   1      24.923 -13.709  -3.893  0.00  0.00     0.259 C 
ATOM     12  O   UNL d   1      23.756 -13.701  -4.270  0.00  0.00    -0.267 OA
ATOM     13  N   UNL d   1      25.915 -12.883  -4.419  0.00  0.00    -0.263 N 
ATOM     14  H   UNL d   1      26.891 -12.873  -4.114  0.00  0.00     0.190 HD
BRANCH  13  15
ATOM     15  N   UNL d   1      25.586 -11.985  -5.483  0.00  0.00    -0.249 N 
ATOM     16  C   UNL d   1      26.592 -11.454  -6.280  0.00  0.00     0.335 C 
ATOM     17  O   UNL d   1      27.779 -11.711  -6.089  0.00  0.00    -0.246 OA
ATOM     18  N   UNL d   1      26.144 -10.646  -7.320  0.00  0.00    -0.337 N 
ATOM     19  H   UNL d   1      25.171 -10.371  -7.361  0.00  0.00     0.164 HD
ATOM     20  H   UNL d   1      24.600 -11.774  -5.586  0.00  0.00     0.192 HD
BRANCH  18  21
ATOM     21  C   UNL d   1      27.058  -9.986  -8.229  0.00  0.00     0.086 A 
ATOM     22  C   UNL d   1      28.111 -10.788  -8.954  0.00  0.00     0.027 A 
ATOM     23  C   UNL d   1      26.978 -10.183  -9.728  0.00  0.00     0.027 A 
ENDBRANCH  18  21
ENDBRANCH  13  15
ENDBRANCH  10  11
ENDBRANCH   8   9
TORSDOF 4
ENDMDL
MODEL 6
REMARK VINA RESULT:    -6.596      4.308      9.009
REMARK INTER + INTRA:          -9.025
REMARK INTER:                  -7.789
REMARK INTRA:                  -1.236
REMARK CONF_INDEPENDENT:        1.193
REMARK UNBOUND:                -1.236
REMARK  4 active torsions:
REMARK  status: ('A' for Active; 'I' for Inactive)
REMARK    1  A    between atoms: C_8  and  C_9 
REMARK    2  A    between atoms: C_10  and  C_11 
REMARK       I    between atoms: C_11  and  N_13 
REMARK    3  A    between atoms: N_13  and  N_14 
REMARK       I    between atoms: N_14  and  C_15 
REMARK       I    between atoms: C_15  and  N_17 
REMARK    4  A    between atoms: N_17  and  C_18 
ROOT
ATOM      1  N   UNL d   1      22.122 -17.362  -0.715  0.00  0.00    -0.191 NA
ATOM      2  C   UNL d   1      23.264 -17.391  -0.526  0.00  0.00     0.100 C 
ATOM      3  C   UNL d   1      24.687 -17.415  -0.333  0.00  0.00     0.054 A 
ATOM      4  C   UNL d   1      25.126 -18.200   0.746  0.00  0.00     0.023 A 
ATOM      5  C   UNL d   1      26.479 -18.398   0.979  0.00  0.00     0.002 A 
ATOM      6  C   UNL d   1      27.408 -17.806   0.131  0.00  0.00     0.001 A 
ATOM      7  C   UNL d   1      26.979 -16.981  -0.927  0.00  0.00     0.013 A 
ATOM      8  C   UNL d   1      25.604 -16.747  -1.180  0.00  0.00    -0.015 A 
ENDROOT
BRANCH   8   9
ATOM      9  C   UNL d   1      25.227 -15.832  -2.316  0.00  0.00     0.018 C 
ATOM     10  C   UNL d   1      25.733 -14.605  -2.568  0.00  0.00     0.076 C 
BRANCH  10  11
ATOM     11  C   UNL d   1      25.354 -13.686  -3.685  0.00  0.00     0.259 C 
ATOM     12  O   UNL d   1      24.699 -14.075  -4.645  0.00  0.00    -0.267 OA
ATOM     13  N   UNL d   1      25.805 -12.375  -3.532  0.00  0.00    -0.263 N 
ATOM     14  H   UNL d   1      26.348 -12.032  -2.736  0.00  0.00     0.190 HD
BRANCH  13  15
ATOM     15  N   UNL d   1      25.527 -11.416  -4.556  0.00  0.00    -0.249 N 
ATOM     16  C   UNL d   1      25.757 -10.066  -4.324  0.00  0.00     0.335 C 
ATOM     17  O   UNL d   1      26.174  -9.652  -3.244  0.00  0.00    -0.246 OA
ATOM     18  N   UNL d   1      25.510  -9.239  -5.414  0.00  0.00    -0.337 N 
ATOM     19  H   UNL d   1      25.056  -9.613  -6.238  0.00  0.00     0.164 HD
ATOM     20  H   UNL d   1      25.155 -11.796  -5.419  0.00  0.00     0.192 HD
BRANCH  18  21
ATOM     21  C   UNL d   1      25.666  -7.801  -5.340  0.00  0.00     0.086 A 
ATOM     22  C   UNL d   1      24.696  -6.900  -6.064  0.00  0.00     0.027 A 
ATOM     23  C   UNL d   1      24.701  -6.930  -4.565  0.00  0.00     0.027 A 
ENDBRANCH  18  21
ENDBRANCH  13  15
ENDBRANCH  10  11
ENDBRANCH   8   9
TORSDOF 4
ENDMDL
MODEL 7
REMARK VINA RESULT:    -6.018      4.878      9.270
REMARK INTER + INTRA:          -8.288
REMARK INTER:                  -7.211
REMARK INTRA:                  -1.076
REMARK CONF_INDEPENDENT:        1.193
REMARK UNBOUND:                -1.076
REMARK  4 active torsions:
REMARK  status: ('A' for Active; 'I' for Inactive)
REMARK    1  A    between atoms: C_8  and  C_9 
REMARK    2  A    between atoms: C_10  and  C_11 
REMARK       I    between atoms: C_11  and  N_13 
REMARK    3  A    between atoms: N_13  and  N_14 
REMARK       I    between atoms: N_14  and  C_15 
REMARK       I    between atoms: C_15  and  N_17 
REMARK    4  A    between atoms: N_17  and  C_18 
ROOT
ATOM      1  N   UNL d   1      28.934 -15.687  -1.999  0.00  0.00    -0.191 NA
ATOM      2  C   UNL d   1      28.059 -16.256  -1.498  0.00  0.00     0.100 C 
ATOM      3  C   UNL d   1      26.947 -16.931  -0.890  0.00  0.00     0.054 A 
ATOM      4  C   UNL d   1      27.283 -17.802   0.160  0.00  0.00     0.023 A 
ATOM      5  C   UNL d   1      26.298 -18.434   0.905  0.00  0.00     0.002 A 
ATOM      6  C   UNL d   1      24.962 -18.200   0.602  0.00  0.00     0.001 A 
ATOM      7  C   UNL d   1      24.615 -17.363  -0.477  0.00  0.00     0.013 A 
ATOM      8  C   UNL d   1      25.599 -16.717  -1.267  0.00  0.00    -0.015 A 
ENDROOT
BRANCH   8   9
ATOM      9  C   UNL d   1      25.147 -15.857  -2.418  0.00  0.00     0.018 C 
ATOM     10  C   UNL d   1      25.540 -14.591  -2.685  0.00  0.00     0.076 C 
BRANCH  10  11
ATOM     11  C   UNL d   1      25.085 -13.726  -3.816  0.00  0.00     0.259 C 
ATOM     12  O   UNL d   1      23.949 -13.805  -4.270  0.00  0.00    -0.267 OA
ATOM     13  N   UNL d   1      26.053 -12.843  -4.292  0.00  0.00    -0.263 N 
ATOM     14  H   UNL d   1      27.003 -12.760  -3.923  0.00  0.00     0.190 HD
BRANCH  13  15
ATOM     15  N   UNL d   1      25.738 -11.989  -5.395  0.00  0.00    -0.249 N 
ATOM     16  C   UNL d   1      26.718 -11.660  -6.323  0.00  0.00     0.335 C 
ATOM     17  O   UNL d   1      27.875 -12.062  -6.218  0.00  0.00    -0.246 OA
ATOM     18  N   UNL d   1      26.276 -10.876  -7.383  0.00  0.00    -0.337 N 
ATOM     19  H   UNL d   1      25.348 -10.475  -7.359  0.00  0.00     0.164 HD
ATOM     20  H   UNL d   1      24.781 -11.653  -5.427  0.00  0.00     0.192 HD
BRANCH  18  21
ATOM     21  C   UNL d   1      27.171 -10.415  -8.423  0.00  0.00     0.086 A 
ATOM     22  C   UNL d   1      27.646 -11.373  -9.489  0.00  0.00     0.027 A 
ATOM     23  C   UNL d   1      26.717 -10.256  -9.859  0.00  0.00     0.027 A 
ENDBRANCH  18  21
ENDBRANCH  13  15
ENDBRANCH  10  11
ENDBRANCH   8   9
TORSDOF 4
ENDMDL
MODEL 8
REMARK VINA RESULT:    -5.912      4.400      8.980
REMARK INTER + INTRA:          -8.423
REMARK INTER:                  -7.106
REMARK INTRA:                  -1.317
REMARK CONF_INDEPENDENT:        1.193
REMARK UNBOUND:                -1.317
REMARK  4 active torsions:
REMARK  status: ('A' for Active; 'I' for Inactive)
REMARK    1  A    between atoms: C_8  and  C_9 
REMARK    2  A    between atoms: C_10  and  C_11 
REMARK       I    between atoms: C_11  and  N_13 
REMARK    3  A    between atoms: N_13  and  N_14 
REMARK       I    between atoms: N_14  and  C_15 
REMARK       I    between atoms: C_15  and  N_17 
REMARK    4  A    between atoms: N_17  and  C_18 
ROOT
ATOM      1  N   UNL d   1      28.259 -16.690  -0.493  0.00  0.00    -0.191 NA
ATOM      2  C   UNL d   1      27.131 -16.949  -0.502  0.00  0.00     0.100 C 
ATOM      3  C   UNL d   1      25.724 -17.232  -0.531  0.00  0.00     0.054 A 
ATOM      4  C   UNL d   1      25.294 -18.200   0.393  0.00  0.00     0.023 A 
ATOM      5  C   UNL d   1      23.946 -18.490   0.546  0.00  0.00     0.002 A 
ATOM      6  C   UNL d   1      23.013 -17.812  -0.230  0.00  0.00     0.001 A 
ATOM      7  C   UNL d   1      23.437 -16.872  -1.189  0.00  0.00     0.013 A 
ATOM      8  C   UNL d   1      24.808 -16.567  -1.380  0.00  0.00    -0.015 A 
ENDROOT
BRANCH   8   9
ATOM      9  C   UNL d   1      25.181 -15.567  -2.444  0.00  0.00     0.018 C 
ATOM     10  C   UNL d   1      25.729 -15.835  -3.650  0.00  0.00     0.076 C 
BRANCH  10  11
ATOM     11  C   UNL d   1      26.115 -14.848  -4.704  0.00  0.00     0.259 C 
ATOM     12  O   UNL d   1      26.664 -15.197  -5.743  0.00  0.00    -0.267 OA
ATOM     13  N   UNL d   1      25.798 -13.525  -4.399  0.00  0.00    -0.263 N 
ATOM     14  H   UNL d   1      25.337 -13.216  -3.540  0.00  0.00     0.190 HD
BRANCH  13  15
ATOM     15  N   UNL d   1      26.151 -12.491  -5.321  0.00  0.00    -0.249 N 
ATOM     16  C   UNL d   1      25.905 -11.161  -5.003  0.00  0.00     0.335 C 
ATOM     17  O   UNL d   1      25.364 -10.833  -3.949  0.00  0.00    -0.246 OA
ATOM     18  N   UNL d   1      26.350 -10.245  -5.950  0.00  0.00    -0.337 N 
ATOM     19  H   UNL d   1      26.679 -10.570  -6.849  0.00  0.00     0.164 HD
ATOM     20  H   UNL d   1      26.566 -12.806  -6.192  0.00  0.00     0.192 HD
BRANCH  18  21
ATOM     21  C   UNL d   1      26.148  -8.820  -5.795  0.00  0.00     0.086 A 
ATOM     22  C   UNL d   1      25.545  -8.017  -6.922  0.00  0.00     0.027 A 
ATOM     23  C   UNL d   1      24.766  -8.217  -5.657  0.00  0.00     0.027 A 
ENDBRANCH  18  21
ENDBRANCH  13  15
ENDBRANCH  10  11
ENDBRANCH   8   9
TORSDOF 4
ENDMDL
MODEL 9
REMARK VINA RESULT:    -5.888     12.133     14.074
REMARK INTER + INTRA:          -8.294
REMARK INTER:                  -7.082
REMARK INTRA:                  -1.212
REMARK CONF_INDEPENDENT:        1.193
REMARK UNBOUND:                -1.212
REMARK  4 active torsions:
REMARK  status: ('A' for Active; 'I' for Inactive)
REMARK    1  A    between atoms: C_8  and  C_9 
REMARK    2  A    between atoms: C_10  and  C_11 
REMARK       I    between atoms: C_11  and  N_13 
REMARK    3  A    between atoms: N_13  and  N_14 
REMARK       I    between atoms: N_14  and  C_15 
REMARK       I    between atoms: C_15  and  N_17 
REMARK    4  A    between atoms: N_17  and  C_18 
ROOT
ATOM      1  N   UNL d   1      35.485 -18.537   8.181  0.00  0.00    -0.191 NA
ATOM      2  C   UNL d   1      35.538 -19.685   8.317  0.00  0.00     0.100 C 
ATOM      3  C   UNL d   1      35.565 -21.112   8.470  0.00  0.00     0.054 A 
ATOM      4  C   UNL d   1      36.454 -21.588   9.447  0.00  0.00     0.023 A 
ATOM      5  C   UNL d   1      36.501 -22.936   9.773  0.00  0.00     0.002 A 
ATOM      6  C   UNL d   1      35.655 -23.823   9.117  0.00  0.00     0.001 A 
ATOM      7  C   UNL d   1      34.791 -23.362   8.105  0.00  0.00     0.013 A 
ATOM      8  C   UNL d   1      34.733 -21.994   7.739  0.00  0.00    -0.015 A 
ENDROOT
BRANCH   8   9
ATOM      9  C   UNL d   1      33.799 -21.585   6.629  0.00  0.00     0.018 C 
ATOM     10  C   UNL d   1      32.478 -21.857   6.543  0.00  0.00     0.076 C 
BRANCH  10  11
ATOM     11  C   UNL d   1      31.548 -21.468   5.439  0.00  0.00     0.259 C 
ATOM     12  O   UNL d   1      30.404 -21.089   5.664  0.00  0.00    -0.267 OA
ATOM     13  N   UNL d   1      32.095 -21.575   4.161  0.00  0.00    -0.263 N 
ATOM     14  H   UNL d   1      33.047 -21.885   3.954  0.00  0.00     0.190 HD
BRANCH  13  15
ATOM     15  N   UNL d   1      31.284 -21.259   3.025  0.00  0.00    -0.249 N 
ATOM     16  C   UNL d   1      31.752 -21.517   1.743  0.00  0.00     0.335 C 
ATOM     17  O   UNL d   1      32.868 -21.993   1.541  0.00  0.00    -0.246 OA
ATOM     18  N   UNL d   1      30.851 -21.226   0.725  0.00  0.00    -0.337 N 
ATOM     19  H   UNL d   1      29.997 -20.727   0.937  0.00  0.00     0.164 HD
ATOM     20  H   UNL d   1      30.385 -20.839   3.234  0.00  0.00     0.192 HD
BRANCH  18  21
ATOM     21  C   UNL d   1      31.185 -21.404  -0.672  0.00  0.00     0.086 A 
ATOM     22  C   UNL d   1      32.216 -22.431  -1.076  0.00  0.00     0.027 A 
ATOM     23  C   UNL d   1      30.777 -22.643  -1.442  0.00  0.00     0.027 A 
ENDBRANCH  18  21
ENDBRANCH  13  15
ENDBRANCH  10  11
ENDBRANCH   8   9
TORSDOF 4
ENDMDL
