MODEL 1
REMARK VINA RESULT:    -7.035      0.000      0.000
REMARK INTER + INTRA:         -14.477
REMARK INTER:                 -10.913
REMARK INTRA:                  -3.564
REMARK CONF_INDEPENDENT:        3.878
REMARK UNBOUND:                -3.564
REMARK  13 active torsions:
REMARK  status: ('A' for Active; 'I' for Inactive)
REMARK    1  A    between atoms: C_2  and  C_3 
REMARK    2  A    between atoms: C_3  and  C_4 
REMARK    3  A    between atoms: C_4  and  C_5 
REMARK    4  A    between atoms: C_5  and  C_6 
REMARK    5  A    between atoms: C_6  and  N_7 
REMARK       I    between atoms: N_7  and  C_8 
REMARK    6  A    between atoms: C_12  and  N_7 
REMARK    7  A    between atoms: C_8  and  C_10 
REMARK    8  A    between atoms: C_12  and  C_22 
REMARK    9  A    between atoms: C_12  and  C_13 
REMARK       I    between atoms: C_13  and  N_15 
REMARK   10  A    between atoms: N_15  and  C_16 
REMARK   11  A    between atoms: C_23  and  O_24 
REMARK   12  A    between atoms: C_26  and  O_27 
REMARK   13  A    between atoms: C_29  and  O_30 
ROOT
ATOM      1  C   UNL d   1      26.555 -15.066  -3.559  0.00  0.00     0.218 C 
ENDROOT
BRANCH   1   2
ATOM      2  C   UNL d   1      26.571 -13.510  -3.458  0.00  0.00     0.040 C 
ATOM      3  C   UNL d   1      27.716 -12.737  -3.177  0.00  0.00     0.080 C 
ATOM      4  C   UNL d   1      27.766 -11.364  -3.086  0.00  0.00     0.073 C 
ATOM      5  C   UNL d   1      26.678 -10.658  -3.515  0.00  0.00     0.071 C 
ATOM      6  C   UNL d   1      25.528 -11.327  -3.916  0.00  0.00     0.073 C 
ATOM      7  C   UNL d   1      25.462 -12.736  -3.851  0.00  0.00     0.080 C 
BRANCH   3   8
ATOM      8  O   UNL d   1      28.985 -13.221  -3.204  0.00  0.00    -0.360 OA
ATOM      9  H   UNL d   1      29.001 -13.626  -2.345  0.00  0.00     0.217 HD
ENDBRANCH   3   8
BRANCH   5  10
ATOM     10  O   UNL d   1      26.769  -9.306  -3.625  0.00  0.00    -0.361 OA
ATOM     11  H   UNL d   1      27.473  -9.011  -3.017  0.00  0.00     0.217 HD
ENDBRANCH   5  10
BRANCH   7  12
ATOM     12  O   UNL d   1      24.309 -13.352  -4.252  0.00  0.00    -0.360 OA
ATOM     13  H   UNL d   1      23.951 -12.895  -5.032  0.00  0.00     0.217 HD
ENDBRANCH   7  12
ENDBRANCH   1   2
BRANCH   1  14
ATOM     14  C   UNL d   1      27.683 -15.517  -4.561  0.00  0.00     0.245 C 
ATOM     15  O   UNL d   1      27.467 -15.574  -5.774  0.00  0.00    -0.271 OA
ATOM     16  N   UNL d   1      28.964 -15.725  -4.056  0.00  0.00    -0.354 N 
ATOM     17  H   UNL d   1      29.238 -15.528  -3.126  0.00  0.00     0.162 HD
BRANCH  16  18
ATOM     18  C   UNL d   1      30.128 -16.065  -4.855  0.00  0.00     0.084 C 
ATOM     19  C   UNL d   1      30.041 -17.552  -5.280  0.00  0.00     0.025 C 
ATOM     20  C   UNL d   1      31.176 -17.941  -6.224  0.00  0.00     0.002 C 
ATOM     21  C   UNL d   1      31.240 -17.007  -7.428  0.00  0.00     0.000 C 
ATOM     22  C   UNL d   1      31.353 -15.558  -6.986  0.00  0.00     0.002 C 
ATOM     23  C   UNL d   1      30.201 -15.169  -6.085  0.00  0.00     0.025 C 
ENDBRANCH  16  18
ENDBRANCH   1  14
BRANCH   1  24
ATOM     24  N   UNL d   1      26.518 -15.876  -2.245  0.00  0.00    -0.334 N 
ATOM     25  C   UNL d   1      27.562 -15.702  -1.323  0.00  0.00     0.220 C 
ATOM     26  O   UNL d   1      28.497 -14.907  -1.512  0.00  0.00    -0.273 OA
BRANCH  24  27
ATOM     27  C   UNL d   1      25.437 -16.827  -2.033  0.00  0.00     0.127 C 
BRANCH  27  28
ATOM     28  C   UNL d   1      24.180 -16.570  -1.290  0.00  0.00     0.020 C 
BRANCH  28  29
ATOM     29  C   UNL d   1      23.760 -17.710  -0.417  0.00  0.00     0.002 C 
BRANCH  29  30
ATOM     30  C   UNL d   1      22.251 -17.637  -0.505  0.00  0.00    -0.000 C 
BRANCH  30  31
ATOM     31  C   UNL d   1      21.706 -18.994  -0.822  0.00  0.00    -0.005 C 
ATOM     32  C   UNL d   1      20.200 -18.916  -0.843  0.00  0.00     0.005 C 
ENDBRANCH  30  31
ENDBRANCH  29  30
ENDBRANCH  28  29
ENDBRANCH  27  28
ENDBRANCH  24  27
BRANCH  25  33
ATOM     33  C   UNL d   1      27.534 -16.531  -0.052  0.00  0.00     0.098 C 
ATOM     34  C   UNL d   1      27.662 -18.017  -0.147  0.00  0.00     0.014 C 
ENDBRANCH  25  33
ENDBRANCH   1  24
TORSDOF 13
ENDMDL
MODEL 2
REMARK VINA RESULT:    -7.002      1.745      2.420
REMARK INTER + INTRA:         -14.405
REMARK INTER:                 -10.880
REMARK INTRA:                  -3.526
REMARK CONF_INDEPENDENT:        3.878
REMARK UNBOUND:                -3.526
REMARK  13 active torsions:
REMARK  status: ('A' for Active; 'I' for Inactive)
REMARK    1  A    between atoms: C_2  and  C_3 
REMARK    2  A    between atoms: C_3  and  C_4 
REMARK    3  A    between atoms: C_4  and  C_5 
REMARK    4  A    between atoms: C_5  and  C_6 
REMARK    5  A    between atoms: C_6  and  N_7 
REMARK       I    between atoms: N_7  and  C_8 
REMARK    6  A    between atoms: C_12  and  N_7 
REMARK    7  A    between atoms: C_8  and  C_10 
REMARK    8  A    between atoms: C_12  and  C_22 
REMARK    9  A    between atoms: C_12  and  C_13 
REMARK       I    between atoms: C_13  and  N_15 
REMARK   10  A    between atoms: N_15  and  C_16 
REMARK   11  A    between atoms: C_23  and  O_24 
REMARK   12  A    between atoms: C_26  and  O_27 
REMARK   13  A    between atoms: C_29  and  O_30 
ROOT
ATOM      1  C   UNL d   1      25.421 -14.859  -2.340  0.00  0.00     0.218 C 
ENDROOT
BRANCH   1   2
ATOM      2  C   UNL d   1      26.096 -13.585  -1.744  0.00  0.00     0.040 C 
ATOM      3  C   UNL d   1      26.755 -13.537  -0.499  0.00  0.00     0.080 C 
ATOM      4  C   UNL d   1      27.366 -12.433   0.054  0.00  0.00     0.073 C 
ATOM      5  C   UNL d   1      27.550 -11.342  -0.746  0.00  0.00     0.071 C 
ATOM      6  C   UNL d   1      27.029 -11.326  -2.034  0.00  0.00     0.073 C 
ATOM      7  C   UNL d   1      26.276 -12.420  -2.513  0.00  0.00     0.080 C 
BRANCH   3   8
ATOM      8  O   UNL d   1      27.103 -14.636   0.221  0.00  0.00    -0.360 OA
ATOM      9  H   UNL d   1      27.652 -15.062  -0.427  0.00  0.00     0.217 HD
ENDBRANCH   3   8
BRANCH   5  10
ATOM     10  O   UNL d   1      28.321 -10.316  -0.296  0.00  0.00    -0.361 OA
ATOM     11  H   UNL d   1      28.428  -9.686  -1.034  0.00  0.00     0.217 HD
ENDBRANCH   5  10
BRANCH   7  12
ATOM     12  O   UNL d   1      25.779 -12.361  -3.785  0.00  0.00    -0.360 OA
ATOM     13  H   UNL d   1      25.113 -13.060  -3.906  0.00  0.00     0.217 HD
ENDBRANCH   7  12
ENDBRANCH   1   2
BRANCH   1  14
ATOM     14  C   UNL d   1      25.939 -15.060  -3.813  0.00  0.00     0.245 C 
ATOM     15  O   UNL d   1      25.155 -15.068  -4.765  0.00  0.00    -0.271 OA
ATOM     16  N   UNL d   1      27.315 -15.099  -4.025  0.00  0.00    -0.354 N 
ATOM     17  H   UNL d   1      27.994 -14.924  -3.327  0.00  0.00     0.162 HD
BRANCH  16  18
ATOM     18  C   UNL d   1      27.955 -15.199  -5.325  0.00  0.00     0.084 C 
ATOM     19  C   UNL d   1      28.146 -13.779  -5.914  0.00  0.00     0.025 C 
ATOM     20  C   UNL d   1      28.922 -13.808  -7.227  0.00  0.00     0.002 C 
ATOM     21  C   UNL d   1      30.250 -14.543  -7.070  0.00  0.00     0.000 C 
ATOM     22  C   UNL d   1      30.034 -15.942  -6.518  0.00  0.00     0.002 C 
ATOM     23  C   UNL d   1      29.301 -15.901  -5.195  0.00  0.00     0.025 C 
ENDBRANCH  16  18
ENDBRANCH   1  14
BRANCH   1  24
ATOM     24  N   UNL d   1      25.425 -16.147  -1.488  0.00  0.00    -0.334 N 
ATOM     25  C   UNL d   1      26.640 -16.830  -1.317  0.00  0.00     0.220 C 
ATOM     26  O   UNL d   1      27.709 -16.427  -1.802  0.00  0.00    -0.273 OA
BRANCH  24  27
ATOM     27  C   UNL d   1      24.169 -16.635  -0.941  0.00  0.00     0.127 C 
BRANCH  27  28
ATOM     28  C   UNL d   1      23.538 -17.944  -1.234  0.00  0.00     0.020 C 
BRANCH  28  29
ATOM     29  C   UNL d   1      22.680 -18.455  -0.120  0.00  0.00     0.002 C 
BRANCH  29  30
ATOM     30  C   UNL d   1      21.333 -18.596  -0.795  0.00  0.00    -0.000 C 
BRANCH  30  31
ATOM     31  C   UNL d   1      20.567 -19.708  -0.151  0.00  0.00    -0.005 C 
ATOM     32  C   UNL d   1      19.157 -19.696  -0.684  0.00  0.00     0.005 C 
ENDBRANCH  30  31
ENDBRANCH  29  30
ENDBRANCH  28  29
ENDBRANCH  27  28
ENDBRANCH  24  27
BRANCH  25  33
ATOM     33  C   UNL d   1      26.625 -18.115  -0.509  0.00  0.00     0.098 C 
ATOM     34  C   UNL d   1      26.733 -18.042   0.980  0.00  0.00     0.014 C 
ENDBRANCH  25  33
ENDBRANCH   1  24
TORSDOF 13
ENDMDL
MODEL 3
REMARK VINA RESULT:    -6.816      2.392      5.804
REMARK INTER + INTRA:         -14.331
REMARK INTER:                 -10.693
REMARK INTRA:                  -3.638
REMARK CONF_INDEPENDENT:        3.878
REMARK UNBOUND:                -3.638
REMARK  13 active torsions:
REMARK  status: ('A' for Active; 'I' for Inactive)
REMARK    1  A    between atoms: C_2  and  C_3 
REMARK    2  A    between atoms: C_3  and  C_4 
REMARK    3  A    between atoms: C_4  and  C_5 
REMARK    4  A    between atoms: C_5  and  C_6 
REMARK    5  A    between atoms: C_6  and  N_7 
REMARK       I    between atoms: N_7  and  C_8 
REMARK    6  A    between atoms: C_12  and  N_7 
REMARK    7  A    between atoms: C_8  and  C_10 
REMARK    8  A    between atoms: C_12  and  C_22 
REMARK    9  A    between atoms: C_12  and  C_13 
REMARK       I    between atoms: C_13  and  N_15 
REMARK   10  A    between atoms: N_15  and  C_16 
REMARK   11  A    between atoms: C_23  and  O_24 
REMARK   12  A    between atoms: C_26  and  O_27 
REMARK   13  A    between atoms: C_29  and  O_30 
ROOT
ATOM      1  C   UNL d   1      26.658 -13.759  -2.758  0.00  0.00     0.218 C 
ENDROOT
BRANCH   1   2
ATOM      2  C   UNL d   1      27.256 -13.539  -4.181  0.00  0.00     0.040 C 
ATOM      3  C   UNL d   1      28.000 -14.501  -4.895  0.00  0.00     0.080 C 
ATOM      4  C   UNL d   1      28.537 -14.342  -6.153  0.00  0.00     0.073 C 
ATOM      5  C   UNL d   1      28.146 -13.253  -6.878  0.00  0.00     0.071 C 
ATOM      6  C   UNL d   1      27.324 -12.291  -6.303  0.00  0.00     0.073 C 
ATOM      7  C   UNL d   1      26.917 -12.414  -4.956  0.00  0.00     0.080 C 
BRANCH   3   8
ATOM      8  O   UNL d   1      28.078 -15.813  -4.548  0.00  0.00    -0.360 OA
ATOM      9  H   UNL d   1      27.282 -15.870  -4.033  0.00  0.00     0.217 HD
ENDBRANCH   3   8
BRANCH   5  10
ATOM     10  O   UNL d   1      28.499 -13.170  -8.189  0.00  0.00    -0.361 OA
ATOM     11  H   UNL d   1      28.613 -14.081  -8.518  0.00  0.00     0.217 HD
ENDBRANCH   5  10
BRANCH   7  12
ATOM     12  O   UNL d   1      26.112 -11.442  -4.429  0.00  0.00    -0.360 OA
ATOM     13  H   UNL d   1      25.181 -11.647  -4.630  0.00  0.00     0.217 HD
ENDBRANCH   7  12
ENDBRANCH   1   2
BRANCH   1  14
ATOM     14  C   UNL d   1      25.586 -14.911  -2.835  0.00  0.00     0.245 C 
ATOM     15  O   UNL d   1      25.156 -15.304  -3.922  0.00  0.00    -0.271 OA
ATOM     16  N   UNL d   1      25.234 -15.559  -1.654  0.00  0.00    -0.354 N 
ATOM     17  H   UNL d   1      25.671 -15.406  -0.780  0.00  0.00     0.162 HD
BRANCH  16  18
ATOM     18  C   UNL d   1      24.325 -16.687  -1.564  0.00  0.00     0.084 C 
ATOM     19  C   UNL d   1      24.984 -17.813  -0.729  0.00  0.00     0.025 C 
ATOM     20  C   UNL d   1      24.031 -18.981  -0.496  0.00  0.00     0.002 C 
ATOM     21  C   UNL d   1      22.719 -18.511   0.122  0.00  0.00     0.000 C 
ATOM     22  C   UNL d   1      22.076 -17.427  -0.728  0.00  0.00     0.002 C 
ATOM     23  C   UNL d   1      23.013 -16.254  -0.920  0.00  0.00     0.025 C 
ENDBRANCH  16  18
ENDBRANCH   1  14
BRANCH   1  24
ATOM     24  N   UNL d   1      27.639 -13.889  -1.572  0.00  0.00    -0.334 N 
ATOM     25  C   UNL d   1      28.224 -15.140  -1.323  0.00  0.00     0.220 C 
ATOM     26  O   UNL d   1      28.003 -16.136  -2.031  0.00  0.00    -0.273 OA
BRANCH  24  27
ATOM     27  C   UNL d   1      27.879 -12.729  -0.727  0.00  0.00     0.127 C 
BRANCH  27  28
ATOM     28  C   UNL d   1      27.025 -12.275   0.396  0.00  0.00     0.020 C 
BRANCH  28  29
ATOM     29  C   UNL d   1      26.575 -13.387   1.292  0.00  0.00     0.002 C 
BRANCH  29  30
ATOM     30  C   UNL d   1      27.337 -13.096   2.566  0.00  0.00    -0.000 C 
BRANCH  30  31
ATOM     31  C   UNL d   1      27.980 -14.354   3.059  0.00  0.00    -0.005 C 
ATOM     32  C   UNL d   1      27.776 -14.449   4.550  0.00  0.00     0.005 C 
ENDBRANCH  30  31
ENDBRANCH  29  30
ENDBRANCH  28  29
ENDBRANCH  27  28
ENDBRANCH  24  27
BRANCH  25  33
ATOM     33  C   UNL d   1      29.157 -15.264  -0.133  0.00  0.00     0.098 C 
ATOM     34  C   UNL d   1      29.809 -16.579   0.150  0.00  0.00     0.014 C 
ENDBRANCH  25  33
ENDBRANCH   1  24
TORSDOF 13
ENDMDL
MODEL 4
REMARK VINA RESULT:    -6.594      1.559      5.841
REMARK INTER + INTRA:         -14.259
REMARK INTER:                 -10.472
REMARK INTRA:                  -3.787
REMARK CONF_INDEPENDENT:        3.878
REMARK UNBOUND:                -3.787
REMARK  13 active torsions:
REMARK  status: ('A' for Active; 'I' for Inactive)
REMARK    1  A    between atoms: C_2  and  C_3 
REMARK    2  A    between atoms: C_3  and  C_4 
REMARK    3  A    between atoms: C_4  and  C_5 
REMARK    4  A    between atoms: C_5  and  C_6 
REMARK    5  A    between atoms: C_6  and  N_7 
REMARK       I    between atoms: N_7  and  C_8 
REMARK    6  A    between atoms: C_12  and  N_7 
REMARK    7  A    between atoms: C_8  and  C_10 
REMARK    8  A    between atoms: C_12  and  C_22 
REMARK    9  A    between atoms: C_12  and  C_13 
REMARK       I    between atoms: C_13  and  N_15 
REMARK   10  A    between atoms: N_15  and  C_16 
REMARK   11  A    between atoms: C_23  and  O_24 
REMARK   12  A    between atoms: C_26  and  O_27 
REMARK   13  A    between atoms: C_29  and  O_30 
ROOT
ATOM      1  C   UNL d   1      27.371 -14.806  -2.528  0.00  0.00     0.218 C 
ENDROOT
BRANCH   1   2
ATOM      2  C   UNL d   1      26.912 -13.494  -3.235  0.00  0.00     0.040 C 
ATOM      3  C   UNL d   1      25.965 -13.436  -4.278  0.00  0.00     0.080 C 
ATOM      4  C   UNL d   1      25.533 -12.296  -4.919  0.00  0.00     0.073 C 
ATOM      5  C   UNL d   1      25.872 -11.091  -4.371  0.00  0.00     0.071 C 
ATOM      6  C   UNL d   1      26.720 -11.040  -3.272  0.00  0.00     0.073 C 
ATOM      7  C   UNL d   1      27.265 -12.226  -2.735  0.00  0.00     0.080 C 
BRANCH   3   8
ATOM      8  O   UNL d   1      25.155 -14.469  -4.629  0.00  0.00    -0.360 OA
ATOM      9  H   UNL d   1      25.722 -15.186  -4.372  0.00  0.00     0.217 HD
ENDBRANCH   3   8
BRANCH   5  10
ATOM     10  O   UNL d   1      25.301  -9.959  -4.862  0.00  0.00    -0.361 OA
ATOM     11  H   UNL d   1      24.594 -10.231  -5.476  0.00  0.00     0.217 HD
ENDBRANCH   5  10
BRANCH   7  12
ATOM     12  O   UNL d   1      28.098 -12.129  -1.655  0.00  0.00    -0.360 OA
ATOM     13  H   UNL d   1      27.672 -11.594  -0.963  0.00  0.00     0.217 HD
ENDBRANCH   7  12
ENDBRANCH   1   2
BRANCH   1  14
ATOM     14  C   UNL d   1      26.099 -15.679  -2.212  0.00  0.00     0.245 C 
ATOM     15  O   UNL d   1      25.561 -16.356  -3.091  0.00  0.00    -0.271 OA
ATOM     16  N   UNL d   1      25.676 -15.767  -0.888  0.00  0.00    -0.354 N 
ATOM     17  H   UNL d   1      26.167 -15.388  -0.118  0.00  0.00     0.162 HD
BRANCH  16  18
ATOM     18  C   UNL d   1      24.574 -16.588  -0.420  0.00  0.00     0.084 C 
ATOM     19  C   UNL d   1      23.309 -16.276  -1.258  0.00  0.00     0.025 C 
ATOM     20  C   UNL d   1      22.145 -17.194  -0.894  0.00  0.00     0.002 C 
ATOM     21  C   UNL d   1      22.545 -18.662  -0.993  0.00  0.00     0.000 C 
ATOM     22  C   UNL d   1      23.770 -18.950  -0.141  0.00  0.00     0.002 C 
ATOM     23  C   UNL d   1      24.932 -18.065  -0.537  0.00  0.00     0.025 C 
ENDBRANCH  16  18
ENDBRANCH   1  14
BRANCH   1  24
ATOM     24  N   UNL d   1      28.539 -15.597  -3.158  0.00  0.00    -0.334 N 
ATOM     25  C   UNL d   1      28.477 -15.904  -4.526  0.00  0.00     0.220 C 
ATOM     26  O   UNL d   1      27.535 -15.545  -5.251  0.00  0.00    -0.273 OA
BRANCH  24  27
ATOM     27  C   UNL d   1      29.630 -16.041  -2.304  0.00  0.00     0.127 C 
BRANCH  27  28
ATOM     28  C   UNL d   1      29.524 -17.001  -1.179  0.00  0.00     0.020 C 
BRANCH  28  29
ATOM     29  C   UNL d   1      28.645 -16.522  -0.067  0.00  0.00     0.002 C 
BRANCH  29  30
ATOM     30  C   UNL d   1      29.230 -15.160   0.237  0.00  0.00    -0.000 C 
BRANCH  30  31
ATOM     31  C   UNL d   1      28.156 -14.267   0.773  0.00  0.00    -0.005 C 
ATOM     32  C   UNL d   1      27.782 -14.737   2.155  0.00  0.00     0.005 C 
ENDBRANCH  30  31
ENDBRANCH  29  30
ENDBRANCH  28  29
ENDBRANCH  27  28
ENDBRANCH  24  27
BRANCH  25  33
ATOM     33  C   UNL d   1      29.612 -16.713  -5.125  0.00  0.00     0.098 C 
ATOM     34  C   UNL d   1      30.583 -16.042  -6.041  0.00  0.00     0.014 C 
ENDBRANCH  25  33
ENDBRANCH   1  24
TORSDOF 13
ENDMDL
MODEL 5
REMARK VINA RESULT:    -6.272      3.068      7.505
REMARK INTER + INTRA:         -13.915
REMARK INTER:                 -10.150
REMARK INTRA:                  -3.765
REMARK CONF_INDEPENDENT:        3.878
REMARK UNBOUND:                -3.765
REMARK  13 active torsions:
REMARK  status: ('A' for Active; 'I' for Inactive)
REMARK    1  A    between atoms: C_2  and  C_3 
REMARK    2  A    between atoms: C_3  and  C_4 
REMARK    3  A    between atoms: C_4  and  C_5 
REMARK    4  A    between atoms: C_5  and  C_6 
REMARK    5  A    between atoms: C_6  and  N_7 
REMARK       I    between atoms: N_7  and  C_8 
REMARK    6  A    between atoms: C_12  and  N_7 
REMARK    7  A    between atoms: C_8  and  C_10 
REMARK    8  A    between atoms: C_12  and  C_22 
REMARK    9  A    between atoms: C_12  and  C_13 
REMARK       I    between atoms: C_13  and  N_15 
REMARK   10  A    between atoms: N_15  and  C_16 
REMARK   11  A    between atoms: C_23  and  O_24 
REMARK   12  A    between atoms: C_26  and  O_27 
REMARK   13  A    between atoms: C_29  and  O_30 
ROOT
ATOM      1  C   UNL d   1      25.643 -15.455  -1.100  0.00  0.00     0.218 C 
ENDROOT
BRANCH   1   2
ATOM      2  C   UNL d   1      24.602 -16.569  -0.771  0.00  0.00     0.040 C 
ATOM      3  C   UNL d   1      23.206 -16.425  -0.906  0.00  0.00     0.080 C 
ATOM      4  C   UNL d   1      22.261 -17.388  -0.629  0.00  0.00     0.073 C 
ATOM      5  C   UNL d   1      22.698 -18.664  -0.415  0.00  0.00     0.071 C 
ATOM      6  C   UNL d   1      24.059 -18.936  -0.367  0.00  0.00     0.073 C 
ATOM      7  C   UNL d   1      25.001 -17.893  -0.504  0.00  0.00     0.080 C 
BRANCH   3   8
ATOM      8  O   UNL d   1      22.607 -15.401  -1.567  0.00  0.00    -0.360 OA
ATOM      9  H   UNL d   1      23.291 -15.223  -2.202  0.00  0.00     0.217 HD
ENDBRANCH   3   8
BRANCH   5  10
ATOM     10  O   UNL d   1      21.786 -19.670  -0.337  0.00  0.00    -0.361 OA
ATOM     11  H   UNL d   1      22.168 -20.367   0.229  0.00  0.00     0.217 HD
ENDBRANCH   5  10
BRANCH   7  12
ATOM     12  O   UNL d   1      26.331 -18.204  -0.447  0.00  0.00    -0.360 OA
ATOM     13  H   UNL d   1      26.688 -17.944   0.420  0.00  0.00     0.217 HD
ENDBRANCH   7  12
ENDBRANCH   1   2
BRANCH   1  14
ATOM     14  C   UNL d   1      26.540 -15.214   0.172  0.00  0.00     0.245 C 
ATOM     15  O   UNL d   1      27.005 -16.162   0.809  0.00  0.00    -0.271 OA
ATOM     16  N   UNL d   1      26.899 -13.904   0.482  0.00  0.00    -0.354 N 
ATOM     17  H   UNL d   1      26.701 -13.120  -0.087  0.00  0.00     0.162 HD
BRANCH  16  18
ATOM     18  C   UNL d   1      27.780 -13.518   1.570  0.00  0.00     0.084 C 
ATOM     19  C   UNL d   1      27.030 -13.669   2.917  0.00  0.00     0.025 C 
ATOM     20  C   UNL d   1      27.941 -13.394   4.109  0.00  0.00     0.002 C 
ATOM     21  C   UNL d   1      29.197 -14.257   4.058  0.00  0.00     0.000 C 
ATOM     22  C   UNL d   1      29.931 -14.072   2.741  0.00  0.00     0.002 C 
ATOM     23  C   UNL d   1      29.032 -14.387   1.564  0.00  0.00     0.025 C 
ENDBRANCH  16  18
ENDBRANCH   1  14
BRANCH   1  24
ATOM     24  N   UNL d   1      26.438 -15.574  -2.419  0.00  0.00    -0.334 N 
ATOM     25  C   UNL d   1      25.870 -15.048  -3.590  0.00  0.00     0.220 C 
ATOM     26  O   UNL d   1      24.770 -14.473  -3.602  0.00  0.00    -0.273 OA
BRANCH  24  27
ATOM     27  C   UNL d   1      27.715 -16.271  -2.411  0.00  0.00     0.127 C 
BRANCH  27  28
ATOM     28  C   UNL d   1      29.055 -15.640  -2.469  0.00  0.00     0.020 C 
BRANCH  28  29
ATOM     29  C   UNL d   1      29.848 -15.806  -1.210  0.00  0.00     0.002 C 
BRANCH  29  30
ATOM     30  C   UNL d   1      29.477 -17.210  -0.785  0.00  0.00    -0.000 C 
BRANCH  30  31
ATOM     31  C   UNL d   1      30.630 -18.128  -1.043  0.00  0.00    -0.005 C 
ATOM     32  C   UNL d   1      31.707 -17.847  -0.027  0.00  0.00     0.005 C 
ENDBRANCH  30  31
ENDBRANCH  29  30
ENDBRANCH  28  29
ENDBRANCH  27  28
ENDBRANCH  24  27
BRANCH  25  33
ATOM     33  C   UNL d   1      26.644 -15.204  -4.886  0.00  0.00     0.098 C 
ATOM     34  C   UNL d   1      27.520 -14.086  -5.352  0.00  0.00     0.014 C 
ENDBRANCH  25  33
ENDBRANCH   1  24
TORSDOF 13
ENDMDL
MODEL 6
REMARK VINA RESULT:    -6.088      2.331      5.510
REMARK INTER + INTRA:         -13.816
REMARK INTER:                  -9.966
REMARK INTRA:                  -3.850
REMARK CONF_INDEPENDENT:        3.878
REMARK UNBOUND:                -3.850
REMARK  13 active torsions:
REMARK  status: ('A' for Active; 'I' for Inactive)
REMARK    1  A    between atoms: C_2  and  C_3 
REMARK    2  A    between atoms: C_3  and  C_4 
REMARK    3  A    between atoms: C_4  and  C_5 
REMARK    4  A    between atoms: C_5  and  C_6 
REMARK    5  A    between atoms: C_6  and  N_7 
REMARK       I    between atoms: N_7  and  C_8 
REMARK    6  A    between atoms: C_12  and  N_7 
REMARK    7  A    between atoms: C_8  and  C_10 
REMARK    8  A    between atoms: C_12  and  C_22 
REMARK    9  A    between atoms: C_12  and  C_13 
REMARK       I    between atoms: C_13  and  N_15 
REMARK   10  A    between atoms: N_15  and  C_16 
REMARK   11  A    between atoms: C_23  and  O_24 
REMARK   12  A    between atoms: C_26  and  O_27 
REMARK   13  A    between atoms: C_29  and  O_30 
ROOT
ATOM      1  C   UNL d   1      26.487 -13.812  -2.611  0.00  0.00     0.218 C 
ENDROOT
BRANCH   1   2
ATOM      2  C   UNL d   1      26.887 -13.278  -4.020  0.00  0.00     0.040 C 
ATOM      3  C   UNL d   1      27.566 -14.032  -4.999  0.00  0.00     0.080 C 
ATOM      4  C   UNL d   1      27.930 -13.594  -6.253  0.00  0.00     0.073 C 
ATOM      5  C   UNL d   1      27.409 -12.409  -6.688  0.00  0.00     0.071 C 
ATOM      6  C   UNL d   1      26.635 -11.633  -5.834  0.00  0.00     0.073 C 
ATOM      7  C   UNL d   1      26.410 -12.044  -4.503  0.00  0.00     0.080 C 
BRANCH   3   8
ATOM      8  O   UNL d   1      27.736 -15.379  -4.939  0.00  0.00    -0.360 OA
ATOM      9  H   UNL d   1      26.822 -15.636  -4.931  0.00  0.00     0.217 HD
ENDBRANCH   3   8
BRANCH   5  10
ATOM     10  O   UNL d   1      27.587 -12.046  -7.987  0.00  0.00    -0.361 OA
ATOM     11  H   UNL d   1      28.221 -11.305  -7.998  0.00  0.00     0.217 HD
ENDBRANCH   5  10
BRANCH   7  12
ATOM     12  O   UNL d   1      25.645 -11.248  -3.696  0.00  0.00    -0.360 OA
ATOM     13  H   UNL d   1      24.855 -10.955  -4.183  0.00  0.00     0.217 HD
ENDBRANCH   7  12
ENDBRANCH   1   2
BRANCH   1  14
ATOM     14  C   UNL d   1      25.472 -15.002  -2.794  0.00  0.00     0.245 C 
ATOM     15  O   UNL d   1      25.314 -15.537  -3.893  0.00  0.00    -0.271 OA
ATOM     16  N   UNL d   1      24.854 -15.518  -1.657  0.00  0.00    -0.354 N 
ATOM     17  H   UNL d   1      25.070 -15.246  -0.731  0.00  0.00     0.162 HD
BRANCH  16  18
ATOM     18  C   UNL d   1      23.956 -16.659  -1.643  0.00  0.00     0.084 C 
ATOM     19  C   UNL d   1      24.682 -17.875  -1.014  0.00  0.00     0.025 C 
ATOM     20  C   UNL d   1      23.752 -19.075  -0.860  0.00  0.00     0.002 C 
ATOM     21  C   UNL d   1      22.491 -18.704  -0.088  0.00  0.00     0.000 C 
ATOM     22  C   UNL d   1      21.781 -17.528  -0.739  0.00  0.00     0.002 C 
ATOM     23  C   UNL d   1      22.698 -16.329  -0.850  0.00  0.00     0.025 C 
ENDBRANCH  16  18
ENDBRANCH   1  14
BRANCH   1  24
ATOM     24  N   UNL d   1      27.616 -14.095  -1.596  0.00  0.00    -0.334 N 
ATOM     25  C   UNL d   1      27.336 -13.949  -0.228  0.00  0.00     0.220 C 
ATOM     26  O   UNL d   1      26.216 -13.626   0.196  0.00  0.00    -0.273 OA
BRANCH  24  27
ATOM     27  C   UNL d   1      28.936 -14.449  -2.092  0.00  0.00     0.127 C 
BRANCH  27  28
ATOM     28  C   UNL d   1      29.405 -15.814  -2.432  0.00  0.00     0.020 C 
BRANCH  28  29
ATOM     29  C   UNL d   1      29.467 -16.735  -1.253  0.00  0.00     0.002 C 
BRANCH  29  30
ATOM     30  C   UNL d   1      28.021 -17.158  -1.106  0.00  0.00    -0.000 C 
BRANCH  30  31
ATOM     31  C   UNL d   1      27.673 -17.239   0.347  0.00  0.00    -0.005 C 
ATOM     32  C   UNL d   1      27.029 -18.575   0.615  0.00  0.00     0.005 C 
ENDBRANCH  30  31
ENDBRANCH  29  30
ENDBRANCH  28  29
ENDBRANCH  27  28
ENDBRANCH  24  27
BRANCH  25  33
ATOM     33  C   UNL d   1      28.464 -14.195   0.758  0.00  0.00     0.098 C 
ATOM     34  C   UNL d   1      28.196 -14.061   2.222  0.00  0.00     0.014 C 
ENDBRANCH  25  33
ENDBRANCH   1  24
TORSDOF 13
ENDMDL
MODEL 7
REMARK VINA RESULT:    -6.040      2.955      7.494
REMARK INTER + INTRA:         -13.960
REMARK INTER:                  -9.918
REMARK INTRA:                  -4.042
REMARK CONF_INDEPENDENT:        3.878
REMARK UNBOUND:                -4.042
REMARK  13 active torsions:
REMARK  status: ('A' for Active; 'I' for Inactive)
REMARK    1  A    between atoms: C_2  and  C_3 
REMARK    2  A    between atoms: C_3  and  C_4 
REMARK    3  A    between atoms: C_4  and  C_5 
REMARK    4  A    between atoms: C_5  and  C_6 
REMARK    5  A    between atoms: C_6  and  N_7 
REMARK       I    between atoms: N_7  and  C_8 
REMARK    6  A    between atoms: C_12  and  N_7 
REMARK    7  A    between atoms: C_8  and  C_10 
REMARK    8  A    between atoms: C_12  and  C_22 
REMARK    9  A    between atoms: C_12  and  C_13 
REMARK       I    between atoms: C_13  and  N_15 
REMARK   10  A    between atoms: N_15  and  C_16 
REMARK   11  A    between atoms: C_23  and  O_24 
REMARK   12  A    between atoms: C_26  and  O_27 
REMARK   13  A    between atoms: C_29  and  O_30 
ROOT
ATOM      1  C   UNL d   1      25.591 -15.463  -1.032  0.00  0.00     0.218 C 
ENDROOT
BRANCH   1   2
ATOM      2  C   UNL d   1      24.558 -16.580  -0.691  0.00  0.00     0.040 C 
ATOM      3  C   UNL d   1      23.160 -16.441  -0.807  0.00  0.00     0.080 C 
ATOM      4  C   UNL d   1      22.221 -17.407  -0.520  0.00  0.00     0.073 C 
ATOM      5  C   UNL d   1      22.665 -18.682  -0.313  0.00  0.00     0.071 C 
ATOM      6  C   UNL d   1      24.028 -18.950  -0.283  0.00  0.00     0.073 C 
ATOM      7  C   UNL d   1      24.964 -17.904  -0.431  0.00  0.00     0.080 C 
BRANCH   3   8
ATOM      8  O   UNL d   1      22.549 -15.418  -1.460  0.00  0.00    -0.360 OA
ATOM      9  H   UNL d   1      23.224 -15.238  -2.105  0.00  0.00     0.217 HD
ENDBRANCH   3   8
BRANCH   5  10
ATOM     10  O   UNL d   1      21.757 -19.691  -0.225  0.00  0.00    -0.361 OA
ATOM     11  H   UNL d   1      21.941 -20.177   0.601  0.00  0.00     0.217 HD
ENDBRANCH   5  10
BRANCH   7  12
ATOM     12  O   UNL d   1      26.296 -18.211  -0.392  0.00  0.00    -0.360 OA
ATOM     13  H   UNL d   1      26.604 -18.200   0.532  0.00  0.00     0.217 HD
ENDBRANCH   7  12
ENDBRANCH   1   2
BRANCH   1  14
ATOM     14  C   UNL d   1      26.506 -15.222   0.228  0.00  0.00     0.245 C 
ATOM     15  O   UNL d   1      26.986 -16.170   0.853  0.00  0.00    -0.271 OA
ATOM     16  N   UNL d   1      26.860 -13.912   0.539  0.00  0.00    -0.354 N 
ATOM     17  H   UNL d   1      26.649 -13.126  -0.023  0.00  0.00     0.162 HD
BRANCH  16  18
ATOM     18  C   UNL d   1      27.755 -13.526   1.616  0.00  0.00     0.084 C 
ATOM     19  C   UNL d   1      27.030 -13.700   2.973  0.00  0.00     0.025 C 
ATOM     20  C   UNL d   1      27.958 -13.425   4.153  0.00  0.00     0.002 C 
ATOM     21  C   UNL d   1      29.223 -14.272   4.072  0.00  0.00     0.000 C 
ATOM     22  C   UNL d   1      29.932 -14.063   2.744  0.00  0.00     0.002 C 
ATOM     23  C   UNL d   1      29.017 -14.379   1.580  0.00  0.00     0.025 C 
ENDBRANCH  16  18
ENDBRANCH   1  14
BRANCH   1  24
ATOM     24  N   UNL d   1      26.367 -15.577  -2.362  0.00  0.00    -0.334 N 
ATOM     25  C   UNL d   1      25.782 -15.050  -3.524  0.00  0.00     0.220 C 
ATOM     26  O   UNL d   1      24.680 -14.478  -3.519  0.00  0.00    -0.273 OA
BRANCH  24  27
ATOM     27  C   UNL d   1      27.646 -16.270  -2.375  0.00  0.00     0.127 C 
BRANCH  27  28
ATOM     28  C   UNL d   1      28.970 -15.665  -2.094  0.00  0.00     0.020 C 
BRANCH  28  29
ATOM     29  C   UNL d   1      29.204 -14.376  -2.818  0.00  0.00     0.002 C 
BRANCH  29  30
ATOM     30  C   UNL d   1      28.709 -13.355  -1.816  0.00  0.00    -0.000 C 
BRANCH  30  31
ATOM     31  C   UNL d   1      28.173 -12.164  -2.545  0.00  0.00    -0.005 C 
ATOM     32  C   UNL d   1      26.676 -12.121  -2.365  0.00  0.00     0.005 C 
ENDBRANCH  30  31
ENDBRANCH  29  30
ENDBRANCH  28  29
ENDBRANCH  27  28
ENDBRANCH  24  27
BRANCH  25  33
ATOM     33  C   UNL d   1      26.537 -15.200  -4.832  0.00  0.00     0.098 C 
ATOM     34  C   UNL d   1      27.177 -13.998  -5.448  0.00  0.00     0.014 C 
ENDBRANCH  25  33
ENDBRANCH   1  24
TORSDOF 13
ENDMDL
MODEL 8
REMARK VINA RESULT:    -5.924      2.416      5.615
REMARK INTER + INTRA:         -13.752
REMARK INTER:                  -9.802
REMARK INTRA:                  -3.951
REMARK CONF_INDEPENDENT:        3.878
REMARK UNBOUND:                -3.951
REMARK  13 active torsions:
REMARK  status: ('A' for Active; 'I' for Inactive)
REMARK    1  A    between atoms: C_2  and  C_3 
REMARK    2  A    between atoms: C_3  and  C_4 
REMARK    3  A    between atoms: C_4  and  C_5 
REMARK    4  A    between atoms: C_5  and  C_6 
REMARK    5  A    between atoms: C_6  and  N_7 
REMARK       I    between atoms: N_7  and  C_8 
REMARK    6  A    between atoms: C_12  and  N_7 
REMARK    7  A    between atoms: C_8  and  C_10 
REMARK    8  A    between atoms: C_12  and  C_22 
REMARK    9  A    between atoms: C_12  and  C_13 
REMARK       I    between atoms: C_13  and  N_15 
REMARK   10  A    between atoms: N_15  and  C_16 
REMARK   11  A    between atoms: C_23  and  O_24 
REMARK   12  A    between atoms: C_26  and  O_27 
REMARK   13  A    between atoms: C_29  and  O_30 
ROOT
ATOM      1  C   UNL d   1      26.603 -15.980  -1.420  0.00  0.00     0.218 C 
ENDROOT
BRANCH   1   2
ATOM      2  C   UNL d   1      25.322 -16.797  -1.067  0.00  0.00     0.040 C 
ATOM      3  C   UNL d   1      25.309 -17.960  -0.271  0.00  0.00     0.080 C 
ATOM      4  C   UNL d   1      24.197 -18.701   0.065  0.00  0.00     0.073 C 
ATOM      5  C   UNL d   1      22.971 -18.163  -0.202  0.00  0.00     0.071 C 
ATOM      6  C   UNL d   1      22.872 -16.961  -0.892  0.00  0.00     0.073 C 
ATOM      7  C   UNL d   1      24.034 -16.306  -1.354  0.00  0.00     0.080 C 
BRANCH   3   8
ATOM      8  O   UNL d   1      26.357 -18.375   0.488  0.00  0.00    -0.360 OA
ATOM      9  H   UNL d   1      26.578 -17.543   0.890  0.00  0.00     0.217 HD
ENDBRANCH   3   8
BRANCH   5  10
ATOM     10  O   UNL d   1      21.861 -18.773   0.292  0.00  0.00    -0.361 OA
ATOM     11  H   UNL d   1      22.147 -19.608   0.707  0.00  0.00     0.217 HD
ENDBRANCH   5  10
BRANCH   7  12
ATOM     12  O   UNL d   1      23.891 -15.128  -2.033  0.00  0.00    -0.360 OA
ATOM     13  H   UNL d   1      24.356 -15.186  -2.886  0.00  0.00     0.217 HD
ENDBRANCH   7  12
ENDBRANCH   1   2
BRANCH   1  14
ATOM     14  C   UNL d   1      26.725 -15.890  -2.988  0.00  0.00     0.245 C 
ATOM     15  O   UNL d   1      25.719 -15.831  -3.700  0.00  0.00    -0.271 OA
ATOM     16  N   UNL d   1      27.996 -15.748  -3.540  0.00  0.00    -0.354 N 
ATOM     17  H   UNL d   1      28.823 -15.615  -3.014  0.00  0.00     0.162 HD
BRANCH  16  18
ATOM     18  C   UNL d   1      28.274 -15.574  -4.955  0.00  0.00     0.084 C 
ATOM     19  C   UNL d   1      28.151 -14.074  -5.321  0.00  0.00     0.025 C 
ATOM     20  C   UNL d   1      28.549 -13.807  -6.770  0.00  0.00     0.002 C 
ATOM     21  C   UNL d   1      29.940 -14.354  -7.071  0.00  0.00     0.000 C 
ATOM     22  C   UNL d   1      30.029 -15.832  -6.731  0.00  0.00     0.002 C 
ATOM     23  C   UNL d   1      29.673 -16.082  -5.281  0.00  0.00     0.025 C 
ENDBRANCH  16  18
ENDBRANCH   1  14
BRANCH   1  24
ATOM     24  N   UNL d   1      26.829 -14.637  -0.692  0.00  0.00    -0.334 N 
ATOM     25  C   UNL d   1      27.301 -14.666   0.630  0.00  0.00     0.220 C 
ATOM     26  O   UNL d   1      27.564 -15.723   1.225  0.00  0.00    -0.273 OA
BRANCH  24  27
ATOM     27  C   UNL d   1      26.497 -13.399  -1.378  0.00  0.00     0.127 C 
BRANCH  27  28
ATOM     28  C   UNL d   1      27.458 -12.471  -2.021  0.00  0.00     0.020 C 
BRANCH  28  29
ATOM     29  C   UNL d   1      26.847 -11.629  -3.097  0.00  0.00     0.002 C 
BRANCH  29  30
ATOM     30  C   UNL d   1      25.665 -12.472  -3.526  0.00  0.00    -0.000 C 
BRANCH  30  31
ATOM     31  C   UNL d   1      25.531 -12.417  -5.015  0.00  0.00    -0.005 C 
ATOM     32  C   UNL d   1      26.219 -11.174  -5.517  0.00  0.00     0.005 C 
ENDBRANCH  30  31
ENDBRANCH  29  30
ENDBRANCH  28  29
ENDBRANCH  27  28
ENDBRANCH  24  27
BRANCH  25  33
ATOM     33  C   UNL d   1      27.484 -13.342   1.348  0.00  0.00     0.098 C 
ATOM     34  C   UNL d   1      26.278 -12.582   1.799  0.00  0.00     0.014 C 
ENDBRANCH  25  33
ENDBRANCH   1  24
TORSDOF 13
ENDMDL
MODEL 9
REMARK VINA RESULT:    -5.707      2.964      6.961
REMARK INTER + INTRA:         -14.031
REMARK INTER:                  -9.585
REMARK INTRA:                  -4.446
REMARK CONF_INDEPENDENT:        3.878
REMARK UNBOUND:                -4.446
REMARK  13 active torsions:
REMARK  status: ('A' for Active; 'I' for Inactive)
REMARK    1  A    between atoms: C_2  and  C_3 
REMARK    2  A    between atoms: C_3  and  C_4 
REMARK    3  A    between atoms: C_4  and  C_5 
REMARK    4  A    between atoms: C_5  and  C_6 
REMARK    5  A    between atoms: C_6  and  N_7 
REMARK       I    between atoms: N_7  and  C_8 
REMARK    6  A    between atoms: C_12  and  N_7 
REMARK    7  A    between atoms: C_8  and  C_10 
REMARK    8  A    between atoms: C_12  and  C_22 
REMARK    9  A    between atoms: C_12  and  C_13 
REMARK       I    between atoms: C_13  and  N_15 
REMARK   10  A    between atoms: N_15  and  C_16 
REMARK   11  A    between atoms: C_23  and  O_24 
REMARK   12  A    between atoms: C_26  and  O_27 
REMARK   13  A    between atoms: C_29  and  O_30 
ROOT
ATOM      1  C   UNL d   1      27.176 -15.177  -1.449  0.00  0.00     0.218 C 
ENDROOT
BRANCH   1   2
ATOM      2  C   UNL d   1      26.121 -16.276  -1.114  0.00  0.00     0.040 C 
ATOM      3  C   UNL d   1      26.226 -17.187  -0.043  0.00  0.00     0.080 C 
ATOM      4  C   UNL d   1      25.312 -18.165   0.283  0.00  0.00     0.073 C 
ATOM      5  C   UNL d   1      24.093 -18.125  -0.332  0.00  0.00     0.071 C 
ATOM      6  C   UNL d   1      23.847 -17.194  -1.333  0.00  0.00     0.073 C 
ATOM      7  C   UNL d   1      24.863 -16.305  -1.746  0.00  0.00     0.080 C 
BRANCH   3   8
ATOM      8  O   UNL d   1      27.121 -17.069   0.972  0.00  0.00    -0.360 OA
ATOM      9  H   UNL d   1      27.852 -17.524   0.570  0.00  0.00     0.217 HD
ENDBRANCH   3   8
BRANCH   5  10
ATOM     10  O   UNL d   1      23.104 -18.949   0.109  0.00  0.00    -0.361 OA
ATOM     11  H   UNL d   1      23.377 -19.292   0.980  0.00  0.00     0.217 HD
ENDBRANCH   5  10
BRANCH   7  12
ATOM     12  O   UNL d   1      24.579 -15.407  -2.737  0.00  0.00    -0.360 OA
ATOM     13  H   UNL d   1      24.971 -14.544  -2.516  0.00  0.00     0.217 HD
ENDBRANCH   7  12
ENDBRANCH   1   2
BRANCH   1  14
ATOM     14  C   UNL d   1      27.454 -14.335  -0.147  0.00  0.00     0.245 C 
ATOM     15  O   UNL d   1      26.793 -13.325   0.108  0.00  0.00    -0.271 OA
ATOM     16  N   UNL d   1      28.378 -14.830   0.770  0.00  0.00    -0.354 N 
ATOM     17  H   UNL d   1      28.811 -15.717   0.704  0.00  0.00     0.162 HD
BRANCH  16  18
ATOM     18  C   UNL d   1      28.691 -14.219   2.049  0.00  0.00     0.084 C 
ATOM     19  C   UNL d   1      27.780 -14.825   3.144  0.00  0.00     0.025 C 
ATOM     20  C   UNL d   1      28.142 -14.310   4.534  0.00  0.00     0.002 C 
ATOM     21  C   UNL d   1      29.620 -14.529   4.839  0.00  0.00     0.000 C 
ATOM     22  C   UNL d   1      30.495 -13.901   3.767  0.00  0.00     0.002 C 
ATOM     23  C   UNL d   1      30.157 -14.449   2.396  0.00  0.00     0.025 C 
ENDBRANCH  16  18
ENDBRANCH   1  14
BRANCH   1  24
ATOM     24  N   UNL d   1      28.450 -15.605  -2.208  0.00  0.00    -0.334 N 
ATOM     25  C   UNL d   1      29.300 -16.549  -1.609  0.00  0.00     0.220 C 
ATOM     26  O   UNL d   1      29.054 -17.068  -0.509  0.00  0.00    -0.273 OA
BRANCH  24  27
ATOM     27  C   UNL d   1      28.752 -14.978  -3.486  0.00  0.00     0.127 C 
BRANCH  27  28
ATOM     28  C   UNL d   1      28.234 -15.399  -4.809  0.00  0.00     0.020 C 
BRANCH  28  29
ATOM     29  C   UNL d   1      26.782 -15.093  -5.007  0.00  0.00     0.002 C 
BRANCH  29  30
ATOM     30  C   UNL d   1      26.776 -13.580  -5.023  0.00  0.00    -0.000 C 
BRANCH  30  31
ATOM     31  C   UNL d   1      25.519 -13.082  -4.382  0.00  0.00    -0.005 C 
ATOM     32  C   UNL d   1      25.884 -12.303  -3.144  0.00  0.00     0.005 C 
ENDBRANCH  30  31
ENDBRANCH  29  30
ENDBRANCH  28  29
ENDBRANCH  27  28
ENDBRANCH  24  27
BRANCH  25  33
ATOM     33  C   UNL d   1      30.568 -16.933  -2.349  0.00  0.00     0.098 C 
ATOM     34  C   UNL d   1      30.478 -17.857  -3.521  0.00  0.00     0.014 C 
ENDBRANCH  25  33
ENDBRANCH   1  24
TORSDOF 13
ENDMDL
