MODEL 1
REMARK VINA RESULT:    -8.492      0.000      0.000
REMARK INTER + INTRA:         -10.261
REMARK INTER:                  -9.387
REMARK INTRA:                  -0.873
REMARK CONF_INDEPENDENT:        0.895
REMARK UNBOUND:                -0.873
REMARK  3 active torsions:
REMARK  status: ('A' for Active; 'I' for Inactive)
REMARK    1  A    between atoms: C_7  and  C_8 
REMARK       I    between atoms: C_8  and  N_10 
REMARK    2  A    between atoms: N_10  and  N_11 
REMARK       I    between atoms: N_11  and  C_12 
REMARK    3  A    between atoms: C_12  and  C_14 
ROOT
ATOM      1  C   UNL d   1      23.079 -18.291  -1.015  0.00  0.00     0.270 C 
ATOM      2  O   UNL d   1      22.933 -19.302  -1.712  0.00  0.00    -0.266 OA
ATOM      3  N   UNL d   1      21.981 -17.610  -0.493  0.00  0.00    -0.263 N 
ATOM      4  H   UNL d   1      22.113 -16.669  -0.185  0.00  0.00     0.190 HD
ENDROOT
BRANCH   3   5
ATOM      5  N   UNL d   1      20.680 -17.794  -1.063  0.00  0.00    -0.263 N 
ATOM      6  C   UNL d   1      20.055 -19.031  -0.889  0.00  0.00     0.271 C 
ATOM      7  O   UNL d   1      19.715 -19.700  -1.865  0.00  0.00    -0.266 OA
ATOM      8  H   UNL d   1      20.620 -17.394  -1.999  0.00  0.00     0.190 HD
BRANCH   6   9
ATOM      9  C   UNL d   1      19.735 -19.537   0.502  0.00  0.00     0.055 C 
ATOM     10  C   UNL d   1      20.655 -19.246   1.542  0.00  0.00     0.019 C 
ATOM     11  C   UNL d   1      20.465 -19.732   2.849  0.00  0.00     0.001 C 
ATOM     12  C   UNL d   1      19.320 -20.450   3.164  0.00  0.00     0.002 C 
ATOM     13  C   UNL d   1      18.403 -20.735   2.164  0.00  0.00     0.025 C 
ATOM     14  C   UNL d   1      18.652 -20.368   0.833  0.00  0.00     0.049 C 
ATOM     15 CL   UNL d   1      17.635 -21.200  -0.293  0.00  0.00    -0.083 Cl
ENDBRANCH   6   9
ENDBRANCH   3   5
BRANCH   1  16
ATOM     16  C   UNL d   1      24.488 -17.765  -0.712  0.00  0.00     0.039 A 
ATOM     17  C   UNL d   1      25.299 -18.574   0.120  0.00  0.00     0.017 A 
ATOM     18  C   UNL d   1      26.602 -18.196   0.485  0.00  0.00     0.001 A 
ATOM     19  C   UNL d   1      27.138 -17.004   0.020  0.00  0.00     0.001 A 
ATOM     20  C   UNL d   1      26.374 -16.199  -0.813  0.00  0.00     0.007 A 
ATOM     21  C   UNL d   1      25.058 -16.554  -1.182  0.00  0.00    -0.046 A 
ATOM     22  C   UNL d   1      24.381 -15.577  -2.091  0.00  0.00     0.049 C 
ENDBRANCH   1  16
TORSDOF 3
ENDMDL
MODEL 2
REMARK VINA RESULT:    -7.081      5.631      7.449
REMARK INTER + INTRA:          -8.918
REMARK INTER:                  -7.976
REMARK INTRA:                  -0.942
REMARK CONF_INDEPENDENT:        0.895
REMARK UNBOUND:                -0.942
REMARK  3 active torsions:
REMARK  status: ('A' for Active; 'I' for Inactive)
REMARK    1  A    between atoms: C_7  and  C_8 
REMARK       I    between atoms: C_8  and  N_10 
REMARK    2  A    between atoms: N_10  and  N_11 
REMARK       I    between atoms: N_11  and  C_12 
REMARK    3  A    between atoms: C_12  and  C_14 
ROOT
ATOM      1  C   UNL d   1      27.654 -15.210  -4.813  0.00  0.00     0.270 C 
ATOM      2  O   UNL d   1      26.610 -15.200  -5.475  0.00  0.00    -0.266 OA
ATOM      3  N   UNL d   1      27.652 -14.885  -3.458  0.00  0.00    -0.263 N 
ATOM      4  H   UNL d   1      28.519 -14.631  -3.032  0.00  0.00     0.190 HD
ENDROOT
BRANCH   3   5
ATOM      5  N   UNL d   1      26.561 -14.148  -2.894  0.00  0.00    -0.263 N 
ATOM      6  C   UNL d   1      25.366 -14.829  -2.648  0.00  0.00     0.271 C 
ATOM      7  O   UNL d   1      24.317 -14.456  -3.175  0.00  0.00    -0.266 OA
ATOM      8  H   UNL d   1      26.467 -13.228  -3.322  0.00  0.00     0.190 HD
BRANCH   6   9
ATOM      9  C   UNL d   1      25.335 -15.997  -1.685  0.00  0.00     0.055 C 
ATOM     10  C   UNL d   1      24.161 -16.793  -1.645  0.00  0.00     0.019 C 
ATOM     11  C   UNL d   1      24.026 -17.858  -0.735  0.00  0.00     0.001 C 
ATOM     12  C   UNL d   1      25.084 -18.200   0.096  0.00  0.00     0.002 C 
ATOM     13  C   UNL d   1      26.244 -17.442   0.063  0.00  0.00     0.025 C 
ATOM     14  C   UNL d   1      26.334 -16.299  -0.745  0.00  0.00     0.049 C 
ATOM     15 CL   UNL d   1      27.652 -15.268  -0.303  0.00  0.00    -0.083 Cl
ENDBRANCH   6   9
ENDBRANCH   3   5
BRANCH   1  16
ATOM     16  C   UNL d   1      28.983 -15.582  -5.482  0.00  0.00     0.039 A 
ATOM     17  C   UNL d   1      29.655 -16.715  -4.964  0.00  0.00     0.017 A 
ATOM     18  C   UNL d   1      30.889 -17.149  -5.478  0.00  0.00     0.001 A 
ATOM     19  C   UNL d   1      31.481 -16.471  -6.533  0.00  0.00     0.001 A 
ATOM     20  C   UNL d   1      30.837 -15.368  -7.075  0.00  0.00     0.007 A 
ATOM     21  C   UNL d   1      29.603 -14.908  -6.566  0.00  0.00    -0.046 A 
ATOM     22  C   UNL d   1      29.044 -13.713  -7.272  0.00  0.00     0.049 C 
ENDBRANCH   1  16
TORSDOF 3
ENDMDL
MODEL 3
REMARK VINA RESULT:    -6.976      5.551      7.487
REMARK INTER + INTRA:          -8.906
REMARK INTER:                  -7.871
REMARK INTRA:                  -1.035
REMARK CONF_INDEPENDENT:        0.895
REMARK UNBOUND:                -1.035
REMARK  3 active torsions:
REMARK  status: ('A' for Active; 'I' for Inactive)
REMARK    1  A    between atoms: C_7  and  C_8 
REMARK       I    between atoms: C_8  and  N_10 
REMARK    2  A    between atoms: N_10  and  N_11 
REMARK       I    between atoms: N_11  and  C_12 
REMARK    3  A    between atoms: C_12  and  C_14 
ROOT
ATOM      1  C   UNL d   1      27.933 -15.445  -4.849  0.00  0.00     0.270 C 
ATOM      2  O   UNL d   1      27.011 -15.200  -5.637  0.00  0.00    -0.266 OA
ATOM      3  N   UNL d   1      27.774 -15.267  -3.476  0.00  0.00    -0.263 N 
ATOM      4  H   UNL d   1      28.596 -15.201  -2.912  0.00  0.00     0.190 HD
ENDROOT
BRANCH   3   5
ATOM      5  N   UNL d   1      26.728 -14.427  -2.973  0.00  0.00    -0.263 N 
ATOM      6  C   UNL d   1      25.487 -15.012  -2.710  0.00  0.00     0.271 C 
ATOM      7  O   UNL d   1      24.473 -14.601  -3.275  0.00  0.00    -0.266 OA
ATOM      8  H   UNL d   1      26.703 -13.529  -3.454  0.00  0.00     0.190 HD
BRANCH   6   9
ATOM      9  C   UNL d   1      25.364 -16.119  -1.683  0.00  0.00     0.055 C 
ATOM     10  C   UNL d   1      24.153 -16.856  -1.645  0.00  0.00     0.019 C 
ATOM     11  C   UNL d   1      23.933 -17.858  -0.682  0.00  0.00     0.001 C 
ATOM     12  C   UNL d   1      24.942 -18.199   0.210  0.00  0.00     0.002 C 
ATOM     13  C   UNL d   1      26.137 -17.498   0.180  0.00  0.00     0.025 C 
ATOM     14  C   UNL d   1      26.312 -16.410  -0.688  0.00  0.00     0.049 C 
ATOM     15 CL   UNL d   1      27.660 -15.416  -0.253  0.00  0.00    -0.083 Cl
ENDBRANCH   6   9
ENDBRANCH   3   5
BRANCH   1  16
ATOM     16  C   UNL d   1      29.280 -15.954  -5.378  0.00  0.00     0.039 A 
ATOM     17  C   UNL d   1      29.661 -15.507  -6.666  0.00  0.00     0.017 A 
ATOM     18  C   UNL d   1      30.863 -15.914  -7.270  0.00  0.00     0.001 A 
ATOM     19  C   UNL d   1      31.724 -16.770  -6.600  0.00  0.00     0.001 A 
ATOM     20  C   UNL d   1      31.387 -17.210  -5.328  0.00  0.00     0.007 A 
ATOM     21  C   UNL d   1      30.179 -16.823  -4.708  0.00  0.00    -0.046 A 
ATOM     22  C   UNL d   1      29.976 -17.382  -3.334  0.00  0.00     0.049 C 
ENDBRANCH   1  16
TORSDOF 3
ENDMDL
MODEL 4
REMARK VINA RESULT:    -6.790      5.177      7.372
REMARK INTER + INTRA:          -8.636
REMARK INTER:                  -7.684
REMARK INTRA:                  -0.951
REMARK CONF_INDEPENDENT:        0.895
REMARK UNBOUND:                -0.951
REMARK  3 active torsions:
REMARK  status: ('A' for Active; 'I' for Inactive)
REMARK    1  A    between atoms: C_7  and  C_8 
REMARK       I    between atoms: C_8  and  N_10 
REMARK    2  A    between atoms: N_10  and  N_11 
REMARK       I    between atoms: N_11  and  C_12 
REMARK    3  A    between atoms: C_12  and  C_14 
ROOT
ATOM      1  C   UNL d   1      27.880 -15.328  -4.830  0.00  0.00     0.270 C 
ATOM      2  O   UNL d   1      26.876 -15.201  -5.541  0.00  0.00    -0.266 OA
ATOM      3  N   UNL d   1      27.798 -15.230  -3.443  0.00  0.00    -0.263 N 
ATOM      4  H   UNL d   1      28.638 -15.057  -2.932  0.00  0.00     0.190 HD
ENDROOT
BRANCH   3   5
ATOM      5  N   UNL d   1      26.674 -14.588  -2.829  0.00  0.00    -0.263 N 
ATOM      6  C   UNL d   1      25.635 -15.393  -2.357  0.00  0.00     0.271 C 
ATOM      7  O   UNL d   1      24.489 -15.245  -2.783  0.00  0.00    -0.266 OA
ATOM      8  H   UNL d   1      26.391 -13.755  -3.343  0.00  0.00     0.190 HD
BRANCH   6   9
ATOM      9  C   UNL d   1      25.894 -16.419  -1.272  0.00  0.00     0.055 C 
ATOM     10  C   UNL d   1      27.235 -16.825  -1.051  0.00  0.00     0.019 C 
ATOM     11  C   UNL d   1      27.555 -17.818  -0.107  0.00  0.00     0.001 C 
ATOM     12  C   UNL d   1      26.559 -18.369   0.688  0.00  0.00     0.002 C 
ATOM     13  C   UNL d   1      25.243 -17.975   0.495  0.00  0.00     0.025 C 
ATOM     14  C   UNL d   1      24.902 -17.085  -0.534  0.00  0.00     0.049 C 
ATOM     15 CL   UNL d   1      23.208 -17.087  -0.887  0.00  0.00    -0.083 Cl
ENDBRANCH   6   9
ENDBRANCH   3   5
BRANCH   1  16
ATOM     16  C   UNL d   1      29.247 -15.595  -5.473  0.00  0.00     0.039 A 
ATOM     17  C   UNL d   1      29.590 -14.790  -6.586  0.00  0.00     0.017 A 
ATOM     18  C   UNL d   1      30.806 -14.947  -7.273  0.00  0.00     0.001 A 
ATOM     19  C   UNL d   1      31.720 -15.905  -6.861  0.00  0.00     0.001 A 
ATOM     20  C   UNL d   1      31.420 -16.697  -5.761  0.00  0.00     0.007 A 
ATOM     21  C   UNL d   1      30.200 -16.564  -5.064  0.00  0.00    -0.046 A 
ATOM     22  C   UNL d   1      30.043 -17.489  -3.899  0.00  0.00     0.049 C 
ENDBRANCH   1  16
TORSDOF 3
ENDMDL
MODEL 5
REMARK VINA RESULT:    -6.672      4.992      6.704
REMARK INTER + INTRA:          -8.865
REMARK INTER:                  -7.567
REMARK INTRA:                  -1.298
REMARK CONF_INDEPENDENT:        0.895
REMARK UNBOUND:                -1.298
REMARK  3 active torsions:
REMARK  status: ('A' for Active; 'I' for Inactive)
REMARK    1  A    between atoms: C_7  and  C_8 
REMARK       I    between atoms: C_8  and  N_10 
REMARK    2  A    between atoms: N_10  and  N_11 
REMARK       I    between atoms: N_11  and  C_12 
REMARK    3  A    between atoms: C_12  and  C_14 
ROOT
ATOM      1  C   UNL d   1      27.652 -13.654   1.134  0.00  0.00     0.270 C 
ATOM      2  O   UNL d   1      28.278 -12.871   0.410  0.00  0.00    -0.266 OA
ATOM      3  N   UNL d   1      26.807 -14.619   0.590  0.00  0.00    -0.263 N 
ATOM      4  H   UNL d   1      26.119 -15.033   1.185  0.00  0.00     0.190 HD
ENDROOT
BRANCH   3   5
ATOM      5  N   UNL d   1      26.319 -14.480  -0.750  0.00  0.00    -0.263 N 
ATOM      6  C   UNL d   1      26.010 -15.643  -1.460  0.00  0.00     0.271 C 
ATOM      7  O   UNL d   1      26.573 -15.889  -2.527  0.00  0.00    -0.266 OA
ATOM      8  H   UNL d   1      26.835 -13.769  -1.266  0.00  0.00     0.190 HD
BRANCH   6   9
ATOM      9  C   UNL d   1      24.938 -16.586  -0.955  0.00  0.00     0.055 C 
ATOM     10  C   UNL d   1      23.584 -16.240  -1.196  0.00  0.00     0.019 C 
ATOM     11  C   UNL d   1      22.525 -17.028  -0.707  0.00  0.00     0.001 C 
ATOM     12  C   UNL d   1      22.794 -18.214  -0.037  0.00  0.00     0.002 C 
ATOM     13  C   UNL d   1      24.112 -18.575   0.199  0.00  0.00     0.025 C 
ATOM     14  C   UNL d   1      25.167 -17.728  -0.169  0.00  0.00     0.049 C 
ATOM     15 CL   UNL d   1      26.658 -18.139   0.607  0.00  0.00    -0.083 Cl
ENDBRANCH   6   9
ENDBRANCH   3   5
BRANCH   1  16
ATOM     16  C   UNL d   1      27.797 -13.572   2.659  0.00  0.00     0.039 A 
ATOM     17  C   UNL d   1      28.147 -14.771   3.325  0.00  0.00     0.017 A 
ATOM     18  C   UNL d   1      28.294 -14.831   4.722  0.00  0.00     0.001 A 
ATOM     19  C   UNL d   1      28.106 -13.693   5.492  0.00  0.00     0.001 A 
ATOM     20  C   UNL d   1      27.780 -12.498   4.865  0.00  0.00     0.007 A 
ATOM     21  C   UNL d   1      27.616 -12.418   3.465  0.00  0.00    -0.046 A 
ATOM     22  C   UNL d   1      27.274 -11.054   2.954  0.00  0.00     0.049 C 
ENDBRANCH   1  16
TORSDOF 3
ENDMDL
MODEL 6
REMARK VINA RESULT:    -6.540      5.819      9.282
REMARK INTER + INTRA:          -8.589
REMARK INTER:                  -7.434
REMARK INTRA:                  -1.154
REMARK CONF_INDEPENDENT:        0.895
REMARK UNBOUND:                -1.154
REMARK  3 active torsions:
REMARK  status: ('A' for Active; 'I' for Inactive)
REMARK    1  A    between atoms: C_7  and  C_8 
REMARK       I    between atoms: C_8  and  N_10 
REMARK    2  A    between atoms: N_10  and  N_11 
REMARK       I    between atoms: N_11  and  C_12 
REMARK    3  A    between atoms: C_12  and  C_14 
ROOT
ATOM      1  C   UNL d   1      24.919 -15.302  -2.731  0.00  0.00     0.270 C 
ATOM      2  O   UNL d   1      24.030 -14.450  -2.842  0.00  0.00    -0.266 OA
ATOM      3  N   UNL d   1      25.989 -15.347  -3.623  0.00  0.00    -0.263 N 
ATOM      4  H   UNL d   1      26.520 -16.192  -3.680  0.00  0.00     0.190 HD
ENDROOT
BRANCH   3   5
ATOM      5  N   UNL d   1      25.891 -14.708  -4.901  0.00  0.00    -0.263 N 
ATOM      6  C   UNL d   1      27.022 -14.053  -5.396  0.00  0.00     0.271 C 
ATOM      7  O   UNL d   1      26.978 -12.853  -5.669  0.00  0.00    -0.266 OA
ATOM      8  H   UNL d   1      25.009 -14.209  -5.005  0.00  0.00     0.190 HD
BRANCH   6   9
ATOM      9  C   UNL d   1      28.300 -14.824  -5.657  0.00  0.00     0.055 C 
ATOM     10  C   UNL d   1      28.673 -15.825  -4.722  0.00  0.00     0.019 C 
ATOM     11  C   UNL d   1      29.875 -16.543  -4.856  0.00  0.00     0.001 C 
ATOM     12  C   UNL d   1      30.689 -16.336  -5.962  0.00  0.00     0.002 C 
ATOM     13  C   UNL d   1      30.335 -15.371  -6.892  0.00  0.00     0.025 C 
ATOM     14  C   UNL d   1      29.208 -14.560  -6.694  0.00  0.00     0.049 C 
ATOM     15 CL   UNL d   1      29.208 -13.155  -7.705  0.00  0.00    -0.083 Cl
ENDBRANCH   6   9
ENDBRANCH   3   5
BRANCH   1  16
ATOM     16  C   UNL d   1      24.856 -16.334  -1.598  0.00  0.00     0.039 A 
ATOM     17  C   UNL d   1      23.567 -16.782  -1.223  0.00  0.00     0.017 A 
ATOM     18  C   UNL d   1      23.374 -17.713  -0.188  0.00  0.00     0.001 A 
ATOM     19  C   UNL d   1      24.464 -18.233   0.494  0.00  0.00     0.001 A 
ATOM     20  C   UNL d   1      25.742 -17.828   0.135  0.00  0.00     0.007 A 
ATOM     21  C   UNL d   1      25.958 -16.884  -0.893  0.00  0.00    -0.046 A 
ATOM     22  C   UNL d   1      27.396 -16.567  -1.155  0.00  0.00     0.049 C 
ENDBRANCH   1  16
TORSDOF 3
ENDMDL
MODEL 7
REMARK VINA RESULT:    -6.439      5.619      8.470
REMARK INTER + INTRA:          -8.553
REMARK INTER:                  -7.334
REMARK INTRA:                  -1.220
REMARK CONF_INDEPENDENT:        0.895
REMARK UNBOUND:                -1.220
REMARK  3 active torsions:
REMARK  status: ('A' for Active; 'I' for Inactive)
REMARK    1  A    between atoms: C_7  and  C_8 
REMARK       I    between atoms: C_8  and  N_10 
REMARK    2  A    between atoms: N_10  and  N_11 
REMARK       I    between atoms: N_11  and  C_12 
REMARK    3  A    between atoms: C_12  and  C_14 
ROOT
ATOM      1  C   UNL d   1      25.896 -15.300  -0.675  0.00  0.00     0.270 C 
ATOM      2  O   UNL d   1      26.050 -14.720  -1.756  0.00  0.00    -0.266 OA
ATOM      3  N   UNL d   1      26.545 -14.862   0.477  0.00  0.00    -0.263 N 
ATOM      4  H   UNL d   1      26.624 -15.498   1.244  0.00  0.00     0.190 HD
ENDROOT
BRANCH   3   5
ATOM      5  N   UNL d   1      27.699 -14.019   0.379  0.00  0.00    -0.263 N 
ATOM      6  C   UNL d   1      27.974 -13.158   1.444  0.00  0.00     0.271 C 
ATOM      7  O   UNL d   1      28.042 -11.942   1.260  0.00  0.00    -0.266 OA
ATOM      8  H   UNL d   1      27.793 -13.617  -0.552  0.00  0.00     0.190 HD
BRANCH   6   9
ATOM      9  C   UNL d   1      28.250 -13.713   2.826  0.00  0.00     0.055 C 
ATOM     10  C   UNL d   1      27.201 -13.668   3.780  0.00  0.00     0.019 C 
ATOM     11  C   UNL d   1      27.394 -14.105   5.104  0.00  0.00     0.001 C 
ATOM     12  C   UNL d   1      28.606 -14.666   5.482  0.00  0.00     0.002 C 
ATOM     13  C   UNL d   1      29.640 -14.729   4.560  0.00  0.00     0.025 C 
ATOM     14  C   UNL d   1      29.497 -14.174   3.280  0.00  0.00     0.049 C 
ATOM     15 CL   UNL d   1      31.012 -13.954   2.473  0.00  0.00    -0.083 Cl
ENDBRANCH   6   9
ENDBRANCH   3   5
BRANCH   1  16
ATOM     16  C   UNL d   1      24.976 -16.525  -0.586  0.00  0.00     0.039 A 
ATOM     17  C   UNL d   1      23.622 -16.325  -0.947  0.00  0.00     0.017 A 
ATOM     18  C   UNL d   1      22.676 -17.363  -0.892  0.00  0.00     0.001 A 
ATOM     19  C   UNL d   1      23.058 -18.633  -0.487  0.00  0.00     0.001 A 
ATOM     20  C   UNL d   1      24.383 -18.865  -0.146  0.00  0.00     0.007 A 
ATOM     21  C   UNL d   1      25.347 -17.833  -0.182  0.00  0.00    -0.046 A 
ATOM     22  C   UNL d   1      26.728 -18.257   0.209  0.00  0.00     0.049 C 
ENDBRANCH   1  16
TORSDOF 3
ENDMDL
MODEL 8
REMARK VINA RESULT:    -6.288      5.340      7.210
REMARK INTER + INTRA:          -8.560
REMARK INTER:                  -7.183
REMARK INTRA:                  -1.377
REMARK CONF_INDEPENDENT:        0.895
REMARK UNBOUND:                -1.377
REMARK  3 active torsions:
REMARK  status: ('A' for Active; 'I' for Inactive)
REMARK    1  A    between atoms: C_7  and  C_8 
REMARK       I    between atoms: C_8  and  N_10 
REMARK    2  A    between atoms: N_10  and  N_11 
REMARK       I    between atoms: N_11  and  C_12 
REMARK    3  A    between atoms: C_12  and  C_14 
ROOT
ATOM      1  C   UNL d   1      29.973 -17.185  -2.146  0.00  0.00     0.270 C 
ATOM      2  O   UNL d   1      30.956 -17.140  -1.396  0.00  0.00    -0.266 OA
ATOM      3  N   UNL d   1      28.677 -17.131  -1.639  0.00  0.00    -0.263 N 
ATOM      4  H   UNL d   1      27.929 -17.447  -2.221  0.00  0.00     0.190 HD
ENDROOT
BRANCH   3   5
ATOM      5  N   UNL d   1      28.427 -17.435  -0.261  0.00  0.00    -0.263 N 
ATOM      6  C   UNL d   1      27.328 -16.831   0.355  0.00  0.00     0.271 C 
ATOM      7  O   UNL d   1      27.484 -16.127   1.354  0.00  0.00    -0.266 OA
ATOM      8  H   UNL d   1      29.288 -17.451   0.283  0.00  0.00     0.190 HD
BRANCH   6   9
ATOM      9  C   UNL d   1      25.927 -17.082  -0.161  0.00  0.00     0.055 C 
ATOM     10  C   UNL d   1      25.221 -18.199   0.354  0.00  0.00     0.019 C 
ATOM     11  C   UNL d   1      23.939 -18.540  -0.118  0.00  0.00     0.001 C 
ATOM     12  C   UNL d   1      23.305 -17.731  -1.052  0.00  0.00     0.002 C 
ATOM     13  C   UNL d   1      23.974 -16.628  -1.558  0.00  0.00     0.025 C 
ATOM     14  C   UNL d   1      25.301 -16.360  -1.191  0.00  0.00     0.049 C 
ATOM     15 CL   UNL d   1      26.078 -15.240  -2.257  0.00  0.00    -0.083 Cl
ENDBRANCH   6   9
ENDBRANCH   3   5
BRANCH   1  16
ATOM     16  C   UNL d   1      30.170 -17.303  -3.663  0.00  0.00     0.039 A 
ATOM     17  C   UNL d   1      30.808 -18.478  -4.127  0.00  0.00     0.017 A 
ATOM     18  C   UNL d   1      31.062 -18.698  -5.492  0.00  0.00     0.001 A 
ATOM     19  C   UNL d   1      30.675 -17.757  -6.433  0.00  0.00     0.001 A 
ATOM     20  C   UNL d   1      30.030 -16.603  -6.010  0.00  0.00     0.007 A 
ATOM     21  C   UNL d   1      29.776 -16.356  -4.643  0.00  0.00    -0.046 A 
ATOM     22  C   UNL d   1      29.065 -15.070  -4.364  0.00  0.00     0.049 C 
ENDBRANCH   1  16
TORSDOF 3
ENDMDL
MODEL 9
REMARK VINA RESULT:    -6.287      5.184      8.634
REMARK INTER + INTRA:          -8.673
REMARK INTER:                  -7.182
REMARK INTRA:                  -1.491
REMARK CONF_INDEPENDENT:        0.895
REMARK UNBOUND:                -1.491
REMARK  3 active torsions:
REMARK  status: ('A' for Active; 'I' for Inactive)
REMARK    1  A    between atoms: C_7  and  C_8 
REMARK       I    between atoms: C_8  and  N_10 
REMARK    2  A    between atoms: N_10  and  N_11 
REMARK       I    between atoms: N_11  and  C_12 
REMARK    3  A    between atoms: C_12  and  C_14 
ROOT
ATOM      1  C   UNL d   1      25.294 -15.499  -3.020  0.00  0.00     0.270 C 
ATOM      2  O   UNL d   1      25.530 -15.941  -4.150  0.00  0.00    -0.266 OA
ATOM      3  N   UNL d   1      24.780 -14.217  -2.840  0.00  0.00    -0.263 N 
ATOM      4  H   UNL d   1      24.867 -13.795  -1.938  0.00  0.00     0.190 HD
ENDROOT
BRANCH   3   5
ATOM      5  N   UNL d   1      24.893 -13.241  -3.883  0.00  0.00    -0.263 N 
ATOM      6  C   UNL d   1      26.134 -12.631  -4.080  0.00  0.00     0.271 C 
ATOM      7  O   UNL d   1      26.248 -11.408  -3.998  0.00  0.00    -0.266 OA
ATOM      8  H   UNL d   1      24.085 -12.619  -3.905  0.00  0.00     0.190 HD
BRANCH   6   9
ATOM      9  C   UNL d   1      27.344 -13.463  -4.455  0.00  0.00     0.055 C 
ATOM     10  C   UNL d   1      27.403 -13.991  -5.770  0.00  0.00     0.019 C 
ATOM     11  C   UNL d   1      28.460 -14.825  -6.179  0.00  0.00     0.001 C 
ATOM     12  C   UNL d   1      29.516 -15.085  -5.315  0.00  0.00     0.002 C 
ATOM     13  C   UNL d   1      29.481 -14.567  -4.029  0.00  0.00     0.025 C 
ATOM     14  C   UNL d   1      28.368 -13.847  -3.573  0.00  0.00     0.049 C 
ATOM     15 CL   UNL d   1      28.328 -13.694  -1.850  0.00  0.00    -0.083 Cl
ENDBRANCH   6   9
ENDBRANCH   3   5
BRANCH   1  16
ATOM     16  C   UNL d   1      25.570 -16.364  -1.784  0.00  0.00     0.039 A 
ATOM     17  C   UNL d   1      26.924 -16.700  -1.537  0.00  0.00     0.017 A 
ATOM     18  C   UNL d   1      27.306 -17.501  -0.448  0.00  0.00     0.001 A 
ATOM     19  C   UNL d   1      26.349 -17.981   0.434  0.00  0.00     0.001 A 
ATOM     20  C   UNL d   1      25.016 -17.652   0.230  0.00  0.00     0.007 A 
ATOM     21  C   UNL d   1      24.608 -16.859  -0.865  0.00  0.00    -0.046 A 
ATOM     22  C   UNL d   1      23.137 -16.595  -0.930  0.00  0.00     0.049 C 
ENDBRANCH   1  16
TORSDOF 3
ENDMDL
