MODEL 1
REMARK VINA RESULT:   -28.898      0.000      0.000
REMARK INTER + INTRA:         -30.325
REMARK INTER:                 -29.793
REMARK INTRA:                  -0.532
REMARK CONF_INDEPENDENT:        0.895
REMARK UNBOUND:                -0.532
REMARK  3 active torsions:
REMARK  status: ('A' for Active; 'I' for Inactive)
REMARK    1  A    between atoms: C_5  and  C_6 
REMARK       I    between atoms: C_6  and  N_7 
REMARK    2  A    between atoms: C_10  and  N_11 
REMARK       I    between atoms: N_11  and  C_12 
REMARK    3  A    between atoms: C_12  and  C_14 
ROOT
ATOM      1  N   UNL d   1      22.799 -17.168  -0.486  0.00  0.00    -0.321 N 
ATOM      2  C   UNL d   1      22.037 -18.231  -0.972  0.00  0.00     0.274 C 
ATOM      3  O   UNL d   1      22.130 -18.871  -2.020  0.00  0.00    -0.266 OA
ATOM      4  H   UNL d   1      22.464 -16.755   0.381  0.00  0.00     0.169 HD
ENDROOT
BRANCH   1   5
ATOM      5  C   UNL d   1      24.000 -16.596  -1.057  0.00  0.00     0.042 A 
ATOM      6  C   UNL d   1      23.883 -15.558  -2.023  0.00  0.00     0.047 A 
ATOM      7  C   UNL d   1      25.033 -14.950  -2.610  0.00  0.00     0.034 A 
ATOM      8  C   UNL d   1      26.301 -15.389  -2.240  0.00  0.00     0.017 A 
ATOM      9  C   UNL d   1      26.432 -16.389  -1.303  0.00  0.00     0.010 A 
ATOM     10  C   UNL d   1      25.312 -16.985  -0.709  0.00  0.00    -0.035 A 
ATOM     11  C   UNL d   1      25.670 -18.032   0.287  0.00  0.00     0.050 C 
BRANCH   7  12
ATOM     12  C   UNL d   1      24.902 -13.843  -3.613  0.00  0.00     0.249 C 
ATOM     13  N   UNL d   1      25.176 -12.556  -3.210  0.00  0.00    -0.366 N 
ATOM     14  H   UNL d   1      25.464 -12.271  -2.288  0.00  0.00     0.159 HD
ATOM     15  H   UNL d   1      25.081 -11.816  -3.895  0.00  0.00     0.159 HD
ATOM     16  O   UNL d   1      24.554 -14.060  -4.766  0.00  0.00    -0.268 OA
ENDBRANCH   7  12
ENDBRANCH   1   5
BRANCH   2  17
ATOM     17  C   UNL d   1      20.922 -18.779  -0.206  0.00  0.00     0.125 A 
ATOM     18  C   UNL d   1      21.154 -18.951   1.167  0.00  0.00     0.038 A 
ATOM     19  C   UNL d   1      20.265 -19.703   1.901  0.00  0.00     0.016 A 
ATOM     20  C   UNL d   1      19.191 -20.276   1.230  0.00  0.00    -0.007 A 
ATOM     21  C   UNL d   1      18.242 -21.022   1.930  0.00  0.00     0.014 A 
ATOM     22  C   UNL d   1      19.067 -20.079  -0.175  0.00  0.00     0.068 A 
ATOM     23  C   UNL d   1      17.166 -21.576   1.246  0.00  0.00     0.001 A 
ATOM     24  C   UNL d   1      17.059 -21.416  -0.133  0.00  0.00     0.002 A 
ATOM     25  C   UNL d   1      18.018 -20.684  -0.832  0.00  0.00     0.032 A 
ATOM     26  N   UNL d   1      19.905 -19.325  -0.895  0.00  0.00    -0.243 NA
ENDBRANCH   2  17
TORSDOF 3
ENDMDL
