MODEL 1
REMARK VINA RESULT:   -29.198      0.000      0.000
REMARK INTER + INTRA:         -34.052
REMARK INTER:                 -32.181
REMARK INTRA:                  -1.870
REMARK CONF_INDEPENDENT:        2.983
REMARK UNBOUND:                -1.870
REMARK  10 active torsions:
REMARK  status: ('A' for Active; 'I' for Inactive)
REMARK    1  A    between atoms: C_2  and  C_3 
REMARK    2  A    between atoms: C_3  and  C_4 
REMARK    3  A    between atoms: C_5  and  C_4 
REMARK    4  A    between atoms: C_5  and  C_10 
REMARK    5  A    between atoms: C_5  and  N_6 
REMARK       I    between atoms: N_6  and  C_7 
REMARK       I    between atoms: C_7  and  N_8 
REMARK       I    between atoms: C_10  and  N_12 
REMARK    6  A    between atoms: N_12  and  C_13 
REMARK    7  A    between atoms: C_13  and  C_14 
REMARK    8  A    between atoms: C_14  and  N_15 
REMARK    9  A    between atoms: N_15  and  C_16 
REMARK   10  A    between atoms: C_21  and  N_22 
ROOT
ATOM      1  C   UNL d   1      22.960 -16.880  -0.928  0.00  0.00     0.240 C 
ATOM      2  O   UNL d   1      22.076 -16.042  -0.866  0.00  0.00    -0.271 OA
ATOM      3  N   UNL d   1      24.159 -16.555  -1.528  0.00  0.00    -0.358 N 
ATOM      4  H   UNL d   1      24.678 -17.288  -1.991  0.00  0.00     0.162 HD
ENDROOT
BRANCH   3   5
ATOM      5  C   UNL d   1      24.244 -15.229  -2.109  0.00  0.00     0.142 C 
BRANCH   5   6
ATOM      6  C   UNL d   1      25.678 -14.869  -2.440  0.00  0.00     0.139 C 
BRANCH   6   7
ATOM      7  N   UNL d   1      25.879 -14.759  -3.870  0.00  0.00    -0.386 N 
ATOM      8  H   UNL d   1      25.992 -15.608  -4.420  0.00  0.00     0.159 HD
BRANCH   7   9
ATOM      9  C   UNL d   1      26.225 -13.564  -4.477  0.00  0.00     0.061 A 
ATOM     10  C   UNL d   1      25.530 -12.424  -4.019  0.00  0.00     0.031 A 
ATOM     11  C   UNL d   1      25.785 -11.146  -4.527  0.00  0.00     0.002 A 
ATOM     12  C   UNL d   1      26.788 -10.965  -5.470  0.00  0.00     0.003 A 
ATOM     13  C   UNL d   1      27.488 -12.066  -5.948  0.00  0.00     0.038 A 
ATOM     14  C   UNL d   1      27.194 -13.360  -5.480  0.00  0.00     0.129 A 
BRANCH  14  15
ATOM     15  N   UNL d   1      27.892 -14.453  -6.173  0.00  0.00    -0.113 N 
ATOM     16  O   UNL d   1      27.854 -15.574  -5.643  0.00  0.00    -0.532 OA
ATOM     17  O   UNL d   1      28.509 -14.207  -7.218  0.00  0.00    -0.532 OA
ENDBRANCH  14  15
ENDBRANCH   7   9
ENDBRANCH   6   7
ENDBRANCH   5   6
ENDBRANCH   3   5
BRANCH   1  18
ATOM     18  C   UNL d   1      22.787 -18.327  -0.397  0.00  0.00     0.177 C 
BRANCH  18  19
ATOM     19  N   UNL d   1      22.019 -19.164  -1.344  0.00  0.00    -0.335 N 
ATOM     20  C   UNL d   1      20.698 -19.285  -1.602  0.00  0.00     0.292 C 
ATOM     21  N   UNL d   1      19.801 -18.576  -0.895  0.00  0.00    -0.254 NA
ATOM     22  O   UNL d   1      20.313 -20.043  -2.495  0.00  0.00    -0.254 OA
ATOM     23  H   UNL d   1      20.094 -17.677  -0.534  0.00  0.00     0.128 HD
ATOM     24  H   UNL d   1      18.933 -18.443  -1.398  0.00  0.00     0.128 HD
ATOM     25  H   UNL d   1      22.535 -19.884  -1.832  0.00  0.00     0.164 HD
ENDBRANCH  18  19
BRANCH  18  26
ATOM     26  C   UNL d   1      24.195 -18.968  -0.175  0.00  0.00     0.035 C 
BRANCH  26  27
ATOM     27  C   UNL d   1      25.056 -18.139   0.774  0.00  0.00     0.002 C 
BRANCH  27  28
ATOM     28  C   UNL d   1      26.545 -18.108   0.537  0.00  0.00    -0.004 C 
ATOM     29  C   UNL d   1      26.920 -16.663   0.209  0.00  0.00     0.005 C 
ENDBRANCH  27  28
ENDBRANCH  26  27
ENDBRANCH  18  26
ENDBRANCH   1  18
TORSDOF 10
ENDMDL
MODEL 2
REMARK VINA RESULT:   -28.667      2.071      2.799
REMARK INTER + INTRA:         -33.718
REMARK INTER:                 -31.650
REMARK INTRA:                  -2.068
REMARK CONF_INDEPENDENT:        2.983
REMARK UNBOUND:                -2.068
REMARK  10 active torsions:
REMARK  status: ('A' for Active; 'I' for Inactive)
REMARK    1  A    between atoms: C_2  and  C_3 
REMARK    2  A    between atoms: C_3  and  C_4 
REMARK    3  A    between atoms: C_5  and  C_4 
REMARK    4  A    between atoms: C_5  and  C_10 
REMARK    5  A    between atoms: C_5  and  N_6 
REMARK       I    between atoms: N_6  and  C_7 
REMARK       I    between atoms: C_7  and  N_8 
REMARK       I    between atoms: C_10  and  N_12 
REMARK    6  A    between atoms: N_12  and  C_13 
REMARK    7  A    between atoms: C_13  and  C_14 
REMARK    8  A    between atoms: C_14  and  N_15 
REMARK    9  A    between atoms: N_15  and  C_16 
REMARK   10  A    between atoms: C_21  and  N_22 
ROOT
ATOM      1  C   UNL d   1      23.093 -16.903  -1.096  0.00  0.00     0.240 C 
ATOM      2  O   UNL d   1      22.292 -15.982  -1.074  0.00  0.00    -0.271 OA
ATOM      3  N   UNL d   1      24.307 -16.727  -1.726  0.00  0.00    -0.358 N 
ATOM      4  H   UNL d   1      24.748 -17.531  -2.150  0.00  0.00     0.162 HD
ENDROOT
BRANCH   3   5
ATOM      5  C   UNL d   1      24.508 -15.450  -2.382  0.00  0.00     0.142 C 
BRANCH   5   6
ATOM      6  C   UNL d   1      25.821 -14.820  -1.962  0.00  0.00     0.139 C 
BRANCH   6   7
ATOM      7  N   UNL d   1      26.751 -14.747  -3.069  0.00  0.00    -0.386 N 
ATOM      8  H   UNL d   1      26.411 -14.450  -3.982  0.00  0.00     0.159 HD
BRANCH   7   9
ATOM      9  C   UNL d   1      28.000 -15.342  -3.025  0.00  0.00     0.061 A 
ATOM     10  C   UNL d   1      28.552 -15.506  -1.736  0.00  0.00     0.031 A 
ATOM     11  C   UNL d   1      29.798 -16.107  -1.534  0.00  0.00     0.002 A 
ATOM     12  C   UNL d   1      30.504 -16.616  -2.616  0.00  0.00     0.003 A 
ATOM     13  C   UNL d   1      29.993 -16.466  -3.900  0.00  0.00     0.038 A 
ATOM     14  C   UNL d   1      28.766 -15.811  -4.111  0.00  0.00     0.129 A 
BRANCH  14  15
ATOM     15  N   UNL d   1      28.411 -15.579  -5.519  0.00  0.00    -0.113 N 
ATOM     16  O   UNL d   1      29.318 -15.696  -6.358  0.00  0.00    -0.532 OA
ATOM     17  O   UNL d   1      27.252 -15.246  -5.801  0.00  0.00    -0.532 OA
ENDBRANCH  14  15
ENDBRANCH   7   9
ENDBRANCH   6   7
ENDBRANCH   5   6
ENDBRANCH   3   5
BRANCH   1  18
ATOM     18  C   UNL d   1      22.791 -18.294  -0.481  0.00  0.00     0.177 C 
BRANCH  18  19
ATOM     19  N   UNL d   1      22.007 -19.139  -1.407  0.00  0.00    -0.335 N 
ATOM     20  C   UNL d   1      20.681 -19.274  -1.630  0.00  0.00     0.292 C 
ATOM     21  N   UNL d   1      19.796 -18.575  -0.898  0.00  0.00    -0.254 NA
ATOM     22  O   UNL d   1      20.281 -20.035  -2.513  0.00  0.00    -0.254 OA
ATOM     23  H   UNL d   1      20.089 -17.673  -0.544  0.00  0.00     0.128 HD
ATOM     24  H   UNL d   1      18.913 -18.452  -1.378  0.00  0.00     0.128 HD
ATOM     25  H   UNL d   1      22.518 -19.853  -1.910  0.00  0.00     0.164 HD
ENDBRANCH  18  19
BRANCH  18  26
ATOM     26  C   UNL d   1      24.139 -19.014  -0.149  0.00  0.00     0.035 C 
BRANCH  26  27
ATOM     27  C   UNL d   1      25.082 -18.119   0.650  0.00  0.00     0.002 C 
BRANCH  27  28
ATOM     28  C   UNL d   1      26.566 -18.334   0.492  0.00  0.00    -0.004 C 
ATOM     29  C   UNL d   1      27.248 -16.992   0.761  0.00  0.00     0.005 C 
ENDBRANCH  27  28
ENDBRANCH  26  27
ENDBRANCH  18  26
ENDBRANCH   1  18
TORSDOF 10
ENDMDL
MODEL 3
REMARK VINA RESULT:   -28.655      2.076      3.185
REMARK INTER + INTRA:         -33.654
REMARK INTER:                 -31.638
REMARK INTRA:                  -2.015
REMARK CONF_INDEPENDENT:        2.983
REMARK UNBOUND:                -2.015
REMARK  10 active torsions:
REMARK  status: ('A' for Active; 'I' for Inactive)
REMARK    1  A    between atoms: C_2  and  C_3 
REMARK    2  A    between atoms: C_3  and  C_4 
REMARK    3  A    between atoms: C_5  and  C_4 
REMARK    4  A    between atoms: C_5  and  C_10 
REMARK    5  A    between atoms: C_5  and  N_6 
REMARK       I    between atoms: N_6  and  C_7 
REMARK       I    between atoms: C_7  and  N_8 
REMARK       I    between atoms: C_10  and  N_12 
REMARK    6  A    between atoms: N_12  and  C_13 
REMARK    7  A    between atoms: C_13  and  C_14 
REMARK    8  A    between atoms: C_14  and  N_15 
REMARK    9  A    between atoms: N_15  and  C_16 
REMARK   10  A    between atoms: C_21  and  N_22 
ROOT
ATOM      1  C   UNL d   1      24.184 -18.575   0.095  0.00  0.00     0.240 C 
ATOM      2  O   UNL d   1      24.136 -18.546   1.314  0.00  0.00    -0.271 OA
ATOM      3  N   UNL d   1      25.411 -18.549  -0.534  0.00  0.00    -0.358 N 
ATOM      4  H   UNL d   1      25.473 -18.118  -1.446  0.00  0.00     0.162 HD
ENDROOT
BRANCH   3   5
ATOM      5  C   UNL d   1      26.569 -18.419   0.329  0.00  0.00     0.142 C 
BRANCH   5   6
ATOM      6  C   UNL d   1      27.142 -17.017   0.267  0.00  0.00     0.139 C 
BRANCH   6   7
ATOM      7  N   UNL d   1      27.518 -16.658  -1.084  0.00  0.00    -0.386 N 
ATOM      8  H   UNL d   1      28.099 -17.297  -1.622  0.00  0.00     0.159 HD
BRANCH   7   9
ATOM      9  C   UNL d   1      27.381 -15.369  -1.571  0.00  0.00     0.061 A 
ATOM     10  C   UNL d   1      26.852 -14.427  -0.662  0.00  0.00     0.031 A 
ATOM     11  C   UNL d   1      26.674 -13.084  -1.006  0.00  0.00     0.002 A 
ATOM     12  C   UNL d   1      27.077 -12.631  -2.255  0.00  0.00     0.003 A 
ATOM     13  C   UNL d   1      27.596 -13.532  -3.177  0.00  0.00     0.038 A 
ATOM     14  C   UNL d   1      27.723 -14.895  -2.853  0.00  0.00     0.129 A 
BRANCH  14  15
ATOM     15  N   UNL d   1      28.137 -15.769  -3.961  0.00  0.00    -0.113 N 
ATOM     16  O   UNL d   1      27.642 -15.542  -5.076  0.00  0.00    -0.532 OA
ATOM     17  O   UNL d   1      28.920 -16.701  -3.733  0.00  0.00    -0.532 OA
ENDBRANCH  14  15
ENDBRANCH   7   9
ENDBRANCH   6   7
ENDBRANCH   5   6
ENDBRANCH   3   5
BRANCH   1  18
ATOM     18  C   UNL d   1      22.915 -18.595  -0.796  0.00  0.00     0.177 C 
BRANCH  18  19
ATOM     19  N   UNL d   1      21.914 -19.561  -0.294  0.00  0.00    -0.335 N 
ATOM     20  C   UNL d   1      20.564 -19.593  -0.337  0.00  0.00     0.292 C 
ATOM     21  N   UNL d   1      19.879 -18.579  -0.895  0.00  0.00    -0.254 NA
ATOM     22  O   UNL d   1      19.957 -20.559   0.129  0.00  0.00    -0.254 OA
ATOM     23  H   UNL d   1      20.328 -18.067  -1.644  0.00  0.00     0.128 HD
ATOM     24  H   UNL d   1      18.963 -18.865  -1.215  0.00  0.00     0.128 HD
ATOM     25  H   UNL d   1      22.260 -20.299   0.306  0.00  0.00     0.164 HD
ENDBRANCH  18  19
BRANCH  18  26
ATOM     26  C   UNL d   1      22.279 -17.167  -0.822  0.00  0.00     0.035 C 
BRANCH  26  27
ATOM     27  C   UNL d   1      23.338 -16.072  -0.918  0.00  0.00     0.002 C 
BRANCH  27  28
ATOM     28  C   UNL d   1      24.364 -16.173  -2.019  0.00  0.00    -0.004 C 
ATOM     29  C   UNL d   1      24.404 -14.818  -2.726  0.00  0.00     0.005 C 
ENDBRANCH  27  28
ENDBRANCH  26  27
ENDBRANCH  18  26
ENDBRANCH   1  18
TORSDOF 10
ENDMDL
MODEL 4
REMARK VINA RESULT:   -28.653      2.483      4.093
REMARK INTER + INTRA:         -33.228
REMARK INTER:                 -31.636
REMARK INTRA:                  -1.592
REMARK CONF_INDEPENDENT:        2.983
REMARK UNBOUND:                -1.592
REMARK  10 active torsions:
REMARK  status: ('A' for Active; 'I' for Inactive)
REMARK    1  A    between atoms: C_2  and  C_3 
REMARK    2  A    between atoms: C_3  and  C_4 
REMARK    3  A    between atoms: C_5  and  C_4 
REMARK    4  A    between atoms: C_5  and  C_10 
REMARK    5  A    between atoms: C_5  and  N_6 
REMARK       I    between atoms: N_6  and  C_7 
REMARK       I    between atoms: C_7  and  N_8 
REMARK       I    between atoms: C_10  and  N_12 
REMARK    6  A    between atoms: N_12  and  C_13 
REMARK    7  A    between atoms: C_13  and  C_14 
REMARK    8  A    between atoms: C_14  and  N_15 
REMARK    9  A    between atoms: N_15  and  C_16 
REMARK   10  A    between atoms: C_21  and  N_22 
ROOT
ATOM      1  C   UNL d   1      23.976 -18.006  -0.603  0.00  0.00     0.240 C 
ATOM      2  O   UNL d   1      24.543 -17.911  -1.680  0.00  0.00    -0.271 OA
ATOM      3  N   UNL d   1      24.728 -18.125   0.548  0.00  0.00    -0.358 N 
ATOM      4  H   UNL d   1      24.340 -18.646   1.322  0.00  0.00     0.162 HD
ENDROOT
BRANCH   3   5
ATOM      5  C   UNL d   1      26.165 -18.196   0.368  0.00  0.00     0.142 C 
BRANCH   5   6
ATOM      6  C   UNL d   1      26.764 -16.813   0.212  0.00  0.00     0.139 C 
BRANCH   6   7
ATOM      7  N   UNL d   1      26.149 -16.090  -0.881  0.00  0.00    -0.386 N 
ATOM      8  H   UNL d   1      25.142 -15.939  -0.869  0.00  0.00     0.159 HD
BRANCH   7   9
ATOM      9  C   UNL d   1      26.806 -15.859  -2.077  0.00  0.00     0.061 A 
ATOM     10  C   UNL d   1      28.169 -16.227  -2.105  0.00  0.00     0.031 A 
ATOM     11  C   UNL d   1      28.956 -16.070  -3.249  0.00  0.00     0.002 A 
ATOM     12  C   UNL d   1      28.385 -15.592  -4.421  0.00  0.00     0.003 A 
ATOM     13  C   UNL d   1      27.048 -15.213  -4.428  0.00  0.00     0.038 A 
ATOM     14  C   UNL d   1      26.268 -15.317  -3.262  0.00  0.00     0.129 A 
BRANCH  14  15
ATOM     15  N   UNL d   1      24.918 -14.742  -3.355  0.00  0.00    -0.113 N 
ATOM     16  O   UNL d   1      24.054 -15.200  -2.591  0.00  0.00    -0.532 OA
ATOM     17  O   UNL d   1      24.693 -13.866  -4.201  0.00  0.00    -0.532 OA
ENDBRANCH  14  15
ENDBRANCH   7   9
ENDBRANCH   6   7
ENDBRANCH   5   6
ENDBRANCH   3   5
BRANCH   1  18
ATOM     18  C   UNL d   1      22.432 -18.044  -0.466  0.00  0.00     0.177 C 
BRANCH  18  19
ATOM     19  N   UNL d   1      21.822 -18.968  -1.446  0.00  0.00    -0.335 N 
ATOM     20  C   UNL d   1      20.541 -19.287  -1.735  0.00  0.00     0.292 C 
ATOM     21  N   UNL d   1      19.532 -18.743  -1.034  0.00  0.00    -0.254 NA
ATOM     22  O   UNL d   1      20.297 -20.074  -2.652  0.00  0.00    -0.254 OA
ATOM     23  H   UNL d   1      19.674 -17.818  -0.648  0.00  0.00     0.128 HD
ATOM     24  H   UNL d   1      18.663 -18.736  -1.553  0.00  0.00     0.128 HD
ATOM     25  H   UNL d   1      22.454 -19.587  -1.937  0.00  0.00     0.164 HD
ENDBRANCH  18  19
BRANCH  18  26
ATOM     26  C   UNL d   1      22.053 -18.508   0.979  0.00  0.00     0.035 C 
BRANCH  26  27
ATOM     27  C   UNL d   1      21.034 -19.643   0.965  0.00  0.00     0.002 C 
BRANCH  27  28
ATOM     28  C   UNL d   1      19.758 -19.460   1.747  0.00  0.00    -0.004 C 
ATOM     29  C   UNL d   1      18.847 -20.641   1.409  0.00  0.00     0.005 C 
ENDBRANCH  27  28
ENDBRANCH  26  27
ENDBRANCH  18  26
ENDBRANCH   1  18
TORSDOF 10
ENDMDL
MODEL 5
REMARK VINA RESULT:   -28.520      2.535      3.773
REMARK INTER + INTRA:         -33.547
REMARK INTER:                 -31.503
REMARK INTRA:                  -2.044
REMARK CONF_INDEPENDENT:        2.983
REMARK UNBOUND:                -2.044
REMARK  10 active torsions:
REMARK  status: ('A' for Active; 'I' for Inactive)
REMARK    1  A    between atoms: C_2  and  C_3 
REMARK    2  A    between atoms: C_3  and  C_4 
REMARK    3  A    between atoms: C_5  and  C_4 
REMARK    4  A    between atoms: C_5  and  C_10 
REMARK    5  A    between atoms: C_5  and  N_6 
REMARK       I    between atoms: N_6  and  C_7 
REMARK       I    between atoms: C_7  and  N_8 
REMARK       I    between atoms: C_10  and  N_12 
REMARK    6  A    between atoms: N_12  and  C_13 
REMARK    7  A    between atoms: C_13  and  C_14 
REMARK    8  A    between atoms: C_14  and  N_15 
REMARK    9  A    between atoms: N_15  and  C_16 
REMARK   10  A    between atoms: C_21  and  N_22 
ROOT
ATOM      1  C   UNL d   1      24.274 -18.397  -0.015  0.00  0.00     0.240 C 
ATOM      2  O   UNL d   1      24.397 -18.377   1.199  0.00  0.00    -0.271 OA
ATOM      3  N   UNL d   1      25.401 -18.347  -0.809  0.00  0.00    -0.358 N 
ATOM      4  H   UNL d   1      25.329 -17.910  -1.717  0.00  0.00     0.162 HD
ENDROOT
BRANCH   3   5
ATOM      5  C   UNL d   1      26.666 -18.203  -0.115  0.00  0.00     0.142 C 
BRANCH   5   6
ATOM      6  C   UNL d   1      27.297 -16.855  -0.403  0.00  0.00     0.139 C 
BRANCH   6   7
ATOM      7  N   UNL d   1      27.354 -16.591  -1.825  0.00  0.00    -0.386 N 
ATOM      8  H   UNL d   1      26.545 -16.812  -2.402  0.00  0.00     0.159 HD
BRANCH   7   9
ATOM      9  C   UNL d   1      28.546 -16.339  -2.482  0.00  0.00     0.061 A 
ATOM     10  C   UNL d   1      29.716 -16.515  -1.712  0.00  0.00     0.031 A 
ATOM     11  C   UNL d   1      30.992 -16.314  -2.246  0.00  0.00     0.002 A 
ATOM     12  C   UNL d   1      31.137 -15.986  -3.587  0.00  0.00     0.003 A 
ATOM     13  C   UNL d   1      30.007 -15.799  -4.373  0.00  0.00     0.038 A 
ATOM     14  C   UNL d   1      28.720 -15.944  -3.824  0.00  0.00     0.129 A 
BRANCH  14  15
ATOM     15  N   UNL d   1      27.611 -15.568  -4.713  0.00  0.00    -0.113 N 
ATOM     16  O   UNL d   1      26.466 -15.602  -4.235  0.00  0.00    -0.532 OA
ATOM     17  O   UNL d   1      27.856 -15.273  -5.891  0.00  0.00    -0.532 OA
ENDBRANCH  14  15
ENDBRANCH   7   9
ENDBRANCH   6   7
ENDBRANCH   5   6
ENDBRANCH   3   5
BRANCH   1  18
ATOM     18  C   UNL d   1      22.894 -18.434  -0.721  0.00  0.00     0.177 C 
BRANCH  18  19
ATOM     19  N   UNL d   1      21.907 -19.216   0.055  0.00  0.00    -0.335 N 
ATOM     20  C   UNL d   1      20.562 -19.322  -0.008  0.00  0.00     0.292 C 
ATOM     21  N   UNL d   1      19.866 -18.590  -0.895  0.00  0.00    -0.254 NA
ATOM     22  O   UNL d   1      19.970 -20.099   0.744  0.00  0.00    -0.254 OA
ATOM     23  H   UNL d   1      20.325 -18.343  -1.762  0.00  0.00     0.128 HD
ATOM     24  H   UNL d   1      18.972 -19.008  -1.122  0.00  0.00     0.128 HD
ATOM     25  H   UNL d   1      22.255 -19.691   0.879  0.00  0.00     0.164 HD
ENDBRANCH  18  19
BRANCH  18  26
ATOM     26  C   UNL d   1      22.364 -16.973  -0.895  0.00  0.00     0.035 C 
BRANCH  26  27
ATOM     27  C   UNL d   1      23.500 -15.954  -0.920  0.00  0.00     0.002 C 
BRANCH  27  28
ATOM     28  C   UNL d   1      24.418 -15.943  -2.116  0.00  0.00    -0.004 C 
ATOM     29  C   UNL d   1      24.407 -14.524  -2.682  0.00  0.00     0.005 C 
ENDBRANCH  27  28
ENDBRANCH  26  27
ENDBRANCH  18  26
ENDBRANCH   1  18
TORSDOF 10
ENDMDL
MODEL 6
REMARK VINA RESULT:   -27.857      3.253      4.095
REMARK INTER + INTRA:         -33.027
REMARK INTER:                 -30.840
REMARK INTRA:                  -2.188
REMARK CONF_INDEPENDENT:        2.983
REMARK UNBOUND:                -2.188
REMARK  10 active torsions:
REMARK  status: ('A' for Active; 'I' for Inactive)
REMARK    1  A    between atoms: C_2  and  C_3 
REMARK    2  A    between atoms: C_3  and  C_4 
REMARK    3  A    between atoms: C_5  and  C_4 
REMARK    4  A    between atoms: C_5  and  C_10 
REMARK    5  A    between atoms: C_5  and  N_6 
REMARK       I    between atoms: N_6  and  C_7 
REMARK       I    between atoms: C_7  and  N_8 
REMARK       I    between atoms: C_10  and  N_12 
REMARK    6  A    between atoms: N_12  and  C_13 
REMARK    7  A    between atoms: C_13  and  C_14 
REMARK    8  A    between atoms: C_14  and  N_15 
REMARK    9  A    between atoms: N_15  and  C_16 
REMARK   10  A    between atoms: C_21  and  N_22 
ROOT
ATOM      1  C   UNL d   1      24.195 -18.437   0.140  0.00  0.00     0.240 C 
ATOM      2  O   UNL d   1      24.132 -18.332   1.355  0.00  0.00    -0.271 OA
ATOM      3  N   UNL d   1      25.430 -18.475  -0.472  0.00  0.00    -0.358 N 
ATOM      4  H   UNL d   1      25.513 -18.103  -1.407  0.00  0.00     0.162 HD
ENDROOT
BRANCH   3   5
ATOM      5  C   UNL d   1      26.580 -18.318   0.398  0.00  0.00     0.142 C 
BRANCH   5   6
ATOM      6  C   UNL d   1      27.673 -17.518  -0.282  0.00  0.00     0.139 C 
BRANCH   6   7
ATOM      7  N   UNL d   1      27.499 -16.097  -0.070  0.00  0.00    -0.386 N 
ATOM      8  H   UNL d   1      27.076 -15.774   0.798  0.00  0.00     0.159 HD
BRANCH   7   9
ATOM      9  C   UNL d   1      27.598 -15.179  -1.102  0.00  0.00     0.061 A 
ATOM     10  C   UNL d   1      28.109 -15.681  -2.318  0.00  0.00     0.031 A 
ATOM     11  C   UNL d   1      28.249 -14.876  -3.452  0.00  0.00     0.002 A 
ATOM     12  C   UNL d   1      27.826 -13.554  -3.418  0.00  0.00     0.003 A 
ATOM     13  C   UNL d   1      27.325 -13.024  -2.235  0.00  0.00     0.038 A 
ATOM     14  C   UNL d   1      27.236 -13.817  -1.076  0.00  0.00     0.129 A 
BRANCH  14  15
ATOM     15  N   UNL d   1      26.838 -13.102   0.145  0.00  0.00    -0.113 N 
ATOM     16  O   UNL d   1      26.284 -13.767   1.035  0.00  0.00    -0.532 OA
ATOM     17  O   UNL d   1      27.035 -11.881   0.221  0.00  0.00    -0.532 OA
ENDBRANCH  14  15
ENDBRANCH   7   9
ENDBRANCH   6   7
ENDBRANCH   5   6
ENDBRANCH   3   5
BRANCH   1  18
ATOM     18  C   UNL d   1      22.937 -18.485  -0.766  0.00  0.00     0.177 C 
BRANCH  18  19
ATOM     19  N   UNL d   1      21.969 -19.500  -0.297  0.00  0.00    -0.335 N 
ATOM     20  C   UNL d   1      20.621 -19.581  -0.355  0.00  0.00     0.292 C 
ATOM     21  N   UNL d   1      19.904 -18.581  -0.895  0.00  0.00    -0.254 NA
ATOM     22  O   UNL d   1      20.047 -20.581   0.082  0.00  0.00    -0.254 OA
ATOM     23  H   UNL d   1      20.340 -18.034  -1.627  0.00  0.00     0.128 HD
ATOM     24  H   UNL d   1      19.002 -18.893  -1.232  0.00  0.00     0.128 HD
ATOM     25  H   UNL d   1      22.336 -20.239   0.288  0.00  0.00     0.164 HD
ENDBRANCH  18  19
BRANCH  18  26
ATOM     26  C   UNL d   1      22.247 -17.082  -0.766  0.00  0.00     0.035 C 
BRANCH  26  27
ATOM     27  C   UNL d   1      23.249 -15.953  -0.992  0.00  0.00     0.002 C 
BRANCH  27  28
ATOM     28  C   UNL d   1      24.329 -16.159  -2.024  0.00  0.00    -0.004 C 
ATOM     29  C   UNL d   1      24.627 -14.795  -2.645  0.00  0.00     0.005 C 
ENDBRANCH  27  28
ENDBRANCH  26  27
ENDBRANCH  18  26
ENDBRANCH   1  18
TORSDOF 10
ENDMDL
MODEL 7
REMARK VINA RESULT:   -27.800      2.132      2.688
REMARK INTER + INTRA:         -32.030
REMARK INTER:                 -30.783
REMARK INTRA:                  -1.247
REMARK CONF_INDEPENDENT:        2.983
REMARK UNBOUND:                -1.247
REMARK  10 active torsions:
REMARK  status: ('A' for Active; 'I' for Inactive)
REMARK    1  A    between atoms: C_2  and  C_3 
REMARK    2  A    between atoms: C_3  and  C_4 
REMARK    3  A    between atoms: C_5  and  C_4 
REMARK    4  A    between atoms: C_5  and  C_10 
REMARK    5  A    between atoms: C_5  and  N_6 
REMARK       I    between atoms: N_6  and  C_7 
REMARK       I    between atoms: C_7  and  N_8 
REMARK       I    between atoms: C_10  and  N_12 
REMARK    6  A    between atoms: N_12  and  C_13 
REMARK    7  A    between atoms: C_13  and  C_14 
REMARK    8  A    between atoms: C_14  and  N_15 
REMARK    9  A    between atoms: N_15  and  C_16 
REMARK   10  A    between atoms: C_21  and  N_22 
ROOT
ATOM      1  C   UNL d   1      23.875 -17.096  -1.715  0.00  0.00     0.240 C 
ATOM      2  O   UNL d   1      24.407 -17.661  -2.657  0.00  0.00    -0.271 OA
ATOM      3  N   UNL d   1      24.310 -15.840  -1.347  0.00  0.00    -0.358 N 
ATOM      4  H   UNL d   1      24.241 -15.575  -0.375  0.00  0.00     0.162 HD
ENDROOT
BRANCH   3   5
ATOM      5  C   UNL d   1      25.438 -15.311  -2.090  0.00  0.00     0.142 C 
BRANCH   5   6
ATOM      6  C   UNL d   1      26.605 -16.278  -2.073  0.00  0.00     0.139 C 
BRANCH   6   7
ATOM      7  N   UNL d   1      27.838 -15.626  -2.458  0.00  0.00    -0.386 N 
ATOM      8  H   UNL d   1      28.353 -15.091  -1.762  0.00  0.00     0.159 HD
BRANCH   7   9
ATOM      9  C   UNL d   1      28.193 -15.441  -3.784  0.00  0.00     0.061 A 
ATOM     10  C   UNL d   1      29.492 -15.872  -4.132  0.00  0.00     0.031 A 
ATOM     11  C   UNL d   1      29.983 -15.766  -5.437  0.00  0.00     0.002 A 
ATOM     12  C   UNL d   1      29.164 -15.279  -6.446  0.00  0.00     0.003 A 
ATOM     13  C   UNL d   1      27.882 -14.840  -6.138  0.00  0.00     0.038 A 
ATOM     14  C   UNL d   1      27.406 -14.892  -4.815  0.00  0.00     0.129 A 
BRANCH  14  15
ATOM     15  N   UNL d   1      26.099 -14.256  -4.591  0.00  0.00    -0.113 N 
ATOM     16  O   UNL d   1      25.097 -14.862  -5.003  0.00  0.00    -0.532 OA
ATOM     17  O   UNL d   1      26.054 -13.146  -4.045  0.00  0.00    -0.532 OA
ENDBRANCH  14  15
ENDBRANCH   7   9
ENDBRANCH   6   7
ENDBRANCH   5   6
ENDBRANCH   3   5
BRANCH   1  18
ATOM     18  C   UNL d   1      22.748 -17.747  -0.872  0.00  0.00     0.177 C 
BRANCH  18  19
ATOM     19  N   UNL d   1      22.036 -18.796  -1.633  0.00  0.00    -0.335 N 
ATOM     20  C   UNL d   1      20.741 -19.179  -1.681  0.00  0.00     0.292 C 
ATOM     21  N   UNL d   1      19.828 -18.582  -0.895  0.00  0.00    -0.254 NA
ATOM     22  O   UNL d   1      20.394 -20.075  -2.453  0.00  0.00    -0.254 OA
ATOM     23  H   UNL d   1      19.988 -17.615  -0.643  0.00  0.00     0.128 HD
ATOM     24  H   UNL d   1      18.891 -18.659  -1.269  0.00  0.00     0.128 HD
ATOM     25  H   UNL d   1      22.611 -19.452  -2.145  0.00  0.00     0.164 HD
ENDBRANCH  18  19
BRANCH  18  26
ATOM     26  C   UNL d   1      23.368 -18.383   0.416  0.00  0.00     0.035 C 
BRANCH  26  27
ATOM     27  C   UNL d   1      24.811 -18.829   0.194  0.00  0.00     0.002 C 
BRANCH  27  28
ATOM     28  C   UNL d   1      25.894 -18.150   0.994  0.00  0.00    -0.004 C 
ATOM     29  C   UNL d   1      27.193 -18.282   0.199  0.00  0.00     0.005 C 
ENDBRANCH  27  28
ENDBRANCH  26  27
ENDBRANCH  18  26
ENDBRANCH   1  18
TORSDOF 10
ENDMDL
MODEL 8
REMARK VINA RESULT:   -27.191      3.864      5.472
REMARK INTER + INTRA:         -32.417
REMARK INTER:                 -30.174
REMARK INTRA:                  -2.244
REMARK CONF_INDEPENDENT:        2.983
REMARK UNBOUND:                -2.244
REMARK  10 active torsions:
REMARK  status: ('A' for Active; 'I' for Inactive)
REMARK    1  A    between atoms: C_2  and  C_3 
REMARK    2  A    between atoms: C_3  and  C_4 
REMARK    3  A    between atoms: C_5  and  C_4 
REMARK    4  A    between atoms: C_5  and  C_10 
REMARK    5  A    between atoms: C_5  and  N_6 
REMARK       I    between atoms: N_6  and  C_7 
REMARK       I    between atoms: C_7  and  N_8 
REMARK       I    between atoms: C_10  and  N_12 
REMARK    6  A    between atoms: N_12  and  C_13 
REMARK    7  A    between atoms: C_13  and  C_14 
REMARK    8  A    between atoms: C_14  and  N_15 
REMARK    9  A    between atoms: N_15  and  C_16 
REMARK   10  A    between atoms: C_21  and  N_22 
ROOT
ATOM      1  C   UNL d   1      24.255 -18.459   0.127  0.00  0.00     0.240 C 
ATOM      2  O   UNL d   1      24.335 -18.542   1.343  0.00  0.00    -0.271 OA
ATOM      3  N   UNL d   1      25.407 -18.316  -0.617  0.00  0.00    -0.358 N 
ATOM      4  H   UNL d   1      25.355 -17.803  -1.487  0.00  0.00     0.162 HD
ENDROOT
BRANCH   3   5
ATOM      5  C   UNL d   1      26.643 -18.207   0.132  0.00  0.00     0.142 C 
BRANCH   5   6
ATOM      6  C   UNL d   1      27.520 -17.100  -0.419  0.00  0.00     0.139 C 
BRANCH   6   7
ATOM      7  N   UNL d   1      27.289 -15.850   0.273  0.00  0.00    -0.386 N 
ATOM      8  H   UNL d   1      26.384 -15.393   0.181  0.00  0.00     0.159 HD
BRANCH   7   9
ATOM      9  C   UNL d   1      28.324 -15.097   0.802  0.00  0.00     0.061 A 
ATOM     10  C   UNL d   1      29.623 -15.596   0.567  0.00  0.00     0.031 A 
ATOM     11  C   UNL d   1      30.766 -14.934   1.025  0.00  0.00     0.002 A 
ATOM     12  C   UNL d   1      30.643 -13.717   1.683  0.00  0.00     0.003 A 
ATOM     13  C   UNL d   1      29.379 -13.199   1.936  0.00  0.00     0.038 A 
ATOM     14  C   UNL d   1      28.225 -13.892   1.527  0.00  0.00     0.129 A 
BRANCH  14  15
ATOM     15  N   UNL d   1      26.951 -13.322   1.990  0.00  0.00    -0.113 N 
ATOM     16  O   UNL d   1      25.930 -13.629   1.355  0.00  0.00    -0.532 OA
ATOM     17  O   UNL d   1      26.954 -12.543   2.953  0.00  0.00    -0.532 OA
ENDBRANCH  14  15
ENDBRANCH   7   9
ENDBRANCH   6   7
ENDBRANCH   5   6
ENDBRANCH   3   5
BRANCH   1  18
ATOM     18  C   UNL d   1      22.900 -18.462  -0.628  0.00  0.00     0.177 C 
BRANCH  18  19
ATOM     19  N   UNL d   1      21.866 -19.214   0.115  0.00  0.00    -0.335 N 
ATOM     20  C   UNL d   1      20.523 -19.300  -0.011  0.00  0.00     0.292 C 
ATOM     21  N   UNL d   1      19.882 -18.576  -0.944  0.00  0.00    -0.254 NA
ATOM     22  O   UNL d   1      19.884 -20.053   0.727  0.00  0.00    -0.254 OA
ATOM     23  H   UNL d   1      20.386 -18.353  -1.793  0.00  0.00     0.128 HD
ATOM     24  H   UNL d   1      18.994 -18.985  -1.205  0.00  0.00     0.128 HD
ATOM     25  H   UNL d   1      22.166 -19.677   0.963  0.00  0.00     0.164 HD
ENDBRANCH  18  19
BRANCH  18  26
ATOM     26  C   UNL d   1      22.417 -16.989  -0.828  0.00  0.00     0.035 C 
BRANCH  26  27
ATOM     27  C   UNL d   1      23.582 -16.002  -0.833  0.00  0.00     0.002 C 
BRANCH  27  28
ATOM     28  C   UNL d   1      24.122 -15.550  -2.166  0.00  0.00    -0.004 C 
ATOM     29  C   UNL d   1      25.474 -14.886  -1.904  0.00  0.00     0.005 C 
ENDBRANCH  27  28
ENDBRANCH  26  27
ENDBRANCH  18  26
ENDBRANCH   1  18
TORSDOF 10
ENDMDL
MODEL 9
REMARK VINA RESULT:   -26.966      3.121      4.439
REMARK INTER + INTRA:         -31.999
REMARK INTER:                 -29.949
REMARK INTRA:                  -2.050
REMARK CONF_INDEPENDENT:        2.983
REMARK UNBOUND:                -2.050
REMARK  10 active torsions:
REMARK  status: ('A' for Active; 'I' for Inactive)
REMARK    1  A    between atoms: C_2  and  C_3 
REMARK    2  A    between atoms: C_3  and  C_4 
REMARK    3  A    between atoms: C_5  and  C_4 
REMARK    4  A    between atoms: C_5  and  C_10 
REMARK    5  A    between atoms: C_5  and  N_6 
REMARK       I    between atoms: N_6  and  C_7 
REMARK       I    between atoms: C_7  and  N_8 
REMARK       I    between atoms: C_10  and  N_12 
REMARK    6  A    between atoms: N_12  and  C_13 
REMARK    7  A    between atoms: C_13  and  C_14 
REMARK    8  A    between atoms: C_14  and  N_15 
REMARK    9  A    between atoms: N_15  and  C_16 
REMARK   10  A    between atoms: C_21  and  N_22 
ROOT
ATOM      1  C   UNL d   1      24.336 -18.426  -0.006  0.00  0.00     0.240 C 
ATOM      2  O   UNL d   1      24.523 -18.577   1.191  0.00  0.00    -0.271 OA
ATOM      3  N   UNL d   1      25.420 -18.274  -0.845  0.00  0.00    -0.358 N 
ATOM      4  H   UNL d   1      25.307 -17.714  -1.678  0.00  0.00     0.162 HD
ENDROOT
BRANCH   3   5
ATOM      5  C   UNL d   1      26.722 -18.240  -0.207  0.00  0.00     0.142 C 
BRANCH   5   6
ATOM      6  C   UNL d   1      26.870 -17.009   0.665  0.00  0.00     0.139 C 
BRANCH   6   7
ATOM      7  N   UNL d   1      27.028 -15.811  -0.133  0.00  0.00    -0.386 N 
ATOM      8  H   UNL d   1      27.043 -15.891  -1.148  0.00  0.00     0.159 HD
BRANCH   7   9
ATOM      9  C   UNL d   1      27.458 -14.613   0.411  0.00  0.00     0.061 A 
ATOM     10  C   UNL d   1      27.686 -14.623   1.804  0.00  0.00     0.031 A 
ATOM     11  C   UNL d   1      28.139 -13.491   2.489  0.00  0.00     0.002 A 
ATOM     12  C   UNL d   1      28.434 -12.330   1.787  0.00  0.00     0.003 A 
ATOM     13  C   UNL d   1      28.216 -12.283   0.416  0.00  0.00     0.038 A 
ATOM     14  C   UNL d   1      27.705 -13.402  -0.267  0.00  0.00     0.129 A 
BRANCH  14  15
ATOM     15  N   UNL d   1      27.372 -13.178  -1.682  0.00  0.00    -0.113 N 
ATOM     16  O   UNL d   1      26.433 -12.404  -1.926  0.00  0.00    -0.532 OA
ATOM     17  O   UNL d   1      28.006 -13.787  -2.554  0.00  0.00    -0.532 OA
ENDBRANCH  14  15
ENDBRANCH   7   9
ENDBRANCH   6   7
ENDBRANCH   5   6
ENDBRANCH   3   5
BRANCH   1  18
ATOM     18  C   UNL d   1      22.920 -18.351  -0.634  0.00  0.00     0.177 C 
BRANCH  18  19
ATOM     19  N   UNL d   1      21.906 -18.987   0.236  0.00  0.00    -0.335 N 
ATOM     20  C   UNL d   1      20.565 -19.122   0.139  0.00  0.00     0.292 C 
ATOM     21  N   UNL d   1      19.903 -18.580  -0.897  0.00  0.00    -0.254 NA
ATOM     22  O   UNL d   1      19.947 -19.752   1.000  0.00  0.00    -0.254 OA
ATOM     23  H   UNL d   1      20.397 -18.494  -1.776  0.00  0.00     0.128 HD
ATOM     24  H   UNL d   1      19.022 -19.046  -1.077  0.00  0.00     0.128 HD
ATOM     25  H   UNL d   1      22.221 -19.294   1.147  0.00  0.00     0.164 HD
ENDBRANCH  18  19
BRANCH  18  26
ATOM     26  C   UNL d   1      22.533 -16.853  -0.858  0.00  0.00     0.035 C 
BRANCH  26  27
ATOM     27  C   UNL d   1      23.761 -15.948  -0.908  0.00  0.00     0.002 C 
BRANCH  27  28
ATOM     28  C   UNL d   1      24.049 -15.213  -2.192  0.00  0.00    -0.004 C 
ATOM     29  C   UNL d   1      25.364 -15.764  -2.743  0.00  0.00     0.005 C 
ENDBRANCH  27  28
ENDBRANCH  26  27
ENDBRANCH  18  26
ENDBRANCH   1  18
TORSDOF 10
ENDMDL
