MODEL 1
REMARK VINA RESULT:   -10.642      0.000      0.000
REMARK INTER + INTRA:         -15.233
REMARK INTER:                 -12.730
REMARK INTRA:                  -2.503
REMARK CONF_INDEPENDENT:        2.088
REMARK UNBOUND:                -2.503
REMARK  7 active torsions:
REMARK  status: ('A' for Active; 'I' for Inactive)
REMARK    1  A    between atoms: C_3  and  C_4 
REMARK       I    between atoms: C_4  and  N_6 
REMARK    2  A    between atoms: N_6  and  C_7 
REMARK    3  A    between atoms: C_14  and  C_15 
REMARK    4  A    between atoms: C_23  and  S_24 
REMARK    5  A    between atoms: S_24  and  C_25 
REMARK    6  A    between atoms: C_25  and  C_26 
REMARK       I    between atoms: C_26  and  N_28 
REMARK    7  A    between atoms: N_28  and  C_29 
ROOT
ATOM      1  C   UNL d   1      25.126 -13.615  -4.661  0.00  0.00     0.069 C 
ATOM      2  C   UNL d   1      25.614 -14.584  -3.609  0.00  0.00     0.019 C 
ATOM      3  C   UNL d   1      26.849 -15.164  -3.603  0.00  0.00     0.048 C 
ATOM      4  C   UNL d   1      27.268 -15.963  -2.394  0.00  0.00     0.129 C 
ATOM      5  C   UNL d   1      26.101 -16.498  -1.629  0.00  0.00     0.057 C 
ATOM      6  C   UNL d   1      26.390 -17.702  -0.748  0.00  0.00     0.019 C 
ATOM      7  N   UNL d   1      26.630 -18.701  -0.017  0.00  0.00    -0.096 N 
ATOM      8  C   UNL d   1      24.862 -15.936  -1.693  0.00  0.00     0.087 C 
ATOM      9  N   UNL d   1      24.707 -14.876  -2.576  0.00  0.00    -0.353 N 
ATOM     10  H   UNL d   1      23.825 -14.377  -2.556  0.00  0.00     0.166 HD
ENDROOT
BRANCH   4  11
ATOM     11  C   UNL d   1      28.047 -15.101  -1.453  0.00  0.00     0.066 A 
ATOM     12  C   UNL d   1      27.603 -14.136  -0.573  0.00  0.00     0.035 A 
ATOM     13  C   UNL d   1      28.730 -13.715   0.146  0.00  0.00     0.027 A 
ATOM     14  C   UNL d   1      29.788 -14.447  -0.342  0.00  0.00     0.142 A 
ATOM     15  O   UNL d   1      29.382 -15.300  -1.323  0.00  0.00    -0.326 OA
ENDBRANCH   4  11
BRANCH   8  16
ATOM     16  S   UNL d   1      23.635 -16.617  -0.643  0.00  0.00    -0.102 SA
BRANCH  16  17
ATOM     17  C   UNL d   1      23.120 -18.270  -1.183  0.00  0.00     0.184 C 
BRANCH  17  18
ATOM     18  C   UNL d   1      21.680 -18.542  -0.669  0.00  0.00     0.231 C 
ATOM     19  O   UNL d   1      20.729 -17.821  -0.973  0.00  0.00    -0.272 OA
ATOM     20  N   UNL d   1      21.536 -19.631   0.191  0.00  0.00    -0.327 N 
ATOM     21  H   UNL d   1      22.353 -20.064   0.602  0.00  0.00     0.169 HD
BRANCH  20  22
ATOM     22  C   UNL d   1      20.270 -20.027   0.707  0.00  0.00     0.034 A 
ATOM     23  C   UNL d   1      20.025 -20.006   2.085  0.00  0.00     0.029 A 
ATOM     24  C   UNL d   1      18.795 -20.456   2.592  0.00  0.00     0.002 A 
ATOM     25  C   UNL d   1      17.795 -20.901   1.728  0.00  0.00     0.000 A 
ATOM     26  C   UNL d   1      18.034 -20.926   0.358  0.00  0.00     0.002 A 
ATOM     27  C   UNL d   1      19.262 -20.490  -0.145  0.00  0.00     0.029 A 
ENDBRANCH  20  22
ENDBRANCH  17  18
ENDBRANCH  16  17
ENDBRANCH   8  16
BRANCH   3  28
ATOM     28  C   UNL d   1      27.855 -15.016  -4.700  0.00  0.00     0.255 C 
ATOM     29  O   UNL d   1      27.511 -15.200  -5.873  0.00  0.00    -0.268 OA
ATOM     30  N   UNL d   1      29.176 -14.774  -4.365  0.00  0.00    -0.323 N 
ATOM     31  H   UNL d   1      29.552 -15.051  -3.467  0.00  0.00     0.169 HD
BRANCH  30  32
ATOM     32  C   UNL d   1      30.123 -14.504  -5.380  0.00  0.00     0.041 A 
ATOM     33  C   UNL d   1      31.047 -15.499  -5.726  0.00  0.00     0.030 A 
ATOM     34  C   UNL d   1      31.951 -15.278  -6.769  0.00  0.00     0.002 A 
ATOM     35  C   UNL d   1      31.960 -14.057  -7.439  0.00  0.00     0.001 A 
ATOM     36  C   UNL d   1      31.068 -13.053  -7.069  0.00  0.00     0.009 A 
ATOM     37  C   UNL d   1      30.143 -13.256  -6.036  0.00  0.00    -0.035 A 
ATOM     38  C   UNL d   1      29.273 -12.100  -5.617  0.00  0.00     0.050 C 
ENDBRANCH  30  32
ENDBRANCH   3  28
TORSDOF 7
ENDMDL
MODEL 2
REMARK VINA RESULT:   -10.594      0.609      1.287
REMARK INTER + INTRA:         -15.153
REMARK INTER:                 -12.682
REMARK INTRA:                  -2.471
REMARK CONF_INDEPENDENT:        2.088
REMARK UNBOUND:                -2.471
REMARK  7 active torsions:
REMARK  status: ('A' for Active; 'I' for Inactive)
REMARK    1  A    between atoms: C_3  and  C_4 
REMARK       I    between atoms: C_4  and  N_6 
REMARK    2  A    between atoms: N_6  and  C_7 
REMARK    3  A    between atoms: C_14  and  C_15 
REMARK    4  A    between atoms: C_23  and  S_24 
REMARK    5  A    between atoms: S_24  and  C_25 
REMARK    6  A    between atoms: C_25  and  C_26 
REMARK       I    between atoms: C_26  and  N_28 
REMARK    7  A    between atoms: N_28  and  C_29 
ROOT
ATOM      1  C   UNL d   1      25.555 -13.685  -4.650  0.00  0.00     0.069 C 
ATOM      2  C   UNL d   1      25.895 -14.679  -3.564  0.00  0.00     0.019 C 
ATOM      3  C   UNL d   1      27.086 -15.335  -3.459  0.00  0.00     0.048 C 
ATOM      4  C   UNL d   1      27.355 -16.155  -2.222  0.00  0.00     0.129 C 
ATOM      5  C   UNL d   1      26.099 -16.613  -1.554  0.00  0.00     0.057 C 
ATOM      6  C   UNL d   1      26.240 -17.829  -0.654  0.00  0.00     0.019 C 
ATOM      7  N   UNL d   1      26.357 -18.838   0.093  0.00  0.00    -0.096 N 
ATOM      8  C   UNL d   1      24.907 -15.975  -1.716  0.00  0.00     0.087 C 
ATOM      9  N   UNL d   1      24.891 -14.910  -2.608  0.00  0.00    -0.353 N 
ATOM     10  H   UNL d   1      24.043 -14.356  -2.658  0.00  0.00     0.166 HD
ENDROOT
BRANCH   4  11
ATOM     11  C   UNL d   1      28.108 -15.340  -1.219  0.00  0.00     0.066 A 
ATOM     12  C   UNL d   1      27.647 -14.674  -0.103  0.00  0.00     0.035 A 
ATOM     13  C   UNL d   1      28.781 -14.166   0.545  0.00  0.00     0.027 A 
ATOM     14  C   UNL d   1      29.860 -14.552  -0.216  0.00  0.00     0.142 A 
ATOM     15  O   UNL d   1      29.460 -15.272  -1.301  0.00  0.00    -0.326 OA
ENDBRANCH   4  11
BRANCH   8  16
ATOM     16  S   UNL d   1      23.559 -16.574  -0.770  0.00  0.00    -0.102 SA
BRANCH  16  17
ATOM     17  C   UNL d   1      23.089 -18.259  -1.247  0.00  0.00     0.184 C 
BRANCH  17  18
ATOM     18  C   UNL d   1      21.655 -18.549  -0.728  0.00  0.00     0.231 C 
ATOM     19  O   UNL d   1      20.687 -17.862  -1.059  0.00  0.00    -0.272 OA
ATOM     20  N   UNL d   1      21.536 -19.610   0.170  0.00  0.00    -0.327 N 
ATOM     21  H   UNL d   1      22.361 -20.008   0.597  0.00  0.00     0.169 HD
BRANCH  20  22
ATOM     22  C   UNL d   1      20.278 -20.019   0.696  0.00  0.00     0.034 A 
ATOM     23  C   UNL d   1      20.040 -19.990   2.075  0.00  0.00     0.029 A 
ATOM     24  C   UNL d   1      18.820 -20.453   2.592  0.00  0.00     0.002 A 
ATOM     25  C   UNL d   1      17.821 -20.919   1.737  0.00  0.00     0.000 A 
ATOM     26  C   UNL d   1      18.052 -20.951   0.366  0.00  0.00     0.002 A 
ATOM     27  C   UNL d   1      19.271 -20.503  -0.147  0.00  0.00     0.029 A 
ENDBRANCH  20  22
ENDBRANCH  17  18
ENDBRANCH  16  17
ENDBRANCH   8  16
BRANCH   3  28
ATOM     28  C   UNL d   1      28.184 -15.254  -4.471  0.00  0.00     0.255 C 
ATOM     29  O   UNL d   1      27.932 -15.462  -5.664  0.00  0.00    -0.268 OA
ATOM     30  N   UNL d   1      29.481 -15.048  -4.033  0.00  0.00    -0.323 N 
ATOM     31  H   UNL d   1      29.770 -15.310  -3.100  0.00  0.00     0.169 HD
BRANCH  30  32
ATOM     32  C   UNL d   1      30.518 -14.841  -4.971  0.00  0.00     0.041 A 
ATOM     33  C   UNL d   1      30.971 -13.535  -5.204  0.00  0.00     0.030 A 
ATOM     34  C   UNL d   1      32.038 -13.312  -6.079  0.00  0.00     0.002 A 
ATOM     35  C   UNL d   1      32.626 -14.382  -6.749  0.00  0.00     0.001 A 
ATOM     36  C   UNL d   1      32.151 -15.676  -6.549  0.00  0.00     0.009 A 
ATOM     37  C   UNL d   1      31.091 -15.925  -5.667  0.00  0.00    -0.035 A 
ATOM     38  C   UNL d   1      30.557 -17.331  -5.568  0.00  0.00     0.050 C 
ENDBRANCH  30  32
ENDBRANCH   3  28
TORSDOF 7
ENDMDL
MODEL 3
REMARK VINA RESULT:    -8.929      1.785      2.258
REMARK INTER + INTRA:         -13.505
REMARK INTER:                 -11.017
REMARK INTRA:                  -2.488
REMARK CONF_INDEPENDENT:        2.088
REMARK UNBOUND:                -2.488
REMARK  7 active torsions:
REMARK  status: ('A' for Active; 'I' for Inactive)
REMARK    1  A    between atoms: C_3  and  C_4 
REMARK       I    between atoms: C_4  and  N_6 
REMARK    2  A    between atoms: N_6  and  C_7 
REMARK    3  A    between atoms: C_14  and  C_15 
REMARK    4  A    between atoms: C_23  and  S_24 
REMARK    5  A    between atoms: S_24  and  C_25 
REMARK    6  A    between atoms: C_25  and  C_26 
REMARK       I    between atoms: C_26  and  N_28 
REMARK    7  A    between atoms: N_28  and  C_29 
ROOT
ATOM      1  C   UNL d   1      24.624 -13.663  -4.506  0.00  0.00     0.069 C 
ATOM      2  C   UNL d   1      25.639 -14.351  -3.624  0.00  0.00     0.019 C 
ATOM      3  C   UNL d   1      26.942 -14.568  -3.965  0.00  0.00     0.048 C 
ATOM      4  C   UNL d   1      27.888 -15.096  -2.915  0.00  0.00     0.129 C 
ATOM      5  C   UNL d   1      27.181 -15.851  -1.836  0.00  0.00     0.057 C 
ATOM      6  C   UNL d   1      28.036 -16.836  -1.056  0.00  0.00     0.019 C 
ATOM      7  N   UNL d   1      28.745 -17.652  -0.408  0.00  0.00    -0.096 N 
ATOM      8  C   UNL d   1      25.864 -15.659  -1.549  0.00  0.00     0.087 C 
ATOM      9  N   UNL d   1      25.172 -14.776  -2.368  0.00  0.00    -0.353 N 
ATOM     10  H   UNL d   1      24.223 -14.538  -2.102  0.00  0.00     0.166 HD
ENDROOT
BRANCH   4  11
ATOM     11  C   UNL d   1      28.607 -13.965  -2.254  0.00  0.00     0.066 A 
ATOM     12  C   UNL d   1      29.266 -13.930  -1.043  0.00  0.00     0.035 A 
ATOM     13  C   UNL d   1      29.858 -12.662  -0.956  0.00  0.00     0.027 A 
ATOM     14  C   UNL d   1      29.520 -12.004  -2.118  0.00  0.00     0.142 A 
ATOM     15  O   UNL d   1      28.754 -12.793  -2.921  0.00  0.00    -0.326 OA
ENDBRANCH   4  11
BRANCH   8  16
ATOM     16  S   UNL d   1      25.221 -16.542  -0.178  0.00  0.00    -0.102 SA
BRANCH  16  17
ATOM     17  C   UNL d   1      24.658 -18.202  -0.641  0.00  0.00     0.184 C 
BRANCH  17  18
ATOM     18  C   UNL d   1      23.112 -18.266  -0.506  0.00  0.00     0.231 C 
ATOM     19  O   UNL d   1      22.397 -17.280  -0.685  0.00  0.00    -0.272 OA
ATOM     20  N   UNL d   1      22.586 -19.502  -0.127  0.00  0.00    -0.327 N 
ATOM     21  H   UNL d   1      23.195 -20.225   0.231  0.00  0.00     0.169 HD
BRANCH  20  22
ATOM     22  C   UNL d   1      21.185 -19.722  -0.004  0.00  0.00     0.034 A 
ATOM     23  C   UNL d   1      20.316 -19.379  -1.046  0.00  0.00     0.029 A 
ATOM     24  C   UNL d   1      18.930 -19.541  -0.895  0.00  0.00     0.002 A 
ATOM     25  C   UNL d   1      18.405 -20.075   0.282  0.00  0.00     0.000 A 
ATOM     26  C   UNL d   1      19.264 -20.417   1.322  0.00  0.00     0.002 A 
ATOM     27  C   UNL d   1      20.642 -20.242   1.176  0.00  0.00     0.029 A 
ENDBRANCH  20  22
ENDBRANCH  17  18
ENDBRANCH  16  17
ENDBRANCH   8  16
BRANCH   3  28
ATOM     28  C   UNL d   1      27.523 -14.260  -5.308  0.00  0.00     0.255 C 
ATOM     29  O   UNL d   1      27.644 -15.164  -6.143  0.00  0.00    -0.268 OA
ATOM     30  N   UNL d   1      28.007 -12.986  -5.549  0.00  0.00    -0.323 N 
ATOM     31  H   UNL d   1      28.320 -12.389  -4.795  0.00  0.00     0.169 HD
BRANCH  30  32
ATOM     32  C   UNL d   1      28.445 -12.631  -6.846  0.00  0.00     0.041 A 
ATOM     33  C   UNL d   1      29.661 -13.146  -7.315  0.00  0.00     0.030 A 
ATOM     34  C   UNL d   1      30.083 -12.861  -8.617  0.00  0.00     0.002 A 
ATOM     35  C   UNL d   1      29.315 -12.034  -9.435  0.00  0.00     0.001 A 
ATOM     36  C   UNL d   1      28.126 -11.489  -8.955  0.00  0.00     0.009 A 
ATOM     37  C   UNL d   1      27.676 -11.772  -7.659  0.00  0.00    -0.035 A 
ATOM     38  C   UNL d   1      26.436 -11.075  -7.164  0.00  0.00     0.050 C 
ENDBRANCH  30  32
ENDBRANCH   3  28
TORSDOF 7
ENDMDL
MODEL 4
REMARK VINA RESULT:    -7.999      2.351      3.349
REMARK INTER + INTRA:         -13.149
REMARK INTER:                 -10.088
REMARK INTRA:                  -3.061
REMARK CONF_INDEPENDENT:        2.088
REMARK UNBOUND:                -3.061
REMARK  7 active torsions:
REMARK  status: ('A' for Active; 'I' for Inactive)
REMARK    1  A    between atoms: C_3  and  C_4 
REMARK       I    between atoms: C_4  and  N_6 
REMARK    2  A    between atoms: N_6  and  C_7 
REMARK    3  A    between atoms: C_14  and  C_15 
REMARK    4  A    between atoms: C_23  and  S_24 
REMARK    5  A    between atoms: S_24  and  C_25 
REMARK    6  A    between atoms: C_25  and  C_26 
REMARK       I    between atoms: C_26  and  N_28 
REMARK    7  A    between atoms: N_28  and  C_29 
ROOT
ATOM      1  C   UNL d   1      25.530 -15.915  -5.395  0.00  0.00     0.069 C 
ATOM      2  C   UNL d   1      26.280 -15.218  -4.284  0.00  0.00     0.019 C 
ATOM      3  C   UNL d   1      27.367 -14.415  -4.467  0.00  0.00     0.048 C 
ATOM      4  C   UNL d   1      27.899 -13.637  -3.289  0.00  0.00     0.129 C 
ATOM      5  C   UNL d   1      27.551 -14.269  -1.981  0.00  0.00     0.057 C 
ATOM      6  C   UNL d   1      28.443 -13.889  -0.810  0.00  0.00     0.019 C 
ATOM      7  N   UNL d   1      29.183 -13.574   0.160  0.00  0.00    -0.096 N 
ATOM      8  C   UNL d   1      26.493 -15.113  -1.832  0.00  0.00     0.087 C 
ATOM      9  N   UNL d   1      25.786 -15.430  -2.985  0.00  0.00    -0.353 N 
ATOM     10  H   UNL d   1      24.933 -15.967  -2.877  0.00  0.00     0.166 HD
ENDROOT
BRANCH   4  11
ATOM     11  C   UNL d   1      27.315 -12.261  -3.276  0.00  0.00     0.066 A 
ATOM     12  C   UNL d   1      26.412 -11.698  -2.398  0.00  0.00     0.035 A 
ATOM     13  C   UNL d   1      26.288 -10.353  -2.774  0.00  0.00     0.027 A 
ATOM     14  C   UNL d   1      27.121 -10.182  -3.857  0.00  0.00     0.142 A 
ATOM     15  O   UNL d   1      27.755 -11.345  -4.174  0.00  0.00    -0.326 OA
ENDBRANCH   4  11
BRANCH   8  16
ATOM     16  S   UNL d   1      26.157 -15.675  -0.206  0.00  0.00    -0.102 SA
BRANCH  16  17
ATOM     17  C   UNL d   1      25.872 -17.465  -0.151  0.00  0.00     0.184 C 
BRANCH  17  18
ATOM     18  C   UNL d   1      24.422 -17.760  -0.619  0.00  0.00     0.231 C 
ATOM     19  O   UNL d   1      24.020 -17.451  -1.742  0.00  0.00    -0.272 OA
ATOM     20  N   UNL d   1      23.587 -18.359   0.325  0.00  0.00    -0.327 N 
ATOM     21  H   UNL d   1      23.864 -18.394   1.297  0.00  0.00     0.169 HD
BRANCH  20  22
ATOM     22  C   UNL d   1      22.246 -18.726   0.025  0.00  0.00     0.034 A 
ATOM     23  C   UNL d   1      21.322 -18.950   1.053  0.00  0.00     0.029 A 
ATOM     24  C   UNL d   1      20.017 -19.372   0.753  0.00  0.00     0.002 A 
ATOM     25  C   UNL d   1      19.618 -19.545  -0.573  0.00  0.00     0.000 A 
ATOM     26  C   UNL d   1      20.532 -19.326  -1.598  0.00  0.00     0.002 A 
ATOM     27  C   UNL d   1      21.833 -18.918  -1.298  0.00  0.00     0.029 A 
ENDBRANCH  20  22
ENDBRANCH  17  18
ENDBRANCH  16  17
ENDBRANCH   8  16
BRANCH   3  28
ATOM     28  C   UNL d   1      28.045 -14.203  -5.783  0.00  0.00     0.255 C 
ATOM     29  O   UNL d   1      28.425 -15.179  -6.439  0.00  0.00    -0.268 OA
ATOM     30  N   UNL d   1      28.322 -12.909  -6.189  0.00  0.00    -0.323 N 
ATOM     31  H   UNL d   1      28.430 -12.157  -5.519  0.00  0.00     0.169 HD
BRANCH  30  32
ATOM     32  C   UNL d   1      28.846 -12.672  -7.481  0.00  0.00     0.041 A 
ATOM     33  C   UNL d   1      27.983 -12.224  -8.490  0.00  0.00     0.030 A 
ATOM     34  C   UNL d   1      28.490 -11.921  -9.757  0.00  0.00     0.002 A 
ATOM     35  C   UNL d   1      29.844 -12.101 -10.029  0.00  0.00     0.001 A 
ATOM     36  C   UNL d   1      30.696 -12.585  -9.038  0.00  0.00     0.009 A 
ATOM     37  C   UNL d   1      30.213 -12.882  -7.756  0.00  0.00    -0.035 A 
ATOM     38  C   UNL d   1      31.162 -13.494  -6.758  0.00  0.00     0.050 C 
ENDBRANCH  30  32
ENDBRANCH   3  28
TORSDOF 7
ENDMDL
