MODEL 1
REMARK VINA RESULT:   -27.303      0.000      0.000
REMARK INTER + INTRA:         -29.651
REMARK INTER:                 -28.794
REMARK INTRA:                  -0.856
REMARK CONF_INDEPENDENT:        1.492
REMARK UNBOUND:                -0.856
REMARK  5 active torsions:
REMARK  status: ('A' for Active; 'I' for Inactive)
REMARK    1  A    between atoms: C_2  and  C_5 
REMARK    2  A    between atoms: C_7  and  C_8 
REMARK       I    between atoms: C_8  and  N_10 
REMARK    3  A    between atoms: N_10  and  N_11 
REMARK    4  A    between atoms: C_13  and  C_14 
REMARK    5  A    between atoms: C_18  and  O_19 
ROOT
ATOM      1  C   UNL d   1      25.862 -17.219  -0.351  0.00  0.00    -0.016 A 
ATOM      2  C   UNL d   1      24.678 -17.982  -0.308  0.00  0.00     0.027 A 
ATOM      3  C   UNL d   1      23.579 -17.671  -1.120  0.00  0.00     0.034 A 
ATOM      4  C   UNL d   1      23.702 -16.599  -2.017  0.00  0.00     0.027 A 
ATOM      5  C   UNL d   1      24.882 -15.812  -2.118  0.00  0.00    -0.016 A 
ATOM      6  C   UNL d   1      25.924 -16.130  -1.241  0.00  0.00     0.079 A 
ENDROOT
BRANCH   3   7
ATOM      7  C   UNL d   1      22.330 -18.499  -0.979  0.00  0.00     0.265 C 
ATOM      8  O   UNL d   1      22.405 -19.717  -0.776  0.00  0.00    -0.266 OA
ATOM      9  N   UNL d   1      21.103 -17.852  -1.094  0.00  0.00    -0.290 N 
ATOM     10  H   UNL d   1      21.030 -16.845  -1.175  0.00  0.00     0.183 HD
BRANCH   9  11
ATOM     11  N   UNL d   1      19.902 -18.575  -0.896  0.00  0.00    -0.247 NA
ATOM     12  H   UNL d   1      20.120 -19.568  -1.065  0.00  0.00     0.143 HD
ATOM     13  H   UNL d   1      19.249 -18.322  -1.640  0.00  0.00     0.143 HD
ENDBRANCH   9  11
ENDBRANCH   3   7
BRANCH   1  14
ATOM     14  C   UNL d   1      27.064 -17.461   0.588  0.00  0.00    -0.021 C 
ATOM     15  C   UNL d   1      26.689 -18.582   1.593  0.00  0.00     0.019 C 
ATOM     16  C   UNL d   1      27.481 -16.169   1.355  0.00  0.00     0.019 C 
ATOM     17  C   UNL d   1      28.311 -17.921  -0.181  0.00  0.00     0.019 C 
ENDBRANCH   1  14
BRANCH   5  18
ATOM     18  C   UNL d   1      24.910 -14.663  -3.138  0.00  0.00    -0.021 C 
ATOM     19  C   UNL d   1      25.718 -13.490  -2.550  0.00  0.00     0.019 C 
ATOM     20  C   UNL d   1      25.545 -15.154  -4.450  0.00  0.00     0.019 C 
ATOM     21  C   UNL d   1      23.541 -14.077  -3.520  0.00  0.00     0.019 C 
ENDBRANCH   5  18
BRANCH   6  22
ATOM     22  O   UNL d   1      27.032 -15.362  -1.048  0.00  0.00    -0.360 OA
ATOM     23  H   UNL d   1      26.910 -14.456  -0.770  0.00  0.00     0.217 HD
ENDBRANCH   6  22
TORSDOF 5
ENDMDL
MODEL 2
REMARK VINA RESULT:   -27.252      0.219      4.131
REMARK INTER + INTRA:         -29.695
REMARK INTER:                 -28.744
REMARK INTRA:                  -0.951
REMARK CONF_INDEPENDENT:        1.492
REMARK UNBOUND:                -0.951
REMARK  5 active torsions:
REMARK  status: ('A' for Active; 'I' for Inactive)
REMARK    1  A    between atoms: C_2  and  C_5 
REMARK    2  A    between atoms: C_7  and  C_8 
REMARK       I    between atoms: C_8  and  N_10 
REMARK    3  A    between atoms: N_10  and  N_11 
REMARK    4  A    between atoms: C_13  and  C_14 
REMARK    5  A    between atoms: C_18  and  O_19 
ROOT
ATOM      1  C   UNL d   1      24.705 -15.691  -2.011  0.00  0.00    -0.016 A 
ATOM      2  C   UNL d   1      23.566 -16.504  -1.847  0.00  0.00     0.027 A 
ATOM      3  C   UNL d   1      23.569 -17.599  -0.972  0.00  0.00     0.034 A 
ATOM      4  C   UNL d   1      24.730 -17.842  -0.223  0.00  0.00     0.027 A 
ATOM      5  C   UNL d   1      25.899 -17.039  -0.332  0.00  0.00    -0.016 A 
ATOM      6  C   UNL d   1      25.858 -15.997  -1.264  0.00  0.00     0.079 A 
ENDROOT
BRANCH   3   7
ATOM      7  C   UNL d   1      22.333 -18.452  -0.891  0.00  0.00     0.265 C 
ATOM      8  O   UNL d   1      22.423 -19.673  -0.709  0.00  0.00    -0.266 OA
ATOM      9  N   UNL d   1      21.097 -17.826  -1.037  0.00  0.00    -0.290 N 
ATOM     10  H   UNL d   1      21.008 -16.819  -1.101  0.00  0.00     0.183 HD
BRANCH   9  11
ATOM     11  N   UNL d   1      19.905 -18.575  -0.895  0.00  0.00    -0.247 NA
ATOM     12  H   UNL d   1      20.113 -19.533  -1.213  0.00  0.00     0.143 HD
ATOM     13  H   UNL d   1      19.222 -18.221  -1.568  0.00  0.00     0.143 HD
ENDBRANCH   9  11
ENDBRANCH   3   7
BRANCH   1  14
ATOM     14  C   UNL d   1      24.783 -14.532  -3.030  0.00  0.00    -0.021 C 
ATOM     15  C   UNL d   1      25.555 -15.026  -4.282  0.00  0.00     0.019 C 
ATOM     16  C   UNL d   1      25.479 -13.271  -2.433  0.00  0.00     0.019 C 
ATOM     17  C   UNL d   1      23.392 -14.075  -3.488  0.00  0.00     0.019 C 
ENDBRANCH   1  14
BRANCH   5  18
ATOM     18  C   UNL d   1      27.114 -17.394   0.539  0.00  0.00    -0.021 C 
ATOM     19  C   UNL d   1      27.526 -16.153   1.355  0.00  0.00     0.019 C 
ATOM     20  C   UNL d   1      26.754 -18.561   1.474  0.00  0.00     0.019 C 
ATOM     21  C   UNL d   1      28.376 -17.831  -0.223  0.00  0.00     0.019 C 
ENDBRANCH   5  18
BRANCH   6  22
ATOM     22  O   UNL d   1      26.941 -15.269  -1.654  0.00  0.00    -0.360 OA
ATOM     23  H   UNL d   1      27.592 -15.691  -2.211  0.00  0.00     0.217 HD
ENDBRANCH   6  22
TORSDOF 5
ENDMDL
