MODEL 1
REMARK VINA RESULT:    -8.906      0.000      0.000
REMARK INTER + INTRA:         -12.666
REMARK INTER:                 -10.994
REMARK INTRA:                  -1.672
REMARK CONF_INDEPENDENT:        2.088
REMARK UNBOUND:                -1.672
REMARK  7 active torsions:
REMARK  status: ('A' for Active; 'I' for Inactive)
REMARK    1  A    between atoms: O_2  and  C_3 
REMARK    2  A    between atoms: C_6  and  C_7 
REMARK       I    between atoms: C_7  and  N_9 
REMARK       I    between atoms: C_10  and  N_11 
REMARK       I    between atoms: C_10  and  N_23 
REMARK    3  A    between atoms: N_11  and  C_12 
REMARK    4  A    between atoms: C_12  and  C_13 
REMARK    5  A    between atoms: C_13  and  C_14 
REMARK    6  A    between atoms: N_23  and  C_24 
REMARK    7  A    between atoms: C_32  and  O_33 
ROOT
ATOM      1  C   UNL d   1      27.229 -12.934  -0.804  0.00  0.00     0.294 C 
ATOM      2  O   UNL d   1      26.841 -12.180   0.103  0.00  0.00    -0.265 OA
ATOM      3  N   UNL d   1      28.001 -14.058  -0.603  0.00  0.00    -0.023 NA
ATOM      4  C   UNL d   1      28.295 -14.445   0.611  0.00  0.00     0.704 C 
ATOM      5  N   UNL d   1      29.045 -15.582   0.792  0.00  0.00    -0.224 N 
ATOM      6  N   UNL d   1      27.872 -13.850   1.777  0.00  0.00    -0.190 N 
ATOM      7  H   UNL d   1      29.117 -15.938   1.738  0.00  0.00     0.177 HD
ATOM      8  H   UNL d   1      27.336 -12.991   1.627  0.00  0.00     0.184 HD
ENDROOT
BRANCH   5   9
ATOM      9  C   UNL d   1      29.460 -16.448  -0.282  0.00  0.00     0.142 C 
BRANCH   9  10
ATOM     10  C   UNL d   1      28.277 -16.836  -1.155  0.00  0.00     0.057 C 
BRANCH  10  11
ATOM     11  C   UNL d   1      27.076 -17.366  -0.432  0.00  0.00    -0.048 A 
ATOM     12  C   UNL d   1      25.846 -17.047  -0.833  0.00  0.00    -0.006 A 
ATOM     13  C   UNL d   1      25.398 -16.230  -1.902  0.00  0.00     0.014 A 
ATOM     14  C   UNL d   1      24.923 -17.680   0.115  0.00  0.00     0.038 A 
ATOM     15  C   UNL d   1      24.094 -15.947  -1.975  0.00  0.00     0.001 A 
ATOM     16  C   UNL d   1      23.136 -16.567  -1.072  0.00  0.00     0.002 A 
ATOM     17  C   UNL d   1      23.483 -17.401  -0.067  0.00  0.00     0.030 A 
ATOM     18  N   UNL d   1      25.550 -18.386   0.980  0.00  0.00    -0.385 N 
ATOM     19  C   UNL d   1      27.027 -18.251   0.782  0.00  0.00     0.155 A 
ATOM     20  H   UNL d   1      25.068 -18.947   1.682  0.00  0.00     0.160 HD
ENDBRANCH  10  11
ENDBRANCH   9  10
ENDBRANCH   5   9
BRANCH   6  21
ATOM     21  C   UNL d   1      28.320 -13.987   3.105  0.00  0.00     0.049 A 
ATOM     22  C   UNL d   1      27.403 -13.839   4.161  0.00  0.00     0.033 A 
ATOM     23  C   UNL d   1      27.811 -13.996   5.490  0.00  0.00     0.044 A 
ATOM     24  C   UNL d   1      29.117 -14.381   5.764  0.00  0.00     0.116 A 
ATOM     25  F   UNL d   1      29.491 -14.616   7.028  0.00  0.00    -0.206 F 
ATOM     26  C   UNL d   1      30.040 -14.537   4.741  0.00  0.00     0.044 A 
ATOM     27  C   UNL d   1      29.646 -14.309   3.424  0.00  0.00     0.033 A 
ENDBRANCH   6  21
BRANCH   1  28
ATOM     28  C   UNL d   1      26.803 -12.628  -2.212  0.00  0.00     0.037 A 
ATOM     29  C   UNL d   1      27.037 -11.369  -2.770  0.00  0.00     0.020 A 
ATOM     30  C   UNL d   1      26.535 -11.043  -4.047  0.00  0.00     0.040 A 
ATOM     31  C   UNL d   1      25.848 -11.983  -4.847  0.00  0.00     0.101 A 
ATOM     32  C   UNL d   1      25.668 -13.276  -4.301  0.00  0.00     0.102 A 
ATOM     33  C   UNL d   1      26.133 -13.569  -2.995  0.00  0.00     0.056 A 
BRANCH  31  34
ATOM     34  O   UNL d   1      25.695 -11.568  -6.154  0.00  0.00    -0.353 OA
ATOM     35  C   UNL d   1      25.600 -10.188  -6.518  0.00  0.00     0.210 C 
ENDBRANCH  31  34
BRANCH  32  36
ATOM     36  O   UNL d   1      25.137 -14.426  -4.842  0.00  0.00    -0.353 OA
ATOM     37  C   UNL d   1      26.051 -15.467  -5.038  0.00  0.00     0.210 C 
ENDBRANCH  32  36
ENDBRANCH   1  28
TORSDOF 7
ENDMDL
MODEL 2
REMARK VINA RESULT:    -8.900      0.898      1.383
REMARK INTER + INTRA:         -13.115
REMARK INTER:                 -10.989
REMARK INTRA:                  -2.126
REMARK CONF_INDEPENDENT:        2.088
REMARK UNBOUND:                -2.126
REMARK  7 active torsions:
REMARK  status: ('A' for Active; 'I' for Inactive)
REMARK    1  A    between atoms: O_2  and  C_3 
REMARK    2  A    between atoms: C_6  and  C_7 
REMARK       I    between atoms: C_7  and  N_9 
REMARK       I    between atoms: C_10  and  N_11 
REMARK       I    between atoms: C_10  and  N_23 
REMARK    3  A    between atoms: N_11  and  C_12 
REMARK    4  A    between atoms: C_12  and  C_13 
REMARK    5  A    between atoms: C_13  and  C_14 
REMARK    6  A    between atoms: N_23  and  C_24 
REMARK    7  A    between atoms: C_32  and  O_33 
ROOT
ATOM      1  C   UNL d   1      27.148 -12.835  -0.617  0.00  0.00     0.294 C 
ATOM      2  O   UNL d   1      26.779 -12.068   0.287  0.00  0.00    -0.265 OA
ATOM      3  N   UNL d   1      27.915 -13.962  -0.413  0.00  0.00    -0.023 NA
ATOM      4  C   UNL d   1      28.224 -14.337   0.801  0.00  0.00     0.704 C 
ATOM      5  N   UNL d   1      28.968 -15.477   0.984  0.00  0.00    -0.224 N 
ATOM      6  N   UNL d   1      27.822 -13.726   1.966  0.00  0.00    -0.190 N 
ATOM      7  H   UNL d   1      29.052 -15.822   1.933  0.00  0.00     0.177 HD
ATOM      8  H   UNL d   1      27.290 -12.865   1.813  0.00  0.00     0.184 HD
ENDROOT
BRANCH   5   9
ATOM      9  C   UNL d   1      29.362 -16.358  -0.086  0.00  0.00     0.142 C 
BRANCH   9  10
ATOM     10  C   UNL d   1      28.338 -17.465  -0.283  0.00  0.00     0.057 C 
BRANCH  10  11
ATOM     11  C   UNL d   1      27.108 -17.089  -1.052  0.00  0.00    -0.048 A 
ATOM     12  C   UNL d   1      25.900 -17.456  -0.625  0.00  0.00    -0.006 A 
ATOM     13  C   UNL d   1      25.503 -18.203   0.513  0.00  0.00     0.014 A 
ATOM     14  C   UNL d   1      24.942 -16.980  -1.628  0.00  0.00     0.038 A 
ATOM     15  C   UNL d   1      24.222 -18.570   0.611  0.00  0.00     0.001 A 
ATOM     16  C   UNL d   1      23.229 -18.104  -0.346  0.00  0.00     0.002 A 
ATOM     17  C   UNL d   1      23.523 -17.343  -1.422  0.00  0.00     0.030 A 
ATOM     18  N   UNL d   1      25.524 -16.313  -2.553  0.00  0.00    -0.385 N 
ATOM     19  C   UNL d   1      27.005 -16.325  -2.342  0.00  0.00     0.155 A 
ATOM     20  H   UNL d   1      25.009 -15.854  -3.304  0.00  0.00     0.160 HD
ENDBRANCH  10  11
ENDBRANCH   9  10
ENDBRANCH   5   9
BRANCH   6  21
ATOM     21  C   UNL d   1      28.287 -13.850   3.289  0.00  0.00     0.049 A 
ATOM     22  C   UNL d   1      27.385 -13.690   4.355  0.00  0.00     0.033 A 
ATOM     23  C   UNL d   1      27.812 -13.835   5.680  0.00  0.00     0.044 A 
ATOM     24  C   UNL d   1      29.120 -14.220   5.940  0.00  0.00     0.116 A 
ATOM     25  F   UNL d   1      29.511 -14.444   7.201  0.00  0.00    -0.206 F 
ATOM     26  C   UNL d   1      30.029 -14.388   4.906  0.00  0.00     0.044 A 
ATOM     27  C   UNL d   1      29.618 -14.172   3.592  0.00  0.00     0.033 A 
ENDBRANCH   6  21
BRANCH   1  28
ATOM     28  C   UNL d   1      26.704 -12.543  -2.022  0.00  0.00     0.037 A 
ATOM     29  C   UNL d   1      26.859 -11.266  -2.568  0.00  0.00     0.020 A 
ATOM     30  C   UNL d   1      26.338 -10.959  -3.842  0.00  0.00     0.040 A 
ATOM     31  C   UNL d   1      25.711 -11.933  -4.652  0.00  0.00     0.101 A 
ATOM     32  C   UNL d   1      25.613 -13.239  -4.119  0.00  0.00     0.102 A 
ATOM     33  C   UNL d   1      26.095 -13.515  -2.815  0.00  0.00     0.056 A 
BRANCH  31  34
ATOM     34  O   UNL d   1      25.533 -11.514  -5.954  0.00  0.00    -0.353 OA
ATOM     35  C   UNL d   1      25.567 -10.135  -6.333  0.00  0.00     0.210 C 
ENDBRANCH  31  34
BRANCH  32  36
ATOM     36  O   UNL d   1      25.155 -14.414  -4.672  0.00  0.00    -0.353 OA
ATOM     37  C   UNL d   1      26.135 -15.203  -5.286  0.00  0.00     0.210 C 
ENDBRANCH  32  36
ENDBRANCH   1  28
TORSDOF 7
ENDMDL
MODEL 3
REMARK VINA RESULT:    -8.755      2.990      6.604
REMARK INTER + INTRA:         -11.821
REMARK INTER:                 -10.843
REMARK INTRA:                  -0.979
REMARK CONF_INDEPENDENT:        2.088
REMARK UNBOUND:                -0.979
REMARK  7 active torsions:
REMARK  status: ('A' for Active; 'I' for Inactive)
REMARK    1  A    between atoms: O_2  and  C_3 
REMARK    2  A    between atoms: C_6  and  C_7 
REMARK       I    between atoms: C_7  and  N_9 
REMARK       I    between atoms: C_10  and  N_11 
REMARK       I    between atoms: C_10  and  N_23 
REMARK    3  A    between atoms: N_11  and  C_12 
REMARK    4  A    between atoms: C_12  and  C_13 
REMARK    5  A    between atoms: C_13  and  C_14 
REMARK    6  A    between atoms: N_23  and  C_24 
REMARK    7  A    between atoms: C_32  and  O_33 
ROOT
ATOM      1  C   UNL d   1      27.351 -17.085   0.142  0.00  0.00     0.294 C 
ATOM      2  O   UNL d   1      28.023 -18.124   0.050  0.00  0.00    -0.265 OA
ATOM      3  N   UNL d   1      27.871 -15.849   0.464  0.00  0.00    -0.023 NA
ATOM      4  C   UNL d   1      29.161 -15.696   0.605  0.00  0.00     0.704 C 
ATOM      5  N   UNL d   1      29.662 -14.451   0.902  0.00  0.00    -0.224 N 
ATOM      6  N   UNL d   1      30.119 -16.667   0.425  0.00  0.00    -0.190 N 
ATOM      7  H   UNL d   1      30.667 -14.337   0.846  0.00  0.00     0.177 HD
ATOM      8  H   UNL d   1      29.729 -17.593   0.229  0.00  0.00     0.184 HD
ENDROOT
BRANCH   5   9
ATOM      9  C   UNL d   1      28.856 -13.260   0.979  0.00  0.00     0.142 C 
BRANCH   9  10
ATOM     10  C   UNL d   1      27.680 -13.459   1.922  0.00  0.00     0.057 C 
BRANCH  10  11
ATOM     11  C   UNL d   1      27.717 -12.664   3.192  0.00  0.00    -0.048 A 
ATOM     12  C   UNL d   1      28.183 -13.203   4.318  0.00  0.00    -0.006 A 
ATOM     13  C   UNL d   1      28.697 -14.497   4.588  0.00  0.00     0.014 A 
ATOM     14  C   UNL d   1      28.023 -12.185   5.362  0.00  0.00     0.038 A 
ATOM     15  C   UNL d   1      28.942 -14.825   5.860  0.00  0.00     0.001 A 
ATOM     16  C   UNL d   1      28.822 -13.844   6.928  0.00  0.00     0.002 A 
ATOM     17  C   UNL d   1      28.394 -12.577   6.739  0.00  0.00     0.030 A 
ATOM     18  N   UNL d   1      27.562 -11.091   4.884  0.00  0.00    -0.385 N 
ATOM     19  C   UNL d   1      27.255 -11.254   3.428  0.00  0.00     0.155 A 
ATOM     20  H   UNL d   1      27.443 -10.252   5.452  0.00  0.00     0.160 HD
ENDBRANCH  10  11
ENDBRANCH   9  10
ENDBRANCH   5   9
BRANCH   6  21
ATOM     21  C   UNL d   1      31.476 -16.715   0.799  0.00  0.00     0.049 A 
ATOM     22  C   UNL d   1      31.917 -15.950   1.893  0.00  0.00     0.033 A 
ATOM     23  C   UNL d   1      33.253 -15.997   2.305  0.00  0.00     0.044 A 
ATOM     24  C   UNL d   1      34.132 -16.870   1.679  0.00  0.00     0.116 A 
ATOM     25  F   UNL d   1      35.390 -16.983   2.124  0.00  0.00    -0.206 F 
ATOM     26  C   UNL d   1      33.722 -17.638   0.600  0.00  0.00     0.044 A 
ATOM     27  C   UNL d   1      32.408 -17.534   0.147  0.00  0.00     0.033 A 
ENDBRANCH   6  21
BRANCH   1  28
ATOM     28  C   UNL d   1      25.879 -17.163  -0.152  0.00  0.00     0.037 A 
ATOM     29  C   UNL d   1      25.106 -18.210   0.356  0.00  0.00     0.020 A 
ATOM     30  C   UNL d   1      23.752 -18.349  -0.014  0.00  0.00     0.040 A 
ATOM     31  C   UNL d   1      23.098 -17.409  -0.841  0.00  0.00     0.101 A 
ATOM     32  C   UNL d   1      23.871 -16.317  -1.301  0.00  0.00     0.102 A 
ATOM     33  C   UNL d   1      25.244 -16.223  -0.963  0.00  0.00     0.056 A 
BRANCH  31  34
ATOM     34  O   UNL d   1      21.727 -17.563  -0.850  0.00  0.00    -0.353 OA
ATOM     35  C   UNL d   1      21.094 -18.845  -0.895  0.00  0.00     0.210 C 
ENDBRANCH  31  34
BRANCH  32  36
ATOM     36  O   UNL d   1      23.524 -15.201  -2.030  0.00  0.00    -0.353 OA
ATOM     37  C   UNL d   1      24.564 -14.629  -2.770  0.00  0.00     0.210 C 
ENDBRANCH  32  36
ENDBRANCH   1  28
TORSDOF 7
ENDMDL
MODEL 4
REMARK VINA RESULT:    -8.383      3.087      6.493
REMARK INTER + INTRA:         -12.168
REMARK INTER:                 -10.471
REMARK INTRA:                  -1.697
REMARK CONF_INDEPENDENT:        2.088
REMARK UNBOUND:                -1.697
REMARK  7 active torsions:
REMARK  status: ('A' for Active; 'I' for Inactive)
REMARK    1  A    between atoms: O_2  and  C_3 
REMARK    2  A    between atoms: C_6  and  C_7 
REMARK       I    between atoms: C_7  and  N_9 
REMARK       I    between atoms: C_10  and  N_11 
REMARK       I    between atoms: C_10  and  N_23 
REMARK    3  A    between atoms: N_11  and  C_12 
REMARK    4  A    between atoms: C_12  and  C_13 
REMARK    5  A    between atoms: C_13  and  C_14 
REMARK    6  A    between atoms: N_23  and  C_24 
REMARK    7  A    between atoms: C_32  and  O_33 
ROOT
ATOM      1  C   UNL d   1      27.265 -17.456  -0.153  0.00  0.00     0.294 C 
ATOM      2  O   UNL d   1      27.811 -18.551   0.058  0.00  0.00    -0.265 OA
ATOM      3  N   UNL d   1      27.939 -16.258  -0.254  0.00  0.00    -0.023 NA
ATOM      4  C   UNL d   1      29.246 -16.234  -0.219  0.00  0.00     0.704 C 
ATOM      5  N   UNL d   1      29.901 -15.033  -0.346  0.00  0.00    -0.224 N 
ATOM      6  N   UNL d   1      30.075 -17.328  -0.125  0.00  0.00    -0.190 N 
ATOM      7  H   UNL d   1      30.905 -15.070  -0.475  0.00  0.00     0.177 HD
ATOM      8  H   UNL d   1      29.573 -18.212  -0.006  0.00  0.00     0.184 HD
ENDROOT
BRANCH   5   9
ATOM      9  C   UNL d   1      29.237 -13.783  -0.613  0.00  0.00     0.142 C 
BRANCH   9  10
ATOM     10  C   UNL d   1      29.135 -12.942   0.649  0.00  0.00     0.057 C 
BRANCH  10  11
ATOM     11  C   UNL d   1      29.868 -13.465   1.847  0.00  0.00    -0.048 A 
ATOM     12  C   UNL d   1      29.201 -13.951   2.894  0.00  0.00    -0.006 A 
ATOM     13  C   UNL d   1      27.810 -14.083   3.130  0.00  0.00     0.014 A 
ATOM     14  C   UNL d   1      30.209 -14.316   3.894  0.00  0.00     0.038 A 
ATOM     15  C   UNL d   1      27.411 -14.456   4.350  0.00  0.00     0.001 A 
ATOM     16  C   UNL d   1      28.372 -14.851   5.369  0.00  0.00     0.002 A 
ATOM     17  C   UNL d   1      29.710 -14.806   5.197  0.00  0.00     0.030 A 
ATOM     18  N   UNL d   1      31.397 -14.131   3.453  0.00  0.00    -0.385 N 
ATOM     19  C   UNL d   1      31.350 -13.514   2.090  0.00  0.00     0.155 A 
ATOM     20  H   UNL d   1      32.227 -14.387   3.989  0.00  0.00     0.160 HD
ENDBRANCH  10  11
ENDBRANCH   9  10
ENDBRANCH   5   9
BRANCH   6  21
ATOM     21  C   UNL d   1      31.443 -17.432   0.191  0.00  0.00     0.049 A 
ATOM     22  C   UNL d   1      32.249 -18.338  -0.522  0.00  0.00     0.033 A 
ATOM     23  C   UNL d   1      33.617 -18.444  -0.250  0.00  0.00     0.044 A 
ATOM     24  C   UNL d   1      34.200 -17.590   0.676  0.00  0.00     0.116 A 
ATOM     25  F   UNL d   1      35.523 -17.628   0.879  0.00  0.00    -0.206 F 
ATOM     26  C   UNL d   1      33.429 -16.685   1.390  0.00  0.00     0.044 A 
ATOM     27  C   UNL d   1      32.054 -16.633   1.167  0.00  0.00     0.033 A 
ENDBRANCH   6  21
BRANCH   1  28
ATOM     28  C   UNL d   1      25.775 -17.432  -0.350  0.00  0.00     0.037 A 
ATOM     29  C   UNL d   1      24.969 -18.440   0.186  0.00  0.00     0.020 A 
ATOM     30  C   UNL d   1      23.588 -18.482  -0.094  0.00  0.00     0.040 A 
ATOM     31  C   UNL d   1      22.944 -17.481  -0.855  0.00  0.00     0.101 A 
ATOM     32  C   UNL d   1      23.755 -16.430  -1.343  0.00  0.00     0.102 A 
ATOM     33  C   UNL d   1      25.151 -16.432  -1.096  0.00  0.00     0.056 A 
BRANCH  31  34
ATOM     34  O   UNL d   1      21.568 -17.546  -0.776  0.00  0.00    -0.353 OA
ATOM     35  C   UNL d   1      20.845 -18.773  -0.909  0.00  0.00     0.210 C 
ENDBRANCH  31  34
BRANCH  32  36
ATOM     36  O   UNL d   1      23.436 -15.275  -2.023  0.00  0.00    -0.353 OA
ATOM     37  C   UNL d   1      24.481 -14.715  -2.766  0.00  0.00     0.210 C 
ENDBRANCH  32  36
ENDBRANCH   1  28
TORSDOF 7
ENDMDL
MODEL 5
REMARK VINA RESULT:    -8.190      4.458      7.460
REMARK INTER + INTRA:         -11.363
REMARK INTER:                 -10.278
REMARK INTRA:                  -1.085
REMARK CONF_INDEPENDENT:        2.088
REMARK UNBOUND:                -1.085
REMARK  7 active torsions:
REMARK  status: ('A' for Active; 'I' for Inactive)
REMARK    1  A    between atoms: O_2  and  C_3 
REMARK    2  A    between atoms: C_6  and  C_7 
REMARK       I    between atoms: C_7  and  N_9 
REMARK       I    between atoms: C_10  and  N_11 
REMARK       I    between atoms: C_10  and  N_23 
REMARK    3  A    between atoms: N_11  and  C_12 
REMARK    4  A    between atoms: C_12  and  C_13 
REMARK    5  A    between atoms: C_13  and  C_14 
REMARK    6  A    between atoms: N_23  and  C_24 
REMARK    7  A    between atoms: C_32  and  O_33 
ROOT
ATOM      1  C   UNL d   1      28.452 -14.298  -5.264  0.00  0.00     0.294 C 
ATOM      2  O   UNL d   1      28.899 -13.342  -5.917  0.00  0.00    -0.265 OA
ATOM      3  N   UNL d   1      27.270 -14.270  -4.554  0.00  0.00    -0.023 NA
ATOM      4  C   UNL d   1      26.493 -13.220  -4.614  0.00  0.00     0.704 C 
ATOM      5  N   UNL d   1      25.307 -13.220  -3.919  0.00  0.00    -0.224 N 
ATOM      6  N   UNL d   1      26.709 -12.092  -5.371  0.00  0.00    -0.190 N 
ATOM      7  H   UNL d   1      24.662 -12.464  -4.114  0.00  0.00     0.177 HD
ATOM      8  H   UNL d   1      27.607 -12.096  -5.862  0.00  0.00     0.184 HD
ENDROOT
BRANCH   5   9
ATOM      9  C   UNL d   1      24.807 -14.357  -3.189  0.00  0.00     0.142 C 
BRANCH   9  10
ATOM     10  C   UNL d   1      25.532 -14.513  -1.862  0.00  0.00     0.057 C 
BRANCH  10  11
ATOM     11  C   UNL d   1      25.661 -15.914  -1.347  0.00  0.00    -0.048 A 
ATOM     12  C   UNL d   1      24.578 -16.639  -1.068  0.00  0.00    -0.006 A 
ATOM     13  C   UNL d   1      23.199 -16.326  -1.165  0.00  0.00     0.014 A 
ATOM     14  C   UNL d   1      25.061 -17.919  -0.540  0.00  0.00     0.038 A 
ATOM     15  C   UNL d   1      22.319 -17.193  -0.656  0.00  0.00     0.001 A 
ATOM     16  C   UNL d   1      22.745 -18.486  -0.142  0.00  0.00     0.002 A 
ATOM     17  C   UNL d   1      24.036 -18.878  -0.072  0.00  0.00     0.030 A 
ATOM     18  N   UNL d   1      26.339 -17.987  -0.567  0.00  0.00    -0.385 N 
ATOM     19  C   UNL d   1      26.913 -16.691  -1.047  0.00  0.00     0.155 A 
ATOM     20  H   UNL d   1      26.849 -18.827  -0.295  0.00  0.00     0.160 HD
ENDBRANCH  10  11
ENDBRANCH   9  10
ENDBRANCH   5   9
BRANCH   6  21
ATOM     21  C   UNL d   1      26.120 -10.814  -5.323  0.00  0.00     0.049 A 
ATOM     22  C   UNL d   1      25.760 -10.175  -6.522  0.00  0.00     0.033 A 
ATOM     23  C   UNL d   1      25.148  -8.917  -6.506  0.00  0.00     0.044 A 
ATOM     24  C   UNL d   1      24.820  -8.331  -5.291  0.00  0.00     0.116 A 
ATOM     25  F   UNL d   1      24.158  -7.167  -5.269  0.00  0.00    -0.206 F 
ATOM     26  C   UNL d   1      25.161  -8.941  -4.094  0.00  0.00     0.044 A 
ATOM     27  C   UNL d   1      25.835 -10.161  -4.116  0.00  0.00     0.033 A 
ENDBRANCH   6  21
BRANCH   1  28
ATOM     28  C   UNL d   1      29.225 -15.587  -5.273  0.00  0.00     0.037 A 
ATOM     29  C   UNL d   1      29.279 -16.394  -4.134  0.00  0.00     0.020 A 
ATOM     30  C   UNL d   1      30.097 -17.542  -4.104  0.00  0.00     0.040 A 
ATOM     31  C   UNL d   1      30.831 -17.972  -5.231  0.00  0.00     0.101 A 
ATOM     32  C   UNL d   1      30.723 -17.184  -6.402  0.00  0.00     0.102 A 
ATOM     33  C   UNL d   1      29.938 -16.004  -6.396  0.00  0.00     0.056 A 
BRANCH  31  34
ATOM     34  O   UNL d   1      31.330 -19.251  -5.093  0.00  0.00    -0.353 OA
ATOM     35  C   UNL d   1      30.539 -20.418  -5.333  0.00  0.00     0.210 C 
ENDBRANCH  31  34
BRANCH  32  36
ATOM     36  O   UNL d   1      31.223 -17.370  -7.671  0.00  0.00    -0.353 OA
ATOM     37  C   UNL d   1      31.157 -18.684  -8.149  0.00  0.00     0.210 C 
ENDBRANCH  32  36
ENDBRANCH   1  28
TORSDOF 7
ENDMDL
MODEL 6
REMARK VINA RESULT:    -7.978      3.471      6.020
REMARK INTER + INTRA:         -11.436
REMARK INTER:                 -10.066
REMARK INTRA:                  -1.369
REMARK CONF_INDEPENDENT:        2.088
REMARK UNBOUND:                -1.369
REMARK  7 active torsions:
REMARK  status: ('A' for Active; 'I' for Inactive)
REMARK    1  A    between atoms: O_2  and  C_3 
REMARK    2  A    between atoms: C_6  and  C_7 
REMARK       I    between atoms: C_7  and  N_9 
REMARK       I    between atoms: C_10  and  N_11 
REMARK       I    between atoms: C_10  and  N_23 
REMARK    3  A    between atoms: N_11  and  C_12 
REMARK    4  A    between atoms: C_12  and  C_13 
REMARK    5  A    between atoms: C_13  and  C_14 
REMARK    6  A    between atoms: N_23  and  C_24 
REMARK    7  A    between atoms: C_32  and  O_33 
ROOT
ATOM      1  C   UNL d   1      27.583 -16.704   0.123  0.00  0.00     0.294 C 
ATOM      2  O   UNL d   1      27.892 -16.292   1.253  0.00  0.00    -0.265 OA
ATOM      3  N   UNL d   1      28.491 -17.020  -0.864  0.00  0.00    -0.023 NA
ATOM      4  C   UNL d   1      29.774 -16.985  -0.613  0.00  0.00     0.704 C 
ATOM      5  N   UNL d   1      30.663 -17.328  -1.603  0.00  0.00    -0.224 N 
ATOM      6  N   UNL d   1      30.356 -16.688   0.598  0.00  0.00    -0.190 N 
ATOM      7  H   UNL d   1      31.631 -17.444  -1.329  0.00  0.00     0.177 HD
ATOM      8  H   UNL d   1      29.683 -16.410   1.317  0.00  0.00     0.184 HD
ENDROOT
BRANCH   5   9
ATOM      9  C   UNL d   1      30.269 -17.824  -2.897  0.00  0.00     0.142 C 
BRANCH   9  10
ATOM     10  C   UNL d   1      31.094 -17.180  -3.999  0.00  0.00     0.057 C 
BRANCH  10  11
ATOM     11  C   UNL d   1      30.323 -16.420  -5.036  0.00  0.00    -0.048 A 
ATOM     12  C   UNL d   1      29.385 -15.543  -4.679  0.00  0.00    -0.006 A 
ATOM     13  C   UNL d   1      28.921 -15.146  -3.399  0.00  0.00     0.014 A 
ATOM     14  C   UNL d   1      28.800 -15.033  -5.923  0.00  0.00     0.038 A 
ATOM     15  C   UNL d   1      27.843 -14.360  -3.336  0.00  0.00     0.001 A 
ATOM     16  C   UNL d   1      27.240 -13.809  -4.541  0.00  0.00     0.002 A 
ATOM     17  C   UNL d   1      27.663 -14.096  -5.791  0.00  0.00     0.030 A 
ATOM     18  N   UNL d   1      29.391 -15.513  -6.952  0.00  0.00    -0.385 N 
ATOM     19  C   UNL d   1      30.426 -16.510  -6.533  0.00  0.00     0.155 A 
ATOM     20  H   UNL d   1      29.158 -15.224  -7.902  0.00  0.00     0.160 HD
ENDBRANCH  10  11
ENDBRANCH   9  10
ENDBRANCH   5   9
BRANCH   6  21
ATOM     21  C   UNL d   1      31.681 -16.352   0.933  0.00  0.00     0.049 A 
ATOM     22  C   UNL d   1      32.117 -15.025   0.777  0.00  0.00     0.033 A 
ATOM     23  C   UNL d   1      33.420 -14.655   1.128  0.00  0.00     0.044 A 
ATOM     24  C   UNL d   1      34.264 -15.590   1.712  0.00  0.00     0.116 A 
ATOM     25  F   UNL d   1      35.482 -15.221   2.128  0.00  0.00    -0.206 F 
ATOM     26  C   UNL d   1      33.858 -16.905   1.880  0.00  0.00     0.044 A 
ATOM     27  C   UNL d   1      32.583 -17.285   1.463  0.00  0.00     0.033 A 
ENDBRANCH   6  21
BRANCH   1  28
ATOM     28  C   UNL d   1      26.125 -16.907  -0.183  0.00  0.00     0.037 A 
ATOM     29  C   UNL d   1      25.428 -17.990   0.357  0.00  0.00     0.020 A 
ATOM     30  C   UNL d   1      24.094 -18.248  -0.021  0.00  0.00     0.040 A 
ATOM     31  C   UNL d   1      23.381 -17.394  -0.891  0.00  0.00     0.101 A 
ATOM     32  C   UNL d   1      24.074 -16.264  -1.385  0.00  0.00     0.102 A 
ATOM     33  C   UNL d   1      25.430 -16.051  -1.036  0.00  0.00     0.056 A 
BRANCH  31  34
ATOM     34  O   UNL d   1      22.026 -17.653  -0.908  0.00  0.00    -0.353 OA
ATOM     35  C   UNL d   1      21.493 -18.978  -0.826  0.00  0.00     0.210 C 
ENDBRANCH  31  34
BRANCH  32  36
ATOM     36  O   UNL d   1      23.651 -15.206  -2.160  0.00  0.00    -0.353 OA
ATOM     37  C   UNL d   1      24.675 -14.475  -2.774  0.00  0.00     0.210 C 
ENDBRANCH  32  36
ENDBRANCH   1  28
TORSDOF 7
ENDMDL
MODEL 7
REMARK VINA RESULT:    -7.900      0.804      1.945
REMARK INTER + INTRA:         -11.692
REMARK INTER:                  -9.988
REMARK INTRA:                  -1.705
REMARK CONF_INDEPENDENT:        2.088
REMARK UNBOUND:                -1.705
REMARK  7 active torsions:
REMARK  status: ('A' for Active; 'I' for Inactive)
REMARK    1  A    between atoms: O_2  and  C_3 
REMARK    2  A    between atoms: C_6  and  C_7 
REMARK       I    between atoms: C_7  and  N_9 
REMARK       I    between atoms: C_10  and  N_11 
REMARK       I    between atoms: C_10  and  N_23 
REMARK    3  A    between atoms: N_11  and  C_12 
REMARK    4  A    between atoms: C_12  and  C_13 
REMARK    5  A    between atoms: C_13  and  C_14 
REMARK    6  A    between atoms: N_23  and  C_24 
REMARK    7  A    between atoms: C_32  and  O_33 
ROOT
ATOM      1  C   UNL d   1      27.223 -12.758  -0.757  0.00  0.00     0.294 C 
ATOM      2  O   UNL d   1      26.756 -12.115   0.197  0.00  0.00    -0.265 OA
ATOM      3  N   UNL d   1      28.072 -13.836  -0.625  0.00  0.00    -0.023 NA
ATOM      4  C   UNL d   1      28.362 -14.303   0.561  0.00  0.00     0.704 C 
ATOM      5  N   UNL d   1      29.191 -15.394   0.671  0.00  0.00    -0.224 N 
ATOM      6  N   UNL d   1      27.864 -13.843   1.759  0.00  0.00    -0.190 N 
ATOM      7  H   UNL d   1      29.264 -15.823   1.585  0.00  0.00     0.177 HD
ATOM      8  H   UNL d   1      27.269 -13.016   1.663  0.00  0.00     0.184 HD
ENDROOT
BRANCH   5   9
ATOM      9  C   UNL d   1      29.698 -16.131  -0.458  0.00  0.00     0.142 C 
BRANCH   9  10
ATOM     10  C   UNL d   1      28.562 -16.649  -1.324  0.00  0.00     0.057 C 
BRANCH  10  11
ATOM     11  C   UNL d   1      27.396 -17.240  -0.590  0.00  0.00    -0.048 A 
ATOM     12  C   UNL d   1      26.147 -16.948  -0.952  0.00  0.00    -0.006 A 
ATOM     13  C   UNL d   1      25.647 -16.114  -1.984  0.00  0.00     0.014 A 
ATOM     14  C   UNL d   1      25.268 -17.639  -0.002  0.00  0.00     0.038 A 
ATOM     15  C   UNL d   1      24.334 -15.870  -2.017  0.00  0.00     0.001 A 
ATOM     16  C   UNL d   1      23.418 -16.549  -1.112  0.00  0.00     0.002 A 
ATOM     17  C   UNL d   1      23.815 -17.401  -0.142  0.00  0.00     0.030 A 
ATOM     18  N   UNL d   1      25.937 -18.350   0.825  0.00  0.00    -0.385 N 
ATOM     19  C   UNL d   1      27.404 -18.161   0.597  0.00  0.00     0.155 A 
ATOM     20  H   UNL d   1      25.491 -18.948   1.521  0.00  0.00     0.160 HD
ENDBRANCH  10  11
ENDBRANCH   9  10
ENDBRANCH   5   9
BRANCH   6  21
ATOM     21  C   UNL d   1      28.285 -14.061   3.085  0.00  0.00     0.049 A 
ATOM     22  C   UNL d   1      29.656 -14.212   3.357  0.00  0.00     0.033 A 
ATOM     23  C   UNL d   1      30.108 -14.402   4.667  0.00  0.00     0.044 A 
ATOM     24  C   UNL d   1      29.200 -14.359   5.717  0.00  0.00     0.116 A 
ATOM     25  F   UNL d   1      29.636 -14.455   6.980  0.00  0.00    -0.206 F 
ATOM     26  C   UNL d   1      27.844 -14.207   5.477  0.00  0.00     0.044 A 
ATOM     27  C   UNL d   1      27.390 -14.090   4.163  0.00  0.00     0.033 A 
ENDBRANCH   6  21
BRANCH   1  28
ATOM     28  C   UNL d   1      26.813 -12.363  -2.148  0.00  0.00     0.037 A 
ATOM     29  C   UNL d   1      26.363 -13.323  -3.057  0.00  0.00     0.020 A 
ATOM     30  C   UNL d   1      26.088 -12.974  -4.396  0.00  0.00     0.040 A 
ATOM     31  C   UNL d   1      26.178 -11.642  -4.859  0.00  0.00     0.101 A 
ATOM     32  C   UNL d   1      26.574 -10.665  -3.916  0.00  0.00     0.102 A 
ATOM     33  C   UNL d   1      26.898 -11.043  -2.589  0.00  0.00     0.056 A 
BRANCH  31  34
ATOM     34  O   UNL d   1      25.601 -11.464  -6.099  0.00  0.00    -0.353 OA
ATOM     35  C   UNL d   1      26.253 -10.760  -7.159  0.00  0.00     0.210 C 
ENDBRANCH  31  34
BRANCH  32  36
ATOM     36  O   UNL d   1      26.669  -9.294  -4.013  0.00  0.00    -0.353 OA
ATOM     37  C   UNL d   1      25.533  -8.590  -3.597  0.00  0.00     0.210 C 
ENDBRANCH  32  36
ENDBRANCH   1  28
TORSDOF 7
ENDMDL
MODEL 8
REMARK VINA RESULT:    -6.874      3.561      5.123
REMARK INTER + INTRA:         -11.364
REMARK INTER:                  -8.962
REMARK INTRA:                  -2.402
REMARK CONF_INDEPENDENT:        2.088
REMARK UNBOUND:                -2.402
REMARK  7 active torsions:
REMARK  status: ('A' for Active; 'I' for Inactive)
REMARK    1  A    between atoms: O_2  and  C_3 
REMARK    2  A    between atoms: C_6  and  C_7 
REMARK       I    between atoms: C_7  and  N_9 
REMARK       I    between atoms: C_10  and  N_11 
REMARK       I    between atoms: C_10  and  N_23 
REMARK    3  A    between atoms: N_11  and  C_12 
REMARK    4  A    between atoms: C_12  and  C_13 
REMARK    5  A    between atoms: C_13  and  C_14 
REMARK    6  A    between atoms: N_23  and  C_24 
REMARK    7  A    between atoms: C_32  and  O_33 
ROOT
ATOM      1  C   UNL d   1      29.905 -17.062  -3.381  0.00  0.00     0.294 C 
ATOM      2  O   UNL d   1      30.429 -18.124  -3.753  0.00  0.00    -0.265 OA
ATOM      3  N   UNL d   1      29.787 -16.673  -2.064  0.00  0.00    -0.023 NA
ATOM      4  C   UNL d   1      30.325 -17.395  -1.116  0.00  0.00     0.704 C 
ATOM      5  N   UNL d   1      30.218 -16.978   0.189  0.00  0.00    -0.224 N 
ATOM      6  N   UNL d   1      31.066 -18.541  -1.289  0.00  0.00    -0.190 N 
ATOM      7  H   UNL d   1      30.778 -17.470   0.875  0.00  0.00     0.177 HD
ATOM      8  H   UNL d   1      31.116 -18.852  -2.263  0.00  0.00     0.184 HD
ENDROOT
BRANCH   5   9
ATOM      9  C   UNL d   1      29.623 -15.727   0.585  0.00  0.00     0.142 C 
BRANCH   9  10
ATOM     10  C   UNL d   1      28.150 -15.907   0.915  0.00  0.00     0.057 C 
BRANCH  10  11
ATOM     11  C   UNL d   1      27.200 -15.780  -0.237  0.00  0.00    -0.048 A 
ATOM     12  C   UNL d   1      26.167 -16.613  -0.361  0.00  0.00    -0.006 A 
ATOM     13  C   UNL d   1      25.743 -17.697   0.448  0.00  0.00     0.014 A 
ATOM     14  C   UNL d   1      25.489 -16.249  -1.610  0.00  0.00     0.038 A 
ATOM     15  C   UNL d   1      24.756 -18.474  -0.006  0.00  0.00     0.001 A 
ATOM     16  C   UNL d   1      24.036 -18.142  -1.227  0.00  0.00     0.002 A 
ATOM     17  C   UNL d   1      24.345 -17.093  -2.019  0.00  0.00     0.030 A 
ATOM     18  N   UNL d   1      26.031 -15.228  -2.159  0.00  0.00    -0.385 N 
ATOM     19  C   UNL d   1      27.238 -14.806  -1.381  0.00  0.00     0.155 A 
ATOM     20  H   UNL d   1      25.657 -14.796  -3.003  0.00  0.00     0.160 HD
ENDBRANCH  10  11
ENDBRANCH   9  10
ENDBRANCH   5   9
BRANCH   6  21
ATOM     21  C   UNL d   1      31.459 -19.539  -0.377  0.00  0.00     0.049 A 
ATOM     22  C   UNL d   1      32.486 -19.266   0.544  0.00  0.00     0.033 A 
ATOM     23  C   UNL d   1      32.880 -20.228   1.481  0.00  0.00     0.044 A 
ATOM     24  C   UNL d   1      32.195 -21.434   1.553  0.00  0.00     0.116 A 
ATOM     25  F   UNL d   1      32.511 -22.325   2.502  0.00  0.00    -0.206 F 
ATOM     26  C   UNL d   1      31.178 -21.727   0.658  0.00  0.00     0.044 A 
ATOM     27  C   UNL d   1      30.837 -20.794  -0.320  0.00  0.00     0.033 A 
ENDBRANCH   6  21
BRANCH   1  28
ATOM     28  C   UNL d   1      29.396 -16.115  -4.432  0.00  0.00     0.037 A 
ATOM     29  C   UNL d   1      30.208 -15.738  -5.505  0.00  0.00     0.020 A 
ATOM     30  C   UNL d   1      29.775 -14.762  -6.427  0.00  0.00     0.040 A 
ATOM     31  C   UNL d   1      28.488 -14.183  -6.359  0.00  0.00     0.101 A 
ATOM     32  C   UNL d   1      27.648 -14.616  -5.307  0.00  0.00     0.102 A 
ATOM     33  C   UNL d   1      28.120 -15.558  -4.359  0.00  0.00     0.056 A 
BRANCH  31  34
ATOM     34  O   UNL d   1      28.155 -13.479  -7.498  0.00  0.00    -0.353 OA
ATOM     35  C   UNL d   1      28.315 -12.061  -7.602  0.00  0.00     0.210 C 
ENDBRANCH  31  34
BRANCH  32  36
ATOM     36  O   UNL d   1      26.333 -14.327  -5.016  0.00  0.00    -0.353 OA
ATOM     37  C   UNL d   1      26.036 -12.965  -4.901  0.00  0.00     0.210 C 
ENDBRANCH  32  36
ENDBRANCH   1  28
TORSDOF 7
ENDMDL
MODEL 9
REMARK VINA RESULT:    -6.605      2.595      4.472
REMARK INTER + INTRA:         -11.691
REMARK INTER:                  -8.693
REMARK INTRA:                  -2.998
REMARK CONF_INDEPENDENT:        2.088
REMARK UNBOUND:                -2.998
REMARK  7 active torsions:
REMARK  status: ('A' for Active; 'I' for Inactive)
REMARK    1  A    between atoms: O_2  and  C_3 
REMARK    2  A    between atoms: C_6  and  C_7 
REMARK       I    between atoms: C_7  and  N_9 
REMARK       I    between atoms: C_10  and  N_11 
REMARK       I    between atoms: C_10  and  N_23 
REMARK    3  A    between atoms: N_11  and  C_12 
REMARK    4  A    between atoms: C_12  and  C_13 
REMARK    5  A    between atoms: C_13  and  C_14 
REMARK    6  A    between atoms: N_23  and  C_24 
REMARK    7  A    between atoms: C_32  and  O_33 
ROOT
ATOM      1  C   UNL d   1      29.559 -15.933  -0.819  0.00  0.00     0.294 C 
ATOM      2  O   UNL d   1      29.813 -16.729   0.100  0.00  0.00    -0.265 OA
ATOM      3  N   UNL d   1      29.162 -14.627  -0.627  0.00  0.00    -0.023 NA
ATOM      4  C   UNL d   1      29.123 -14.122   0.578  0.00  0.00     0.704 C 
ATOM      5  N   UNL d   1      28.749 -12.810   0.746  0.00  0.00    -0.224 N 
ATOM      6  N   UNL d   1      29.484 -14.765   1.740  0.00  0.00    -0.190 N 
ATOM      7  H   UNL d   1      28.883 -12.410   1.667  0.00  0.00     0.177 HD
ATOM      8  H   UNL d   1      29.735 -15.748   1.601  0.00  0.00     0.184 HD
ENDROOT
BRANCH   5   9
ATOM      9  C   UNL d   1      28.483 -11.907  -0.344  0.00  0.00     0.142 C 
BRANCH   9  10
ATOM     10  C   UNL d   1      27.030 -11.999  -0.783  0.00  0.00     0.057 C 
BRANCH  10  11
ATOM     11  C   UNL d   1      26.735 -12.992  -1.867  0.00  0.00    -0.048 A 
ATOM     12  C   UNL d   1      26.239 -14.193  -1.572  0.00  0.00    -0.006 A 
ATOM     13  C   UNL d   1      25.905 -14.781  -0.326  0.00  0.00     0.014 A 
ATOM     14  C   UNL d   1      26.128 -14.919  -2.841  0.00  0.00     0.038 A 
ATOM     15  C   UNL d   1      25.578 -16.077  -0.308  0.00  0.00     0.001 A 
ATOM     16  C   UNL d   1      25.430 -16.834  -1.543  0.00  0.00     0.002 A 
ATOM     17  C   UNL d   1      25.676 -16.325  -2.769  0.00  0.00     0.030 A 
ATOM     18  N   UNL d   1      26.463 -14.183  -3.834  0.00  0.00    -0.385 N 
ATOM     19  C   UNL d   1      26.946 -12.852  -3.348  0.00  0.00     0.155 A 
ATOM     20  H   UNL d   1      26.390 -14.500  -4.800  0.00  0.00     0.160 HD
ENDBRANCH  10  11
ENDBRANCH   9  10
ENDBRANCH   5   9
BRANCH   6  21
ATOM     21  C   UNL d   1      29.239 -14.450   3.090  0.00  0.00     0.049 A 
ATOM     22  C   UNL d   1      27.916 -14.430   3.565  0.00  0.00     0.033 A 
ATOM     23  C   UNL d   1      27.642 -14.147   4.908  0.00  0.00     0.044 A 
ATOM     24  C   UNL d   1      28.693 -13.966   5.797  0.00  0.00     0.116 A 
ATOM     25  F   UNL d   1      28.441 -13.780   7.099  0.00  0.00    -0.206 F 
ATOM     26  C   UNL d   1      30.007 -13.985   5.355  0.00  0.00     0.044 A 
ATOM     27  C   UNL d   1      30.272 -14.195   4.003  0.00  0.00     0.033 A 
ENDBRANCH   6  21
BRANCH   1  28
ATOM     28  C   UNL d   1      29.727 -16.407  -2.235  0.00  0.00     0.037 A 
ATOM     29  C   UNL d   1      30.685 -17.371  -2.555  0.00  0.00     0.020 A 
ATOM     30  C   UNL d   1      30.924 -17.732  -3.897  0.00  0.00     0.040 A 
ATOM     31  C   UNL d   1      30.163 -17.202  -4.964  0.00  0.00     0.101 A 
ATOM     32  C   UNL d   1      29.152 -16.273  -4.627  0.00  0.00     0.102 A 
ATOM     33  C   UNL d   1      28.963 -15.883  -3.278  0.00  0.00     0.056 A 
BRANCH  31  34
ATOM     34  O   UNL d   1      30.351 -17.884  -6.149  0.00  0.00    -0.353 OA
ATOM     35  C   UNL d   1      30.406 -19.312  -6.217  0.00  0.00     0.210 C 
ENDBRANCH  31  34
BRANCH  32  36
ATOM     36  O   UNL d   1      28.193 -15.654  -5.398  0.00  0.00    -0.353 OA
ATOM     37  C   UNL d   1      28.685 -14.736  -6.332  0.00  0.00     0.210 C 
ENDBRANCH  32  36
ENDBRANCH   1  28
TORSDOF 7
ENDMDL
