MODEL 1
REMARK VINA RESULT:   -31.228      0.000      0.000
REMARK INTER + INTRA:         -35.512
REMARK INTER:                 -33.913
REMARK INTRA:                  -1.599
REMARK CONF_INDEPENDENT:        2.685
REMARK UNBOUND:                -1.599
REMARK  9 active torsions:
REMARK  status: ('A' for Active; 'I' for Inactive)
REMARK    1  A    between atoms: C_2  and  C_3 
REMARK    2  A    between atoms: C_6  and  C_7 
REMARK    3  A    between atoms: C_10  and  S_11 
REMARK    4  A    between atoms: S_11  and  C_12 
REMARK    5  A    between atoms: C_12  and  C_13 
REMARK       I    between atoms: C_13  and  N_15 
REMARK    6  A    between atoms: CA_16  and  N_15 
REMARK    7  A    between atoms: CA_16  and  C_27 
REMARK    8  A    between atoms: CA_16  and  CB_17 
REMARK    9  A    between atoms: CB_17  and  CG_18 
ROOT
ATOM      1  C   UNK d   0      26.621 -16.417   0.443  0.00  0.00     0.228 C 
ATOM      2  O   UNK d   0      27.367 -16.914   1.243  0.00  0.00    -0.273 OA
ATOM      3  N   TRP d   1      25.505 -17.077  -0.025  0.00  0.00    -0.346 N 
ATOM      4  H   TRP d   1      25.377 -18.036   0.340  0.00  0.00     0.163 HD
ENDROOT
BRANCH   1   5
ATOM      5  C   UNK d   0      26.761 -15.023  -0.150  0.00  0.00     0.185 C 
BRANCH   5   6
ATOM      6  S   UNK d   0      26.523 -13.629   0.986  0.00  0.00    -0.081 SA
BRANCH   6   7
ATOM      7  C   UNK d   0      28.004 -13.604   1.870  0.00  0.00     0.183 C 
ATOM      8  N   UNK d   0      28.966 -12.763   1.811  0.00  0.00    -0.152 NA
ATOM      9  N   UNK d   0      29.934 -13.253   2.662  0.00  0.00    -0.284 N 
ATOM     10  C   UNK d   0      29.462 -14.272   3.555  0.00  0.00     0.235 C 
ATOM     11  H   UNK d   0      30.647 -12.625   3.018  0.00  0.00     0.185 HD
ATOM     12  N   UNK d   0      28.299 -14.672   2.764  0.00  0.00    -0.342 N 
ATOM     13  H   UNK d   0      27.889 -15.576   2.678  0.00  0.00     0.164 HD
BRANCH  10  14
ATOM     14  C   UNK d   0      28.996 -13.872   4.946  0.00  0.00    -0.015 A 
ATOM     15  C   UNK d   0      28.382 -12.619   5.149  0.00  0.00     0.011 A 
ATOM     16  C   UNK d   0      28.212 -12.094   6.436  0.00  0.00     0.007 A 
ATOM     17  C   UNK d   0      28.551 -12.858   7.557  0.00  0.00    -0.059 A 
ATOM     18  C   UNK d   0      29.105 -14.128   7.371  0.00  0.00     0.007 A 
ATOM     19  C   UNK d   0      29.300 -14.638   6.086  0.00  0.00     0.011 A 
BRANCH  17  20
ATOM     20  C   UNK d   0      28.161 -12.424   8.947  0.00  0.00     0.034 C 
ATOM     21  C   UNK d   0      29.360 -12.633   9.867  0.00  0.00     0.010 C 
ENDBRANCH  17  20
ENDBRANCH  10  14
ENDBRANCH   6   7
ENDBRANCH   5   6
ENDBRANCH   1   5
BRANCH   3  22
ATOM     22  CA  TRP d   1      24.333 -16.573  -0.854  0.00  0.00     0.189 C 
BRANCH  22  23
ATOM     23  C   TRP d   1      25.042 -15.907  -2.193  0.00  0.00     0.197 C 
ATOM     24  O   TRP d   1      24.378 -15.003  -2.768  0.00  0.00    -0.646 OA
ATOM     25  OXT TRP d   1      26.147 -16.438  -2.536  0.00  0.00    -0.646 OA
ENDBRANCH  22  23
BRANCH  22  26
ATOM     26  CB  TRP d   1      23.062 -17.685  -1.399  0.00  0.00     0.073 C 
BRANCH  26  27
ATOM     27  CG  TRP d   1      21.650 -18.350  -0.554  0.00  0.00    -0.046 C 
ATOM     28  CD1 TRP d   1      21.163 -19.325  -1.406  0.00  0.00     0.112 C 
ATOM     29  NE1 TRP d   1      19.839 -18.992  -1.249  0.00  0.00    -0.282 NA
ATOM     30  CE2 TRP d   1      19.583 -19.501  -0.006  0.00  0.00     0.019 A 
ATOM     31  HE1 TRP d   1      19.456 -18.072  -1.411  0.00  0.00     0.128 HD
ATOM     32  CZ2 TRP d   1      18.415 -20.209   0.327  0.00  0.00     0.024 A 
ATOM     33  CD2 TRP d   1      20.728 -19.106   0.731  0.00  0.00    -0.011 A 
ATOM     34  CH2 TRP d   1      18.184 -20.728   1.568  0.00  0.00     0.002 A 
ATOM     35  CZ3 TRP d   1      19.178 -20.451   2.485  0.00  0.00     0.001 A 
ATOM     36  CE3 TRP d   1      20.427 -19.614   2.136  0.00  0.00     0.013 A 
ENDBRANCH  26  27
ENDBRANCH  22  26
ENDBRANCH   3  22
TORSDOF 9
ENDMDL
MODEL 2
REMARK VINA RESULT:   -30.866      4.482      7.394
REMARK INTER + INTRA:         -35.925
REMARK INTER:                 -33.551
REMARK INTRA:                  -2.374
REMARK CONF_INDEPENDENT:        2.685
REMARK UNBOUND:                -2.374
REMARK  9 active torsions:
REMARK  status: ('A' for Active; 'I' for Inactive)
REMARK    1  A    between atoms: C_2  and  C_3 
REMARK    2  A    between atoms: C_6  and  C_7 
REMARK    3  A    between atoms: C_10  and  S_11 
REMARK    4  A    between atoms: S_11  and  C_12 
REMARK    5  A    between atoms: C_12  and  C_13 
REMARK       I    between atoms: C_13  and  N_15 
REMARK    6  A    between atoms: CA_16  and  N_15 
REMARK    7  A    between atoms: CA_16  and  C_27 
REMARK    8  A    between atoms: CA_16  and  CB_17 
REMARK    9  A    between atoms: CB_17  and  CG_18 
ROOT
ATOM      1  C   UNK d   0      26.716 -18.209   0.159  0.00  0.00     0.228 C 
ATOM      2  O   UNK d   0      27.332 -19.191   0.475  0.00  0.00    -0.273 OA
ATOM      3  N   TRP d   1      25.425 -18.277  -0.320  0.00  0.00    -0.346 N 
ATOM      4  H   TRP d   1      25.042 -19.233  -0.414  0.00  0.00     0.163 HD
ENDROOT
BRANCH   1   5
ATOM      5  C   UNK d   0      27.225 -16.777   0.250  0.00  0.00     0.185 C 
BRANCH   5   6
ATOM      6  S   UNK d   0      29.001 -16.529  -0.020  0.00  0.00    -0.081 SA
BRANCH   6   7
ATOM      7  C   UNK d   0      29.031 -15.392  -1.318  0.00  0.00     0.183 C 
ATOM      8  N   UNK d   0      29.775 -14.364  -1.475  0.00  0.00    -0.152 NA
ATOM      9  N   UNK d   0      29.332 -13.765  -2.635  0.00  0.00    -0.284 N 
ATOM     10  C   UNK d   0      28.490 -14.603  -3.439  0.00  0.00     0.235 C 
ATOM     11  H   UNK d   0      29.945 -13.123  -3.128  0.00  0.00     0.185 HD
ATOM     12  N   UNK d   0      28.078 -15.512  -2.369  0.00  0.00    -0.342 N 
ATOM     13  H   UNK d   0      27.207 -15.982  -2.257  0.00  0.00     0.164 HD
BRANCH  10  14
ATOM     14  C   UNK d   0      29.118 -15.417  -4.561  0.00  0.00    -0.015 A 
ATOM     15  C   UNK d   0      29.629 -16.703  -4.294  0.00  0.00     0.011 A 
ATOM     16  C   UNK d   0      30.467 -17.354  -5.209  0.00  0.00     0.007 A 
ATOM     17  C   UNK d   0      30.724 -16.781  -6.457  0.00  0.00    -0.059 A 
ATOM     18  C   UNK d   0      30.173 -15.532  -6.758  0.00  0.00     0.007 A 
ATOM     19  C   UNK d   0      29.360 -14.872  -5.834  0.00  0.00     0.011 A 
BRANCH  17  20
ATOM     20  C   UNK d   0      31.419 -17.557  -7.547  0.00  0.00     0.034 C 
ATOM     21  C   UNK d   0      31.269 -19.045  -7.244  0.00  0.00     0.010 C 
ENDBRANCH  17  20
ENDBRANCH  10  14
ENDBRANCH   6   7
ENDBRANCH   5   6
ENDBRANCH   1   5
BRANCH   3  22
ATOM     22  CA  TRP d   1      24.404 -17.177  -0.572  0.00  0.00     0.189 C 
BRANCH  22  23
ATOM     23  C   TRP d   1      25.154 -16.168  -1.648  0.00  0.00     0.197 C 
ATOM     24  O   TRP d   1      25.215 -16.588  -2.835  0.00  0.00    -0.646 OA
ATOM     25  OXT TRP d   1      25.654 -15.115  -1.138  0.00  0.00    -0.646 OA
ENDBRANCH  22  23
BRANCH  22  26
ATOM     26  CB  TRP d   1      22.793 -17.563  -1.207  0.00  0.00     0.073 C 
BRANCH  26  27
ATOM     27  CG  TRP d   1      21.404 -18.375  -0.457  0.00  0.00    -0.046 C 
ATOM     28  CD1 TRP d   1      21.016 -19.326  -1.383  0.00  0.00     0.112 C 
ATOM     29  NE1 TRP d   1      19.667 -19.095  -1.256  0.00  0.00    -0.282 NA
ATOM     30  CE2 TRP d   1      19.406 -19.696  -0.057  0.00  0.00     0.019 A 
ATOM     31  HE1 TRP d   1      19.226 -18.195  -1.378  0.00  0.00     0.128 HD
ATOM     32  CZ2 TRP d   1      18.281 -20.503   0.189  0.00  0.00     0.024 A 
ATOM     33  CD2 TRP d   1      20.495 -19.270   0.745  0.00  0.00    -0.011 A 
ATOM     34  CH2 TRP d   1      18.046 -21.113   1.387  0.00  0.00     0.002 A 
ATOM     35  CZ3 TRP d   1      18.987 -20.824   2.356  0.00  0.00     0.001 A 
ATOM     36  CE3 TRP d   1      20.184 -19.884   2.105  0.00  0.00     0.013 A 
ENDBRANCH  26  27
ENDBRANCH  22  26
ENDBRANCH   3  22
TORSDOF 9
ENDMDL
MODEL 3
REMARK VINA RESULT:   -30.811      5.404      8.153
REMARK INTER + INTRA:         -35.451
REMARK INTER:                 -33.496
REMARK INTRA:                  -1.955
REMARK CONF_INDEPENDENT:        2.685
REMARK UNBOUND:                -1.955
REMARK  9 active torsions:
REMARK  status: ('A' for Active; 'I' for Inactive)
REMARK    1  A    between atoms: C_2  and  C_3 
REMARK    2  A    between atoms: C_6  and  C_7 
REMARK    3  A    between atoms: C_10  and  S_11 
REMARK    4  A    between atoms: S_11  and  C_12 
REMARK    5  A    between atoms: C_12  and  C_13 
REMARK       I    between atoms: C_13  and  N_15 
REMARK    6  A    between atoms: CA_16  and  N_15 
REMARK    7  A    between atoms: CA_16  and  C_27 
REMARK    8  A    between atoms: CA_16  and  CB_17 
REMARK    9  A    between atoms: CB_17  and  CG_18 
ROOT
ATOM      1  C   UNK d   0      25.561 -15.081  -1.437  0.00  0.00     0.228 C 
ATOM      2  O   UNK d   0      26.189 -14.210  -0.898  0.00  0.00    -0.273 OA
ATOM      3  N   TRP d   1      25.371 -16.315  -0.852  0.00  0.00    -0.346 N 
ATOM      4  H   TRP d   1      25.832 -16.442   0.065  0.00  0.00     0.163 HD
ENDROOT
BRANCH   1   5
ATOM      5  C   UNK d   0      24.876 -14.970  -2.791  0.00  0.00     0.185 C 
BRANCH   5   6
ATOM      6  S   UNK d   0      25.957 -14.937  -4.247  0.00  0.00    -0.081 SA
BRANCH   6   7
ATOM      7  C   UNK d   0      27.439 -15.573  -3.634  0.00  0.00     0.183 C 
ATOM      8  N   UNK d   0      27.635 -16.342  -2.632  0.00  0.00    -0.152 NA
ATOM      9  N   UNK d   0      29.003 -16.476  -2.534  0.00  0.00    -0.284 N 
ATOM     10  C   UNK d   0      29.715 -16.049  -3.705  0.00  0.00     0.235 C 
ATOM     11  H   UNK d   0      29.390 -17.264  -2.024  0.00  0.00     0.185 HD
ATOM     12  N   UNK d   0      28.666 -15.179  -4.237  0.00  0.00    -0.342 N 
ATOM     13  H   UNK d   0      28.767 -14.333  -4.754  0.00  0.00     0.164 HD
BRANCH  10  14
ATOM     14  C   UNK d   0      30.080 -17.081  -4.761  0.00  0.00    -0.015 A 
ATOM     15  C   UNK d   0      30.395 -18.400  -4.375  0.00  0.00     0.011 A 
ATOM     16  C   UNK d   0      31.015 -19.287  -5.264  0.00  0.00     0.007 A 
ATOM     17  C   UNK d   0      31.235 -18.912  -6.592  0.00  0.00    -0.059 A 
ATOM     18  C   UNK d   0      30.872 -17.626  -7.004  0.00  0.00     0.007 A 
ATOM     19  C   UNK d   0      30.279 -16.734  -6.109  0.00  0.00     0.011 A 
BRANCH  17  20
ATOM     20  C   UNK d   0      31.676 -19.916  -7.626  0.00  0.00     0.034 C 
ATOM     21  C   UNK d   0      30.853 -19.694  -8.891  0.00  0.00     0.010 C 
ENDBRANCH  17  20
ENDBRANCH  10  14
ENDBRANCH   6   7
ENDBRANCH   5   6
ENDBRANCH   1   5
BRANCH   3  22
ATOM     22  CA  TRP d   1      24.454 -17.464  -1.244  0.00  0.00     0.189 C 
BRANCH  22  23
ATOM     23  C   TRP d   1      24.821 -18.661  -0.162  0.00  0.00     0.197 C 
ATOM     24  O   TRP d   1      24.036 -19.647  -0.154  0.00  0.00    -0.646 OA
ATOM     25  OXT TRP d   1      25.813 -18.414   0.596  0.00  0.00    -0.646 OA
ENDBRANCH  22  23
BRANCH  22  26
ATOM     26  CB  TRP d   1      22.692 -17.255  -1.258  0.00  0.00     0.073 C 
BRANCH  26  27
ATOM     27  CG  TRP d   1      21.398 -18.191  -0.483  0.00  0.00    -0.046 C 
ATOM     28  CD1 TRP d   1      21.176 -19.253  -1.341  0.00  0.00     0.112 C 
ATOM     29  NE1 TRP d   1      19.804 -19.200  -1.269  0.00  0.00    -0.282 NA
ATOM     30  CE2 TRP d   1      19.582 -19.740  -0.034  0.00  0.00     0.019 A 
ATOM     31  HE1 TRP d   1      19.251 -18.380  -1.474  0.00  0.00     0.128 HD
ATOM     32  CZ2 TRP d   1      18.567 -20.671   0.245  0.00  0.00     0.024 A 
ATOM     33  CD2 TRP d   1      20.573 -19.110   0.762  0.00  0.00    -0.011 A 
ATOM     34  CH2 TRP d   1      18.371 -21.217   1.482  0.00  0.00     0.002 A 
ATOM     35  CZ3 TRP d   1      19.228 -20.731   2.449  0.00  0.00     0.001 A 
ATOM     36  CE3 TRP d   1      20.297 -19.657   2.156  0.00  0.00     0.013 A 
ENDBRANCH  26  27
ENDBRANCH  22  26
ENDBRANCH   3  22
TORSDOF 9
ENDMDL
MODEL 4
REMARK VINA RESULT:   -30.765      1.562      2.432
REMARK INTER + INTRA:         -35.718
REMARK INTER:                 -33.450
REMARK INTRA:                  -2.268
REMARK CONF_INDEPENDENT:        2.685
REMARK UNBOUND:                -2.268
REMARK  9 active torsions:
REMARK  status: ('A' for Active; 'I' for Inactive)
REMARK    1  A    between atoms: C_2  and  C_3 
REMARK    2  A    between atoms: C_6  and  C_7 
REMARK    3  A    between atoms: C_10  and  S_11 
REMARK    4  A    between atoms: S_11  and  C_12 
REMARK    5  A    between atoms: C_12  and  C_13 
REMARK       I    between atoms: C_13  and  N_15 
REMARK    6  A    between atoms: CA_16  and  N_15 
REMARK    7  A    between atoms: CA_16  and  C_27 
REMARK    8  A    between atoms: CA_16  and  CB_17 
REMARK    9  A    between atoms: CB_17  and  CG_18 
ROOT
ATOM      1  C   UNK d   0      25.309 -15.852  -2.915  0.00  0.00     0.228 C 
ATOM      2  O   UNK d   0      25.786 -15.521  -3.968  0.00  0.00    -0.273 OA
ATOM      3  N   TRP d   1      24.837 -17.128  -2.694  0.00  0.00    -0.346 N 
ATOM      4  H   TRP d   1      24.896 -17.765  -3.506  0.00  0.00     0.163 HD
ENDROOT
BRANCH   1   5
ATOM      5  C   UNK d   0      25.172 -14.962  -1.688  0.00  0.00     0.185 C 
BRANCH   5   6
ATOM      6  S   UNK d   0      26.355 -13.596  -1.539  0.00  0.00    -0.081 SA
BRANCH   6   7
ATOM      7  C   UNK d   0      27.507 -14.213  -0.413  0.00  0.00     0.183 C 
ATOM      8  N   UNK d   0      28.779 -14.081  -0.402  0.00  0.00    -0.152 NA
ATOM      9  N   UNK d   0      29.217 -14.837   0.664  0.00  0.00    -0.284 N 
ATOM     10  C   UNK d   0      28.177 -15.212   1.579  0.00  0.00     0.235 C 
ATOM     11  H   UNK d   0      30.133 -14.652   1.061  0.00  0.00     0.185 HD
ATOM     12  N   UNK d   0      27.061 -15.053   0.647  0.00  0.00    -0.342 N 
ATOM     13  H   UNK d   0      26.212 -15.572   0.604  0.00  0.00     0.164 HD
BRANCH  10  14
ATOM     14  C   UNK d   0      27.925 -14.343   2.802  0.00  0.00    -0.015 A 
ATOM     15  C   UNK d   0      27.974 -12.938   2.687  0.00  0.00     0.011 A 
ATOM     16  C   UNK d   0      28.043 -12.120   3.823  0.00  0.00     0.007 A 
ATOM     17  C   UNK d   0      27.955 -12.682   5.099  0.00  0.00    -0.059 A 
ATOM     18  C   UNK d   0      27.845 -14.070   5.225  0.00  0.00     0.007 A 
ATOM     19  C   UNK d   0      27.804 -14.886   4.093  0.00  0.00     0.011 A 
BRANCH  17  20
ATOM     20  C   UNK d   0      27.786 -11.818   6.324  0.00  0.00     0.034 C 
ATOM     21  C   UNK d   0      28.960 -12.083   7.262  0.00  0.00     0.010 C 
ENDBRANCH  17  20
ENDBRANCH  10  14
ENDBRANCH   6   7
ENDBRANCH   5   6
ENDBRANCH   1   5
BRANCH   3  22
ATOM     22  CA  TRP d   1      24.403 -17.812  -1.405  0.00  0.00     0.189 C 
BRANCH  22  23
ATOM     23  C   TRP d   1      25.663 -17.553  -0.365  0.00  0.00     0.197 C 
ATOM     24  O   TRP d   1      26.791 -17.391  -0.906  0.00  0.00    -0.646 OA
ATOM     25  OXT TRP d   1      25.364 -17.624   0.870  0.00  0.00    -0.646 OA
ENDBRANCH  22  23
BRANCH  22  26
ATOM     26  CB  TRP d   1      22.903 -17.333  -0.585  0.00  0.00     0.073 C 
BRANCH  26  27
ATOM     27  CG  TRP d   1      21.465 -18.272  -0.140  0.00  0.00    -0.046 C 
ATOM     28  CD1 TRP d   1      21.267 -19.132  -1.206  0.00  0.00     0.112 C 
ATOM     29  NE1 TRP d   1      19.904 -18.965  -1.263  0.00  0.00    -0.282 NA
ATOM     30  CE2 TRP d   1      19.502 -19.702  -0.184  0.00  0.00     0.019 A 
ATOM     31  HE1 TRP d   1      19.439 -18.074  -1.358  0.00  0.00     0.128 HD
ATOM     32  CZ2 TRP d   1      18.397 -20.571  -0.194  0.00  0.00     0.024 A 
ATOM     33  CD2 TRP d   1      20.437 -19.325   0.814  0.00  0.00    -0.011 A 
ATOM     34  CH2 TRP d   1      18.020 -21.315   0.887  0.00  0.00     0.002 A 
ATOM     35  CZ3 TRP d   1      18.792 -21.099   2.011  0.00  0.00     0.001 A 
ATOM     36  CE3 TRP d   1      19.963 -20.094   2.041  0.00  0.00     0.013 A 
ENDBRANCH  26  27
ENDBRANCH  22  26
ENDBRANCH   3  22
TORSDOF 9
ENDMDL
MODEL 5
REMARK VINA RESULT:   -30.702      5.451      7.417
REMARK INTER + INTRA:         -35.382
REMARK INTER:                 -33.386
REMARK INTRA:                  -1.996
REMARK CONF_INDEPENDENT:        2.685
REMARK UNBOUND:                -1.996
REMARK  9 active torsions:
REMARK  status: ('A' for Active; 'I' for Inactive)
REMARK    1  A    between atoms: C_2  and  C_3 
REMARK    2  A    between atoms: C_6  and  C_7 
REMARK    3  A    between atoms: C_10  and  S_11 
REMARK    4  A    between atoms: S_11  and  C_12 
REMARK    5  A    between atoms: C_12  and  C_13 
REMARK       I    between atoms: C_13  and  N_15 
REMARK    6  A    between atoms: CA_16  and  N_15 
REMARK    7  A    between atoms: CA_16  and  C_27 
REMARK    8  A    between atoms: CA_16  and  CB_17 
REMARK    9  A    between atoms: CB_17  and  CG_18 
ROOT
ATOM      1  C   UNK d   0      25.900 -15.337  -1.609  0.00  0.00     0.228 C 
ATOM      2  O   UNK d   0      26.484 -14.411  -1.113  0.00  0.00    -0.273 OA
ATOM      3  N   TRP d   1      25.398 -16.375  -0.853  0.00  0.00    -0.346 N 
ATOM      4  H   TRP d   1      25.587 -16.311   0.161  0.00  0.00     0.163 HD
ENDROOT
BRANCH   1   5
ATOM      5  C   UNK d   0      25.607 -15.505  -3.093  0.00  0.00     0.185 C 
BRANCH   5   6
ATOM      6  S   UNK d   0      25.422 -13.983  -4.061  0.00  0.00    -0.081 SA
BRANCH   6   7
ATOM      7  C   UNK d   0      26.955 -13.843  -4.842  0.00  0.00     0.183 C 
ATOM      8  N   UNK d   0      27.843 -12.932  -4.720  0.00  0.00    -0.152 NA
ATOM      9  N   UNK d   0      28.831 -13.260  -5.625  0.00  0.00    -0.284 N 
ATOM     10  C   UNK d   0      28.743 -14.603  -6.121  0.00  0.00     0.235 C 
ATOM     11  H   UNK d   0      29.762 -12.875  -5.505  0.00  0.00     0.185 HD
ATOM     12  N   UNK d   0      27.326 -14.807  -5.822  0.00  0.00    -0.342 N 
ATOM     13  H   UNK d   0      26.659 -15.350  -6.325  0.00  0.00     0.164 HD
BRANCH  10  14
ATOM     14  C   UNK d   0      29.552 -15.694  -5.436  0.00  0.00    -0.015 A 
ATOM     15  C   UNK d   0      30.030 -16.790  -6.184  0.00  0.00     0.011 A 
ATOM     16  C   UNK d   0      30.511 -17.944  -5.553  0.00  0.00     0.007 A 
ATOM     17  C   UNK d   0      30.628 -17.986  -4.161  0.00  0.00    -0.059 A 
ATOM     18  C   UNK d   0      30.214 -16.882  -3.410  0.00  0.00     0.007 A 
ATOM     19  C   UNK d   0      29.708 -15.744  -4.039  0.00  0.00     0.011 A 
BRANCH  17  20
ATOM     20  C   UNK d   0      31.360 -19.110  -3.471  0.00  0.00     0.034 C 
ATOM     21  C   UNK d   0      31.228 -20.365  -4.329  0.00  0.00     0.010 C 
ENDBRANCH  17  20
ENDBRANCH  10  14
ENDBRANCH   6   7
ENDBRANCH   5   6
ENDBRANCH   1   5
BRANCH   3  22
ATOM     22  CA  TRP d   1      24.462 -17.513  -1.234  0.00  0.00     0.189 C 
BRANCH  22  23
ATOM     23  C   TRP d   1      24.818 -18.710  -0.149  0.00  0.00     0.197 C 
ATOM     24  O   TRP d   1      25.891 -18.558   0.496  0.00  0.00    -0.646 OA
ATOM     25  OXT TRP d   1      24.006 -19.690  -0.145  0.00  0.00    -0.646 OA
ENDBRANCH  22  23
BRANCH  22  26
ATOM     26  CB  TRP d   1      22.703 -17.278  -1.239  0.00  0.00     0.073 C 
BRANCH  26  27
ATOM     27  CG  TRP d   1      21.398 -18.206  -0.473  0.00  0.00    -0.046 C 
ATOM     28  CD1 TRP d   1      21.164 -19.257  -1.342  0.00  0.00     0.112 C 
ATOM     29  NE1 TRP d   1      19.793 -19.188  -1.270  0.00  0.00    -0.282 NA
ATOM     30  CE2 TRP d   1      19.565 -19.738  -0.040  0.00  0.00     0.019 A 
ATOM     31  HE1 TRP d   1      19.249 -18.361  -1.467  0.00  0.00     0.128 HD
ATOM     32  CZ2 TRP d   1      18.539 -20.660   0.230  0.00  0.00     0.024 A 
ATOM     33  CD2 TRP d   1      20.562 -19.127   0.762  0.00  0.00    -0.011 A 
ATOM     34  CH2 TRP d   1      18.336 -21.215   1.461  0.00  0.00     0.002 A 
ATOM     35  CZ3 TRP d   1      19.199 -20.749   2.433  0.00  0.00     0.001 A 
ATOM     36  CE3 TRP d   1      20.280 -19.685   2.151  0.00  0.00     0.013 A 
ENDBRANCH  26  27
ENDBRANCH  22  26
ENDBRANCH   3  22
TORSDOF 9
ENDMDL
MODEL 6
REMARK VINA RESULT:   -30.467      5.038      7.698
REMARK INTER + INTRA:         -34.975
REMARK INTER:                 -33.151
REMARK INTRA:                  -1.824
REMARK CONF_INDEPENDENT:        2.685
REMARK UNBOUND:                -1.824
REMARK  9 active torsions:
REMARK  status: ('A' for Active; 'I' for Inactive)
REMARK    1  A    between atoms: C_2  and  C_3 
REMARK    2  A    between atoms: C_6  and  C_7 
REMARK    3  A    between atoms: C_10  and  S_11 
REMARK    4  A    between atoms: S_11  and  C_12 
REMARK    5  A    between atoms: C_12  and  C_13 
REMARK       I    between atoms: C_13  and  N_15 
REMARK    6  A    between atoms: CA_16  and  N_15 
REMARK    7  A    between atoms: CA_16  and  C_27 
REMARK    8  A    between atoms: CA_16  and  CB_17 
REMARK    9  A    between atoms: CB_17  and  CG_18 
ROOT
ATOM      1  C   UNK d   0      25.359 -16.069  -2.444  0.00  0.00     0.228 C 
ATOM      2  O   UNK d   0      25.797 -15.608  -3.464  0.00  0.00    -0.273 OA
ATOM      3  N   TRP d   1      24.810 -17.332  -2.388  0.00  0.00    -0.346 N 
ATOM      4  H   TRP d   1      24.777 -17.837  -3.289  0.00  0.00     0.163 HD
ENDROOT
BRANCH   1   5
ATOM      5  C   UNK d   0      25.355 -15.375  -1.090  0.00  0.00     0.185 C 
BRANCH   5   6
ATOM      6  S   UNK d   0      26.826 -14.400  -0.673  0.00  0.00    -0.081 SA
BRANCH   6   7
ATOM      7  C   UNK d   0      26.606 -12.964  -1.605  0.00  0.00     0.183 C 
ATOM      8  N   UNK d   0      27.041 -11.783  -1.385  0.00  0.00    -0.152 NA
ATOM      9  N   UNK d   0      26.510 -11.003  -2.390  0.00  0.00    -0.284 N 
ATOM     10  C   UNK d   0      25.978 -11.754  -3.490  0.00  0.00     0.235 C 
ATOM     11  H   UNK d   0      26.945 -10.112  -2.610  0.00  0.00     0.185 HD
ATOM     12  N   UNK d   0      25.781 -13.009  -2.765  0.00  0.00    -0.342 N 
ATOM     13  H   UNK d   0      25.070 -13.695  -2.896  0.00  0.00     0.164 HD
BRANCH  10  14
ATOM     14  C   UNK d   0      26.865 -12.019  -4.697  0.00  0.00    -0.015 A 
ATOM     15  C   UNK d   0      27.000 -11.036  -5.699  0.00  0.00     0.011 A 
ATOM     16  C   UNK d   0      27.555 -11.345  -6.948  0.00  0.00     0.007 A 
ATOM     17  C   UNK d   0      28.089 -12.614  -7.185  0.00  0.00    -0.059 A 
ATOM     18  C   UNK d   0      28.017 -13.581  -6.177  0.00  0.00     0.007 A 
ATOM     19  C   UNK d   0      27.438 -13.280  -4.943  0.00  0.00     0.011 A 
BRANCH  17  20
ATOM     20  C   UNK d   0      28.902 -12.903  -8.421  0.00  0.00     0.034 C 
ATOM     21  C   UNK d   0      28.488 -11.914  -9.507  0.00  0.00     0.010 C 
ENDBRANCH  17  20
ENDBRANCH  10  14
ENDBRANCH   6   7
ENDBRANCH   5   6
ENDBRANCH   1   5
BRANCH   3  22
ATOM     22  CA  TRP d   1      24.402 -18.181  -1.192  0.00  0.00     0.189 C 
BRANCH  22  23
ATOM     23  C   TRP d   1      25.736 -18.168  -0.213  0.00  0.00     0.197 C 
ATOM     24  O   TRP d   1      26.818 -17.845  -0.772  0.00  0.00    -0.646 OA
ATOM     25  OXT TRP d   1      25.530 -18.563   0.979  0.00  0.00    -0.646 OA
ENDBRANCH  22  23
BRANCH  22  26
ATOM     26  CB  TRP d   1      22.991 -17.743  -0.209  0.00  0.00     0.073 C 
BRANCH  26  27
ATOM     27  CG  TRP d   1      21.443 -18.573   0.048  0.00  0.00    -0.046 C 
ATOM     28  CD1 TRP d   1      21.239 -19.295  -1.114  0.00  0.00     0.112 C 
ATOM     29  NE1 TRP d   1      19.904 -18.987  -1.232  0.00  0.00    -0.282 NA
ATOM     30  CE2 TRP d   1      19.362 -19.785  -0.264  0.00  0.00     0.019 A 
ATOM     31  HE1 TRP d   1      19.533 -18.049  -1.257  0.00  0.00     0.128 HD
ATOM     32  CZ2 TRP d   1      18.184 -20.533  -0.432  0.00  0.00     0.024 A 
ATOM     33  CD2 TRP d   1      20.258 -19.608   0.821  0.00  0.00    -0.011 A 
ATOM     34  CH2 TRP d   1      17.666 -21.342   0.538  0.00  0.00     0.002 A 
ATOM     35  CZ3 TRP d   1      18.376 -21.320   1.722  0.00  0.00     0.001 A 
ATOM     36  CE3 TRP d   1      19.631 -20.446   1.928  0.00  0.00     0.013 A 
ENDBRANCH  26  27
ENDBRANCH  22  26
ENDBRANCH   3  22
TORSDOF 9
ENDMDL
MODEL 7
REMARK VINA RESULT:   -30.354      5.372      7.752
REMARK INTER + INTRA:         -35.661
REMARK INTER:                 -33.039
REMARK INTRA:                  -2.623
REMARK CONF_INDEPENDENT:        2.685
REMARK UNBOUND:                -2.623
REMARK  9 active torsions:
REMARK  status: ('A' for Active; 'I' for Inactive)
REMARK    1  A    between atoms: C_2  and  C_3 
REMARK    2  A    between atoms: C_6  and  C_7 
REMARK    3  A    between atoms: C_10  and  S_11 
REMARK    4  A    between atoms: S_11  and  C_12 
REMARK    5  A    between atoms: C_12  and  C_13 
REMARK       I    between atoms: C_13  and  N_15 
REMARK    6  A    between atoms: CA_16  and  N_15 
REMARK    7  A    between atoms: CA_16  and  C_27 
REMARK    8  A    between atoms: CA_16  and  CB_17 
REMARK    9  A    between atoms: CB_17  and  CG_18 
ROOT
ATOM      1  C   UNK d   0      25.624 -14.991  -1.412  0.00  0.00     0.228 C 
ATOM      2  O   UNK d   0      26.229 -14.086  -0.904  0.00  0.00    -0.273 OA
ATOM      3  N   TRP d   1      25.482 -16.214  -0.793  0.00  0.00    -0.346 N 
ATOM      4  H   TRP d   1      25.957 -16.302   0.121  0.00  0.00     0.163 HD
ENDROOT
BRANCH   1   5
ATOM      5  C   UNK d   0      24.920 -14.938  -2.760  0.00  0.00     0.185 C 
BRANCH   5   6
ATOM      6  S   UNK d   0      25.921 -15.345  -4.216  0.00  0.00    -0.081 SA
BRANCH   6   7
ATOM      7  C   UNK d   0      26.880 -13.926  -4.424  0.00  0.00     0.183 C 
ATOM      8  N   UNK d   0      27.803 -13.692  -5.278  0.00  0.00    -0.152 NA
ATOM      9  N   UNK d   0      28.294 -12.445  -4.954  0.00  0.00    -0.284 N 
ATOM     10  C   UNK d   0      27.449 -11.698  -4.068  0.00  0.00     0.235 C 
ATOM     11  H   UNK d   0      28.807 -11.917  -5.653  0.00  0.00     0.185 HD
ATOM     12  N   UNK d   0      26.724 -12.842  -3.514  0.00  0.00    -0.342 N 
ATOM     13  H   UNK d   0      26.359 -12.958  -2.595  0.00  0.00     0.164 HD
BRANCH  10  14
ATOM     14  C   UNK d   0      26.446 -10.720  -4.659  0.00  0.00    -0.015 A 
ATOM     15  C   UNK d   0      26.392 -10.526  -6.054  0.00  0.00     0.011 A 
ATOM     16  C   UNK d   0      25.706  -9.438  -6.609  0.00  0.00     0.007 A 
ATOM     17  C   UNK d   0      24.966  -8.582  -5.789  0.00  0.00    -0.059 A 
ATOM     18  C   UNK d   0      24.961  -8.799  -4.408  0.00  0.00     0.007 A 
ATOM     19  C   UNK d   0      25.669  -9.867  -3.854  0.00  0.00     0.011 A 
BRANCH  17  20
ATOM     20  C   UNK d   0      24.030  -7.554  -6.373  0.00  0.00     0.034 C 
ATOM     21  C   UNK d   0      22.925  -7.281  -5.358  0.00  0.00     0.010 C 
ENDBRANCH  17  20
ENDBRANCH  10  14
ENDBRANCH   6   7
ENDBRANCH   5   6
ENDBRANCH   1   5
BRANCH   3  22
ATOM     22  CA  TRP d   1      24.599 -17.403  -1.143  0.00  0.00     0.189 C 
BRANCH  22  23
ATOM     23  C   TRP d   1      24.916 -18.508   0.048  0.00  0.00     0.197 C 
ATOM     24  O   TRP d   1      26.055 -18.421   0.580  0.00  0.00    -0.646 OA
ATOM     25  OXT TRP d   1      24.000 -19.371   0.237  0.00  0.00    -0.646 OA
ENDBRANCH  22  23
BRANCH  22  26
ATOM     26  CB  TRP d   1      22.838 -17.220  -1.271  0.00  0.00     0.073 C 
BRANCH  26  27
ATOM     27  CG  TRP d   1      21.512 -18.103  -0.489  0.00  0.00    -0.046 C 
ATOM     28  CD1 TRP d   1      21.276 -19.183  -1.320  0.00  0.00     0.112 C 
ATOM     29  NE1 TRP d   1      19.905 -19.095  -1.270  0.00  0.00    -0.282 NA
ATOM     30  CE2 TRP d   1      19.654 -19.595  -0.023  0.00  0.00     0.019 A 
ATOM     31  HE1 TRP d   1      19.375 -18.269  -1.504  0.00  0.00     0.128 HD
ATOM     32  CZ2 TRP d   1      18.613 -20.495   0.267  0.00  0.00     0.024 A 
ATOM     33  CD2 TRP d   1      20.648 -18.967   0.769  0.00  0.00    -0.011 A 
ATOM     34  CH2 TRP d   1      18.387 -21.001   1.515  0.00  0.00     0.002 A 
ATOM     35  CZ3 TRP d   1      19.243 -20.509   2.481  0.00  0.00     0.001 A 
ATOM     36  CE3 TRP d   1      20.341 -19.469   2.174  0.00  0.00     0.013 A 
ENDBRANCH  26  27
ENDBRANCH  22  26
ENDBRANCH   3  22
TORSDOF 9
ENDMDL
MODEL 8
REMARK VINA RESULT:   -30.109      4.095      6.574
REMARK INTER + INTRA:         -35.526
REMARK INTER:                 -32.794
REMARK INTRA:                  -2.732
REMARK CONF_INDEPENDENT:        2.685
REMARK UNBOUND:                -2.732
REMARK  9 active torsions:
REMARK  status: ('A' for Active; 'I' for Inactive)
REMARK    1  A    between atoms: C_2  and  C_3 
REMARK    2  A    between atoms: C_6  and  C_7 
REMARK    3  A    between atoms: C_10  and  S_11 
REMARK    4  A    between atoms: S_11  and  C_12 
REMARK    5  A    between atoms: C_12  and  C_13 
REMARK       I    between atoms: C_13  and  N_15 
REMARK    6  A    between atoms: CA_16  and  N_15 
REMARK    7  A    between atoms: CA_16  and  C_27 
REMARK    8  A    between atoms: CA_16  and  CB_17 
REMARK    9  A    between atoms: CB_17  and  CG_18 
ROOT
ATOM      1  C   UNK d   0      26.547 -18.277   0.324  0.00  0.00     0.228 C 
ATOM      2  O   UNK d   0      27.122 -19.296   0.599  0.00  0.00    -0.273 OA
ATOM      3  N   TRP d   1      25.389 -18.270  -0.424  0.00  0.00    -0.346 N 
ATOM      4  H   TRP d   1      25.073 -19.198  -0.753  0.00  0.00     0.163 HD
ENDROOT
BRANCH   1   5
ATOM      5  C   UNK d   0      26.967 -16.880   0.756  0.00  0.00     0.185 C 
BRANCH   5   6
ATOM      6  S   UNK d   0      28.650 -16.367   0.318  0.00  0.00    -0.081 SA
BRANCH   6   7
ATOM      7  C   UNK d   0      28.420 -14.750  -0.240  0.00  0.00     0.183 C 
ATOM      8  N   UNK d   0      29.127 -13.709  -0.015  0.00  0.00    -0.152 NA
ATOM      9  N   UNK d   0      28.457 -12.671  -0.627  0.00  0.00    -0.284 N 
ATOM     10  C   UNK d   0      27.453 -13.096  -1.560  0.00  0.00     0.235 C 
ATOM     11  H   UNK d   0      28.961 -11.818  -0.851  0.00  0.00     0.185 HD
ATOM     12  N   UNK d   0      27.265 -14.440  -1.013  0.00  0.00    -0.342 N 
ATOM     13  H   UNK d   0      26.431 -14.984  -0.980  0.00  0.00     0.164 HD
BRANCH  10  14
ATOM     14  C   UNK d   0      27.819 -13.212  -3.032  0.00  0.00    -0.015 A 
ATOM     15  C   UNK d   0      26.805 -13.380  -3.997  0.00  0.00     0.011 A 
ATOM     16  C   UNK d   0      27.107 -13.783  -5.304  0.00  0.00     0.007 A 
ATOM     17  C   UNK d   0      28.439 -13.920  -5.707  0.00  0.00    -0.059 A 
ATOM     18  C   UNK d   0      29.457 -13.696  -4.775  0.00  0.00     0.007 A 
ATOM     19  C   UNK d   0      29.152 -13.322  -3.465  0.00  0.00     0.011 A 
BRANCH  17  20
ATOM     20  C   UNK d   0      28.801 -14.116  -7.157  0.00  0.00     0.034 C 
ATOM     21  C   UNK d   0      30.143 -14.839  -7.222  0.00  0.00     0.010 C 
ENDBRANCH  17  20
ENDBRANCH  10  14
ENDBRANCH   6   7
ENDBRANCH   5   6
ENDBRANCH   1   5
BRANCH   3  22
ATOM     22  CA  TRP d   1      24.400 -17.148  -0.704  0.00  0.00     0.189 C 
BRANCH  22  23
ATOM     23  C   TRP d   1      25.150 -16.225  -1.854  0.00  0.00     0.197 C 
ATOM     24  O   TRP d   1      26.226 -16.695  -2.313  0.00  0.00    -0.646 OA
ATOM     25  OXT TRP d   1      24.595 -15.103  -2.088  0.00  0.00    -0.646 OA
ENDBRANCH  22  23
BRANCH  22  26
ATOM     26  CB  TRP d   1      22.757 -17.507  -1.270  0.00  0.00     0.073 C 
BRANCH  26  27
ATOM     27  CG  TRP d   1      21.407 -18.348  -0.482  0.00  0.00    -0.046 C 
ATOM     28  CD1 TRP d   1      21.030 -19.324  -1.387  0.00  0.00     0.112 C 
ATOM     29  NE1 TRP d   1      19.677 -19.130  -1.238  0.00  0.00    -0.282 NA
ATOM     30  CE2 TRP d   1      19.456 -19.720  -0.026  0.00  0.00     0.019 A 
ATOM     31  HE1 TRP d   1      19.208 -18.245  -1.365  0.00  0.00     0.128 HD
ATOM     32  CZ2 TRP d   1      18.360 -20.555   0.253  0.00  0.00     0.024 A 
ATOM     33  CD2 TRP d   1      20.546 -19.250   0.750  0.00  0.00    -0.011 A 
ATOM     34  CH2 TRP d   1      18.164 -21.153   1.465  0.00  0.00     0.002 A 
ATOM     35  CZ3 TRP d   1      19.114 -20.823   2.411  0.00  0.00     0.001 A 
ATOM     36  CE3 TRP d   1      20.279 -19.852   2.124  0.00  0.00     0.013 A 
ENDBRANCH  26  27
ENDBRANCH  22  26
ENDBRANCH   3  22
TORSDOF 9
ENDMDL
MODEL 9
REMARK VINA RESULT:   -29.406      2.972      4.221
REMARK INTER + INTRA:         -34.790
REMARK INTER:                 -32.091
REMARK INTRA:                  -2.699
REMARK CONF_INDEPENDENT:        2.685
REMARK UNBOUND:                -2.699
REMARK  9 active torsions:
REMARK  status: ('A' for Active; 'I' for Inactive)
REMARK    1  A    between atoms: C_2  and  C_3 
REMARK    2  A    between atoms: C_6  and  C_7 
REMARK    3  A    between atoms: C_10  and  S_11 
REMARK    4  A    between atoms: S_11  and  C_12 
REMARK    5  A    between atoms: C_12  and  C_13 
REMARK       I    between atoms: C_13  and  N_15 
REMARK    6  A    between atoms: CA_16  and  N_15 
REMARK    7  A    between atoms: CA_16  and  C_27 
REMARK    8  A    between atoms: CA_16  and  CB_17 
REMARK    9  A    between atoms: CB_17  and  CG_18 
ROOT
ATOM      1  C   UNK d   0      25.778 -15.117  -1.697  0.00  0.00     0.228 C 
ATOM      2  O   UNK d   0      26.365 -14.177  -1.230  0.00  0.00    -0.273 OA
ATOM      3  N   TRP d   1      25.410 -16.202  -0.932  0.00  0.00    -0.346 N 
ATOM      4  H   TRP d   1      25.701 -16.161   0.059  0.00  0.00     0.163 HD
ENDROOT
BRANCH   1   5
ATOM      5  C   UNK d   0      25.338 -15.253  -3.147  0.00  0.00     0.185 C 
BRANCH   5   6
ATOM      6  S   UNK d   0      26.650 -15.236  -4.399  0.00  0.00    -0.081 SA
BRANCH   6   7
ATOM      7  C   UNK d   0      28.074 -15.493  -3.458  0.00  0.00     0.183 C 
ATOM      8  N   UNK d   0      29.247 -15.012  -3.621  0.00  0.00    -0.152 NA
ATOM      9  N   UNK d   0      30.023 -15.602  -2.645  0.00  0.00    -0.284 N 
ATOM     10  C   UNK d   0      29.266 -16.238  -1.605  0.00  0.00     0.235 C 
ATOM     11  H   UNK d   0      30.898 -15.163  -2.374  0.00  0.00     0.185 HD
ATOM     12  N   UNK d   0      28.031 -16.408  -2.369  0.00  0.00    -0.342 N 
ATOM     13  H   UNK d   0      27.361 -17.144  -2.308  0.00  0.00     0.164 HD
BRANCH  10  14
ATOM     14  C   UNK d   0      28.957 -15.456  -0.337  0.00  0.00    -0.015 A 
ATOM     15  C   UNK d   0      28.091 -16.003   0.632  0.00  0.00     0.011 A 
ATOM     16  C   UNK d   0      27.552 -15.210   1.653  0.00  0.00     0.007 A 
ATOM     17  C   UNK d   0      27.952 -13.878   1.793  0.00  0.00    -0.059 A 
ATOM     18  C   UNK d   0      28.858 -13.340   0.874  0.00  0.00     0.007 A 
ATOM     19  C   UNK d   0      29.373 -14.125  -0.159  0.00  0.00     0.011 A 
BRANCH  17  20
ATOM     20  C   UNK d   0      27.578 -13.074   3.012  0.00  0.00     0.034 C 
ATOM     21  C   UNK d   0      27.034 -14.030   4.069  0.00  0.00     0.010 C 
ENDBRANCH  17  20
ENDBRANCH  10  14
ENDBRANCH   6   7
ENDBRANCH   5   6
ENDBRANCH   1   5
BRANCH   3  22
ATOM     22  CA  TRP d   1      24.495 -17.375  -1.255  0.00  0.00     0.189 C 
BRANCH  22  23
ATOM     23  C   TRP d   1      24.877 -18.512  -0.115  0.00  0.00     0.197 C 
ATOM     24  O   TRP d   1      24.254 -19.604  -0.204  0.00  0.00    -0.646 OA
ATOM     25  OXT TRP d   1      25.702 -18.124   0.774  0.00  0.00    -0.646 OA
ENDBRANCH  22  23
BRANCH  22  26
ATOM     26  CB  TRP d   1      22.732 -17.175  -1.266  0.00  0.00     0.073 C 
BRANCH  26  27
ATOM     27  CG  TRP d   1      21.444 -18.118  -0.489  0.00  0.00    -0.046 C 
ATOM     28  CD1 TRP d   1      21.208 -19.166  -1.360  0.00  0.00     0.112 C 
ATOM     29  NE1 TRP d   1      19.837 -19.109  -1.270  0.00  0.00    -0.282 NA
ATOM     30  CE2 TRP d   1      19.629 -19.667  -0.040  0.00  0.00     0.019 A 
ATOM     31  HE1 TRP d   1      19.284 -18.285  -1.455  0.00  0.00     0.128 HD
ATOM     32  CZ2 TRP d   1      18.614 -20.600   0.237  0.00  0.00     0.024 A 
ATOM     33  CD2 TRP d   1      20.632 -19.053   0.752  0.00  0.00    -0.011 A 
ATOM     34  CH2 TRP d   1      18.431 -21.163   1.468  0.00  0.00     0.002 A 
ATOM     35  CZ3 TRP d   1      19.302 -20.695   2.432  0.00  0.00     0.001 A 
ATOM     36  CE3 TRP d   1      20.371 -19.621   2.142  0.00  0.00     0.013 A 
ENDBRANCH  26  27
ENDBRANCH  22  26
ENDBRANCH   3  22
TORSDOF 9
ENDMDL
