MODEL 1
REMARK VINA RESULT:    -7.961      0.000      0.000
REMARK INTER + INTRA:         -12.356
REMARK INTER:                 -10.348
REMARK INTRA:                  -2.008
REMARK CONF_INDEPENDENT:        2.386
REMARK UNBOUND:                -2.008
REMARK  8 active torsions:
REMARK  status: ('A' for Active; 'I' for Inactive)
REMARK    1  A    between atoms: C_2  and  C_3 
REMARK    2  A    between atoms: C_3  and  N_4 
REMARK       I    between atoms: N_4  and  C_5 
REMARK       I    between atoms: C_5  and  N_7 
REMARK    3  A    between atoms: N_7  and  N_8 
REMARK       I    between atoms: N_8  and  C_9 
REMARK    4  A    between atoms: C_9  and  C_11 
REMARK    5  A    between atoms: C_11  and  O_13 
REMARK    6  A    between atoms: O_13  and  C_14 
REMARK    7  A    between atoms: C_17  and  O_18 
REMARK    8  A    between atoms: O_18  and  C_19 
ROOT
ATOM      1  N   UNL d   1      23.396 -17.848  -0.708  0.00  0.00    -0.264 N 
ATOM      2  C   UNL d   1      24.691 -17.558  -0.262  0.00  0.00     0.265 C 
ATOM      3  O   UNL d   1      25.193 -18.198   0.665  0.00  0.00    -0.269 OA
ATOM      4  H   UNL d   1      22.915 -17.344  -1.452  0.00  0.00     0.190 HD
ENDROOT
BRANCH   2   5
ATOM      5  C   UNL d   1      25.445 -16.385  -1.010  0.00  0.00     0.218 C 
ATOM      6  C   UNL d   1      26.921 -16.792  -1.089  0.00  0.00     0.050 C 
BRANCH   5   7
ATOM      7  O   UNL d   1      24.812 -16.096  -2.293  0.00  0.00    -0.337 OA
BRANCH   7   8
ATOM      8  C   UNL d   1      25.359 -15.175  -3.157  0.00  0.00     0.070 C 
ATOM      9  C   UNL d   1      24.964 -13.833  -3.094  0.00  0.00     0.039 C 
ATOM     10  C   UNL d   1      25.430 -12.896  -4.053  0.00  0.00     0.039 C 
ATOM     11  C   UNL d   1      26.367 -13.269  -5.022  0.00  0.00     0.068 C 
ATOM     12  C   UNL d   1      26.719 -14.604  -5.101  0.00  0.00     0.039 C 
ATOM     13  C   UNL d   1      26.156 -15.534  -4.234  0.00  0.00     0.039 C 
BRANCH  11  14
ATOM     14  O   UNL d   1      26.859 -12.300  -5.859  0.00  0.00    -0.352 OA
BRANCH  14  15
ATOM     15  C   UNL d   1      26.578 -10.947  -5.462  0.00  0.00     0.171 C 
ATOM     16  C   UNL d   1      25.554 -10.346  -6.401  0.00  0.00     0.034 C 
ENDBRANCH  14  15
ENDBRANCH  11  14
ENDBRANCH   7   8
ENDBRANCH   5   7
ENDBRANCH   2   5
BRANCH   1  17
ATOM     17  N   UNL d   1      22.606 -18.850  -0.051  0.00  0.00    -0.249 N 
ATOM     18  C   UNL d   1      21.259 -18.968  -0.357  0.00  0.00     0.334 C 
ATOM     19  N   UNL d   1      20.594 -19.986   0.301  0.00  0.00    -0.342 N 
ATOM     20  O   UNL d   1      20.706 -18.215  -1.163  0.00  0.00    -0.246 OA
ATOM     21  H   UNL d   1      21.099 -20.576   0.947  0.00  0.00     0.164 HD
ATOM     22  H   UNL d   1      23.099 -19.446   0.610  0.00  0.00     0.192 HD
BRANCH  19  23
ATOM     23  C   UNL d   1      19.168 -20.244   0.073  0.00  0.00     0.124 C 
BRANCH  23  24
ATOM     24  C   UNL d   1      18.411 -20.764   1.304  0.00  0.00     0.015 C 
ATOM     25  C   UNL d   1      19.146 -20.450   2.608  0.00  0.00     0.006 C 
ENDBRANCH  23  24
ENDBRANCH  19  23
ENDBRANCH   1  17
TORSDOF 8
ENDMDL
MODEL 2
REMARK VINA RESULT:    -7.916      0.308      1.048
REMARK INTER + INTRA:         -12.345
REMARK INTER:                 -10.302
REMARK INTRA:                  -2.043
REMARK CONF_INDEPENDENT:        2.386
REMARK UNBOUND:                -2.043
REMARK  8 active torsions:
REMARK  status: ('A' for Active; 'I' for Inactive)
REMARK    1  A    between atoms: C_2  and  C_3 
REMARK    2  A    between atoms: C_3  and  N_4 
REMARK       I    between atoms: N_4  and  C_5 
REMARK       I    between atoms: C_5  and  N_7 
REMARK    3  A    between atoms: N_7  and  N_8 
REMARK       I    between atoms: N_8  and  C_9 
REMARK    4  A    between atoms: C_9  and  C_11 
REMARK    5  A    between atoms: C_11  and  O_13 
REMARK    6  A    between atoms: O_13  and  C_14 
REMARK    7  A    between atoms: C_17  and  O_18 
REMARK    8  A    between atoms: O_18  and  C_19 
ROOT
ATOM      1  N   UNL d   1      23.320 -17.742  -0.682  0.00  0.00    -0.264 N 
ATOM      2  C   UNL d   1      24.632 -17.473  -0.271  0.00  0.00     0.265 C 
ATOM      3  O   UNL d   1      25.170 -18.165   0.597  0.00  0.00    -0.269 OA
ATOM      4  H   UNL d   1      22.811 -17.197  -1.377  0.00  0.00     0.190 HD
ENDROOT
BRANCH   2   5
ATOM      5  C   UNL d   1      25.354 -16.255  -0.976  0.00  0.00     0.218 C 
ATOM      6  C   UNL d   1      26.778 -16.718  -1.304  0.00  0.00     0.050 C 
BRANCH   5   7
ATOM      7  O   UNL d   1      24.578 -15.782  -2.119  0.00  0.00    -0.337 OA
BRANCH   7   8
ATOM      8  C   UNL d   1      25.155 -14.990  -3.084  0.00  0.00     0.070 C 
ATOM      9  C   UNL d   1      25.922 -15.571  -4.102  0.00  0.00     0.039 C 
ATOM     10  C   UNL d   1      26.619 -14.761  -5.036  0.00  0.00     0.039 C 
ATOM     11  C   UNL d   1      26.479 -13.369  -5.020  0.00  0.00     0.068 C 
ATOM     12  C   UNL d   1      25.754 -12.804  -3.987  0.00  0.00     0.039 C 
ATOM     13  C   UNL d   1      25.181 -13.605  -3.006  0.00  0.00     0.039 C 
BRANCH  11  14
ATOM     14  O   UNL d   1      27.094 -12.642  -6.007  0.00  0.00    -0.352 OA
BRANCH  14  15
ATOM     15  C   UNL d   1      27.044 -11.215  -5.838  0.00  0.00     0.171 C 
ATOM     16  C   UNL d   1      26.139 -10.612  -6.892  0.00  0.00     0.034 C 
ENDBRANCH  14  15
ENDBRANCH  11  14
ENDBRANCH   7   8
ENDBRANCH   5   7
ENDBRANCH   2   5
BRANCH   1  17
ATOM     17  N   UNL d   1      22.559 -18.784  -0.056  0.00  0.00    -0.249 N 
ATOM     18  C   UNL d   1      21.224 -18.950  -0.390  0.00  0.00     0.334 C 
ATOM     19  N   UNL d   1      20.587 -20.003   0.241  0.00  0.00    -0.342 N 
ATOM     20  O   UNL d   1      20.656 -18.207  -1.195  0.00  0.00    -0.246 OA
ATOM     21  H   UNL d   1      21.103 -20.583   0.887  0.00  0.00     0.164 HD
ATOM     22  H   UNL d   1      23.062 -19.371   0.605  0.00  0.00     0.192 HD
BRANCH  19  23
ATOM     23  C   UNL d   1      19.177 -20.313  -0.019  0.00  0.00     0.124 C 
BRANCH  23  24
ATOM     24  C   UNL d   1      18.404 -20.830   1.204  0.00  0.00     0.015 C 
ATOM     25  C   UNL d   1      19.086 -20.450   2.519  0.00  0.00     0.006 C 
ENDBRANCH  23  24
ENDBRANCH  19  23
ENDBRANCH   1  17
TORSDOF 8
ENDMDL
MODEL 3
REMARK VINA RESULT:    -7.880      2.016      2.354
REMARK INTER + INTRA:         -12.247
REMARK INTER:                 -10.267
REMARK INTRA:                  -1.980
REMARK CONF_INDEPENDENT:        2.386
REMARK UNBOUND:                -1.980
REMARK  8 active torsions:
REMARK  status: ('A' for Active; 'I' for Inactive)
REMARK    1  A    between atoms: C_2  and  C_3 
REMARK    2  A    between atoms: C_3  and  N_4 
REMARK       I    between atoms: N_4  and  C_5 
REMARK       I    between atoms: C_5  and  N_7 
REMARK    3  A    between atoms: N_7  and  N_8 
REMARK       I    between atoms: N_8  and  C_9 
REMARK    4  A    between atoms: C_9  and  C_11 
REMARK    5  A    between atoms: C_11  and  O_13 
REMARK    6  A    between atoms: O_13  and  C_14 
REMARK    7  A    between atoms: C_17  and  O_18 
REMARK    8  A    between atoms: O_18  and  C_19 
ROOT
ATOM      1  N   UNL d   1      24.379 -17.545  -0.234  0.00  0.00    -0.264 N 
ATOM      2  C   UNL d   1      25.687 -17.614   0.261  0.00  0.00     0.265 C 
ATOM      3  O   UNL d   1      26.048 -18.575   0.945  0.00  0.00    -0.269 OA
ATOM      4  H   UNL d   1      24.011 -16.770  -0.785  0.00  0.00     0.190 HD
ENDROOT
BRANCH   2   5
ATOM      5  C   UNL d   1      26.643 -16.408  -0.108  0.00  0.00     0.218 C 
ATOM      6  C   UNL d   1      27.960 -17.024  -0.592  0.00  0.00     0.050 C 
BRANCH   5   7
ATOM      7  O   UNL d   1      25.997 -15.505  -1.056  0.00  0.00    -0.337 OA
BRANCH   7   8
ATOM      8  C   UNL d   1      26.403 -15.452  -2.369  0.00  0.00     0.070 C 
ATOM      9  C   UNL d   1      27.700 -15.031  -2.686  0.00  0.00     0.039 C 
ATOM     10  C   UNL d   1      28.095 -14.860  -4.039  0.00  0.00     0.039 C 
ATOM     11  C   UNL d   1      27.231 -15.199  -5.085  0.00  0.00     0.068 C 
ATOM     12  C   UNL d   1      25.940 -15.575  -4.762  0.00  0.00     0.039 C 
ATOM     13  C   UNL d   1      25.529 -15.617  -3.434  0.00  0.00     0.039 C 
BRANCH  11  14
ATOM     14  O   UNL d   1      27.699 -15.110  -6.371  0.00  0.00    -0.352 OA
BRANCH  14  15
ATOM     15  C   UNL d   1      28.981 -14.475  -6.513  0.00  0.00     0.171 C 
ATOM     16  C   UNL d   1      30.038 -15.524  -6.786  0.00  0.00     0.034 C 
ENDBRANCH  14  15
ENDBRANCH  11  14
ENDBRANCH   7   8
ENDBRANCH   5   7
ENDBRANCH   2   5
BRANCH   1  17
ATOM     17  N   UNL d   1      23.419 -18.557   0.102  0.00  0.00    -0.249 N 
ATOM     18  C   UNL d   1      22.097 -18.401  -0.288  0.00  0.00     0.334 C 
ATOM     19  N   UNL d   1      21.258 -19.445   0.050  0.00  0.00    -0.342 N 
ATOM     20  O   UNL d   1      21.711 -17.398  -0.895  0.00  0.00    -0.246 OA
ATOM     21  H   UNL d   1      21.630 -20.245   0.543  0.00  0.00     0.164 HD
ATOM     22  H   UNL d   1      23.776 -19.364   0.606  0.00  0.00     0.192 HD
BRANCH  19  23
ATOM     23  C   UNL d   1      19.834 -19.432  -0.305  0.00  0.00     0.124 C 
BRANCH  23  24
ATOM     24  C   UNL d   1      18.906 -20.024   0.767  0.00  0.00     0.015 C 
ATOM     25  C   UNL d   1      19.589 -20.119   2.132  0.00  0.00     0.006 C 
ENDBRANCH  23  24
ENDBRANCH  19  23
ENDBRANCH   1  17
TORSDOF 8
ENDMDL
MODEL 4
REMARK VINA RESULT:    -7.793      3.313      9.120
REMARK INTER + INTRA:         -11.870
REMARK INTER:                 -10.180
REMARK INTRA:                  -1.690
REMARK CONF_INDEPENDENT:        2.386
REMARK UNBOUND:                -1.690
REMARK  8 active torsions:
REMARK  status: ('A' for Active; 'I' for Inactive)
REMARK    1  A    between atoms: C_2  and  C_3 
REMARK    2  A    between atoms: C_3  and  N_4 
REMARK       I    between atoms: N_4  and  C_5 
REMARK       I    between atoms: C_5  and  N_7 
REMARK    3  A    between atoms: N_7  and  N_8 
REMARK       I    between atoms: N_8  and  C_9 
REMARK    4  A    between atoms: C_9  and  C_11 
REMARK    5  A    between atoms: C_11  and  O_13 
REMARK    6  A    between atoms: O_13  and  C_14 
REMARK    7  A    between atoms: C_17  and  O_18 
REMARK    8  A    between atoms: O_18  and  C_19 
ROOT
ATOM      1  N   UNL d   1      25.900 -13.123  -3.109  0.00  0.00    -0.264 N 
ATOM      2  C   UNL d   1      25.540 -14.467  -3.265  0.00  0.00     0.265 C 
ATOM      3  O   UNL d   1      24.855 -14.824  -4.226  0.00  0.00    -0.269 OA
ATOM      4  H   UNL d   1      26.445 -12.759  -2.328  0.00  0.00     0.190 HD
ENDROOT
BRANCH   2   5
ATOM      5  C   UNL d   1      26.060 -15.468  -2.155  0.00  0.00     0.218 C 
ATOM      6  C   UNL d   1      27.459 -14.989  -1.751  0.00  0.00     0.050 C 
BRANCH   5   7
ATOM      7  O   UNL d   1      25.100 -15.571  -1.060  0.00  0.00    -0.337 OA
BRANCH   7   8
ATOM      8  C   UNL d   1      24.192 -16.603  -1.014  0.00  0.00     0.070 C 
ATOM      9  C   UNL d   1      22.823 -16.328  -0.902  0.00  0.00     0.039 C 
ATOM     10  C   UNL d   1      21.885 -17.380  -0.736  0.00  0.00     0.039 C 
ATOM     11  C   UNL d   1      22.293 -18.717  -0.777  0.00  0.00     0.068 C 
ATOM     12  C   UNL d   1      23.650 -18.976  -0.847  0.00  0.00     0.039 C 
ATOM     13  C   UNL d   1      24.568 -17.932  -0.882  0.00  0.00     0.039 C 
BRANCH  11  14
ATOM     14  O   UNL d   1      21.333 -19.694  -0.713  0.00  0.00    -0.352 OA
BRANCH  14  15
ATOM     15  C   UNL d   1      19.977 -19.225  -0.793  0.00  0.00     0.171 C 
ATOM     16  C   UNL d   1      19.104 -20.041   0.138  0.00  0.00     0.034 C 
ENDBRANCH  14  15
ENDBRANCH  11  14
ENDBRANCH   7   8
ENDBRANCH   5   7
ENDBRANCH   2   5
BRANCH   1  17
ATOM     17  N   UNL d   1      25.423 -12.129  -4.027  0.00  0.00    -0.249 N 
ATOM     18  C   UNL d   1      25.889 -10.827  -3.927  0.00  0.00     0.334 C 
ATOM     19  N   UNL d   1      25.397  -9.953  -4.879  0.00  0.00    -0.342 N 
ATOM     20  O   UNL d   1      26.686 -10.485  -3.050  0.00  0.00    -0.246 OA
ATOM     21  H   UNL d   1      24.750 -10.289  -5.578  0.00  0.00     0.164 HD
ATOM     22  H   UNL d   1      24.763 -12.450  -4.731  0.00  0.00     0.192 HD
BRANCH  19  23
ATOM     23  C   UNL d   1      25.806  -8.545  -4.911  0.00  0.00     0.124 C 
BRANCH  23  24
ATOM     24  C   UNL d   1      24.653  -7.543  -4.744  0.00  0.00     0.015 C 
ATOM     25  C   UNL d   1      23.360  -8.040  -5.392  0.00  0.00     0.006 C 
ENDBRANCH  23  24
ENDBRANCH  19  23
ENDBRANCH   1  17
TORSDOF 8
ENDMDL
MODEL 5
REMARK VINA RESULT:    -7.451      4.672      8.472
REMARK INTER + INTRA:         -11.408
REMARK INTER:                  -9.837
REMARK INTRA:                  -1.570
REMARK CONF_INDEPENDENT:        2.386
REMARK UNBOUND:                -1.570
REMARK  8 active torsions:
REMARK  status: ('A' for Active; 'I' for Inactive)
REMARK    1  A    between atoms: C_2  and  C_3 
REMARK    2  A    between atoms: C_3  and  N_4 
REMARK       I    between atoms: N_4  and  C_5 
REMARK       I    between atoms: C_5  and  N_7 
REMARK    3  A    between atoms: N_7  and  N_8 
REMARK       I    between atoms: N_8  and  C_9 
REMARK    4  A    between atoms: C_9  and  C_11 
REMARK    5  A    between atoms: C_11  and  O_13 
REMARK    6  A    between atoms: O_13  and  C_14 
REMARK    7  A    between atoms: C_17  and  O_18 
REMARK    8  A    between atoms: O_18  and  C_19 
ROOT
ATOM      1  N   UNL d   1      27.415 -15.126   1.303  0.00  0.00    -0.264 N 
ATOM      2  C   UNL d   1      27.614 -16.074   0.291  0.00  0.00     0.265 C 
ATOM      3  O   UNL d   1      28.663 -16.720   0.235  0.00  0.00    -0.269 OA
ATOM      4  H   UNL d   1      26.583 -14.545   1.394  0.00  0.00     0.190 HD
ENDROOT
BRANCH   2   5
ATOM      5  C   UNL d   1      26.432 -16.252  -0.746  0.00  0.00     0.218 C 
ATOM      6  C   UNL d   1      27.015 -15.953  -2.131  0.00  0.00     0.050 C 
BRANCH   5   7
ATOM      7  O   UNL d   1      25.811 -17.566  -0.605  0.00  0.00    -0.337 OA
BRANCH   7   8
ATOM      8  C   UNL d   1      24.452 -17.722  -0.745  0.00  0.00     0.070 C 
ATOM      9  C   UNL d   1      23.622 -16.598  -0.835  0.00  0.00     0.039 C 
ATOM     10  C   UNL d   1      22.210 -16.742  -0.862  0.00  0.00     0.039 C 
ATOM     11  C   UNL d   1      21.620 -18.009  -0.897  0.00  0.00     0.068 C 
ATOM     12  C   UNL d   1      22.445 -19.111  -0.767  0.00  0.00     0.039 C 
ATOM     13  C   UNL d   1      23.818 -18.950  -0.614  0.00  0.00     0.039 C 
BRANCH  11  14
ATOM     14  O   UNL d   1      20.256 -18.089  -1.025  0.00  0.00    -0.352 OA
BRANCH  14  15
ATOM     15  C   UNL d   1      19.706 -19.411  -0.897  0.00  0.00     0.171 C 
ATOM     16  C   UNL d   1      19.408 -19.696   0.561  0.00  0.00     0.034 C 
ENDBRANCH  14  15
ENDBRANCH  11  14
ENDBRANCH   7   8
ENDBRANCH   5   7
ENDBRANCH   2   5
BRANCH   1  17
ATOM     17  N   UNL d   1      28.455 -14.846   2.252  0.00  0.00    -0.249 N 
ATOM     18  C   UNL d   1      28.175 -14.059   3.359  0.00  0.00     0.334 C 
ATOM     19  N   UNL d   1      29.231 -13.876   4.232  0.00  0.00    -0.342 N 
ATOM     20  O   UNL d   1      27.059 -13.564   3.542  0.00  0.00    -0.246 OA
ATOM     21  H   UNL d   1      30.122 -14.309   4.035  0.00  0.00     0.164 HD
ATOM     22  H   UNL d   1      29.360 -15.268   2.063  0.00  0.00     0.192 HD
BRANCH  19  23
ATOM     23  C   UNL d   1      29.087 -13.078   5.454  0.00  0.00     0.124 C 
BRANCH  23  24
ATOM     24  C   UNL d   1      28.836 -13.903   6.726  0.00  0.00     0.015 C 
ATOM     25  C   UNL d   1      28.636 -13.017   7.957  0.00  0.00     0.006 C 
ENDBRANCH  23  24
ENDBRANCH  19  23
ENDBRANCH   1  17
TORSDOF 8
ENDMDL
MODEL 6
REMARK VINA RESULT:    -6.981      2.932      4.839
REMARK INTER + INTRA:         -10.953
REMARK INTER:                  -9.368
REMARK INTRA:                  -1.586
REMARK CONF_INDEPENDENT:        2.386
REMARK UNBOUND:                -1.586
REMARK  8 active torsions:
REMARK  status: ('A' for Active; 'I' for Inactive)
REMARK    1  A    between atoms: C_2  and  C_3 
REMARK    2  A    between atoms: C_3  and  N_4 
REMARK       I    between atoms: N_4  and  C_5 
REMARK       I    between atoms: C_5  and  N_7 
REMARK    3  A    between atoms: N_7  and  N_8 
REMARK       I    between atoms: N_8  and  C_9 
REMARK    4  A    between atoms: C_9  and  C_11 
REMARK    5  A    between atoms: C_11  and  O_13 
REMARK    6  A    between atoms: O_13  and  C_14 
REMARK    7  A    between atoms: C_17  and  O_18 
REMARK    8  A    between atoms: O_18  and  C_19 
ROOT
ATOM      1  N   UNL d   1      23.341 -18.102  -1.223  0.00  0.00    -0.264 N 
ATOM      2  C   UNL d   1      24.707 -17.851  -1.041  0.00  0.00     0.265 C 
ATOM      3  O   UNL d   1      25.344 -18.449  -0.170  0.00  0.00    -0.269 OA
ATOM      4  H   UNL d   1      22.754 -17.629  -1.908  0.00  0.00     0.190 HD
ENDROOT
BRANCH   2   5
ATOM      5  C   UNL d   1      25.358 -16.778  -2.005  0.00  0.00     0.218 C 
ATOM      6  C   UNL d   1      24.460 -15.538  -1.952  0.00  0.00     0.050 C 
BRANCH   5   7
ATOM      7  O   UNL d   1      26.756 -16.546  -1.654  0.00  0.00    -0.337 OA
BRANCH   7   8
ATOM      8  C   UNL d   1      27.092 -15.718  -0.608  0.00  0.00     0.070 C 
ATOM      9  C   UNL d   1      27.532 -16.263   0.605  0.00  0.00     0.039 C 
ATOM     10  C   UNL d   1      27.770 -15.429   1.729  0.00  0.00     0.039 C 
ATOM     11  C   UNL d   1      27.663 -14.038   1.624  0.00  0.00     0.068 C 
ATOM     12  C   UNL d   1      27.189 -13.514   0.435  0.00  0.00     0.039 C 
ATOM     13  C   UNL d   1      26.839 -14.354  -0.617  0.00  0.00     0.039 C 
BRANCH  11  14
ATOM     14  O   UNL d   1      28.002 -13.275   2.712  0.00  0.00    -0.352 OA
BRANCH  14  15
ATOM     15  C   UNL d   1      27.471 -13.729   3.967  0.00  0.00     0.171 C 
ATOM     16  C   UNL d   1      28.586 -14.322   4.804  0.00  0.00     0.034 C 
ENDBRANCH  14  15
ENDBRANCH  11  14
ENDBRANCH   7   8
ENDBRANCH   5   7
ENDBRANCH   2   5
BRANCH   1  17
ATOM     17  N   UNL d   1      22.646 -19.010  -0.355  0.00  0.00    -0.249 N 
ATOM     18  C   UNL d   1      21.267 -19.119  -0.445  0.00  0.00     0.334 C 
ATOM     19  N   UNL d   1      20.695 -20.045   0.407  0.00  0.00    -0.342 N 
ATOM     20  O   UNL d   1      20.609 -18.435  -1.233  0.00  0.00    -0.246 OA
ATOM     21  H   UNL d   1      21.283 -20.582   1.029  0.00  0.00     0.164 HD
ATOM     22  H   UNL d   1      23.224 -19.551   0.283  0.00  0.00     0.192 HD
BRANCH  19  23
ATOM     23  C   UNL d   1      19.247 -20.284   0.421  0.00  0.00     0.124 C 
BRANCH  23  24
ATOM     24  C   UNL d   1      18.681 -20.682   1.792  0.00  0.00     0.015 C 
ATOM     25  C   UNL d   1      19.687 -20.450   2.920  0.00  0.00     0.006 C 
ENDBRANCH  23  24
ENDBRANCH  19  23
ENDBRANCH   1  17
TORSDOF 8
ENDMDL
MODEL 7
REMARK VINA RESULT:    -6.531      5.186      8.565
REMARK INTER + INTRA:         -10.716
REMARK INTER:                  -8.918
REMARK INTRA:                  -1.798
REMARK CONF_INDEPENDENT:        2.386
REMARK UNBOUND:                -1.798
REMARK  8 active torsions:
REMARK  status: ('A' for Active; 'I' for Inactive)
REMARK    1  A    between atoms: C_2  and  C_3 
REMARK    2  A    between atoms: C_3  and  N_4 
REMARK       I    between atoms: N_4  and  C_5 
REMARK       I    between atoms: C_5  and  N_7 
REMARK    3  A    between atoms: N_7  and  N_8 
REMARK       I    between atoms: N_8  and  C_9 
REMARK    4  A    between atoms: C_9  and  C_11 
REMARK    5  A    between atoms: C_11  and  O_13 
REMARK    6  A    between atoms: O_13  and  C_14 
REMARK    7  A    between atoms: C_17  and  O_18 
REMARK    8  A    between atoms: O_18  and  C_19 
ROOT
ATOM      1  N   UNL d   1      27.784 -14.706   2.308  0.00  0.00    -0.264 N 
ATOM      2  C   UNL d   1      27.490 -14.417   0.970  0.00  0.00     0.265 C 
ATOM      3  O   UNL d   1      27.274 -13.256   0.612  0.00  0.00    -0.269 OA
ATOM      4  H   UNL d   1      27.950 -15.643   2.673  0.00  0.00     0.190 HD
ENDROOT
BRANCH   2   5
ATOM      5  C   UNL d   1      27.455 -15.648  -0.024  0.00  0.00     0.218 C 
ATOM      6  C   UNL d   1      28.905 -15.919  -0.438  0.00  0.00     0.050 C 
BRANCH   5   7
ATOM      7  O   UNL d   1      26.760 -16.782   0.579  0.00  0.00    -0.337 OA
BRANCH   7   8
ATOM      8  C   UNL d   1      25.599 -17.271   0.027  0.00  0.00     0.070 C 
ATOM      9  C   UNL d   1      24.848 -18.235   0.712  0.00  0.00     0.039 C 
ATOM     10  C   UNL d   1      23.713 -18.834   0.104  0.00  0.00     0.039 C 
ATOM     11  C   UNL d   1      23.264 -18.408  -1.150  0.00  0.00     0.068 C 
ATOM     12  C   UNL d   1      24.036 -17.487  -1.834  0.00  0.00     0.039 C 
ATOM     13  C   UNL d   1      25.215 -17.002  -1.279  0.00  0.00     0.039 C 
BRANCH  11  14
ATOM     14  O   UNL d   1      22.105 -18.950  -1.645  0.00  0.00    -0.352 OA
BRANCH  14  15
ATOM     15  C   UNL d   1      20.907 -18.577  -0.944  0.00  0.00     0.171 C 
ATOM     16  C   UNL d   1      20.258 -19.814  -0.359  0.00  0.00     0.034 C 
ENDBRANCH  14  15
ENDBRANCH  11  14
ENDBRANCH   7   8
ENDBRANCH   5   7
ENDBRANCH   2   5
BRANCH   1  17
ATOM     17  N   UNL d   1      27.775 -13.666   3.297  0.00  0.00    -0.249 N 
ATOM     18  C   UNL d   1      27.953 -13.993   4.633  0.00  0.00     0.334 C 
ATOM     19  N   UNL d   1      27.964 -12.919   5.503  0.00  0.00    -0.342 N 
ATOM     20  O   UNL d   1      28.094 -15.161   5.005  0.00  0.00    -0.246 OA
ATOM     21  H   UNL d   1      27.850 -11.982   5.142  0.00  0.00     0.164 HD
ATOM     22  H   UNL d   1      27.651 -12.719   2.950  0.00  0.00     0.192 HD
BRANCH  19  23
ATOM     23  C   UNL d   1      28.156 -13.102   6.946  0.00  0.00     0.124 C 
BRANCH  23  24
ATOM     24  C   UNL d   1      29.299 -14.059   7.319  0.00  0.00     0.015 C 
ATOM     25  C   UNL d   1      29.662 -13.973   8.802  0.00  0.00     0.006 C 
ENDBRANCH  23  24
ENDBRANCH  19  23
ENDBRANCH   1  17
TORSDOF 8
ENDMDL
MODEL 8
REMARK VINA RESULT:    -6.356      3.118      9.032
REMARK INTER + INTRA:         -10.286
REMARK INTER:                  -8.742
REMARK INTRA:                  -1.544
REMARK CONF_INDEPENDENT:        2.386
REMARK UNBOUND:                -1.544
REMARK  8 active torsions:
REMARK  status: ('A' for Active; 'I' for Inactive)
REMARK    1  A    between atoms: C_2  and  C_3 
REMARK    2  A    between atoms: C_3  and  N_4 
REMARK       I    between atoms: N_4  and  C_5 
REMARK       I    between atoms: C_5  and  N_7 
REMARK    3  A    between atoms: N_7  and  N_8 
REMARK       I    between atoms: N_8  and  C_9 
REMARK    4  A    between atoms: C_9  and  C_11 
REMARK    5  A    between atoms: C_11  and  O_13 
REMARK    6  A    between atoms: O_13  and  C_14 
REMARK    7  A    between atoms: C_17  and  O_18 
REMARK    8  A    between atoms: O_18  and  C_19 
ROOT
ATOM      1  N   UNL d   1      25.706 -13.862  -3.238  0.00  0.00    -0.264 N 
ATOM      2  C   UNL d   1      26.414 -13.566  -2.067  0.00  0.00     0.265 C 
ATOM      3  O   UNL d   1      26.644 -12.396  -1.752  0.00  0.00    -0.269 OA
ATOM      4  H   UNL d   1      25.502 -14.805  -3.566  0.00  0.00     0.190 HD
ENDROOT
BRANCH   2   5
ATOM      5  C   UNL d   1      26.887 -14.803  -1.200  0.00  0.00     0.218 C 
ATOM      6  C   UNL d   1      26.474 -14.509   0.246  0.00  0.00     0.050 C 
BRANCH   5   7
ATOM      7  O   UNL d   1      26.368 -16.051  -1.751  0.00  0.00    -0.337 OA
BRANCH   7   8
ATOM      8  C   UNL d   1      25.246 -16.643  -1.221  0.00  0.00     0.070 C 
ATOM      9  C   UNL d   1      25.341 -17.890  -0.590  0.00  0.00     0.039 C 
ATOM     10  C   UNL d   1      24.176 -18.566  -0.142  0.00  0.00     0.039 C 
ATOM     11  C   UNL d   1      22.918 -17.962  -0.234  0.00  0.00     0.068 C 
ATOM     12  C   UNL d   1      22.830 -16.750  -0.895  0.00  0.00     0.039 C 
ATOM     13  C   UNL d   1      23.964 -16.159  -1.441  0.00  0.00     0.039 C 
BRANCH  11  14
ATOM     14  O   UNL d   1      21.840 -18.616   0.305  0.00  0.00    -0.352 OA
BRANCH  14  15
ATOM     15  C   UNL d   1      20.807 -18.967  -0.630  0.00  0.00     0.171 C 
ATOM     16  C   UNL d   1      19.596 -19.479   0.122  0.00  0.00     0.034 C 
ENDBRANCH  14  15
ENDBRANCH  11  14
ENDBRANCH   7   8
ENDBRANCH   5   7
ENDBRANCH   2   5
BRANCH   1  17
ATOM     17  N   UNL d   1      25.292 -12.811  -4.124  0.00  0.00    -0.249 N 
ATOM     18  C   UNL d   1      26.227 -12.206  -4.949  0.00  0.00     0.334 C 
ATOM     19  N   UNL d   1      25.725 -11.231  -5.790  0.00  0.00    -0.342 N 
ATOM     20  O   UNL d   1      27.420 -12.524  -4.926  0.00  0.00    -0.246 OA
ATOM     21  H   UNL d   1      24.738 -11.014  -5.770  0.00  0.00     0.164 HD
ATOM     22  H   UNL d   1      24.303 -12.576  -4.108  0.00  0.00     0.192 HD
BRANCH  19  23
ATOM     23  C   UNL d   1      26.589 -10.509  -6.730  0.00  0.00     0.124 C 
BRANCH  23  24
ATOM     24  C   UNL d   1      26.844 -11.247  -8.054  0.00  0.00     0.015 C 
ATOM     25  C   UNL d   1      28.331 -11.300  -8.406  0.00  0.00     0.006 C 
ENDBRANCH  23  24
ENDBRANCH  19  23
ENDBRANCH   1  17
TORSDOF 8
ENDMDL
MODEL 9
REMARK VINA RESULT:    -6.084      3.760      6.224
REMARK INTER + INTRA:         -10.563
REMARK INTER:                  -8.470
REMARK INTRA:                  -2.093
REMARK CONF_INDEPENDENT:        2.386
REMARK UNBOUND:                -2.093
REMARK  8 active torsions:
REMARK  status: ('A' for Active; 'I' for Inactive)
REMARK    1  A    between atoms: C_2  and  C_3 
REMARK    2  A    between atoms: C_3  and  N_4 
REMARK       I    between atoms: N_4  and  C_5 
REMARK       I    between atoms: C_5  and  N_7 
REMARK    3  A    between atoms: N_7  and  N_8 
REMARK       I    between atoms: N_8  and  C_9 
REMARK    4  A    between atoms: C_9  and  C_11 
REMARK    5  A    between atoms: C_11  and  O_13 
REMARK    6  A    between atoms: O_13  and  C_14 
REMARK    7  A    between atoms: C_17  and  O_18 
REMARK    8  A    between atoms: O_18  and  C_19 
ROOT
ATOM      1  N   UNL d   1      26.621 -15.970   0.466  0.00  0.00    -0.264 N 
ATOM      2  C   UNL d   1      26.215 -17.272   0.148  0.00  0.00     0.265 C 
ATOM      3  O   UNL d   1      26.788 -18.246   0.642  0.00  0.00    -0.269 OA
ATOM      4  H   UNL d   1      26.206 -15.125   0.077  0.00  0.00     0.190 HD
ENDROOT
BRANCH   2   5
ATOM      5  C   UNL d   1      25.003 -17.403  -0.862  0.00  0.00     0.218 C 
ATOM      6  C   UNL d   1      23.922 -18.220  -0.147  0.00  0.00     0.050 C 
BRANCH   5   7
ATOM      7  O   UNL d   1      24.577 -16.088  -1.334  0.00  0.00    -0.337 OA
BRANCH   7   8
ATOM      8  C   UNL d   1      25.156 -15.515  -2.442  0.00  0.00     0.070 C 
ATOM      9  C   UNL d   1      26.459 -15.867  -2.814  0.00  0.00     0.039 C 
ATOM     10  C   UNL d   1      27.111 -15.200  -3.884  0.00  0.00     0.039 C 
ATOM     11  C   UNL d   1      26.436 -14.245  -4.650  0.00  0.00     0.068 C 
ATOM     12  C   UNL d   1      25.165 -13.876  -4.250  0.00  0.00     0.039 C 
ATOM     13  C   UNL d   1      24.586 -14.448  -3.122  0.00  0.00     0.039 C 
BRANCH  11  14
ATOM     14  O   UNL d   1      27.080 -13.705  -5.734  0.00  0.00    -0.352 OA
BRANCH  14  15
ATOM     15  C   UNL d   1      28.155 -14.498  -6.265  0.00  0.00     0.171 C 
ATOM     16  C   UNL d   1      29.332 -13.602  -6.591  0.00  0.00     0.034 C 
ENDBRANCH  14  15
ENDBRANCH  11  14
ENDBRANCH   7   8
ENDBRANCH   5   7
ENDBRANCH   2   5
BRANCH   1  17
ATOM     17  N   UNL d   1      27.753 -15.749   1.321  0.00  0.00    -0.249 N 
ATOM     18  C   UNL d   1      27.859 -14.554   2.017  0.00  0.00     0.334 C 
ATOM     19  N   UNL d   1      28.965 -14.452   2.840  0.00  0.00    -0.342 N 
ATOM     20  O   UNL d   1      27.021 -13.656   1.902  0.00  0.00    -0.246 OA
ATOM     21  H   UNL d   1      29.617 -15.221   2.899  0.00  0.00     0.164 HD
ATOM     22  H   UNL d   1      28.422 -16.511   1.384  0.00  0.00     0.192 HD
BRANCH  19  23
ATOM     23  C   UNL d   1      29.210 -13.253   3.650  0.00  0.00     0.124 C 
BRANCH  23  24
ATOM     24  C   UNL d   1      28.784 -13.381   5.121  0.00  0.00     0.015 C 
ATOM     25  C   UNL d   1      28.469 -14.828   5.505  0.00  0.00     0.006 C 
ENDBRANCH  23  24
ENDBRANCH  19  23
ENDBRANCH   1  17
TORSDOF 8
ENDMDL
