MODEL 1
REMARK VINA RESULT:    -7.964      0.000      0.000
REMARK INTER + INTRA:         -11.284
REMARK INTER:                  -9.754
REMARK INTRA:                  -1.530
REMARK CONF_INDEPENDENT:        1.790
REMARK UNBOUND:                -1.530
REMARK  6 active torsions:
REMARK  status: ('A' for Active; 'I' for Inactive)
REMARK    1  A    between atoms: C_2  and  C_3 
REMARK       I    between atoms: C_2  and  N_15 
REMARK    2  A    between atoms: C_3  and  C_4 
REMARK    3  A    between atoms: C_4  and  C_5 
REMARK       I    between atoms: C_5  and  N_7 
REMARK    4  A    between atoms: N_7  and  C_8 
REMARK    5  A    between atoms: N_15  and  N_16 
REMARK       I    between atoms: N_16  and  C_17 
REMARK    6  A    between atoms: C_17  and  C_19 
ROOT
ATOM      1  O   UNL d   1      26.570 -16.105  -0.536  0.00  0.00    -0.272 OA
ATOM      2  C   UNL d   1      25.562 -16.798  -0.703  0.00  0.00     0.236 C 
ATOM      3  N   UNL d   1      25.253 -17.801   0.193  0.00  0.00    -0.268 N 
ATOM      4  H   UNL d   1      25.887 -17.942   0.983  0.00  0.00     0.190 HD
ENDROOT
BRANCH   2   5
ATOM      5  C   UNL d   1      24.638 -16.577  -1.881  0.00  0.00     0.114 C 
BRANCH   5   6
ATOM      6  C   UNL d   1      24.706 -15.150  -2.475  0.00  0.00     0.112 C 
BRANCH   6   7
ATOM      7  C   UNL d   1      25.640 -15.145  -3.677  0.00  0.00     0.222 C 
ATOM      8  O   UNL d   1      25.182 -15.312  -4.810  0.00  0.00    -0.273 OA
ATOM      9  N   UNL d   1      27.002 -15.006  -3.412  0.00  0.00    -0.326 N 
ATOM     10  H   UNL d   1      27.346 -15.277  -2.498  0.00  0.00     0.169 HD
BRANCH   9  11
ATOM     11  C   UNL d   1      27.936 -14.939  -4.491  0.00  0.00     0.056 A 
ATOM     12  C   UNL d   1      28.894 -15.956  -4.656  0.00  0.00     0.031 A 
ATOM     13  C   UNL d   1      29.734 -15.965  -5.785  0.00  0.00     0.002 A 
ATOM     14  C   UNL d   1      29.651 -14.950  -6.737  0.00  0.00     0.002 A 
ATOM     15  C   UNL d   1      28.753 -13.904  -6.549  0.00  0.00     0.026 A 
ATOM     16  C   UNL d   1      27.918 -13.884  -5.427  0.00  0.00     0.060 A 
ATOM     17 CL   UNL d   1      27.012 -12.424  -5.176  0.00  0.00    -0.082 Cl
ENDBRANCH   9  11
ENDBRANCH   6   7
ENDBRANCH   5   6
ENDBRANCH   2   5
BRANCH   3  18
ATOM     18  N   UNL d   1      24.162 -18.698   0.112  0.00  0.00    -0.267 N 
ATOM     19  C   UNL d   1      22.875 -18.169   0.088  0.00  0.00     0.240 C 
ATOM     20  O   UNL d   1      22.665 -16.957   0.209  0.00  0.00    -0.271 OA
ATOM     21  H   UNL d   1      24.344 -19.684  -0.042  0.00  0.00     0.190 HD
BRANCH  19  22
ATOM     22  C   UNL d   1      21.732 -19.192  -0.049  0.00  0.00     0.079 C 
ATOM     23  C   UNL d   1      20.971 -19.329   1.282  0.00  0.00     0.014 C 
ATOM     24  C   UNL d   1      19.744 -20.242   1.171  0.00  0.00     0.001 C 
ATOM     25  C   UNL d   1      18.800 -19.794   0.060  0.00  0.00     0.000 C 
ATOM     26  C   UNL d   1      19.544 -19.698  -1.267  0.00  0.00     0.001 C 
ATOM     27  C   UNL d   1      20.755 -18.769  -1.163  0.00  0.00     0.014 C 
ENDBRANCH  19  22
ENDBRANCH   3  18
TORSDOF 6
ENDMDL
MODEL 2
REMARK VINA RESULT:    -7.867      3.527      4.407
REMARK INTER + INTRA:         -11.277
REMARK INTER:                  -9.657
REMARK INTRA:                  -1.621
REMARK CONF_INDEPENDENT:        1.790
REMARK UNBOUND:                -1.621
REMARK  6 active torsions:
REMARK  status: ('A' for Active; 'I' for Inactive)
REMARK    1  A    between atoms: C_2  and  C_3 
REMARK       I    between atoms: C_2  and  N_15 
REMARK    2  A    between atoms: C_3  and  C_4 
REMARK    3  A    between atoms: C_4  and  C_5 
REMARK       I    between atoms: C_5  and  N_7 
REMARK    4  A    between atoms: N_7  and  C_8 
REMARK    5  A    between atoms: N_15  and  N_16 
REMARK       I    between atoms: N_16  and  C_17 
REMARK    6  A    between atoms: C_17  and  C_19 
ROOT
ATOM      1  O   UNL d   1      24.449 -16.078  -1.659  0.00  0.00    -0.272 OA
ATOM      2  C   UNL d   1      23.912 -16.904  -0.915  0.00  0.00     0.236 C 
ATOM      3  N   UNL d   1      22.543 -17.072  -0.940  0.00  0.00    -0.268 N 
ATOM      4  H   UNL d   1      22.006 -16.490  -1.587  0.00  0.00     0.190 HD
ENDROOT
BRANCH   2   5
ATOM      5  C   UNL d   1      24.723 -17.752   0.040  0.00  0.00     0.114 C 
BRANCH   5   6
ATOM      6  C   UNL d   1      26.209 -17.907  -0.362  0.00  0.00     0.112 C 
BRANCH   6   7
ATOM      7  C   UNL d   1      26.996 -16.703   0.134  0.00  0.00     0.222 C 
ATOM      8  O   UNL d   1      28.156 -16.847   0.528  0.00  0.00    -0.273 OA
ATOM      9  N   UNL d   1      26.321 -15.483   0.169  0.00  0.00    -0.326 N 
ATOM     10  H   UNL d   1      25.309 -15.492   0.230  0.00  0.00     0.169 HD
BRANCH   9  11
ATOM     11  C   UNL d   1      27.009 -14.297   0.572  0.00  0.00     0.056 A 
ATOM     12  C   UNL d   1      27.405 -14.135   1.912  0.00  0.00     0.031 A 
ATOM     13  C   UNL d   1      28.192 -13.032   2.293  0.00  0.00     0.002 A 
ATOM     14  C   UNL d   1      28.561 -12.069   1.354  0.00  0.00     0.002 A 
ATOM     15  C   UNL d   1      28.117 -12.185   0.041  0.00  0.00     0.026 A 
ATOM     16  C   UNL d   1      27.331 -13.274  -0.345  0.00  0.00     0.060 A 
ATOM     17 CL   UNL d   1      26.644 -13.195  -1.938  0.00  0.00    -0.082 Cl
ENDBRANCH   9  11
ENDBRANCH   6   7
ENDBRANCH   5   6
ENDBRANCH   2   5
BRANCH   3  18
ATOM     18  N   UNL d   1      21.784 -17.943  -0.121  0.00  0.00    -0.267 N 
ATOM     19  C   UNL d   1      21.251 -19.091  -0.700  0.00  0.00     0.240 C 
ATOM     20  O   UNL d   1      21.361 -19.325  -1.908  0.00  0.00    -0.271 OA
ATOM     21  H   UNL d   1      21.745 -17.772   0.878  0.00  0.00     0.190 HD
BRANCH  19  22
ATOM     22  C   UNL d   1      20.477 -20.023   0.251  0.00  0.00     0.079 C 
ATOM     23  C   UNL d   1      20.446 -19.434   1.673  0.00  0.00     0.014 C 
ATOM     24  C   UNL d   1      19.582 -20.258   2.635  0.00  0.00     0.001 C 
ATOM     25  C   UNL d   1      18.165 -20.450   2.105  0.00  0.00     0.000 C 
ATOM     26  C   UNL d   1      18.194 -21.071   0.714  0.00  0.00     0.001 C 
ATOM     27  C   UNL d   1      19.037 -20.237  -0.254  0.00  0.00     0.014 C 
ENDBRANCH  19  22
ENDBRANCH   3  18
TORSDOF 6
ENDMDL
MODEL 3
REMARK VINA RESULT:    -7.140      3.638      5.540
REMARK INTER + INTRA:         -11.501
REMARK INTER:                  -8.930
REMARK INTRA:                  -2.572
REMARK CONF_INDEPENDENT:        1.790
REMARK UNBOUND:                -2.572
REMARK  6 active torsions:
REMARK  status: ('A' for Active; 'I' for Inactive)
REMARK    1  A    between atoms: C_2  and  C_3 
REMARK       I    between atoms: C_2  and  N_15 
REMARK    2  A    between atoms: C_3  and  C_4 
REMARK    3  A    between atoms: C_4  and  C_5 
REMARK       I    between atoms: C_5  and  N_7 
REMARK    4  A    between atoms: N_7  and  C_8 
REMARK    5  A    between atoms: N_15  and  N_16 
REMARK       I    between atoms: N_16  and  C_17 
REMARK    6  A    between atoms: C_17  and  C_19 
ROOT
ATOM      1  O   UNL d   1      26.221 -11.028  -5.953  0.00  0.00    -0.272 OA
ATOM      2  C   UNL d   1      26.633 -12.042  -5.381  0.00  0.00     0.236 C 
ATOM      3  N   UNL d   1      25.762 -12.837  -4.667  0.00  0.00    -0.268 N 
ATOM      4  H   UNL d   1      24.781 -12.552  -4.630  0.00  0.00     0.190 HD
ENDROOT
BRANCH   2   5
ATOM      5  C   UNL d   1      28.090 -12.446  -5.442  0.00  0.00     0.114 C 
BRANCH   5   6
ATOM      6  C   UNL d   1      28.449 -13.324  -6.665  0.00  0.00     0.112 C 
BRANCH   6   7
ATOM      7  C   UNL d   1      28.611 -14.770  -6.220  0.00  0.00     0.222 C 
ATOM      8  O   UNL d   1      27.631 -15.401  -5.815  0.00  0.00    -0.273 OA
ATOM      9  N   UNL d   1      29.904 -15.292  -6.243  0.00  0.00    -0.326 N 
ATOM     10  H   UNL d   1      30.686 -14.649  -6.186  0.00  0.00     0.169 HD
BRANCH   9  11
ATOM     11  C   UNL d   1      30.129 -16.659  -5.890  0.00  0.00     0.056 A 
ATOM     12  C   UNL d   1      30.406 -17.607  -6.893  0.00  0.00     0.031 A 
ATOM     13  C   UNL d   1      30.753 -18.926  -6.546  0.00  0.00     0.002 A 
ATOM     14  C   UNL d   1      30.796 -19.319  -5.209  0.00  0.00     0.002 A 
ATOM     15  C   UNL d   1      30.458 -18.407  -4.215  0.00  0.00     0.026 A 
ATOM     16  C   UNL d   1      30.106 -17.096  -4.549  0.00  0.00     0.060 A 
ATOM     17 CL   UNL d   1      29.482 -16.119  -3.256  0.00  0.00    -0.082 Cl
ENDBRANCH   9  11
ENDBRANCH   6   7
ENDBRANCH   5   6
ENDBRANCH   2   5
BRANCH   3  18
ATOM     18  N   UNL d   1      26.092 -13.999  -3.929  0.00  0.00    -0.267 N 
ATOM     19  C   UNL d   1      25.072 -14.657  -3.247  0.00  0.00     0.240 C 
ATOM     20  O   UNL d   1      23.919 -14.215  -3.212  0.00  0.00    -0.271 OA
ATOM     21  H   UNL d   1      27.027 -14.385  -4.008  0.00  0.00     0.190 HD
BRANCH  19  22
ATOM     22  C   UNL d   1      25.484 -15.941  -2.502  0.00  0.00     0.079 C 
ATOM     23  C   UNL d   1      26.707 -15.673  -1.607  0.00  0.00     0.014 C 
ATOM     24  C   UNL d   1      27.085 -16.884  -0.746  0.00  0.00     0.001 C 
ATOM     25  C   UNL d   1      25.909 -17.379   0.090  0.00  0.00     0.000 C 
ATOM     26  C   UNL d   1      24.711 -17.683  -0.801  0.00  0.00     0.001 C 
ATOM     27  C   UNL d   1      24.318 -16.468  -1.644  0.00  0.00     0.014 C 
ENDBRANCH  19  22
ENDBRANCH   3  18
TORSDOF 6
ENDMDL
MODEL 4
REMARK VINA RESULT:    -6.783      2.464      3.579
REMARK INTER + INTRA:         -10.821
REMARK INTER:                  -8.572
REMARK INTRA:                  -2.249
REMARK CONF_INDEPENDENT:        1.790
REMARK UNBOUND:                -2.249
REMARK  6 active torsions:
REMARK  status: ('A' for Active; 'I' for Inactive)
REMARK    1  A    between atoms: C_2  and  C_3 
REMARK       I    between atoms: C_2  and  N_15 
REMARK    2  A    between atoms: C_3  and  C_4 
REMARK    3  A    between atoms: C_4  and  C_5 
REMARK       I    between atoms: C_5  and  N_7 
REMARK    4  A    between atoms: N_7  and  C_8 
REMARK    5  A    between atoms: N_15  and  N_16 
REMARK       I    between atoms: N_16  and  C_17 
REMARK    6  A    between atoms: C_17  and  C_19 
ROOT
ATOM      1  O   UNL d   1      28.442 -12.541  -2.840  0.00  0.00    -0.272 OA
ATOM      2  C   UNL d   1      27.392 -13.104  -2.515  0.00  0.00     0.236 C 
ATOM      3  N   UNL d   1      27.320 -13.803  -1.328  0.00  0.00    -0.268 N 
ATOM      4  H   UNL d   1      28.159 -13.836  -0.745  0.00  0.00     0.190 HD
ENDROOT
BRANCH   2   5
ATOM      5  C   UNL d   1      26.161 -13.048  -3.393  0.00  0.00     0.114 C 
BRANCH   5   6
ATOM      6  C   UNL d   1      25.635 -14.438  -3.827  0.00  0.00     0.112 C 
BRANCH   6   7
ATOM      7  C   UNL d   1      26.684 -15.132  -4.683  0.00  0.00     0.222 C 
ATOM      8  O   UNL d   1      26.376 -15.575  -5.792  0.00  0.00    -0.273 OA
ATOM      9  N   UNL d   1      27.952 -15.281  -4.122  0.00  0.00    -0.326 N 
ATOM     10  H   UNL d   1      28.037 -15.277  -3.112  0.00  0.00     0.169 HD
BRANCH   9  11
ATOM     11  C   UNL d   1      29.005 -15.874  -4.885  0.00  0.00     0.056 A 
ATOM     12  C   UNL d   1      29.655 -17.027  -4.407  0.00  0.00     0.031 A 
ATOM     13  C   UNL d   1      30.604 -17.691  -5.207  0.00  0.00     0.002 A 
ATOM     14  C   UNL d   1      30.935 -17.197  -6.469  0.00  0.00     0.002 A 
ATOM     15  C   UNL d   1      30.348 -16.021  -6.921  0.00  0.00     0.026 A 
ATOM     16  C   UNL d   1      29.408 -15.351  -6.131  0.00  0.00     0.060 A 
ATOM     17 CL   UNL d   1      28.919 -13.782  -6.691  0.00  0.00    -0.082 Cl
ENDBRANCH   9  11
ENDBRANCH   6   7
ENDBRANCH   5   6
ENDBRANCH   2   5
BRANCH   3  18
ATOM     18  N   UNL d   1      26.206 -14.530  -0.843  0.00  0.00    -0.267 N 
ATOM     19  C   UNL d   1      26.167 -15.903  -1.071  0.00  0.00     0.240 C 
ATOM     20  O   UNL d   1      27.032 -16.479  -1.740  0.00  0.00    -0.271 OA
ATOM     21  H   UNL d   1      25.530 -14.061  -0.250  0.00  0.00     0.190 HD
BRANCH  19  22
ATOM     22  C   UNL d   1      24.955 -16.646  -0.480  0.00  0.00     0.079 C 
ATOM     23  C   UNL d   1      23.659 -16.205  -1.183  0.00  0.00     0.014 C 
ATOM     24  C   UNL d   1      22.434 -17.003  -0.720  0.00  0.00     0.001 C 
ATOM     25  C   UNL d   1      22.642 -18.506  -0.876  0.00  0.00     0.000 C 
ATOM     26  C   UNL d   1      23.903 -18.950  -0.145  0.00  0.00     0.001 C 
ATOM     27  C   UNL d   1      25.130 -18.170  -0.622  0.00  0.00     0.014 C 
ENDBRANCH  19  22
ENDBRANCH   3  18
TORSDOF 6
ENDMDL
MODEL 5
REMARK VINA RESULT:    -6.651      2.361      3.609
REMARK INTER + INTRA:         -10.798
REMARK INTER:                  -8.441
REMARK INTRA:                  -2.357
REMARK CONF_INDEPENDENT:        1.790
REMARK UNBOUND:                -2.357
REMARK  6 active torsions:
REMARK  status: ('A' for Active; 'I' for Inactive)
REMARK    1  A    between atoms: C_2  and  C_3 
REMARK       I    between atoms: C_2  and  N_15 
REMARK    2  A    between atoms: C_3  and  C_4 
REMARK    3  A    between atoms: C_4  and  C_5 
REMARK       I    between atoms: C_5  and  N_7 
REMARK    4  A    between atoms: N_7  and  C_8 
REMARK    5  A    between atoms: N_15  and  N_16 
REMARK       I    between atoms: N_16  and  C_17 
REMARK    6  A    between atoms: C_17  and  C_19 
ROOT
ATOM      1  O   UNL d   1      27.402 -11.956  -2.462  0.00  0.00    -0.272 OA
ATOM      2  C   UNL d   1      26.485 -12.755  -2.673  0.00  0.00     0.236 C 
ATOM      3  N   UNL d   1      26.246 -13.786  -1.787  0.00  0.00    -0.268 N 
ATOM      4  H   UNL d   1      26.854 -13.856  -0.968  0.00  0.00     0.190 HD
ENDROOT
BRANCH   2   5
ATOM      5  C   UNL d   1      25.600 -12.637  -3.894  0.00  0.00     0.114 C 
BRANCH   5   6
ATOM      6  C   UNL d   1      26.332 -12.906  -5.231  0.00  0.00     0.112 C 
BRANCH   6   7
ATOM      7  C   UNL d   1      27.104 -14.213  -5.132  0.00  0.00     0.222 C 
ATOM      8  O   UNL d   1      26.671 -15.226  -5.689  0.00  0.00    -0.273 OA
ATOM      9  N   UNL d   1      28.258 -14.202  -4.349  0.00  0.00    -0.326 N 
ATOM     10  H   UNL d   1      28.339 -13.504  -3.618  0.00  0.00     0.169 HD
BRANCH   9  11
ATOM     11  C   UNL d   1      29.066 -15.377  -4.250  0.00  0.00     0.056 A 
ATOM     12  C   UNL d   1      29.232 -16.014  -3.007  0.00  0.00     0.031 A 
ATOM     13  C   UNL d   1      29.920 -17.238  -2.922  0.00  0.00     0.002 A 
ATOM     14  C   UNL d   1      30.473 -17.820  -4.062  0.00  0.00     0.002 A 
ATOM     15  C   UNL d   1      30.372 -17.165  -5.285  0.00  0.00     0.026 A 
ATOM     16  C   UNL d   1      29.695 -15.945  -5.378  0.00  0.00     0.060 A 
ATOM     17 CL   UNL d   1      29.833 -15.108  -6.893  0.00  0.00    -0.082 Cl
ENDBRANCH   9  11
ENDBRANCH   6   7
ENDBRANCH   5   6
ENDBRANCH   2   5
BRANCH   3  18
ATOM     18  N   UNL d   1      25.266 -14.798  -1.916  0.00  0.00    -0.267 N 
ATOM     19  C   UNL d   1      25.436 -15.974  -1.190  0.00  0.00     0.240 C 
ATOM     20  O   UNL d   1      26.445 -16.180  -0.507  0.00  0.00    -0.271 OA
ATOM     21  H   UNL d   1      24.417 -14.601  -2.434  0.00  0.00     0.190 HD
BRANCH  19  22
ATOM     22  C   UNL d   1      24.314 -17.019  -1.334  0.00  0.00     0.079 C 
ATOM     23  C   UNL d   1      24.644 -18.279  -0.513  0.00  0.00     0.014 C 
ATOM     24  C   UNL d   1      23.503 -19.303  -0.519  0.00  0.00     0.001 C 
ATOM     25  C   UNL d   1      22.186 -18.691  -0.053  0.00  0.00     0.000 C 
ATOM     26  C   UNL d   1      21.838 -17.469  -0.892  0.00  0.00     0.001 C 
ATOM     27  C   UNL d   1      22.966 -16.435  -0.868  0.00  0.00     0.014 C 
ENDBRANCH  19  22
ENDBRANCH   3  18
TORSDOF 6
ENDMDL
MODEL 6
REMARK VINA RESULT:    -5.923      3.576      7.233
REMARK INTER + INTRA:         -10.752
REMARK INTER:                  -7.712
REMARK INTRA:                  -3.040
REMARK CONF_INDEPENDENT:        1.790
REMARK UNBOUND:                -3.040
REMARK  6 active torsions:
REMARK  status: ('A' for Active; 'I' for Inactive)
REMARK    1  A    between atoms: C_2  and  C_3 
REMARK       I    between atoms: C_2  and  N_15 
REMARK    2  A    between atoms: C_3  and  C_4 
REMARK    3  A    between atoms: C_4  and  C_5 
REMARK       I    between atoms: C_5  and  N_7 
REMARK    4  A    between atoms: N_7  and  C_8 
REMARK    5  A    between atoms: N_15  and  N_16 
REMARK       I    between atoms: N_16  and  C_17 
REMARK    6  A    between atoms: C_17  and  C_19 
ROOT
ATOM      1  O   UNL d   1      27.396 -15.219  -5.748  0.00  0.00    -0.272 OA
ATOM      2  C   UNL d   1      27.238 -14.595  -4.695  0.00  0.00     0.236 C 
ATOM      3  N   UNL d   1      28.083 -14.811  -3.627  0.00  0.00    -0.268 N 
ATOM      4  H   UNL d   1      28.829 -15.501  -3.745  0.00  0.00     0.190 HD
ENDROOT
BRANCH   2   5
ATOM      5  C   UNL d   1      26.126 -13.581  -4.537  0.00  0.00     0.114 C 
BRANCH   5   6
ATOM      6  C   UNL d   1      24.859 -14.138  -3.843  0.00  0.00     0.112 C 
BRANCH   6   7
ATOM      7  C   UNL d   1      25.259 -14.858  -2.563  0.00  0.00     0.222 C 
ATOM      8  O   UNL d   1      25.531 -14.207  -1.552  0.00  0.00    -0.273 OA
ATOM      9  N   UNL d   1      25.351 -16.248  -2.628  0.00  0.00    -0.326 N 
ATOM     10  H   UNL d   1      25.517 -16.680  -3.531  0.00  0.00     0.169 HD
BRANCH   9  11
ATOM     11  C   UNL d   1      25.668 -16.999  -1.454  0.00  0.00     0.056 A 
ATOM     12  C   UNL d   1      27.009 -17.152  -1.059  0.00  0.00     0.031 A 
ATOM     13  C   UNL d   1      27.323 -17.780   0.161  0.00  0.00     0.002 A 
ATOM     14  C   UNL d   1      26.312 -18.287   0.977  0.00  0.00     0.002 A 
ATOM     15  C   UNL d   1      24.988 -18.201   0.562  0.00  0.00     0.026 A 
ATOM     16  C   UNL d   1      24.667 -17.583  -0.651  0.00  0.00     0.060 A 
ATOM     17 CL   UNL d   1      23.018 -17.740  -1.175  0.00  0.00    -0.082 Cl
ENDBRANCH   9  11
ENDBRANCH   6   7
ENDBRANCH   5   6
ENDBRANCH   2   5
BRANCH   3  18
ATOM     18  N   UNL d   1      28.002 -14.206  -2.350  0.00  0.00    -0.267 N 
ATOM     19  C   UNL d   1      28.842 -14.677  -1.344  0.00  0.00     0.240 C 
ATOM     20  O   UNL d   1      29.591 -15.644  -1.518  0.00  0.00    -0.271 OA
ATOM     21  H   UNL d   1      27.426 -13.380  -2.231  0.00  0.00     0.190 HD
BRANCH  19  22
ATOM     22  C   UNL d   1      28.741 -13.948   0.008  0.00  0.00     0.079 C 
ATOM     23  C   UNL d   1      27.362 -14.191   0.648  0.00  0.00     0.014 C 
ATOM     24  C   UNL d   1      27.249 -13.591   2.055  0.00  0.00     0.001 C 
ATOM     25  C   UNL d   1      28.360 -14.086   2.975  0.00  0.00     0.000 C 
ATOM     26  C   UNL d   1      29.726 -13.809   2.361  0.00  0.00     0.001 C 
ATOM     27  C   UNL d   1      29.849 -14.426   0.967  0.00  0.00     0.014 C 
ENDBRANCH  19  22
ENDBRANCH   3  18
TORSDOF 6
ENDMDL
MODEL 7
REMARK VINA RESULT:    -5.800      3.132      4.731
REMARK INTER + INTRA:         -10.722
REMARK INTER:                  -7.589
REMARK INTRA:                  -3.132
REMARK CONF_INDEPENDENT:        1.790
REMARK UNBOUND:                -3.132
REMARK  6 active torsions:
REMARK  status: ('A' for Active; 'I' for Inactive)
REMARK    1  A    between atoms: C_2  and  C_3 
REMARK       I    between atoms: C_2  and  N_15 
REMARK    2  A    between atoms: C_3  and  C_4 
REMARK    3  A    between atoms: C_4  and  C_5 
REMARK       I    between atoms: C_5  and  N_7 
REMARK    4  A    between atoms: N_7  and  C_8 
REMARK    5  A    between atoms: N_15  and  N_16 
REMARK       I    between atoms: N_16  and  C_17 
REMARK    6  A    between atoms: C_17  and  C_19 
ROOT
ATOM      1  O   UNL d   1      32.110 -16.422   0.370  0.00  0.00    -0.272 OA
ATOM      2  C   UNL d   1      31.136 -16.769  -0.304  0.00  0.00     0.236 C 
ATOM      3  N   UNL d   1      29.865 -16.703   0.229  0.00  0.00    -0.268 N 
ATOM      4  H   UNL d   1      29.771 -16.364   1.189  0.00  0.00     0.190 HD
ENDROOT
BRANCH   2   5
ATOM      5  C   UNL d   1      31.295 -17.273  -1.721  0.00  0.00     0.114 C 
BRANCH   5   6
ATOM      6  C   UNL d   1      31.128 -16.177  -2.802  0.00  0.00     0.112 C 
BRANCH   6   7
ATOM      7  C   UNL d   1      29.649 -15.984  -3.102  0.00  0.00     0.222 C 
ATOM      8  O   UNL d   1      28.906 -16.966  -3.185  0.00  0.00    -0.273 OA
ATOM      9  N   UNL d   1      29.220 -14.677  -3.329  0.00  0.00    -0.326 N 
ATOM     10  H   UNL d   1      29.899 -13.994  -3.646  0.00  0.00     0.169 HD
BRANCH   9  11
ATOM     11  C   UNL d   1      27.836 -14.409  -3.564  0.00  0.00     0.056 A 
ATOM     12  C   UNL d   1      27.190 -14.976  -4.678  0.00  0.00     0.031 A 
ATOM     13  C   UNL d   1      25.801 -14.822  -4.848  0.00  0.00     0.002 A 
ATOM     14  C   UNL d   1      25.054 -14.080  -3.934  0.00  0.00     0.002 A 
ATOM     15  C   UNL d   1      25.695 -13.459  -2.868  0.00  0.00     0.026 A 
ATOM     16  C   UNL d   1      27.075 -13.601  -2.693  0.00  0.00     0.060 A 
ATOM     17 CL   UNL d   1      27.799 -12.599  -1.474  0.00  0.00    -0.082 Cl
ENDBRANCH   9  11
ENDBRANCH   6   7
ENDBRANCH   5   6
ENDBRANCH   2   5
BRANCH   3  18
ATOM     18  N   UNL d   1      28.663 -17.103  -0.402  0.00  0.00    -0.267 N 
ATOM     19  C   UNL d   1      27.458 -16.792   0.221  0.00  0.00     0.240 C 
ATOM     20  O   UNL d   1      27.417 -16.250   1.330  0.00  0.00    -0.271 OA
ATOM     21  H   UNL d   1      28.704 -17.498  -1.336  0.00  0.00     0.190 HD
BRANCH  19  22
ATOM     22  C   UNL d   1      26.184 -17.211  -0.537  0.00  0.00     0.079 C 
ATOM     23  C   UNL d   1      25.359 -18.201   0.305  0.00  0.00     0.014 C 
ATOM     24  C   UNL d   1      24.018 -18.557  -0.347  0.00  0.00     0.001 C 
ATOM     25  C   UNL d   1      23.194 -17.314  -0.670  0.00  0.00     0.000 C 
ATOM     26  C   UNL d   1      23.996 -16.352  -1.538  0.00  0.00     0.001 C 
ATOM     27  C   UNL d   1      25.326 -15.978  -0.878  0.00  0.00     0.014 C 
ENDBRANCH  19  22
ENDBRANCH   3  18
TORSDOF 6
ENDMDL
MODEL 8
REMARK VINA RESULT:    -5.788      3.230      4.726
REMARK INTER + INTRA:         -10.907
REMARK INTER:                  -7.577
REMARK INTRA:                  -3.330
REMARK CONF_INDEPENDENT:        1.790
REMARK UNBOUND:                -3.330
REMARK  6 active torsions:
REMARK  status: ('A' for Active; 'I' for Inactive)
REMARK    1  A    between atoms: C_2  and  C_3 
REMARK       I    between atoms: C_2  and  N_15 
REMARK    2  A    between atoms: C_3  and  C_4 
REMARK    3  A    between atoms: C_4  and  C_5 
REMARK       I    between atoms: C_5  and  N_7 
REMARK    4  A    between atoms: N_7  and  C_8 
REMARK    5  A    between atoms: N_15  and  N_16 
REMARK       I    between atoms: N_16  and  C_17 
REMARK    6  A    between atoms: C_17  and  C_19 
ROOT
ATOM      1  O   UNL d   1      29.840 -13.544   2.503  0.00  0.00    -0.272 OA
ATOM      2  C   UNL d   1      28.769 -13.977   2.068  0.00  0.00     0.236 C 
ATOM      3  N   UNL d   1      28.716 -15.217   1.466  0.00  0.00    -0.268 N 
ATOM      4  H   UNL d   1      29.588 -15.747   1.395  0.00  0.00     0.190 HD
ENDROOT
BRANCH   2   5
ATOM      5  C   UNL d   1      27.490 -13.177   2.178  0.00  0.00     0.114 C 
BRANCH   5   6
ATOM      6  C   UNL d   1      27.198 -12.285   0.947  0.00  0.00     0.112 C 
BRANCH   6   7
ATOM      7  C   UNL d   1      26.706 -13.154  -0.202  0.00  0.00     0.222 C 
ATOM      8  O   UNL d   1      25.906 -14.067   0.018  0.00  0.00    -0.273 OA
ATOM      9  N   UNL d   1      27.248 -12.895  -1.460  0.00  0.00    -0.326 N 
ATOM     10  H   UNL d   1      28.155 -12.444  -1.512  0.00  0.00     0.169 HD
BRANCH   9  11
ATOM     11  C   UNL d   1      26.797 -13.632  -2.598  0.00  0.00     0.056 A 
ATOM     12  C   UNL d   1      25.487 -13.451  -3.078  0.00  0.00     0.031 A 
ATOM     13  C   UNL d   1      25.074 -14.075  -4.270  0.00  0.00     0.002 A 
ATOM     14  C   UNL d   1      25.946 -14.906  -4.973  0.00  0.00     0.002 A 
ATOM     15  C   UNL d   1      27.221 -15.145  -4.470  0.00  0.00     0.026 A 
ATOM     16  C   UNL d   1      27.638 -14.533  -3.284  0.00  0.00     0.060 A 
ATOM     17 CL   UNL d   1      29.151 -15.083  -2.632  0.00  0.00    -0.082 Cl
ENDBRANCH   9  11
ENDBRANCH   6   7
ENDBRANCH   5   6
ENDBRANCH   2   5
BRANCH   3  18
ATOM     18  N   UNL d   1      27.578 -15.826   0.886  0.00  0.00    -0.267 N 
ATOM     19  C   UNL d   1      27.775 -16.899   0.021  0.00  0.00     0.240 C 
ATOM     20  O   UNL d   1      28.905 -17.278  -0.304  0.00  0.00    -0.271 OA
ATOM     21  H   UNL d   1      26.655 -15.545   1.199  0.00  0.00     0.190 HD
BRANCH  19  22
ATOM     22  C   UNL d   1      26.497 -17.549  -0.542  0.00  0.00     0.079 C 
ATOM     23  C   UNL d   1      25.574 -18.000   0.605  0.00  0.00     0.014 C 
ATOM     24  C   UNL d   1      24.230 -18.542   0.104  0.00  0.00     0.001 C 
ATOM     25  C   UNL d   1      23.513 -17.542  -0.797  0.00  0.00     0.000 C 
ATOM     26  C   UNL d   1      24.411 -17.127  -1.956  0.00  0.00     0.001 C 
ATOM     27  C   UNL d   1      25.744 -16.564  -1.457  0.00  0.00     0.014 C 
ENDBRANCH  19  22
ENDBRANCH   3  18
TORSDOF 6
ENDMDL
MODEL 9
REMARK VINA RESULT:    -5.716      3.019      5.593
REMARK INTER + INTRA:         -10.804
REMARK INTER:                  -7.506
REMARK INTRA:                  -3.298
REMARK CONF_INDEPENDENT:        1.790
REMARK UNBOUND:                -3.298
REMARK  6 active torsions:
REMARK  status: ('A' for Active; 'I' for Inactive)
REMARK    1  A    between atoms: C_2  and  C_3 
REMARK       I    between atoms: C_2  and  N_15 
REMARK    2  A    between atoms: C_3  and  C_4 
REMARK    3  A    between atoms: C_4  and  C_5 
REMARK       I    between atoms: C_5  and  N_7 
REMARK    4  A    between atoms: N_7  and  C_8 
REMARK    5  A    between atoms: N_15  and  N_16 
REMARK       I    between atoms: N_16  and  C_17 
REMARK    6  A    between atoms: C_17  and  C_19 
ROOT
ATOM      1  O   UNL d   1      28.534 -15.024  -6.491  0.00  0.00    -0.272 OA
ATOM      2  C   UNL d   1      28.322 -15.522  -5.382  0.00  0.00     0.236 C 
ATOM      3  N   UNL d   1      27.154 -15.236  -4.705  0.00  0.00    -0.268 N 
ATOM      4  H   UNL d   1      26.489 -14.603  -5.155  0.00  0.00     0.190 HD
ENDROOT
BRANCH   2   5
ATOM      5  C   UNL d   1      29.320 -16.454  -4.730  0.00  0.00     0.114 C 
BRANCH   5   6
ATOM      6  C   UNL d   1      30.201 -15.778  -3.651  0.00  0.00     0.112 C 
BRANCH   6   7
ATOM      7  C   UNL d   1      29.418 -15.672  -2.351  0.00  0.00     0.222 C 
ATOM      8  O   UNL d   1      29.113 -16.694  -1.733  0.00  0.00    -0.273 OA
ATOM      9  N   UNL d   1      29.031 -14.392  -1.955  0.00  0.00    -0.326 N 
ATOM     10  H   UNL d   1      28.946 -13.672  -2.664  0.00  0.00     0.169 HD
BRANCH   9  11
ATOM     11  C   UNL d   1      28.340 -14.205  -0.718  0.00  0.00     0.056 A 
ATOM     12  C   UNL d   1      28.652 -15.013   0.390  0.00  0.00     0.031 A 
ATOM     13  C   UNL d   1      28.068 -14.754   1.644  0.00  0.00     0.002 A 
ATOM     14  C   UNL d   1      27.151 -13.715   1.798  0.00  0.00     0.002 A 
ATOM     15  C   UNL d   1      26.786 -12.954   0.693  0.00  0.00     0.026 A 
ATOM     16  C   UNL d   1      27.356 -13.207  -0.558  0.00  0.00     0.060 A 
ATOM     17 CL   UNL d   1      26.658 -12.356  -1.902  0.00  0.00    -0.082 Cl
ENDBRANCH   9  11
ENDBRANCH   6   7
ENDBRANCH   5   6
ENDBRANCH   2   5
BRANCH   3  18
ATOM     18  N   UNL d   1      26.791 -15.696  -3.416  0.00  0.00    -0.267 N 
ATOM     19  C   UNL d   1      25.540 -15.341  -2.920  0.00  0.00     0.240 C 
ATOM     20  O   UNL d   1      24.782 -14.587  -3.538  0.00  0.00    -0.271 OA
ATOM     21  H   UNL d   1      27.394 -16.358  -2.940  0.00  0.00     0.190 HD
BRANCH  19  22
ATOM     22  C   UNL d   1      25.183 -15.910  -1.534  0.00  0.00     0.079 C 
ATOM     23  C   UNL d   1      23.724 -16.400  -1.513  0.00  0.00     0.014 C 
ATOM     24  C   UNL d   1      23.351 -17.090  -0.196  0.00  0.00     0.001 C 
ATOM     25  C   UNL d   1      24.305 -18.233   0.138  0.00  0.00     0.000 C 
ATOM     26  C   UNL d   1      25.745 -17.738   0.159  0.00  0.00     0.001 C 
ATOM     27  C   UNL d   1      26.127 -17.070  -1.164  0.00  0.00     0.014 C 
ENDBRANCH  19  22
ENDBRANCH   3  18
TORSDOF 6
ENDMDL
