MODEL 1
REMARK VINA RESULT:    -9.155      0.000      0.000
REMARK INTER + INTRA:         -15.908
REMARK INTER:                 -13.332
REMARK INTRA:                  -2.576
REMARK CONF_INDEPENDENT:        4.176
REMARK UNBOUND:                -2.576
REMARK  14 active torsions:
REMARK  status: ('A' for Active; 'I' for Inactive)
REMARK    1  A    between atoms: C_2  and  C_3 
REMARK    2  A    between atoms: C_3  and  C_4 
REMARK    3  A    between atoms: C_4  and  C_5 
REMARK    4  A    between atoms: C_5  and  C_6 
REMARK    5  A    between atoms: C_6  and  N_7 
REMARK       I    between atoms: N_7  and  C_8 
REMARK    6  A    between atoms: C_13  and  N_7 
REMARK    7  A    between atoms: C_8  and  C_10 
REMARK    8  A    between atoms: C_10  and  C_11 
REMARK    9  A    between atoms: C_13  and  C_28 
REMARK   10  A    between atoms: C_13  and  C_14 
REMARK       I    between atoms: C_14  and  N_16 
REMARK   11  A    between atoms: N_16  and  C_17 
REMARK   12  A    between atoms: C_17  and  S_18 
REMARK   13  A    between atoms: S_18  and  C_21 
REMARK   14  A    between atoms: C_31  and  N_32 
ROOT
ATOM      1  C   UNL d   1      25.266 -15.755  -0.946  0.00  0.00     0.212 C 
ENDROOT
BRANCH   1   2
ATOM      2  C   UNL d   1      24.077 -16.740  -0.816  0.00  0.00    -0.026 C 
ATOM      3  C   UNL d   1      24.282 -18.112  -0.597  0.00  0.00     0.012 C 
ATOM      4  C   UNL d   1      23.249 -19.046  -0.655  0.00  0.00     0.037 C 
ATOM      5  C   UNL d   1      21.944 -18.597  -0.804  0.00  0.00     0.102 C 
ATOM      6  C   UNL d   1      21.679 -17.233  -0.895  0.00  0.00     0.037 C 
ATOM      7  C   UNL d   1      22.736 -16.325  -0.903  0.00  0.00     0.012 C 
BRANCH   5   8
ATOM      8  N   UNL d   1      20.842 -19.553  -0.815  0.00  0.00    -0.116 N 
ATOM      9  O   UNL d   1      20.280 -19.773  -1.897  0.00  0.00    -0.532 OA
ATOM     10  O   UNL d   1      20.538 -20.090   0.259  0.00  0.00    -0.532 OA
ENDBRANCH   5   8
ENDBRANCH   1   2
BRANCH   1  11
ATOM     11  C   UNL d   1      25.961 -15.925  -2.397  0.00  0.00     0.246 C 
ATOM     12  O   UNL d   1      25.531 -16.682  -3.274  0.00  0.00    -0.271 OA
ATOM     13  N   UNL d   1      27.173 -15.320  -2.621  0.00  0.00    -0.345 N 
ATOM     14  H   UNL d   1      27.666 -14.831  -1.883  0.00  0.00     0.163 HD
BRANCH  13  15
ATOM     15  C   UNL d   1      27.871 -15.522  -3.911  0.00  0.00     0.268 C 
BRANCH  15  16
ATOM     16  S   UNL d   1      26.998 -14.905  -5.357  0.00  0.00     0.192 S 
ATOM     17  O   UNL d   1      27.934 -14.895  -6.461  0.00  0.00    -0.221 OA
ATOM     18  O   UNL d   1      25.755 -15.657  -5.462  0.00  0.00    -0.221 OA
BRANCH  16  19
ATOM     19  C   UNL d   1      26.586 -13.216  -4.988  0.00  0.00     0.060 A 
ATOM     20  C   UNL d   1      25.885 -12.932  -3.813  0.00  0.00     0.024 A 
ATOM     21  C   UNL d   1      25.538 -11.611  -3.517  0.00  0.00     0.008 A 
ATOM     22  C   UNL d   1      25.904 -10.565  -4.375  0.00  0.00    -0.062 A 
ATOM     23  C   UNL d   1      25.490  -9.152  -4.075  0.00  0.00     0.048 C 
ATOM     24  C   UNL d   1      26.656 -10.858  -5.522  0.00  0.00     0.008 A 
ATOM     25  C   UNL d   1      27.006 -12.178  -5.826  0.00  0.00     0.024 A 
ENDBRANCH  16  19
ENDBRANCH  15  16
ENDBRANCH  13  15
ENDBRANCH   1  11
BRANCH   1  26
ATOM     26  N   UNL d   1      26.295 -15.928   0.167  0.00  0.00    -0.335 N 
ATOM     27  C   UNL d   1      26.909 -14.806   0.776  0.00  0.00     0.220 C 
ATOM     28  O   UNL d   1      26.759 -13.653   0.367  0.00  0.00    -0.273 OA
BRANCH  26  29
ATOM     29  C   UNL d   1      26.747 -17.326   0.322  0.00  0.00     0.127 C 
BRANCH  29  30
ATOM     30  C   UNL d   1      27.908 -17.760  -0.497  0.00  0.00     0.020 C 
BRANCH  30  31
ATOM     31  C   UNL d   1      29.142 -16.932  -0.456  0.00  0.00     0.002 C 
BRANCH  31  32
ATOM     32  C   UNL d   1      30.239 -17.834  -1.020  0.00  0.00    -0.000 C 
BRANCH  32  33
ATOM     33  C   UNL d   1      30.461 -17.458  -2.460  0.00  0.00    -0.005 C 
ATOM     34  C   UNL d   1      30.779 -15.988  -2.586  0.00  0.00     0.005 C 
ENDBRANCH  32  33
ENDBRANCH  31  32
ENDBRANCH  30  31
ENDBRANCH  29  30
ENDBRANCH  26  29
BRANCH  27  35
ATOM     35  C   UNL d   1      27.847 -14.964   1.972  0.00  0.00     0.103 C 
BRANCH  35  36
ATOM     36  C   UNL d   1      27.765 -13.946   3.094  0.00  0.00     0.005 C 
ATOM     37  C   UNL d   1      28.140 -14.639   4.404  0.00  0.00     0.005 C 
ENDBRANCH  35  36
ENDBRANCH  27  35
ENDBRANCH   1  26
TORSDOF 14
ENDMDL
MODEL 2
REMARK VINA RESULT:    -8.982      4.174      8.116
REMARK INTER + INTRA:         -16.166
REMARK INTER:                 -13.158
REMARK INTRA:                  -3.007
REMARK CONF_INDEPENDENT:        4.176
REMARK UNBOUND:                -3.007
REMARK  14 active torsions:
REMARK  status: ('A' for Active; 'I' for Inactive)
REMARK    1  A    between atoms: C_2  and  C_3 
REMARK    2  A    between atoms: C_3  and  C_4 
REMARK    3  A    between atoms: C_4  and  C_5 
REMARK    4  A    between atoms: C_5  and  C_6 
REMARK    5  A    between atoms: C_6  and  N_7 
REMARK       I    between atoms: N_7  and  C_8 
REMARK    6  A    between atoms: C_13  and  N_7 
REMARK    7  A    between atoms: C_8  and  C_10 
REMARK    8  A    between atoms: C_10  and  C_11 
REMARK    9  A    between atoms: C_13  and  C_28 
REMARK   10  A    between atoms: C_13  and  C_14 
REMARK       I    between atoms: C_14  and  N_16 
REMARK   11  A    between atoms: N_16  and  C_17 
REMARK   12  A    between atoms: C_17  and  S_18 
REMARK   13  A    between atoms: S_18  and  C_21 
REMARK   14  A    between atoms: C_31  and  N_32 
ROOT
ATOM      1  C   UNL d   1      28.845 -13.279   2.159  0.00  0.00     0.212 C 
ENDROOT
BRANCH   1   2
ATOM      2  C   UNL d   1      28.183 -11.879   2.209  0.00  0.00    -0.026 C 
ATOM      3  C   UNL d   1      27.670 -11.353   3.406  0.00  0.00     0.012 C 
ATOM      4  C   UNL d   1      26.913 -10.183   3.451  0.00  0.00     0.037 C 
ATOM      5  C   UNL d   1      26.767  -9.432   2.293  0.00  0.00     0.102 C 
ATOM      6  C   UNL d   1      27.367  -9.848   1.108  0.00  0.00     0.037 C 
ATOM      7  C   UNL d   1      28.061 -11.057   1.075  0.00  0.00     0.012 C 
BRANCH   5   8
ATOM      8  N   UNL d   1      26.022  -8.178   2.329  0.00  0.00    -0.116 N 
ATOM      9  O   UNL d   1      25.156  -7.997   1.461  0.00  0.00    -0.532 OA
ATOM     10  O   UNL d   1      26.299  -7.372   3.228  0.00  0.00    -0.532 OA
ENDBRANCH   5   8
ENDBRANCH   1   2
BRANCH   1  11
ATOM     11  C   UNL d   1      27.804 -14.354   1.542  0.00  0.00     0.246 C 
ATOM     12  O   UNL d   1      26.582 -14.174   1.503  0.00  0.00    -0.271 OA
ATOM     13  N   UNL d   1      28.274 -15.593   1.182  0.00  0.00    -0.345 N 
ATOM     14  H   UNL d   1      29.234 -15.866   1.355  0.00  0.00     0.163 HD
BRANCH  13  15
ATOM     15  C   UNL d   1      27.333 -16.624   0.690  0.00  0.00     0.268 C 
BRANCH  15  16
ATOM     16  S   UNL d   1      26.474 -16.209  -0.835  0.00  0.00     0.192 S 
ATOM     17  O   UNL d   1      26.224 -14.783  -0.822  0.00  0.00    -0.221 OA
ATOM     18  O   UNL d   1      27.229 -16.806  -1.929  0.00  0.00    -0.221 OA
BRANCH  16  19
ATOM     19  C   UNL d   1      24.902 -17.032  -0.743  0.00  0.00     0.060 A 
ATOM     20  C   UNL d   1      23.738 -16.295  -0.979  0.00  0.00     0.024 A 
ATOM     21  C   UNL d   1      22.493 -16.924  -0.894  0.00  0.00     0.008 A 
ATOM     22  C   UNL d   1      22.399 -18.290  -0.594  0.00  0.00    -0.062 A 
ATOM     23  C   UNL d   1      21.056 -18.950  -0.460  0.00  0.00     0.048 C 
ATOM     24  C   UNL d   1      23.577 -19.029  -0.415  0.00  0.00     0.008 A 
ATOM     25  C   UNL d   1      24.828 -18.407  -0.498  0.00  0.00     0.024 A 
ENDBRANCH  16  19
ENDBRANCH  15  16
ENDBRANCH  13  15
ENDBRANCH   1  11
BRANCH   1  26
ATOM     26  N   UNL d   1      29.348 -13.739   3.523  0.00  0.00    -0.335 N 
ATOM     27  C   UNL d   1      28.450 -14.200   4.517  0.00  0.00     0.220 C 
ATOM     28  O   UNL d   1      27.226 -14.135   4.398  0.00  0.00    -0.273 OA
BRANCH  26  29
ATOM     29  C   UNL d   1      30.766 -13.398   3.759  0.00  0.00     0.127 C 
BRANCH  29  30
ATOM     30  C   UNL d   1      31.091 -11.969   4.005  0.00  0.00     0.020 C 
BRANCH  30  31
ATOM     31  C   UNL d   1      31.297 -11.531   5.411  0.00  0.00     0.002 C 
BRANCH  31  32
ATOM     32  C   UNL d   1      30.373 -10.327   5.586  0.00  0.00    -0.000 C 
BRANCH  32  33
ATOM     33  C   UNL d   1      29.088 -10.810   6.204  0.00  0.00    -0.005 C 
ATOM     34  C   UNL d   1      29.077 -10.544   7.690  0.00  0.00     0.005 C 
ENDBRANCH  32  33
ENDBRANCH  31  32
ENDBRANCH  30  31
ENDBRANCH  29  30
ENDBRANCH  26  29
BRANCH  27  35
ATOM     35  C   UNL d   1      28.954 -14.777   5.839  0.00  0.00     0.103 C 
BRANCH  35  36
ATOM     36  C   UNL d   1      28.878 -13.910   7.081  0.00  0.00     0.005 C 
ATOM     37  C   UNL d   1      30.196 -14.041   7.844  0.00  0.00     0.005 C 
ENDBRANCH  35  36
ENDBRANCH  27  35
ENDBRANCH   1  26
TORSDOF 14
ENDMDL
MODEL 3
REMARK VINA RESULT:    -8.911      3.969      7.463
REMARK INTER + INTRA:         -16.039
REMARK INTER:                 -13.087
REMARK INTRA:                  -2.952
REMARK CONF_INDEPENDENT:        4.176
REMARK UNBOUND:                -2.952
REMARK  14 active torsions:
REMARK  status: ('A' for Active; 'I' for Inactive)
REMARK    1  A    between atoms: C_2  and  C_3 
REMARK    2  A    between atoms: C_3  and  C_4 
REMARK    3  A    between atoms: C_4  and  C_5 
REMARK    4  A    between atoms: C_5  and  C_6 
REMARK    5  A    between atoms: C_6  and  N_7 
REMARK       I    between atoms: N_7  and  C_8 
REMARK    6  A    between atoms: C_13  and  N_7 
REMARK    7  A    between atoms: C_8  and  C_10 
REMARK    8  A    between atoms: C_10  and  C_11 
REMARK    9  A    between atoms: C_13  and  C_28 
REMARK   10  A    between atoms: C_13  and  C_14 
REMARK       I    between atoms: C_14  and  N_16 
REMARK   11  A    between atoms: N_16  and  C_17 
REMARK   12  A    between atoms: C_17  and  S_18 
REMARK   13  A    between atoms: S_18  and  C_21 
REMARK   14  A    between atoms: C_31  and  N_32 
ROOT
ATOM      1  C   UNL d   1      28.638 -13.202   2.044  0.00  0.00     0.212 C 
ENDROOT
BRANCH   1   2
ATOM      2  C   UNL d   1      27.931 -11.833   2.210  0.00  0.00    -0.026 C 
ATOM      3  C   UNL d   1      27.491 -11.095   1.099  0.00  0.00     0.012 C 
ATOM      4  C   UNL d   1      27.018  -9.788   1.203  0.00  0.00     0.037 C 
ATOM      5  C   UNL d   1      26.846  -9.234   2.464  0.00  0.00     0.102 C 
ATOM      6  C   UNL d   1      27.147  -9.976   3.602  0.00  0.00     0.037 C 
ATOM      7  C   UNL d   1      27.684 -11.255   3.468  0.00  0.00     0.012 C 
BRANCH   5   8
ATOM      8  N   UNL d   1      26.303  -7.887   2.598  0.00  0.00    -0.116 N 
ATOM      9  O   UNL d   1      26.657  -7.217   3.580  0.00  0.00    -0.532 OA
ATOM     10  O   UNL d   1      25.524  -7.491   1.720  0.00  0.00    -0.532 OA
ENDBRANCH   5   8
ENDBRANCH   1   2
BRANCH   1  11
ATOM     11  C   UNL d   1      27.589 -14.295   1.475  0.00  0.00     0.246 C 
ATOM     12  O   UNL d   1      26.380 -14.073   1.343  0.00  0.00    -0.271 OA
ATOM     13  N   UNL d   1      28.024 -15.580   1.269  0.00  0.00    -0.345 N 
ATOM     14  H   UNL d   1      28.960 -15.870   1.527  0.00  0.00     0.163 HD
BRANCH  13  15
ATOM     15  C   UNL d   1      27.068 -16.619   0.825  0.00  0.00     0.268 C 
BRANCH  15  16
ATOM     16  S   UNL d   1      26.343 -16.347  -0.798  0.00  0.00     0.192 S 
ATOM     17  O   UNL d   1      26.159 -14.920  -0.961  0.00  0.00    -0.221 OA
ATOM     18  O   UNL d   1      27.146 -17.093  -1.758  0.00  0.00    -0.221 OA
BRANCH  16  19
ATOM     19  C   UNL d   1      24.731 -17.093  -0.738  0.00  0.00     0.060 A 
ATOM     20  C   UNL d   1      24.625 -18.453  -0.433  0.00  0.00     0.024 A 
ATOM     21  C   UNL d   1      23.366 -19.058  -0.399  0.00  0.00     0.008 A 
ATOM     22  C   UNL d   1      22.206 -18.311  -0.647  0.00  0.00    -0.062 A 
ATOM     23  C   UNL d   1      20.859 -18.976  -0.653  0.00  0.00     0.048 C 
ATOM     24  C   UNL d   1      22.322 -16.936  -0.896  0.00  0.00     0.008 A 
ATOM     25  C   UNL d   1      23.580 -16.323  -0.933  0.00  0.00     0.024 A 
ENDBRANCH  16  19
ENDBRANCH  15  16
ENDBRANCH  13  15
ENDBRANCH   1  11
BRANCH   1  26
ATOM     26  N   UNL d   1      29.277 -13.694   3.339  0.00  0.00    -0.335 N 
ATOM     27  C   UNL d   1      28.482 -14.150   4.420  0.00  0.00     0.220 C 
ATOM     28  O   UNL d   1      27.254 -14.056   4.436  0.00  0.00    -0.273 OA
BRANCH  26  29
ATOM     29  C   UNL d   1      30.720 -13.388   3.422  0.00  0.00     0.127 C 
BRANCH  29  30
ATOM     30  C   UNL d   1      31.552 -13.702   2.232  0.00  0.00     0.020 C 
BRANCH  30  31
ATOM     31  C   UNL d   1      31.753 -15.133   1.877  0.00  0.00     0.002 C 
BRANCH  31  32
ATOM     32  C   UNL d   1      31.211 -15.264   0.455  0.00  0.00    -0.000 C 
BRANCH  32  33
ATOM     33  C   UNL d   1      31.315 -16.707   0.045  0.00  0.00    -0.005 C 
ATOM     34  C   UNL d   1      30.117 -17.118  -0.777  0.00  0.00     0.005 C 
ENDBRANCH  32  33
ENDBRANCH  31  32
ENDBRANCH  30  31
ENDBRANCH  29  30
ENDBRANCH  26  29
BRANCH  27  35
ATOM     35  C   UNL d   1      29.114 -14.758   5.671  0.00  0.00     0.103 C 
BRANCH  35  36
ATOM     36  C   UNL d   1      28.802 -14.129   7.015  0.00  0.00     0.005 C 
ATOM     37  C   UNL d   1      29.547 -12.798   7.112  0.00  0.00     0.005 C 
ENDBRANCH  35  36
ENDBRANCH  27  35
ENDBRANCH   1  26
TORSDOF 14
ENDMDL
MODEL 4
REMARK VINA RESULT:    -8.715      3.221      7.480
REMARK INTER + INTRA:         -15.896
REMARK INTER:                 -12.891
REMARK INTRA:                  -3.005
REMARK CONF_INDEPENDENT:        4.176
REMARK UNBOUND:                -3.005
REMARK  14 active torsions:
REMARK  status: ('A' for Active; 'I' for Inactive)
REMARK    1  A    between atoms: C_2  and  C_3 
REMARK    2  A    between atoms: C_3  and  C_4 
REMARK    3  A    between atoms: C_4  and  C_5 
REMARK    4  A    between atoms: C_5  and  C_6 
REMARK    5  A    between atoms: C_6  and  N_7 
REMARK       I    between atoms: N_7  and  C_8 
REMARK    6  A    between atoms: C_13  and  N_7 
REMARK    7  A    between atoms: C_8  and  C_10 
REMARK    8  A    between atoms: C_10  and  C_11 
REMARK    9  A    between atoms: C_13  and  C_28 
REMARK   10  A    between atoms: C_13  and  C_14 
REMARK       I    between atoms: C_14  and  N_16 
REMARK   11  A    between atoms: N_16  and  C_17 
REMARK   12  A    between atoms: C_17  and  S_18 
REMARK   13  A    between atoms: S_18  and  C_21 
REMARK   14  A    between atoms: C_31  and  N_32 
ROOT
ATOM      1  C   UNL d   1      27.488 -15.878   0.055  0.00  0.00     0.212 C 
ENDROOT
BRANCH   1   2
ATOM      2  C   UNL d   1      26.076 -16.461  -0.207  0.00  0.00    -0.026 C 
ATOM      3  C   UNL d   1      25.730 -17.758   0.207  0.00  0.00     0.012 C 
ATOM      4  C   UNL d   1      24.538 -18.375  -0.169  0.00  0.00     0.037 C 
ATOM      5  C   UNL d   1      23.591 -17.639  -0.868  0.00  0.00     0.102 C 
ATOM      6  C   UNL d   1      23.837 -16.307  -1.188  0.00  0.00     0.037 C 
ATOM      7  C   UNL d   1      25.065 -15.735  -0.861  0.00  0.00     0.012 C 
BRANCH   5   8
ATOM      8  N   UNL d   1      22.315 -18.248  -1.225  0.00  0.00    -0.116 N 
ATOM      9  O   UNL d   1      22.341 -19.316  -1.855  0.00  0.00    -0.532 OA
ATOM     10  O   UNL d   1      21.281 -17.663  -0.873  0.00  0.00    -0.532 OA
ENDBRANCH   5   8
ENDBRANCH   1   2
BRANCH   1  11
ATOM     11  C   UNL d   1      27.422 -14.807   1.265  0.00  0.00     0.246 C 
ATOM     12  O   UNL d   1      26.562 -13.923   1.346  0.00  0.00    -0.271 OA
ATOM     13  N   UNL d   1      28.454 -14.771   2.170  0.00  0.00    -0.345 N 
ATOM     14  H   UNL d   1      29.278 -15.349   2.056  0.00  0.00     0.163 HD
BRANCH  13  15
ATOM     15  C   UNL d   1      28.461 -13.749   3.241  0.00  0.00     0.268 C 
BRANCH  15  16
ATOM     16  S   UNL d   1      27.717 -14.266   4.794  0.00  0.00     0.192 S 
ATOM     17  O   UNL d   1      26.287 -14.073   4.680  0.00  0.00    -0.221 OA
ATOM     18  O   UNL d   1      28.251 -15.584   5.108  0.00  0.00    -0.221 OA
BRANCH  16  19
ATOM     19  C   UNL d   1      28.317 -13.127   6.019  0.00  0.00     0.060 A 
ATOM     20  C   UNL d   1      28.136 -11.756   5.816  0.00  0.00     0.024 A 
ATOM     21  C   UNL d   1      28.617 -10.847   6.761  0.00  0.00     0.008 A 
ATOM     22  C   UNL d   1      29.261 -11.295   7.922  0.00  0.00    -0.062 A 
ATOM     23  C   UNL d   1      29.816 -10.313   8.914  0.00  0.00     0.048 C 
ATOM     24  C   UNL d   1      29.386 -12.675   8.142  0.00  0.00     0.008 A 
ATOM     25  C   UNL d   1      28.908 -13.592   7.199  0.00  0.00     0.024 A 
ENDBRANCH  16  19
ENDBRANCH  15  16
ENDBRANCH  13  15
ENDBRANCH   1  11
BRANCH   1  26
ATOM     26  N   UNL d   1      28.101 -15.246  -1.191  0.00  0.00    -0.335 N 
ATOM     27  C   UNL d   1      28.935 -15.996  -2.058  0.00  0.00     0.220 C 
ATOM     28  O   UNL d   1      29.318 -17.138  -1.798  0.00  0.00    -0.273 OA
BRANCH  26  29
ATOM     29  C   UNL d   1      27.956 -13.776  -1.222  0.00  0.00     0.127 C 
BRANCH  29  30
ATOM     30  C   UNL d   1      27.333 -13.180  -2.432  0.00  0.00     0.020 C 
BRANCH  30  31
ATOM     31  C   UNL d   1      25.870 -12.914  -2.407  0.00  0.00     0.002 C 
BRANCH  31  32
ATOM     32  C   UNL d   1      25.318 -13.644  -3.630  0.00  0.00    -0.000 C 
BRANCH  32  33
ATOM     33  C   UNL d   1      26.081 -14.930  -3.792  0.00  0.00    -0.005 C 
ATOM     34  C   UNL d   1      25.859 -15.515  -5.167  0.00  0.00     0.005 C 
ENDBRANCH  32  33
ENDBRANCH  31  32
ENDBRANCH  30  31
ENDBRANCH  29  30
ENDBRANCH  26  29
BRANCH  27  35
ATOM     35  C   UNL d   1      29.453 -15.409  -3.369  0.00  0.00     0.103 C 
BRANCH  35  36
ATOM     36  C   UNL d   1      29.717 -16.350  -4.528  0.00  0.00     0.005 C 
ATOM     37  C   UNL d   1      29.374 -15.625  -5.829  0.00  0.00     0.005 C 
ENDBRANCH  35  36
ENDBRANCH  27  35
ENDBRANCH   1  26
TORSDOF 14
ENDMDL
MODEL 5
REMARK VINA RESULT:    -8.258      2.833      7.171
REMARK INTER + INTRA:         -16.050
REMARK INTER:                 -12.434
REMARK INTRA:                  -3.616
REMARK CONF_INDEPENDENT:        4.176
REMARK UNBOUND:                -3.616
REMARK  14 active torsions:
REMARK  status: ('A' for Active; 'I' for Inactive)
REMARK    1  A    between atoms: C_2  and  C_3 
REMARK    2  A    between atoms: C_3  and  C_4 
REMARK    3  A    between atoms: C_4  and  C_5 
REMARK    4  A    between atoms: C_5  and  C_6 
REMARK    5  A    between atoms: C_6  and  N_7 
REMARK       I    between atoms: N_7  and  C_8 
REMARK    6  A    between atoms: C_13  and  N_7 
REMARK    7  A    between atoms: C_8  and  C_10 
REMARK    8  A    between atoms: C_10  and  C_11 
REMARK    9  A    between atoms: C_13  and  C_28 
REMARK   10  A    between atoms: C_13  and  C_14 
REMARK       I    between atoms: C_14  and  N_16 
REMARK   11  A    between atoms: N_16  and  C_17 
REMARK   12  A    between atoms: C_17  and  S_18 
REMARK   13  A    between atoms: S_18  and  C_21 
REMARK   14  A    between atoms: C_31  and  N_32 
ROOT
ATOM      1  C   UNL d   1      27.309 -16.545   0.180  0.00  0.00     0.212 C 
ENDROOT
BRANCH   1   2
ATOM      2  C   UNL d   1      25.901 -17.016  -0.262  0.00  0.00    -0.026 C 
ATOM      3  C   UNL d   1      24.955 -16.115  -0.779  0.00  0.00     0.012 C 
ATOM      4  C   UNL d   1      23.628 -16.470  -1.015  0.00  0.00     0.037 C 
ATOM      5  C   UNL d   1      23.250 -17.798  -0.864  0.00  0.00     0.102 C 
ATOM      6  C   UNL d   1      24.187 -18.753  -0.479  0.00  0.00     0.037 C 
ATOM      7  C   UNL d   1      25.490 -18.358  -0.181  0.00  0.00     0.012 C 
BRANCH   5   8
ATOM      8  N   UNL d   1      21.880 -18.202  -1.157  0.00  0.00    -0.116 N 
ATOM      9  O   UNL d   1      20.973 -17.398  -0.898  0.00  0.00    -0.532 OA
ATOM     10  O   UNL d   1      21.706 -19.324  -1.653  0.00  0.00    -0.532 OA
ENDBRANCH   5   8
ENDBRANCH   1   2
BRANCH   1  11
ATOM     11  C   UNL d   1      27.194 -15.130   0.956  0.00  0.00     0.246 C 
ATOM     12  O   UNL d   1      26.378 -14.252   0.654  0.00  0.00    -0.271 OA
ATOM     13  N   UNL d   1      28.142 -14.816   1.898  0.00  0.00    -0.345 N 
ATOM     14  H   UNL d   1      28.941 -15.417   2.066  0.00  0.00     0.163 HD
BRANCH  13  15
ATOM     15  C   UNL d   1      28.109 -13.496   2.567  0.00  0.00     0.268 C 
BRANCH  15  16
ATOM     16  S   UNL d   1      29.635 -13.017   3.388  0.00  0.00     0.192 S 
ATOM     17  O   UNL d   1      30.606 -14.063   3.150  0.00  0.00    -0.221 OA
ATOM     18  O   UNL d   1      29.926 -11.647   2.986  0.00  0.00    -0.221 OA
BRANCH  16  19
ATOM     19  C   UNL d   1      29.267 -13.010   5.127  0.00  0.00     0.060 A 
ATOM     20  C   UNL d   1      28.591 -11.914   5.671  0.00  0.00     0.024 A 
ATOM     21  C   UNL d   1      28.310 -11.886   7.039  0.00  0.00     0.008 A 
ATOM     22  C   UNL d   1      28.679 -12.953   7.869  0.00  0.00    -0.062 A 
ATOM     23  C   UNL d   1      28.414 -12.898   9.346  0.00  0.00     0.048 C 
ATOM     24  C   UNL d   1      29.306 -14.072   7.300  0.00  0.00     0.008 A 
ATOM     25  C   UNL d   1      29.593 -14.107   5.930  0.00  0.00     0.024 A 
ENDBRANCH  16  19
ENDBRANCH  15  16
ENDBRANCH  13  15
ENDBRANCH   1  11
BRANCH   1  26
ATOM     26  N   UNL d   1      28.286 -16.440  -0.987  0.00  0.00    -0.335 N 
ATOM     27  C   UNL d   1      29.668 -16.213  -0.766  0.00  0.00     0.220 C 
ATOM     28  O   UNL d   1      30.137 -15.958   0.344  0.00  0.00    -0.273 OA
BRANCH  26  29
ATOM     29  C   UNL d   1      27.611 -16.330  -2.296  0.00  0.00     0.127 C 
BRANCH  29  30
ATOM     30  C   UNL d   1      27.714 -15.030  -3.007  0.00  0.00     0.020 C 
BRANCH  30  31
ATOM     31  C   UNL d   1      26.994 -14.880  -4.300  0.00  0.00     0.002 C 
BRANCH  31  32
ATOM     32  C   UNL d   1      25.512 -14.923  -3.930  0.00  0.00    -0.000 C 
BRANCH  32  33
ATOM     33  C   UNL d   1      24.917 -13.573  -4.223  0.00  0.00    -0.005 C 
ATOM     34  C   UNL d   1      25.527 -12.515  -3.334  0.00  0.00     0.005 C 
ENDBRANCH  32  33
ENDBRANCH  31  32
ENDBRANCH  30  31
ENDBRANCH  29  30
ENDBRANCH  26  29
BRANCH  27  35
ATOM     35  C   UNL d   1      30.671 -16.229  -1.918  0.00  0.00     0.103 C 
BRANCH  35  36
ATOM     36  C   UNL d   1      30.887 -17.529  -2.669  0.00  0.00     0.005 C 
ATOM     37  C   UNL d   1      30.212 -17.417  -4.036  0.00  0.00     0.005 C 
ENDBRANCH  35  36
ENDBRANCH  27  35
ENDBRANCH   1  26
TORSDOF 14
ENDMDL
MODEL 6
REMARK VINA RESULT:    -8.233      2.933      5.764
REMARK INTER + INTRA:         -16.207
REMARK INTER:                 -12.409
REMARK INTRA:                  -3.798
REMARK CONF_INDEPENDENT:        4.176
REMARK UNBOUND:                -3.798
REMARK  14 active torsions:
REMARK  status: ('A' for Active; 'I' for Inactive)
REMARK    1  A    between atoms: C_2  and  C_3 
REMARK    2  A    between atoms: C_3  and  C_4 
REMARK    3  A    between atoms: C_4  and  C_5 
REMARK    4  A    between atoms: C_5  and  C_6 
REMARK    5  A    between atoms: C_6  and  N_7 
REMARK       I    between atoms: N_7  and  C_8 
REMARK    6  A    between atoms: C_13  and  N_7 
REMARK    7  A    between atoms: C_8  and  C_10 
REMARK    8  A    between atoms: C_10  and  C_11 
REMARK    9  A    between atoms: C_13  and  C_28 
REMARK   10  A    between atoms: C_13  and  C_14 
REMARK       I    between atoms: C_14  and  N_16 
REMARK   11  A    between atoms: N_16  and  C_17 
REMARK   12  A    between atoms: C_17  and  S_18 
REMARK   13  A    between atoms: S_18  and  C_21 
REMARK   14  A    between atoms: C_31  and  N_32 
ROOT
ATOM      1  C   UNL d   1      28.407 -13.233  -0.146  0.00  0.00     0.212 C 
ENDROOT
BRANCH   1   2
ATOM      2  C   UNL d   1      27.668 -11.980   0.388  0.00  0.00    -0.026 C 
ATOM      3  C   UNL d   1      27.765 -10.739  -0.264  0.00  0.00     0.012 C 
ATOM      4  C   UNL d   1      27.264  -9.560   0.285  0.00  0.00     0.037 C 
ATOM      5  C   UNL d   1      26.523  -9.626   1.457  0.00  0.00     0.102 C 
ATOM      6  C   UNL d   1      26.291 -10.853   2.071  0.00  0.00     0.037 C 
ATOM      7  C   UNL d   1      26.862 -12.008   1.539  0.00  0.00     0.012 C 
BRANCH   5   8
ATOM      8  N   UNL d   1      25.945  -8.411   2.022  0.00  0.00    -0.116 N 
ATOM      9  O   UNL d   1      26.279  -8.094   3.173  0.00  0.00    -0.532 OA
ATOM     10  O   UNL d   1      25.158  -7.767   1.314  0.00  0.00    -0.532 OA
ENDBRANCH   5   8
ENDBRANCH   1   2
BRANCH   1  11
ATOM     11  C   UNL d   1      27.430 -14.068  -1.129  0.00  0.00     0.246 C 
ATOM     12  O   UNL d   1      26.211 -14.166  -0.954  0.00  0.00    -0.271 OA
ATOM     13  N   UNL d   1      27.992 -14.833  -2.121  0.00  0.00    -0.345 N 
ATOM     14  H   UNL d   1      28.996 -14.937  -2.205  0.00  0.00     0.163 HD
BRANCH  13  15
ATOM     15  C   UNL d   1      27.128 -15.669  -2.985  0.00  0.00     0.268 C 
BRANCH  15  16
ATOM     16  S   UNL d   1      26.564 -14.877  -4.497  0.00  0.00     0.192 S 
ATOM     17  O   UNL d   1      27.510 -15.207  -5.542  0.00  0.00    -0.221 OA
ATOM     18  O   UNL d   1      25.156 -15.211  -4.657  0.00  0.00    -0.221 OA
BRANCH  16  19
ATOM     19  C   UNL d   1      26.681 -13.129  -4.199  0.00  0.00     0.060 A 
ATOM     20  C   UNL d   1      27.927 -12.505  -4.312  0.00  0.00     0.024 A 
ATOM     21  C   UNL d   1      28.038 -11.134  -4.064  0.00  0.00     0.008 A 
ATOM     22  C   UNL d   1      26.911 -10.374  -3.725  0.00  0.00    -0.062 A 
ATOM     23  C   UNL d   1      27.044  -8.910  -3.416  0.00  0.00     0.048 C 
ATOM     24  C   UNL d   1      25.658 -11.002  -3.670  0.00  0.00     0.008 A 
ATOM     25  C   UNL d   1      25.538 -12.374  -3.916  0.00  0.00     0.024 A 
ENDBRANCH  16  19
ENDBRANCH  15  16
ENDBRANCH  13  15
ENDBRANCH   1  11
BRANCH   1  26
ATOM     26  N   UNL d   1      28.933 -14.126   0.975  0.00  0.00    -0.335 N 
ATOM     27  C   UNL d   1      29.616 -13.577   2.088  0.00  0.00     0.220 C 
ATOM     28  O   UNL d   1      29.940 -12.390   2.158  0.00  0.00    -0.273 OA
BRANCH  26  29
ATOM     29  C   UNL d   1      28.891 -15.563   0.634  0.00  0.00     0.127 C 
BRANCH  29  30
ATOM     30  C   UNL d   1      27.655 -16.309   0.983  0.00  0.00     0.020 C 
BRANCH  30  31
ATOM     31  C   UNL d   1      27.176 -17.351   0.036  0.00  0.00     0.002 C 
BRANCH  31  32
ATOM     32  C   UNL d   1      25.837 -17.814   0.606  0.00  0.00    -0.000 C 
BRANCH  32  33
ATOM     33  C   UNL d   1      24.874 -17.985  -0.538  0.00  0.00    -0.005 C 
ATOM     34  C   UNL d   1      24.361 -16.646  -1.009  0.00  0.00     0.005 C 
ENDBRANCH  32  33
ENDBRANCH  31  32
ENDBRANCH  30  31
ENDBRANCH  29  30
ENDBRANCH  26  29
BRANCH  27  35
ATOM     35  C   UNL d   1      30.037 -14.446   3.271  0.00  0.00     0.103 C 
BRANCH  35  36
ATOM     36  C   UNL d   1      29.559 -14.060   4.658  0.00  0.00     0.005 C 
ATOM     37  C   UNL d   1      28.330 -14.904   4.999  0.00  0.00     0.005 C 
ENDBRANCH  35  36
ENDBRANCH  27  35
ENDBRANCH   1  26
TORSDOF 14
ENDMDL
MODEL 7
REMARK VINA RESULT:    -8.152      2.517      6.920
REMARK INTER + INTRA:         -15.895
REMARK INTER:                 -12.328
REMARK INTRA:                  -3.567
REMARK CONF_INDEPENDENT:        4.176
REMARK UNBOUND:                -3.567
REMARK  14 active torsions:
REMARK  status: ('A' for Active; 'I' for Inactive)
REMARK    1  A    between atoms: C_2  and  C_3 
REMARK    2  A    between atoms: C_3  and  C_4 
REMARK    3  A    between atoms: C_4  and  C_5 
REMARK    4  A    between atoms: C_5  and  C_6 
REMARK    5  A    between atoms: C_6  and  N_7 
REMARK       I    between atoms: N_7  and  C_8 
REMARK    6  A    between atoms: C_13  and  N_7 
REMARK    7  A    between atoms: C_8  and  C_10 
REMARK    8  A    between atoms: C_10  and  C_11 
REMARK    9  A    between atoms: C_13  and  C_28 
REMARK   10  A    between atoms: C_13  and  C_14 
REMARK       I    between atoms: C_14  and  N_16 
REMARK   11  A    between atoms: N_16  and  C_17 
REMARK   12  A    between atoms: C_17  and  S_18 
REMARK   13  A    between atoms: S_18  and  C_21 
REMARK   14  A    between atoms: C_31  and  N_32 
ROOT
ATOM      1  C   UNL d   1      26.663 -16.815  -0.270  0.00  0.00     0.212 C 
ENDROOT
BRANCH   1   2
ATOM      2  C   UNL d   1      25.174 -17.229  -0.386  0.00  0.00    -0.026 C 
ATOM      3  C   UNL d   1      24.775 -18.571  -0.270  0.00  0.00     0.012 C 
ATOM      4  C   UNL d   1      23.478 -18.998  -0.547  0.00  0.00     0.037 C 
ATOM      5  C   UNL d   1      22.502 -18.049  -0.820  0.00  0.00     0.102 C 
ATOM      6  C   UNL d   1      22.823 -16.694  -0.818  0.00  0.00     0.037 C 
ATOM      7  C   UNL d   1      24.143 -16.299  -0.606  0.00  0.00     0.012 C 
BRANCH   5   8
ATOM      8  N   UNL d   1      21.126 -18.468  -1.061  0.00  0.00    -0.116 N 
ATOM      9  O   UNL d   1      20.282 -17.584  -1.270  0.00  0.00    -0.532 OA
ATOM     10  O   UNL d   1      20.886 -19.683  -1.047  0.00  0.00    -0.532 OA
ENDBRANCH   5   8
ENDBRANCH   1   2
BRANCH   1  11
ATOM     11  C   UNL d   1      26.787 -15.457   0.602  0.00  0.00     0.246 C 
ATOM     12  O   UNL d   1      25.947 -14.552   0.574  0.00  0.00    -0.271 OA
ATOM     13  N   UNL d   1      27.950 -15.222   1.292  0.00  0.00    -0.345 N 
ATOM     14  H   UNL d   1      28.748 -15.842   1.212  0.00  0.00     0.163 HD
BRANCH  13  15
ATOM     15  C   UNL d   1      28.123 -13.953   2.034  0.00  0.00     0.268 C 
BRANCH  15  16
ATOM     16  S   UNL d   1      29.775 -13.667   2.682  0.00  0.00     0.192 S 
ATOM     17  O   UNL d   1      30.582 -14.822   2.350  0.00  0.00    -0.221 OA
ATOM     18  O   UNL d   1      30.186 -12.341   2.241  0.00  0.00    -0.221 OA
BRANCH  16  19
ATOM     19  C   UNL d   1      29.600 -13.625   4.450  0.00  0.00     0.060 A 
ATOM     20  C   UNL d   1      28.692 -14.494   5.061  0.00  0.00     0.024 A 
ATOM     21  C   UNL d   1      28.530 -14.461   6.449  0.00  0.00     0.008 A 
ATOM     22  C   UNL d   1      29.283 -13.581   7.237  0.00  0.00    -0.062 A 
ATOM     23  C   UNL d   1      29.072 -13.518   8.723  0.00  0.00     0.048 C 
ATOM     24  C   UNL d   1      30.231 -12.753   6.617  0.00  0.00     0.008 A 
ATOM     25  C   UNL d   1      30.398 -12.779   5.227  0.00  0.00     0.024 A 
ENDBRANCH  16  19
ENDBRANCH  15  16
ENDBRANCH  13  15
ENDBRANCH   1  11
BRANCH   1  26
ATOM     26  N   UNL d   1      27.332 -16.643  -1.630  0.00  0.00    -0.335 N 
ATOM     27  C   UNL d   1      28.741 -16.550  -1.746  0.00  0.00     0.220 C 
ATOM     28  O   UNL d   1      29.490 -16.467  -0.771  0.00  0.00    -0.273 OA
BRANCH  26  29
ATOM     29  C   UNL d   1      26.373 -16.325  -2.708  0.00  0.00     0.127 C 
BRANCH  29  30
ATOM     30  C   UNL d   1      26.121 -14.888  -2.992  0.00  0.00     0.020 C 
BRANCH  30  31
ATOM     31  C   UNL d   1      25.520 -14.529  -4.303  0.00  0.00     0.002 C 
BRANCH  31  32
ATOM     32  C   UNL d   1      25.156 -13.051  -4.177  0.00  0.00    -0.000 C 
BRANCH  32  33
ATOM     33  C   UNL d   1      26.411 -12.286  -3.851  0.00  0.00    -0.005 C 
ATOM     34  C   UNL d   1      26.077 -10.918  -3.305  0.00  0.00     0.005 C 
ENDBRANCH  32  33
ENDBRANCH  31  32
ENDBRANCH  30  31
ENDBRANCH  29  30
ENDBRANCH  26  29
BRANCH  27  35
ATOM     35  C   UNL d   1      29.426 -16.502  -3.111  0.00  0.00     0.103 C 
BRANCH  35  36
ATOM     36  C   UNL d   1      29.690 -15.147  -3.739  0.00  0.00     0.005 C 
ATOM     37  C   UNL d   1      28.924 -15.068  -5.059  0.00  0.00     0.005 C 
ENDBRANCH  35  36
ENDBRANCH  27  35
ENDBRANCH   1  26
TORSDOF 14
ENDMDL
MODEL 8
REMARK VINA RESULT:    -7.736      4.063      7.919
REMARK INTER + INTRA:         -15.930
REMARK INTER:                 -11.912
REMARK INTRA:                  -4.018
REMARK CONF_INDEPENDENT:        4.176
REMARK UNBOUND:                -4.018
REMARK  14 active torsions:
REMARK  status: ('A' for Active; 'I' for Inactive)
REMARK    1  A    between atoms: C_2  and  C_3 
REMARK    2  A    between atoms: C_3  and  C_4 
REMARK    3  A    between atoms: C_4  and  C_5 
REMARK    4  A    between atoms: C_5  and  C_6 
REMARK    5  A    between atoms: C_6  and  N_7 
REMARK       I    between atoms: N_7  and  C_8 
REMARK    6  A    between atoms: C_13  and  N_7 
REMARK    7  A    between atoms: C_8  and  C_10 
REMARK    8  A    between atoms: C_10  and  C_11 
REMARK    9  A    between atoms: C_13  and  C_28 
REMARK   10  A    between atoms: C_13  and  C_14 
REMARK       I    between atoms: C_14  and  N_16 
REMARK   11  A    between atoms: N_16  and  C_17 
REMARK   12  A    between atoms: C_17  and  S_18 
REMARK   13  A    between atoms: S_18  and  C_21 
REMARK   14  A    between atoms: C_31  and  N_32 
ROOT
ATOM      1  C   UNL d   1      28.835 -12.864   1.674  0.00  0.00     0.212 C 
ENDROOT
BRANCH   1   2
ATOM      2  C   UNL d   1      27.998 -11.573   1.854  0.00  0.00    -0.026 C 
ATOM      3  C   UNL d   1      27.408 -10.923   0.757  0.00  0.00     0.012 C 
ATOM      4  C   UNL d   1      26.806  -9.670   0.859  0.00  0.00     0.037 C 
ATOM      5  C   UNL d   1      26.660  -9.095   2.114  0.00  0.00     0.102 C 
ATOM      6  C   UNL d   1      27.115  -9.763   3.248  0.00  0.00     0.037 C 
ATOM      7  C   UNL d   1      27.776 -10.982   3.110  0.00  0.00     0.012 C 
BRANCH   5   8
ATOM      8  N   UNL d   1      25.986  -7.808   2.252  0.00  0.00    -0.116 N 
ATOM      9  O   UNL d   1      25.156  -7.497   1.385  0.00  0.00    -0.532 OA
ATOM     10  O   UNL d   1      26.280  -7.108   3.230  0.00  0.00    -0.532 OA
ENDBRANCH   5   8
ENDBRANCH   1   2
BRANCH   1  11
ATOM     11  C   UNL d   1      28.180 -13.784   0.515  0.00  0.00     0.246 C 
ATOM     12  O   UNL d   1      28.786 -14.126  -0.506  0.00  0.00    -0.271 OA
ATOM     13  N   UNL d   1      26.841 -14.078   0.586  0.00  0.00    -0.345 N 
ATOM     14  H   UNL d   1      26.249 -13.679   1.304  0.00  0.00     0.163 HD
BRANCH  13  15
ATOM     15  C   UNL d   1      26.197 -14.850  -0.500  0.00  0.00     0.268 C 
BRANCH  15  16
ATOM     16  S   UNL d   1      26.362 -16.636  -0.370  0.00  0.00     0.192 S 
ATOM     17  O   UNL d   1      27.108 -17.092  -1.523  0.00  0.00    -0.221 OA
ATOM     18  O   UNL d   1      26.848 -16.925   0.973  0.00  0.00    -0.221 OA
BRANCH  16  19
ATOM     19  C   UNL d   1      24.713 -17.284  -0.505  0.00  0.00     0.060 A 
ATOM     20  C   UNL d   1      24.500 -18.647  -0.277  0.00  0.00     0.024 A 
ATOM     21  C   UNL d   1      23.213 -19.175  -0.397  0.00  0.00     0.008 A 
ATOM     22  C   UNL d   1      22.128 -18.350  -0.723  0.00  0.00    -0.062 A 
ATOM     23  C   UNL d   1      20.753 -18.932  -0.894  0.00  0.00     0.048 C 
ATOM     24  C   UNL d   1      22.345 -16.975  -0.893  0.00  0.00     0.008 A 
ATOM     25  C   UNL d   1      23.633 -16.438  -0.776  0.00  0.00     0.024 A 
ENDBRANCH  16  19
ENDBRANCH  15  16
ENDBRANCH  13  15
ENDBRANCH   1  11
BRANCH   1  26
ATOM     26  N   UNL d   1      28.980 -13.655   2.970  0.00  0.00    -0.335 N 
ATOM     27  C   UNL d   1      27.843 -14.057   3.714  0.00  0.00     0.220 C 
ATOM     28  O   UNL d   1      26.699 -13.689   3.441  0.00  0.00    -0.273 OA
BRANCH  26  29
ATOM     29  C   UNL d   1      30.371 -13.699   3.466  0.00  0.00     0.127 C 
BRANCH  29  30
ATOM     30  C   UNL d   1      31.039 -12.400   3.736  0.00  0.00     0.020 C 
BRANCH  30  31
ATOM     31  C   UNL d   1      30.600 -11.620   4.924  0.00  0.00     0.002 C 
BRANCH  31  32
ATOM     32  C   UNL d   1      31.097 -10.199   4.666  0.00  0.00    -0.000 C 
BRANCH  32  33
ATOM     33  C   UNL d   1      31.528 -10.107   3.227  0.00  0.00    -0.005 C 
ATOM     34  C   UNL d   1      30.733  -9.051   2.497  0.00  0.00     0.005 C 
ENDBRANCH  32  33
ENDBRANCH  31  32
ENDBRANCH  30  31
ENDBRANCH  29  30
ENDBRANCH  26  29
BRANCH  27  35
ATOM     35  C   UNL d   1      27.972 -14.952   4.945  0.00  0.00     0.103 C 
BRANCH  35  36
ATOM     36  C   UNL d   1      28.530 -14.350   6.220  0.00  0.00     0.005 C 
ATOM     37  C   UNL d   1      27.996 -12.924   6.356  0.00  0.00     0.005 C 
ENDBRANCH  35  36
ENDBRANCH  27  35
ENDBRANCH   1  26
TORSDOF 14
ENDMDL
MODEL 9
REMARK VINA RESULT:    -6.867      2.523      4.817
REMARK INTER + INTRA:         -15.870
REMARK INTER:                 -11.043
REMARK INTRA:                  -4.827
REMARK CONF_INDEPENDENT:        4.176
REMARK UNBOUND:                -4.827
REMARK  14 active torsions:
REMARK  status: ('A' for Active; 'I' for Inactive)
REMARK    1  A    between atoms: C_2  and  C_3 
REMARK    2  A    between atoms: C_3  and  C_4 
REMARK    3  A    between atoms: C_4  and  C_5 
REMARK    4  A    between atoms: C_5  and  C_6 
REMARK    5  A    between atoms: C_6  and  N_7 
REMARK       I    between atoms: N_7  and  C_8 
REMARK    6  A    between atoms: C_13  and  N_7 
REMARK    7  A    between atoms: C_8  and  C_10 
REMARK    8  A    between atoms: C_10  and  C_11 
REMARK    9  A    between atoms: C_13  and  C_28 
REMARK   10  A    between atoms: C_13  and  C_14 
REMARK       I    between atoms: C_14  and  N_16 
REMARK   11  A    between atoms: N_16  and  C_17 
REMARK   12  A    between atoms: C_17  and  S_18 
REMARK   13  A    between atoms: S_18  and  C_21 
REMARK   14  A    between atoms: C_31  and  N_32 
ROOT
ATOM      1  C   UNL d   1      26.919 -16.717  -0.142  0.00  0.00     0.212 C 
ENDROOT
BRANCH   1   2
ATOM      2  C   UNL d   1      25.433 -17.118  -0.319  0.00  0.00    -0.026 C 
ATOM      3  C   UNL d   1      25.012 -18.451  -0.178  0.00  0.00     0.012 C 
ATOM      4  C   UNL d   1      23.724 -18.873  -0.505  0.00  0.00     0.037 C 
ATOM      5  C   UNL d   1      22.776 -17.923  -0.859  0.00  0.00     0.102 C 
ATOM      6  C   UNL d   1      23.113 -16.573  -0.887  0.00  0.00     0.037 C 
ATOM      7  C   UNL d   1      24.426 -16.185  -0.623  0.00  0.00     0.012 C 
BRANCH   5   8
ATOM      8  N   UNL d   1      21.408 -18.335  -1.155  0.00  0.00    -0.116 N 
ATOM      9  O   UNL d   1      21.183 -19.549  -1.268  0.00  0.00    -0.532 OA
ATOM     10  O   UNL d   1      20.553 -17.446  -1.270  0.00  0.00    -0.532 OA
ENDBRANCH   5   8
ENDBRANCH   1   2
BRANCH   1  11
ATOM     11  C   UNL d   1      27.021 -15.390   0.778  0.00  0.00     0.246 C 
ATOM     12  O   UNL d   1      26.211 -14.458   0.722  0.00  0.00    -0.271 OA
ATOM     13  N   UNL d   1      28.140 -15.211   1.553  0.00  0.00    -0.345 N 
ATOM     14  H   UNL d   1      28.923 -15.853   1.509  0.00  0.00     0.163 HD
BRANCH  13  15
ATOM     15  C   UNL d   1      28.298 -13.970   2.345  0.00  0.00     0.268 C 
BRANCH  15  16
ATOM     16  S   UNL d   1      29.418 -12.753   1.640  0.00  0.00     0.192 S 
ATOM     17  O   UNL d   1      29.333 -11.559   2.455  0.00  0.00    -0.221 OA
ATOM     18  O   UNL d   1      30.702 -13.412   1.446  0.00  0.00    -0.221 OA
BRANCH  16  19
ATOM     19  C   UNL d   1      28.758 -12.359   0.038  0.00  0.00     0.060 A 
ATOM     20  C   UNL d   1      27.893 -11.268  -0.088  0.00  0.00     0.024 A 
ATOM     21  C   UNL d   1      27.352 -10.956  -1.338  0.00  0.00     0.008 A 
ATOM     22  C   UNL d   1      27.684 -11.711  -2.471  0.00  0.00    -0.062 A 
ATOM     23  C   UNL d   1      27.065 -11.399  -3.803  0.00  0.00     0.048 C 
ATOM     24  C   UNL d   1      28.597 -12.768  -2.340  0.00  0.00     0.008 A 
ATOM     25  C   UNL d   1      29.142 -13.088  -1.092  0.00  0.00     0.024 A 
ENDBRANCH  16  19
ENDBRANCH  15  16
ENDBRANCH  13  15
ENDBRANCH   1  11
BRANCH   1  26
ATOM     26  N   UNL d   1      27.631 -16.503  -1.474  0.00  0.00    -0.335 N 
ATOM     27  C   UNL d   1      29.033 -16.303  -1.530  0.00  0.00     0.220 C 
ATOM     28  O   UNL d   1      29.731 -16.156  -0.525  0.00  0.00    -0.273 OA
BRANCH  26  29
ATOM     29  C   UNL d   1      26.699 -16.266  -2.595  0.00  0.00     0.127 C 
BRANCH  29  30
ATOM     30  C   UNL d   1      26.271 -14.865  -2.840  0.00  0.00     0.020 C 
BRANCH  30  31
ATOM     31  C   UNL d   1      25.583 -14.557  -4.122  0.00  0.00     0.002 C 
BRANCH  31  32
ATOM     32  C   UNL d   1      26.456 -15.198  -5.199  0.00  0.00    -0.000 C 
BRANCH  32  33
ATOM     33  C   UNL d   1      27.790 -14.503  -5.197  0.00  0.00    -0.005 C 
ATOM     34  C   UNL d   1      28.506 -14.716  -6.510  0.00  0.00     0.005 C 
ENDBRANCH  32  33
ENDBRANCH  31  32
ENDBRANCH  30  31
ENDBRANCH  29  30
ENDBRANCH  26  29
BRANCH  27  35
ATOM     35  C   UNL d   1      29.771 -16.211  -2.864  0.00  0.00     0.103 C 
BRANCH  35  36
ATOM     36  C   UNL d   1      30.318 -17.486  -3.476  0.00  0.00     0.005 C 
ATOM     37  C   UNL d   1      30.082 -17.439  -4.986  0.00  0.00     0.005 C 
ENDBRANCH  35  36
ENDBRANCH  27  35
ENDBRANCH   1  26
TORSDOF 14
ENDMDL
