MODEL 1
REMARK VINA RESULT:    -7.307      0.000      0.000
REMARK INTER + INTRA:         -11.138
REMARK INTER:                  -9.097
REMARK INTRA:                  -2.041
REMARK CONF_INDEPENDENT:        1.790
REMARK UNBOUND:                -2.041
REMARK  6 active torsions:
REMARK  status: ('A' for Active; 'I' for Inactive)
REMARK    1  A    between atoms: C_5  and  C_6 
REMARK       I    between atoms: C_6  and  N_8 
REMARK    2  A    between atoms: N_8  and  N_9 
REMARK       I    between atoms: N_9  and  C_10 
REMARK    3  A    between atoms: C_10  and  C_12 
REMARK    4  A    between atoms: C_13  and  C_12 
REMARK    5  A    between atoms: C_13  and  C_15 
REMARK    6  A    between atoms: C_18  and  O_19 
ROOT
ATOM      1  C   UNL d   1      22.029 -18.222  -0.195  0.00  0.00     0.272 C 
ATOM      2  O   UNL d   1      21.840 -17.368  -1.080  0.00  0.00    -0.266 OA
ATOM      3  N   UNL d   1      23.260 -18.375   0.450  0.00  0.00    -0.263 N 
ATOM      4  H   UNL d   1      23.545 -19.112   1.084  0.00  0.00     0.190 HD
ENDROOT
BRANCH   3   5
ATOM      5  N   UNL d   1      24.262 -17.537   0.018  0.00  0.00    -0.267 N 
ATOM      6  C   UNL d   1      25.606 -17.810   0.084  0.00  0.00     0.236 C 
ATOM      7  O   UNL d   1      26.017 -18.852   0.599  0.00  0.00    -0.272 OA
ATOM      8  H   UNL d   1      23.862 -16.985  -0.714  0.00  0.00     0.190 HD
BRANCH   6   9
ATOM      9  C   UNL d   1      26.611 -16.758  -0.481  0.00  0.00     0.109 C 
BRANCH   9  10
ATOM     10  C   UNL d   1      26.243 -15.709  -1.586  0.00  0.00    -0.007 C 
ATOM     11  C   UNL d   1      25.155 -16.180  -2.525  0.00  0.00     0.011 C 
BRANCH  10  12
ATOM     12  C   UNL d   1      27.456 -15.275  -2.450  0.00  0.00    -0.019 C 
ATOM     13  C   UNL d   1      28.551 -16.356  -2.442  0.00  0.00     0.010 C 
ATOM     14  C   UNL d   1      27.042 -15.008  -3.894  0.00  0.00     0.010 C 
ENDBRANCH  10  12
ENDBRANCH   9  10
ENDBRANCH   6   9
ENDBRANCH   3   5
BRANCH   1  15
ATOM     15  C   UNL d   1      20.920 -19.119   0.190  0.00  0.00     0.066 A 
ATOM     16  C   UNL d   1      20.653 -19.309   1.550  0.00  0.00     0.020 A 
ATOM     17  C   UNL d   1      19.598 -20.109   1.965  0.00  0.00     0.008 A 
ATOM     18  C   UNL d   1      18.779 -20.732   1.025  0.00  0.00    -0.059 A 
ATOM     19  C   UNL d   1      17.621 -21.573   1.458  0.00  0.00     0.048 C 
ATOM     20  C   UNL d   1      19.047 -20.563  -0.339  0.00  0.00     0.044 A 
ATOM     21  C   UNL d   1      20.115 -19.771  -0.759  0.00  0.00     0.082 A 
BRANCH  21  22
ATOM     22  O   UNL d   1      20.287 -19.693  -2.117  0.00  0.00    -0.360 OA
ATOM     23  H   UNL d   1      20.881 -18.940  -2.319  0.00  0.00     0.217 HD
ENDBRANCH  21  22
ENDBRANCH   1  15
TORSDOF 6
ENDMDL
MODEL 2
REMARK VINA RESULT:    -7.216      1.300      8.246
REMARK INTER + INTRA:         -10.876
REMARK INTER:                  -9.005
REMARK INTRA:                  -1.871
REMARK CONF_INDEPENDENT:        1.790
REMARK UNBOUND:                -1.871
REMARK  6 active torsions:
REMARK  status: ('A' for Active; 'I' for Inactive)
REMARK    1  A    between atoms: C_5  and  C_6 
REMARK       I    between atoms: C_6  and  N_8 
REMARK    2  A    between atoms: N_8  and  N_9 
REMARK       I    between atoms: N_9  and  C_10 
REMARK    3  A    between atoms: C_10  and  C_12 
REMARK    4  A    between atoms: C_13  and  C_12 
REMARK    5  A    between atoms: C_13  and  C_15 
REMARK    6  A    between atoms: C_18  and  O_19 
ROOT
ATOM      1  C   UNL d   1      25.181 -17.303  -0.447  0.00  0.00     0.272 C 
ATOM      2  O   UNL d   1      25.519 -17.857   0.614  0.00  0.00    -0.266 OA
ATOM      3  N   UNL d   1      23.849 -17.240  -0.869  0.00  0.00    -0.263 N 
ATOM      4  H   UNL d   1      23.493 -16.926  -1.765  0.00  0.00     0.190 HD
ENDROOT
BRANCH   3   5
ATOM      5  N   UNL d   1      22.938 -17.861  -0.046  0.00  0.00    -0.267 N 
ATOM      6  C   UNL d   1      21.973 -18.747  -0.459  0.00  0.00     0.236 C 
ATOM      7  O   UNL d   1      21.830 -19.017  -1.653  0.00  0.00    -0.272 OA
ATOM      8  H   UNL d   1      23.376 -17.925   0.851  0.00  0.00     0.190 HD
BRANCH   6   9
ATOM      9  C   UNL d   1      21.036 -19.384   0.613  0.00  0.00     0.109 C 
BRANCH   9  10
ATOM     10  C   UNL d   1      19.739 -20.193   0.264  0.00  0.00    -0.007 C 
ATOM     11  C   UNL d   1      18.961 -19.613  -0.895  0.00  0.00     0.011 C 
BRANCH  10  12
ATOM     12  C   UNL d   1      18.764 -20.337   1.462  0.00  0.00    -0.019 C 
ATOM     13  C   UNL d   1      17.872 -21.580   1.297  0.00  0.00     0.010 C 
ATOM     14  C   UNL d   1      19.519 -20.448   2.783  0.00  0.00     0.010 C 
ENDBRANCH  10  12
ENDBRANCH   9  10
ENDBRANCH   6   9
ENDBRANCH   3   5
BRANCH   1  15
ATOM     15  C   UNL d   1      26.217 -16.694  -1.305  0.00  0.00     0.066 A 
ATOM     16  C   UNL d   1      27.554 -17.051  -1.097  0.00  0.00     0.020 A 
ATOM     17  C   UNL d   1      28.563 -16.539  -1.902  0.00  0.00     0.008 A 
ATOM     18  C   UNL d   1      28.254 -15.661  -2.939  0.00  0.00    -0.059 A 
ATOM     19  C   UNL d   1      29.328 -15.124  -3.831  0.00  0.00     0.048 C 
ATOM     20  C   UNL d   1      26.922 -15.282  -3.145  0.00  0.00     0.044 A 
ATOM     21  C   UNL d   1      25.908 -15.785  -2.331  0.00  0.00     0.082 A 
BRANCH  21  22
ATOM     22  O   UNL d   1      24.647 -15.330  -2.619  0.00  0.00    -0.360 OA
ATOM     23  H   UNL d   1      24.151 -15.218  -1.781  0.00  0.00     0.217 HD
ENDBRANCH  21  22
ENDBRANCH   1  15
TORSDOF 6
ENDMDL
MODEL 3
REMARK VINA RESULT:    -7.173      1.240      1.683
REMARK INTER + INTRA:         -11.014
REMARK INTER:                  -8.962
REMARK INTRA:                  -2.051
REMARK CONF_INDEPENDENT:        1.790
REMARK UNBOUND:                -2.051
REMARK  6 active torsions:
REMARK  status: ('A' for Active; 'I' for Inactive)
REMARK    1  A    between atoms: C_5  and  C_6 
REMARK       I    between atoms: C_6  and  N_8 
REMARK    2  A    between atoms: N_8  and  N_9 
REMARK       I    between atoms: N_9  and  C_10 
REMARK    3  A    between atoms: C_10  and  C_12 
REMARK    4  A    between atoms: C_13  and  C_12 
REMARK    5  A    between atoms: C_13  and  C_15 
REMARK    6  A    between atoms: C_18  and  O_19 
ROOT
ATOM      1  C   UNL d   1      22.549 -18.555  -1.079  0.00  0.00     0.272 C 
ATOM      2  O   UNL d   1      22.853 -19.088  -2.161  0.00  0.00    -0.266 OA
ATOM      3  N   UNL d   1      23.274 -17.487  -0.540  0.00  0.00    -0.263 N 
ATOM      4  H   UNL d   1      23.183 -17.074   0.381  0.00  0.00     0.190 HD
ENDROOT
BRANCH   3   5
ATOM      5  N   UNL d   1      24.368 -17.085  -1.271  0.00  0.00    -0.267 N 
ATOM      6  C   UNL d   1      25.628 -16.883  -0.765  0.00  0.00     0.236 C 
ATOM      7  O   UNL d   1      25.856 -17.013   0.439  0.00  0.00    -0.272 OA
ATOM      8  H   UNL d   1      24.210 -17.412  -2.204  0.00  0.00     0.190 HD
BRANCH   6   9
ATOM      9  C   UNL d   1      26.766 -16.454  -1.743  0.00  0.00     0.109 C 
BRANCH   9  10
ATOM     10  C   UNL d   1      26.772 -15.097  -2.528  0.00  0.00    -0.007 C 
ATOM     11  C   UNL d   1      26.190 -13.943  -1.742  0.00  0.00     0.011 C 
BRANCH  10  12
ATOM     12  C   UNL d   1      26.022 -15.169  -3.884  0.00  0.00    -0.019 C 
ATOM     13  C   UNL d   1      24.927 -14.091  -3.964  0.00  0.00     0.010 C 
ATOM     14  C   UNL d   1      26.978 -14.984  -5.059  0.00  0.00     0.010 C 
ENDBRANCH  10  12
ENDBRANCH   9  10
ENDBRANCH   6   9
ENDBRANCH   3   5
BRANCH   1  15
ATOM     15  C   UNL d   1      21.388 -19.065  -0.324  0.00  0.00     0.066 A 
ATOM     16  C   UNL d   1      21.392 -18.950   1.070  0.00  0.00     0.020 A 
ATOM     17  C   UNL d   1      20.307 -19.377   1.825  0.00  0.00     0.008 A 
ATOM     18  C   UNL d   1      19.190 -19.924   1.198  0.00  0.00    -0.059 A 
ATOM     19  C   UNL d   1      18.003 -20.361   1.996  0.00  0.00     0.048 C 
ATOM     20  C   UNL d   1      19.181 -20.061  -0.196  0.00  0.00     0.044 A 
ATOM     21  C   UNL d   1      20.274 -19.644  -0.955  0.00  0.00     0.082 A 
BRANCH  21  22
ATOM     22  O   UNL d   1      20.157 -19.843  -2.307  0.00  0.00    -0.360 OA
ATOM     23  H   UNL d   1      21.041 -19.750  -2.719  0.00  0.00     0.217 HD
ENDBRANCH  21  22
ENDBRANCH   1  15
TORSDOF 6
ENDMDL
MODEL 4
REMARK VINA RESULT:    -7.070      1.297      7.930
REMARK INTER + INTRA:         -10.575
REMARK INTER:                  -8.860
REMARK INTRA:                  -1.714
REMARK CONF_INDEPENDENT:        1.790
REMARK UNBOUND:                -1.714
REMARK  6 active torsions:
REMARK  status: ('A' for Active; 'I' for Inactive)
REMARK    1  A    between atoms: C_5  and  C_6 
REMARK       I    between atoms: C_6  and  N_8 
REMARK    2  A    between atoms: N_8  and  N_9 
REMARK       I    between atoms: N_9  and  C_10 
REMARK    3  A    between atoms: C_10  and  C_12 
REMARK    4  A    between atoms: C_13  and  C_12 
REMARK    5  A    between atoms: C_13  and  C_15 
REMARK    6  A    between atoms: C_18  and  O_19 
ROOT
ATOM      1  C   UNL d   1      24.201 -17.620  -0.076  0.00  0.00     0.272 C 
ATOM      2  O   UNL d   1      24.017 -18.238   0.987  0.00  0.00    -0.266 OA
ATOM      3  N   UNL d   1      23.150 -17.256  -0.924  0.00  0.00    -0.263 N 
ATOM      4  H   UNL d   1      23.209 -16.868  -1.858  0.00  0.00     0.190 HD
ENDROOT
BRANCH   3   5
ATOM      5  N   UNL d   1      21.897 -17.657  -0.519  0.00  0.00    -0.267 N 
ATOM      6  C   UNL d   1      21.181 -18.692  -1.068  0.00  0.00     0.236 C 
ATOM      7  O   UNL d   1      21.619 -19.325  -2.031  0.00  0.00    -0.272 OA
ATOM      8  H   UNL d   1      21.830 -17.410   0.448  0.00  0.00     0.190 HD
BRANCH   6   9
ATOM      9  C   UNL d   1      19.782 -19.033  -0.468  0.00  0.00     0.109 C 
BRANCH   9  10
ATOM     10  C   UNL d   1      19.430 -20.413   0.186  0.00  0.00    -0.007 C 
ATOM     11  C   UNL d   1      18.009 -20.860  -0.076  0.00  0.00     0.011 C 
BRANCH  10  12
ATOM     12  C   UNL d   1      19.657 -20.442   1.720  0.00  0.00    -0.019 C 
ATOM     13  C   UNL d   1      20.623 -19.325   2.153  0.00  0.00     0.010 C 
ATOM     14  C   UNL d   1      18.345 -20.277   2.480  0.00  0.00     0.010 C 
ENDBRANCH  10  12
ENDBRANCH   9  10
ENDBRANCH   6   9
ENDBRANCH   3   5
BRANCH   1  15
ATOM     15  C   UNL d   1      25.577 -17.259  -0.471  0.00  0.00     0.066 A 
ATOM     16  C   UNL d   1      25.757 -16.312  -1.485  0.00  0.00     0.020 A 
ATOM     17  C   UNL d   1      27.029 -15.906  -1.867  0.00  0.00     0.008 A 
ATOM     18  C   UNL d   1      28.152 -16.438  -1.235  0.00  0.00    -0.059 A 
ATOM     19  C   UNL d   1      29.527 -15.990  -1.616  0.00  0.00     0.048 C 
ATOM     20  C   UNL d   1      27.985 -17.401  -0.231  0.00  0.00     0.044 A 
ATOM     21  C   UNL d   1      26.709 -17.818   0.145  0.00  0.00     0.082 A 
BRANCH  21  22
ATOM     22  O   UNL d   1      26.673 -18.774   1.127  0.00  0.00    -0.360 OA
ATOM     23  H   UNL d   1      25.741 -18.920   1.394  0.00  0.00     0.217 HD
ENDBRANCH  21  22
ENDBRANCH   1  15
TORSDOF 6
ENDMDL
MODEL 5
REMARK VINA RESULT:    -7.020      1.567      8.341
REMARK INTER + INTRA:         -10.796
REMARK INTER:                  -8.810
REMARK INTRA:                  -1.986
REMARK CONF_INDEPENDENT:        1.790
REMARK UNBOUND:                -1.986
REMARK  6 active torsions:
REMARK  status: ('A' for Active; 'I' for Inactive)
REMARK    1  A    between atoms: C_5  and  C_6 
REMARK       I    between atoms: C_6  and  N_8 
REMARK    2  A    between atoms: N_8  and  N_9 
REMARK       I    between atoms: N_9  and  C_10 
REMARK    3  A    between atoms: C_10  and  C_12 
REMARK    4  A    between atoms: C_13  and  C_12 
REMARK    5  A    between atoms: C_13  and  C_15 
REMARK    6  A    between atoms: C_18  and  O_19 
ROOT
ATOM      1  C   UNL d   1      25.157 -16.626  -1.640  0.00  0.00     0.272 C 
ATOM      2  O   UNL d   1      25.843 -17.593  -1.264  0.00  0.00    -0.266 OA
ATOM      3  N   UNL d   1      23.792 -16.517  -1.355  0.00  0.00    -0.263 N 
ATOM      4  H   UNL d   1      23.131 -15.841  -1.719  0.00  0.00     0.190 HD
ENDROOT
BRANCH   3   5
ATOM      5  N   UNL d   1      23.248 -17.570  -0.656  0.00  0.00    -0.267 N 
ATOM      6  C   UNL d   1      21.917 -17.907  -0.640  0.00  0.00     0.236 C 
ATOM      7  O   UNL d   1      21.084 -17.227  -1.243  0.00  0.00    -0.272 OA
ATOM      8  H   UNL d   1      23.975 -18.253  -0.578  0.00  0.00     0.190 HD
BRANCH   6   9
ATOM      9  C   UNL d   1      21.471 -19.154   0.186  0.00  0.00     0.109 C 
BRANCH   9  10
ATOM     10  C   UNL d   1      20.257 -20.065  -0.204  0.00  0.00    -0.007 C 
ATOM     11  C   UNL d   1      19.140 -19.319  -0.898  0.00  0.00     0.011 C 
BRANCH  10  12
ATOM     12  C   UNL d   1      19.641 -20.818   1.005  0.00  0.00    -0.019 C 
ATOM     13  C   UNL d   1      19.722 -19.963   2.283  0.00  0.00     0.010 C 
ATOM     14  C   UNL d   1      18.181 -21.179   0.750  0.00  0.00     0.010 C 
ENDBRANCH  10  12
ENDBRANCH   9  10
ENDBRANCH   6   9
ENDBRANCH   3   5
BRANCH   1  15
ATOM     15  C   UNL d   1      25.796 -15.551  -2.425  0.00  0.00     0.066 A 
ATOM     16  C   UNL d   1      27.189 -15.555  -2.556  0.00  0.00     0.020 A 
ATOM     17  C   UNL d   1      27.838 -14.591  -3.317  0.00  0.00     0.008 A 
ATOM     18  C   UNL d   1      27.103 -13.604  -3.969  0.00  0.00    -0.059 A 
ATOM     19  C   UNL d   1      27.786 -12.576  -4.815  0.00  0.00     0.048 C 
ATOM     20  C   UNL d   1      25.709 -13.578  -3.831  0.00  0.00     0.044 A 
ATOM     21  C   UNL d   1      25.056 -14.537  -3.057  0.00  0.00     0.082 A 
BRANCH  21  22
ATOM     22  O   UNL d   1      23.695 -14.402  -2.984  0.00  0.00    -0.360 OA
ATOM     23  H   UNL d   1      23.321 -14.453  -3.889  0.00  0.00     0.217 HD
ENDBRANCH  21  22
ENDBRANCH   1  15
TORSDOF 6
ENDMDL
MODEL 6
REMARK VINA RESULT:    -6.925      1.972      8.324
REMARK INTER + INTRA:         -10.718
REMARK INTER:                  -8.715
REMARK INTRA:                  -2.003
REMARK CONF_INDEPENDENT:        1.790
REMARK UNBOUND:                -2.003
REMARK  6 active torsions:
REMARK  status: ('A' for Active; 'I' for Inactive)
REMARK    1  A    between atoms: C_5  and  C_6 
REMARK       I    between atoms: C_6  and  N_8 
REMARK    2  A    between atoms: N_8  and  N_9 
REMARK       I    between atoms: N_9  and  C_10 
REMARK    3  A    between atoms: C_10  and  C_12 
REMARK    4  A    between atoms: C_13  and  C_12 
REMARK    5  A    between atoms: C_13  and  C_15 
REMARK    6  A    between atoms: C_18  and  O_19 
ROOT
ATOM      1  C   UNL d   1      24.807 -15.886  -2.398  0.00  0.00     0.272 C 
ATOM      2  O   UNL d   1      23.882 -15.054  -2.396  0.00  0.00    -0.266 OA
ATOM      3  N   UNL d   1      24.677 -17.154  -1.824  0.00  0.00    -0.263 N 
ATOM      4  H   UNL d   1      25.402 -17.845  -1.666  0.00  0.00     0.190 HD
ENDROOT
BRANCH   3   5
ATOM      5  N   UNL d   1      23.465 -17.411  -1.225  0.00  0.00    -0.267 N 
ATOM      6  C   UNL d   1      23.204 -18.468  -0.387  0.00  0.00     0.236 C 
ATOM      7  O   UNL d   1      24.067 -19.313  -0.145  0.00  0.00    -0.272 OA
ATOM      8  H   UNL d   1      23.013 -16.524  -1.127  0.00  0.00     0.190 HD
BRANCH   6   9
ATOM      9  C   UNL d   1      21.777 -18.595   0.232  0.00  0.00     0.109 C 
BRANCH   9  10
ATOM     10  C   UNL d   1      20.778 -19.752  -0.117  0.00  0.00    -0.007 C 
ATOM     11  C   UNL d   1      19.660 -19.325  -1.042  0.00  0.00     0.011 C 
BRANCH  10  12
ATOM     12  C   UNL d   1      20.132 -20.405   1.133  0.00  0.00    -0.019 C 
ATOM     13  C   UNL d   1      20.279 -19.494   2.365  0.00  0.00     0.010 C 
ATOM     14  C   UNL d   1      18.651 -20.690   0.909  0.00  0.00     0.010 C 
ENDBRANCH  10  12
ENDBRANCH   9  10
ENDBRANCH   6   9
ENDBRANCH   3   5
BRANCH   1  15
ATOM     15  C   UNL d   1      26.097 -15.527  -3.020  0.00  0.00     0.066 A 
ATOM     16  C   UNL d   1      27.279 -15.853  -2.347  0.00  0.00     0.020 A 
ATOM     17  C   UNL d   1      28.519 -15.575  -2.907  0.00  0.00     0.008 A 
ATOM     18  C   UNL d   1      28.603 -14.970  -4.159  0.00  0.00    -0.059 A 
ATOM     19  C   UNL d   1      29.931 -14.691  -4.786  0.00  0.00     0.048 C 
ATOM     20  C   UNL d   1      27.426 -14.623  -4.835  0.00  0.00     0.044 A 
ATOM     21  C   UNL d   1      26.179 -14.890  -4.270  0.00  0.00     0.082 A 
BRANCH  21  22
ATOM     22  O   UNL d   1      25.101 -14.492  -5.017  0.00  0.00    -0.360 OA
ATOM     23  H   UNL d   1      24.347 -14.315  -4.417  0.00  0.00     0.217 HD
ENDBRANCH  21  22
ENDBRANCH   1  15
TORSDOF 6
ENDMDL
MODEL 7
REMARK VINA RESULT:    -6.712      5.161      8.635
REMARK INTER + INTRA:         -10.587
REMARK INTER:                  -8.502
REMARK INTRA:                  -2.086
REMARK CONF_INDEPENDENT:        1.790
REMARK UNBOUND:                -2.086
REMARK  6 active torsions:
REMARK  status: ('A' for Active; 'I' for Inactive)
REMARK    1  A    between atoms: C_5  and  C_6 
REMARK       I    between atoms: C_6  and  N_8 
REMARK    2  A    between atoms: N_8  and  N_9 
REMARK       I    between atoms: N_9  and  C_10 
REMARK    3  A    between atoms: C_10  and  C_12 
REMARK    4  A    between atoms: C_13  and  C_12 
REMARK    5  A    between atoms: C_13  and  C_15 
REMARK    6  A    between atoms: C_18  and  O_19 
ROOT
ATOM      1  C   UNL d   1      27.427 -13.839   2.406  0.00  0.00     0.272 C 
ATOM      2  O   UNL d   1      26.780 -13.105   1.638  0.00  0.00    -0.266 OA
ATOM      3  N   UNL d   1      27.835 -15.128   2.046  0.00  0.00    -0.263 N 
ATOM      4  H   UNL d   1      28.250 -15.838   2.637  0.00  0.00     0.190 HD
ENDROOT
BRANCH   3   5
ATOM      5  N   UNL d   1      27.443 -15.544   0.794  0.00  0.00    -0.267 N 
ATOM      6  C   UNL d   1      27.031 -16.815   0.476  0.00  0.00     0.236 C 
ATOM      7  O   UNL d   1      27.029 -17.711   1.321  0.00  0.00    -0.272 OA
ATOM      8  H   UNL d   1      27.083 -14.732   0.335  0.00  0.00     0.190 HD
BRANCH   6   9
ATOM      9  C   UNL d   1      26.592 -17.111  -0.993  0.00  0.00     0.109 C 
BRANCH   9  10
ATOM     10  C   UNL d   1      25.111 -17.005  -1.495  0.00  0.00    -0.007 C 
ATOM     11  C   UNL d   1      24.755 -15.639  -2.038  0.00  0.00     0.011 C 
BRANCH  10  12
ATOM     12  C   UNL d   1      24.066 -17.367  -0.407  0.00  0.00    -0.019 C 
ATOM     13  C   UNL d   1      22.824 -16.464  -0.518  0.00  0.00     0.010 C 
ATOM     14  C   UNL d   1      23.625 -18.823  -0.523  0.00  0.00     0.010 C 
ENDBRANCH  10  12
ENDBRANCH   9  10
ENDBRANCH   6   9
ENDBRANCH   3   5
BRANCH   1  15
ATOM     15  C   UNL d   1      27.777 -13.344   3.753  0.00  0.00     0.066 A 
ATOM     16  C   UNL d   1      27.778 -11.964   3.980  0.00  0.00     0.020 A 
ATOM     17  C   UNL d   1      28.060 -11.447   5.237  0.00  0.00     0.008 A 
ATOM     18  C   UNL d   1      28.339 -12.304   6.300  0.00  0.00    -0.059 A 
ATOM     19  C   UNL d   1      28.615 -11.763   7.666  0.00  0.00     0.048 C 
ATOM     20  C   UNL d   1      28.357 -13.688   6.081  0.00  0.00     0.044 A 
ATOM     21  C   UNL d   1      28.088 -14.209   4.816  0.00  0.00     0.082 A 
BRANCH  21  22
ATOM     22  O   UNL d   1      28.150 -15.575   4.720  0.00  0.00    -0.360 OA
ATOM     23  H   UNL d   1      28.924 -15.820   4.172  0.00  0.00     0.217 HD
ENDBRANCH  21  22
ENDBRANCH   1  15
TORSDOF 6
ENDMDL
MODEL 8
REMARK VINA RESULT:    -6.290      5.739      9.081
REMARK INTER + INTRA:         -10.012
REMARK INTER:                  -8.080
REMARK INTRA:                  -1.932
REMARK CONF_INDEPENDENT:        1.790
REMARK UNBOUND:                -1.932
REMARK  6 active torsions:
REMARK  status: ('A' for Active; 'I' for Inactive)
REMARK    1  A    between atoms: C_5  and  C_6 
REMARK       I    between atoms: C_6  and  N_8 
REMARK    2  A    between atoms: N_8  and  N_9 
REMARK       I    between atoms: N_9  and  C_10 
REMARK    3  A    between atoms: C_10  and  C_12 
REMARK    4  A    between atoms: C_13  and  C_12 
REMARK    5  A    between atoms: C_13  and  C_15 
REMARK    6  A    between atoms: C_18  and  O_19 
ROOT
ATOM      1  C   UNL d   1      27.952 -13.696   3.423  0.00  0.00     0.272 C 
ATOM      2  O   UNL d   1      27.168 -12.801   3.059  0.00  0.00    -0.266 OA
ATOM      3  N   UNL d   1      28.381 -14.713   2.564  0.00  0.00    -0.263 N 
ATOM      4  H   UNL d   1      28.910 -15.544   2.798  0.00  0.00     0.190 HD
ENDROOT
BRANCH   3   5
ATOM      5  N   UNL d   1      27.851 -14.677   1.294  0.00  0.00    -0.267 N 
ATOM      6  C   UNL d   1      27.359 -15.762   0.611  0.00  0.00     0.236 C 
ATOM      7  O   UNL d   1      27.406 -16.893   1.099  0.00  0.00    -0.272 OA
ATOM      8  H   UNL d   1      27.480 -13.756   1.177  0.00  0.00     0.190 HD
BRANCH   6   9
ATOM      9  C   UNL d   1      26.766 -15.540  -0.815  0.00  0.00     0.109 C 
BRANCH   9  10
ATOM     10  C   UNL d   1      25.572 -16.371  -1.399  0.00  0.00    -0.007 C 
ATOM     11  C   UNL d   1      24.739 -15.607  -2.403  0.00  0.00     0.011 C 
BRANCH  10  12
ATOM     12  C   UNL d   1      24.612 -16.916  -0.308  0.00  0.00    -0.019 C 
ATOM     13  C   UNL d   1      23.143 -16.689  -0.707  0.00  0.00     0.010 C 
ATOM     14  C   UNL d   1      24.830 -18.408  -0.071  0.00  0.00     0.010 C 
ENDBRANCH  10  12
ENDBRANCH   9  10
ENDBRANCH   6   9
ENDBRANCH   3   5
BRANCH   1  15
ATOM     15  C   UNL d   1      28.447 -13.698   4.814  0.00  0.00     0.066 A 
ATOM     16  C   UNL d   1      27.758 -12.946   5.772  0.00  0.00     0.020 A 
ATOM     17  C   UNL d   1      28.158 -12.946   7.101  0.00  0.00     0.008 A 
ATOM     18  C   UNL d   1      29.254 -13.705   7.503  0.00  0.00    -0.059 A 
ATOM     19  C   UNL d   1      29.679 -13.736   8.937  0.00  0.00     0.048 C 
ATOM     20  C   UNL d   1      29.963 -14.448   6.550  0.00  0.00     0.044 A 
ATOM     21  C   UNL d   1      29.572 -14.440   5.212  0.00  0.00     0.082 A 
BRANCH  21  22
ATOM     22  O   UNL d   1      30.350 -15.192   4.370  0.00  0.00    -0.360 OA
ATOM     23  H   UNL d   1      29.822 -15.949   4.041  0.00  0.00     0.217 HD
ENDBRANCH  21  22
ENDBRANCH   1  15
TORSDOF 6
ENDMDL
MODEL 9
REMARK VINA RESULT:    -6.207      5.618      9.956
REMARK INTER + INTRA:         -10.003
REMARK INTER:                  -7.997
REMARK INTRA:                  -2.007
REMARK CONF_INDEPENDENT:        1.790
REMARK UNBOUND:                -2.007
REMARK  6 active torsions:
REMARK  status: ('A' for Active; 'I' for Inactive)
REMARK    1  A    between atoms: C_5  and  C_6 
REMARK       I    between atoms: C_6  and  N_8 
REMARK    2  A    between atoms: N_8  and  N_9 
REMARK       I    between atoms: N_9  and  C_10 
REMARK    3  A    between atoms: C_10  and  C_12 
REMARK    4  A    between atoms: C_13  and  C_12 
REMARK    5  A    between atoms: C_13  and  C_15 
REMARK    6  A    between atoms: C_18  and  O_19 
ROOT
ATOM      1  C   UNL d   1      25.766 -11.174  -3.504  0.00  0.00     0.272 C 
ATOM      2  O   UNL d   1      26.438 -11.122  -2.458  0.00  0.00    -0.266 OA
ATOM      3  N   UNL d   1      25.225 -12.368  -3.989  0.00  0.00    -0.263 N 
ATOM      4  H   UNL d   1      24.777 -12.531  -4.884  0.00  0.00     0.190 HD
ENDROOT
BRANCH   3   5
ATOM      5  N   UNL d   1      25.512 -13.493  -3.249  0.00  0.00    -0.267 N 
ATOM      6  C   UNL d   1      25.494 -14.780  -3.726  0.00  0.00     0.236 C 
ATOM      7  O   UNL d   1      25.161 -15.021  -4.888  0.00  0.00    -0.272 OA
ATOM      8  H   UNL d   1      26.141 -13.195  -2.531  0.00  0.00     0.190 HD
BRANCH   6   9
ATOM      9  C   UNL d   1      25.876 -15.941  -2.755  0.00  0.00     0.109 C 
BRANCH   9  10
ATOM     10  C   UNL d   1      25.329 -16.065  -1.292  0.00  0.00    -0.007 C 
ATOM     11  C   UNL d   1      26.344 -15.689  -0.235  0.00  0.00     0.011 C 
BRANCH  10  12
ATOM     12  C   UNL d   1      24.799 -17.483  -0.952  0.00  0.00    -0.019 C 
ATOM     13  C   UNL d   1      25.588 -18.098   0.218  0.00  0.00     0.010 C 
ATOM     14  C   UNL d   1      23.320 -17.449  -0.580  0.00  0.00     0.010 C 
ENDBRANCH  10  12
ENDBRANCH   9  10
ENDBRANCH   6   9
ENDBRANCH   3   5
BRANCH   1  15
ATOM     15  C   UNL d   1      25.533  -9.935  -4.272  0.00  0.00     0.066 A 
ATOM     16  C   UNL d   1      25.567  -8.711  -3.597  0.00  0.00     0.020 A 
ATOM     17  C   UNL d   1      25.395  -7.513  -4.279  0.00  0.00     0.008 A 
ATOM     18  C   UNL d   1      25.192  -7.516  -5.657  0.00  0.00    -0.059 A 
ATOM     19  C   UNL d   1      25.033  -6.233  -6.409  0.00  0.00     0.048 C 
ATOM     20  C   UNL d   1      25.138  -8.737  -6.342  0.00  0.00     0.044 A 
ATOM     21  C   UNL d   1      25.298  -9.941  -5.658  0.00  0.00     0.082 A 
BRANCH  21  22
ATOM     22  O   UNL d   1      25.211 -11.069  -6.431  0.00  0.00    -0.360 OA
ATOM     23  H   UNL d   1      24.423 -11.583  -6.156  0.00  0.00     0.217 HD
ENDBRANCH  21  22
ENDBRANCH   1  15
TORSDOF 6
ENDMDL
