MODEL 1
REMARK VINA RESULT:    -6.919      0.000      0.000
REMARK INTER + INTRA:          -9.330
REMARK INTER:                  -8.113
REMARK INTRA:                  -1.217
REMARK CONF_INDEPENDENT:        1.193
REMARK UNBOUND:                -1.217
REMARK  4 active torsions:
REMARK  status: ('A' for Active; 'I' for Inactive)
REMARK    1  A    between atoms: C_6  and  N_7 
REMARK    2  A    between atoms: N_7  and  C_8 
REMARK    3  A    between atoms: C_8  and  C_10 
REMARK       I    between atoms: C_10  and  N_12 
REMARK    4  A    between atoms: N_12  and  C_13 
ROOT
ATOM      1  C   UNL d   1      26.461 -15.195  -4.556  0.00  0.00     0.244 C 
ATOM      2  O   UNL d   1      26.114 -15.935  -5.488  0.00  0.00    -0.271 OA
ATOM      3  N   UNL d   1      27.785 -15.004  -4.152  0.00  0.00    -0.324 N 
ATOM      4  H   UNL d   1      27.958 -14.686  -3.207  0.00  0.00     0.169 HD
ENDROOT
BRANCH   1   5
ATOM      5  C   UNL d   1      25.395 -14.428  -3.742  0.00  0.00     0.170 C 
ATOM      6  C   UNL d   1      25.530 -12.956  -4.128  0.00  0.00     0.042 C 
BRANCH   5   7
ATOM      7  N   UNL d   1      25.635 -14.634  -2.301  0.00  0.00    -0.377 N 
ATOM      8  H   UNL d   1      25.926 -13.801  -1.787  0.00  0.00     0.160 HD
BRANCH   7   9
ATOM      9  C   UNL d   1      25.467 -15.827  -1.631  0.00  0.00     0.029 A 
ATOM     10  C   UNL d   1      26.504 -16.385  -0.876  0.00  0.00     0.029 A 
ATOM     11  C   UNL d   1      26.311 -17.572  -0.152  0.00  0.00     0.003 A 
ATOM     12  C   UNL d   1      25.065 -18.200  -0.140  0.00  0.00     0.007 A 
ATOM     13  C   UNL d   1      24.017 -17.662  -0.878  0.00  0.00    -0.060 A 
ATOM     14  C   UNL d   1      22.638 -18.244  -0.872  0.00  0.00     0.048 C 
ATOM     15  C   UNL d   1      24.252 -16.517  -1.644  0.00  0.00     0.036 A 
ENDBRANCH   7   9
ENDBRANCH   5   7
ENDBRANCH   1   5
BRANCH   3  16
ATOM     16  C   UNL d   1      28.876 -15.604  -4.834  0.00  0.00     0.046 A 
ATOM     17  C   UNL d   1      29.203 -15.201  -6.144  0.00  0.00    -0.035 A 
ATOM     18  C   UNL d   1      28.508 -14.073  -6.860  0.00  0.00     0.050 C 
ATOM     19  C   UNL d   1      30.249 -15.844  -6.824  0.00  0.00     0.009 A 
ATOM     20  C   UNL d   1      30.983 -16.857  -6.216  0.00  0.00     0.001 A 
ATOM     21  C   UNL d   1      30.690 -17.228  -4.907  0.00  0.00     0.009 A 
ATOM     22  C   UNL d   1      29.655 -16.597  -4.192  0.00  0.00    -0.035 A 
ATOM     23  C   UNL d   1      29.375 -17.065  -2.790  0.00  0.00     0.050 C 
ENDBRANCH   3  16
TORSDOF 4
ENDMDL
MODEL 2
REMARK VINA RESULT:    -6.798      0.090      1.905
REMARK INTER + INTRA:          -9.198
REMARK INTER:                  -7.991
REMARK INTRA:                  -1.207
REMARK CONF_INDEPENDENT:        1.193
REMARK UNBOUND:                -1.207
REMARK  4 active torsions:
REMARK  status: ('A' for Active; 'I' for Inactive)
REMARK    1  A    between atoms: C_6  and  N_7 
REMARK    2  A    between atoms: N_7  and  C_8 
REMARK    3  A    between atoms: C_8  and  C_10 
REMARK       I    between atoms: C_10  and  N_12 
REMARK    4  A    between atoms: N_12  and  C_13 
ROOT
ATOM      1  C   UNL d   1      26.450 -15.172  -4.511  0.00  0.00     0.244 C 
ATOM      2  O   UNL d   1      26.105 -15.950  -5.413  0.00  0.00    -0.271 OA
ATOM      3  N   UNL d   1      27.776 -14.942  -4.134  0.00  0.00    -0.324 N 
ATOM      4  H   UNL d   1      27.955 -14.590  -3.202  0.00  0.00     0.169 HD
ENDROOT
BRANCH   1   5
ATOM      5  C   UNL d   1      25.381 -14.400  -3.707  0.00  0.00     0.170 C 
ATOM      6  C   UNL d   1      25.528 -12.928  -4.089  0.00  0.00     0.042 C 
BRANCH   5   7
ATOM      7  N   UNL d   1      25.605 -14.609  -2.264  0.00  0.00    -0.377 N 
ATOM      8  H   UNL d   1      25.870 -13.773  -1.741  0.00  0.00     0.160 HD
BRANCH   7   9
ATOM      9  C   UNL d   1      25.454 -15.810  -1.603  0.00  0.00     0.029 A 
ATOM     10  C   UNL d   1      26.498 -16.358  -0.851  0.00  0.00     0.029 A 
ATOM     11  C   UNL d   1      26.323 -17.553  -0.136  0.00  0.00     0.003 A 
ATOM     12  C   UNL d   1      25.086 -18.201  -0.131  0.00  0.00     0.007 A 
ATOM     13  C   UNL d   1      24.032 -17.673  -0.867  0.00  0.00    -0.060 A 
ATOM     14  C   UNL d   1      22.662 -18.276  -0.868  0.00  0.00     0.048 C 
ATOM     15  C   UNL d   1      24.249 -16.519  -1.624  0.00  0.00     0.036 A 
ENDBRANCH   7   9
ENDBRANCH   5   7
ENDBRANCH   1   5
BRANCH   3  16
ATOM     16  C   UNL d   1      28.868 -15.543  -4.811  0.00  0.00     0.046 A 
ATOM     17  C   UNL d   1      29.645 -16.530  -4.171  0.00  0.00    -0.035 A 
ATOM     18  C   UNL d   1      29.327 -17.075  -2.804  0.00  0.00     0.050 C 
ATOM     19  C   UNL d   1      30.756 -17.074  -4.836  0.00  0.00     0.009 A 
ATOM     20  C   UNL d   1      31.087 -16.671  -6.125  0.00  0.00     0.001 A 
ATOM     21  C   UNL d   1      30.297 -15.728  -6.776  0.00  0.00     0.009 A 
ATOM     22  C   UNL d   1      29.169 -15.170  -6.144  0.00  0.00    -0.035 A 
ATOM     23  C   UNL d   1      28.375 -14.137  -6.895  0.00  0.00     0.050 C 
ENDBRANCH   3  16
TORSDOF 4
ENDMDL
MODEL 3
REMARK VINA RESULT:    -6.468      1.633      3.305
REMARK INTER + INTRA:          -8.872
REMARK INTER:                  -7.661
REMARK INTRA:                  -1.212
REMARK CONF_INDEPENDENT:        1.193
REMARK UNBOUND:                -1.212
REMARK  4 active torsions:
REMARK  status: ('A' for Active; 'I' for Inactive)
REMARK    1  A    between atoms: C_6  and  N_7 
REMARK    2  A    between atoms: N_7  and  C_8 
REMARK    3  A    between atoms: C_8  and  C_10 
REMARK       I    between atoms: C_10  and  N_12 
REMARK    4  A    between atoms: N_12  and  C_13 
ROOT
ATOM      1  C   UNL d   1      26.502 -14.599  -4.543  0.00  0.00     0.244 C 
ATOM      2  O   UNL d   1      26.333 -15.440  -5.437  0.00  0.00    -0.271 OA
ATOM      3  N   UNL d   1      27.141 -13.369  -4.727  0.00  0.00    -0.324 N 
ATOM      4  H   UNL d   1      27.544 -12.912  -3.920  0.00  0.00     0.169 HD
ENDROOT
BRANCH   1   5
ATOM      5  C   UNL d   1      26.012 -14.890  -3.107  0.00  0.00     0.170 C 
ATOM      6  C   UNL d   1      27.206 -14.655  -2.184  0.00  0.00     0.042 C 
BRANCH   5   7
ATOM      7  N   UNL d   1      25.530 -16.283  -3.026  0.00  0.00    -0.377 N 
ATOM      8  H   UNL d   1      25.443 -16.764  -3.922  0.00  0.00     0.160 HD
BRANCH   7   9
ATOM      9  C   UNL d   1      25.235 -16.953  -1.858  0.00  0.00     0.029 A 
ATOM     10  C   UNL d   1      26.212 -17.172  -0.882  0.00  0.00     0.029 A 
ATOM     11  C   UNL d   1      25.894 -17.808   0.328  0.00  0.00     0.003 A 
ATOM     12  C   UNL d   1      24.582 -18.200   0.599  0.00  0.00     0.007 A 
ATOM     13  C   UNL d   1      23.592 -17.989  -0.353  0.00  0.00    -0.060 A 
ATOM     14  C   UNL d   1      22.153 -18.330  -0.117  0.00  0.00     0.048 C 
ATOM     15  C   UNL d   1      23.945 -17.415  -1.577  0.00  0.00     0.036 A 
ENDBRANCH   7   9
ENDBRANCH   5   7
ENDBRANCH   1   5
BRANCH   3  16
ATOM     16  C   UNL d   1      27.602 -12.943  -6.000  0.00  0.00     0.046 A 
ATOM     17  C   UNL d   1      28.618 -13.660  -6.664  0.00  0.00    -0.035 A 
ATOM     18  C   UNL d   1      29.202 -14.945  -6.139  0.00  0.00     0.050 C 
ATOM     19  C   UNL d   1      29.101 -13.193  -7.897  0.00  0.00     0.009 A 
ATOM     20  C   UNL d   1      28.577 -12.045  -8.483  0.00  0.00     0.001 A 
ATOM     21  C   UNL d   1      27.544 -11.359  -7.850  0.00  0.00     0.009 A 
ATOM     22  C   UNL d   1      27.028 -11.807  -6.619  0.00  0.00    -0.035 A 
ATOM     23  C   UNL d   1      25.930 -11.002  -5.978  0.00  0.00     0.050 C 
ENDBRANCH   3  16
TORSDOF 4
ENDMDL
MODEL 4
REMARK VINA RESULT:    -6.461      5.599      7.797
REMARK INTER + INTRA:          -8.433
REMARK INTER:                  -7.654
REMARK INTRA:                  -0.779
REMARK CONF_INDEPENDENT:        1.193
REMARK UNBOUND:                -0.779
REMARK  4 active torsions:
REMARK  status: ('A' for Active; 'I' for Inactive)
REMARK    1  A    between atoms: C_6  and  N_7 
REMARK    2  A    between atoms: N_7  and  C_8 
REMARK    3  A    between atoms: C_8  and  C_10 
REMARK       I    between atoms: C_10  and  N_12 
REMARK    4  A    between atoms: N_12  and  C_13 
ROOT
ATOM      1  C   UNL d   1      27.703 -14.446   1.492  0.00  0.00     0.244 C 
ATOM      2  O   UNL d   1      26.664 -13.783   1.620  0.00  0.00    -0.271 OA
ATOM      3  N   UNL d   1      27.808 -15.605   0.717  0.00  0.00    -0.324 N 
ATOM      4  H   UNL d   1      28.547 -16.261   0.934  0.00  0.00     0.169 HD
ENDROOT
BRANCH   1   5
ATOM      5  C   UNL d   1      28.988 -14.018   2.234  0.00  0.00     0.170 C 
ATOM      6  C   UNL d   1      30.162 -14.571   1.427  0.00  0.00     0.042 C 
BRANCH   5   7
ATOM      7  N   UNL d   1      28.970 -14.564   3.605  0.00  0.00    -0.377 N 
ATOM      8  H   UNL d   1      29.119 -15.572   3.671  0.00  0.00     0.160 HD
BRANCH   7   9
ATOM      9  C   UNL d   1      28.801 -13.820   4.753  0.00  0.00     0.029 A 
ATOM     10  C   UNL d   1      27.992 -12.679   4.764  0.00  0.00     0.029 A 
ATOM     11  C   UNL d   1      27.780 -11.956   5.948  0.00  0.00     0.003 A 
ATOM     12  C   UNL d   1      28.344 -12.386   7.151  0.00  0.00     0.007 A 
ATOM     13  C   UNL d   1      29.147 -13.519   7.167  0.00  0.00    -0.060 A 
ATOM     14  C   UNL d   1      29.740 -14.075   8.424  0.00  0.00     0.048 C 
ATOM     15  C   UNL d   1      29.397 -14.185   5.964  0.00  0.00     0.036 A 
ENDBRANCH   7   9
ENDBRANCH   5   7
ENDBRANCH   1   5
BRANCH   3  16
ATOM     16  C   UNL d   1      26.725 -16.094  -0.059  0.00  0.00     0.046 A 
ATOM     17  C   UNL d   1      26.196 -17.376   0.190  0.00  0.00    -0.035 A 
ATOM     18  C   UNL d   1      26.655 -18.256   1.323  0.00  0.00     0.050 C 
ATOM     19  C   UNL d   1      25.161 -17.866  -0.623  0.00  0.00     0.009 A 
ATOM     20  C   UNL d   1      24.636 -17.097  -1.656  0.00  0.00     0.001 A 
ATOM     21  C   UNL d   1      25.128 -15.814  -1.876  0.00  0.00     0.009 A 
ATOM     22  C   UNL d   1      26.157 -15.286  -1.073  0.00  0.00    -0.035 A 
ATOM     23  C   UNL d   1      26.659 -13.903  -1.384  0.00  0.00     0.050 C 
ENDBRANCH   3  16
TORSDOF 4
ENDMDL
MODEL 5
REMARK VINA RESULT:    -6.436      4.691      6.977
REMARK INTER + INTRA:          -8.575
REMARK INTER:                  -7.629
REMARK INTRA:                  -0.946
REMARK CONF_INDEPENDENT:        1.193
REMARK UNBOUND:                -0.946
REMARK  4 active torsions:
REMARK  status: ('A' for Active; 'I' for Inactive)
REMARK    1  A    between atoms: C_6  and  N_7 
REMARK    2  A    between atoms: N_7  and  C_8 
REMARK    3  A    between atoms: C_8  and  C_10 
REMARK       I    between atoms: C_10  and  N_12 
REMARK    4  A    between atoms: N_12  and  C_13 
ROOT
ATOM      1  C   UNL d   1      27.438 -14.758   0.649  0.00  0.00     0.244 C 
ATOM      2  O   UNL d   1      26.435 -14.118   0.996  0.00  0.00    -0.271 OA
ATOM      3  N   UNL d   1      27.399 -15.999   0.008  0.00  0.00    -0.324 N 
ATOM      4  H   UNL d   1      28.211 -16.600   0.074  0.00  0.00     0.169 HD
ENDROOT
BRANCH   1   5
ATOM      5  C   UNL d   1      28.849 -14.200   0.942  0.00  0.00     0.170 C 
ATOM      6  C   UNL d   1      29.771 -14.759  -0.140  0.00  0.00     0.042 C 
BRANCH   5   7
ATOM      7  N   UNL d   1      29.276 -14.626   2.289  0.00  0.00    -0.377 N 
ATOM      8  H   UNL d   1      29.971 -15.373   2.307  0.00  0.00     0.160 HD
BRANCH   7   9
ATOM      9  C   UNL d   1      28.833 -14.075   3.473  0.00  0.00     0.029 A 
ATOM     10  C   UNL d   1      28.807 -14.824   4.654  0.00  0.00     0.029 A 
ATOM     11  C   UNL d   1      28.406 -14.244   5.867  0.00  0.00     0.003 A 
ATOM     12  C   UNL d   1      28.060 -12.893   5.927  0.00  0.00     0.007 A 
ATOM     13  C   UNL d   1      28.082 -12.127   4.767  0.00  0.00    -0.060 A 
ATOM     14  C   UNL d   1      27.780 -10.660   4.758  0.00  0.00     0.048 C 
ATOM     15  C   UNL d   1      28.421 -12.742   3.559  0.00  0.00     0.036 A 
ENDBRANCH   7   9
ENDBRANCH   5   7
ENDBRANCH   1   5
BRANCH   3  16
ATOM     16  C   UNL d   1      26.177 -16.615  -0.369  0.00  0.00     0.046 A 
ATOM     17  C   UNL d   1      25.339 -16.004  -1.324  0.00  0.00    -0.035 A 
ATOM     18  C   UNL d   1      25.709 -14.747  -2.066  0.00  0.00     0.050 C 
ATOM     19  C   UNL d   1      24.108 -16.599  -1.644  0.00  0.00     0.009 A 
ATOM     20  C   UNL d   1      23.713 -17.793  -1.049  0.00  0.00     0.001 A 
ATOM     21  C   UNL d   1      24.557 -18.420  -0.138  0.00  0.00     0.009 A 
ATOM     22  C   UNL d   1      25.804 -17.858   0.197  0.00  0.00    -0.035 A 
ATOM     23  C   UNL d   1      26.655 -18.575   1.210  0.00  0.00     0.050 C 
ENDBRANCH   3  16
TORSDOF 4
ENDMDL
MODEL 6
REMARK VINA RESULT:    -6.377      2.026      3.964
REMARK INTER + INTRA:          -8.931
REMARK INTER:                  -7.570
REMARK INTRA:                  -1.361
REMARK CONF_INDEPENDENT:        1.193
REMARK UNBOUND:                -1.361
REMARK  4 active torsions:
REMARK  status: ('A' for Active; 'I' for Inactive)
REMARK    1  A    between atoms: C_6  and  N_7 
REMARK    2  A    between atoms: N_7  and  C_8 
REMARK    3  A    between atoms: C_8  and  C_10 
REMARK       I    between atoms: C_10  and  N_12 
REMARK    4  A    between atoms: N_12  and  C_13 
ROOT
ATOM      1  C   UNL d   1      26.015 -14.185  -3.912  0.00  0.00     0.244 C 
ATOM      2  O   UNL d   1      25.146 -14.455  -4.754  0.00  0.00    -0.271 OA
ATOM      3  N   UNL d   1      26.907 -13.114  -4.014  0.00  0.00    -0.324 N 
ATOM      4  H   UNL d   1      27.777 -13.164  -3.500  0.00  0.00     0.169 HD
ENDROOT
BRANCH   1   5
ATOM      5  C   UNL d   1      26.177 -15.075  -2.660  0.00  0.00     0.170 C 
ATOM      6  C   UNL d   1      27.621 -15.576  -2.666  0.00  0.00     0.042 C 
BRANCH   5   7
ATOM      7  N   UNL d   1      25.217 -16.194  -2.725  0.00  0.00    -0.377 N 
ATOM      8  H   UNL d   1      24.808 -16.361  -3.645  0.00  0.00     0.160 HD
BRANCH   7   9
ATOM      9  C   UNL d   1      24.878 -17.011  -1.668  0.00  0.00     0.029 A 
ATOM     10  C   UNL d   1      25.736 -17.175  -0.575  0.00  0.00     0.029 A 
ATOM     11  C   UNL d   1      25.364 -17.965   0.523  0.00  0.00     0.003 A 
ATOM     12  C   UNL d   1      24.109 -18.575   0.564  0.00  0.00     0.007 A 
ATOM     13  C   UNL d   1      23.236 -18.424  -0.507  0.00  0.00    -0.060 A 
ATOM     14  C   UNL d   1      21.854 -18.998  -0.514  0.00  0.00     0.048 C 
ATOM     15  C   UNL d   1      23.655 -17.687  -1.618  0.00  0.00     0.036 A 
ENDBRANCH   7   9
ENDBRANCH   5   7
ENDBRANCH   1   5
BRANCH   3  16
ATOM     16  C   UNL d   1      26.848 -12.183  -5.084  0.00  0.00     0.046 A 
ATOM     17  C   UNL d   1      26.158 -10.964  -4.926  0.00  0.00    -0.035 A 
ATOM     18  C   UNL d   1      25.537 -10.526  -3.626  0.00  0.00     0.050 C 
ATOM     19  C   UNL d   1      26.063 -10.079  -6.012  0.00  0.00     0.009 A 
ATOM     20  C   UNL d   1      26.658 -10.377  -7.234  0.00  0.00     0.001 A 
ATOM     21  C   UNL d   1      27.375 -11.560  -7.379  0.00  0.00     0.009 A 
ATOM     22  C   UNL d   1      27.501 -12.465  -6.307  0.00  0.00    -0.035 A 
ATOM     23  C   UNL d   1      28.268 -13.738  -6.542  0.00  0.00     0.050 C 
ENDBRANCH   3  16
TORSDOF 4
ENDMDL
MODEL 7
REMARK VINA RESULT:    -6.329      1.463      6.123
REMARK INTER + INTRA:          -8.597
REMARK INTER:                  -7.522
REMARK INTRA:                  -1.075
REMARK CONF_INDEPENDENT:        1.193
REMARK UNBOUND:                -1.075
REMARK  4 active torsions:
REMARK  status: ('A' for Active; 'I' for Inactive)
REMARK    1  A    between atoms: C_6  and  N_7 
REMARK    2  A    between atoms: N_7  and  C_8 
REMARK    3  A    between atoms: C_8  and  C_10 
REMARK       I    between atoms: C_10  and  N_12 
REMARK    4  A    between atoms: N_12  and  C_13 
ROOT
ATOM      1  C   UNL d   1      27.650 -14.920  -5.032  0.00  0.00     0.244 C 
ATOM      2  O   UNL d   1      26.788 -15.573  -5.637  0.00  0.00    -0.271 OA
ATOM      3  N   UNL d   1      27.663 -14.723  -3.648  0.00  0.00    -0.324 N 
ATOM      4  H   UNL d   1      28.164 -13.924  -3.282  0.00  0.00     0.169 HD
ENDROOT
BRANCH   1   5
ATOM      5  C   UNL d   1      28.796 -14.242  -5.815  0.00  0.00     0.170 C 
ATOM      6  C   UNL d   1      28.148 -13.168  -6.688  0.00  0.00     0.042 C 
BRANCH   5   7
ATOM      7  N   UNL d   1      29.497 -15.251  -6.631  0.00  0.00    -0.377 N 
ATOM      8  H   UNL d   1      29.606 -15.012  -7.618  0.00  0.00     0.160 HD
BRANCH   7   9
ATOM      9  C   UNL d   1      30.020 -16.434  -6.154  0.00  0.00     0.029 A 
ATOM     10  C   UNL d   1      30.147 -16.667  -4.781  0.00  0.00     0.029 A 
ATOM     11  C   UNL d   1      30.630 -17.893  -4.298  0.00  0.00     0.003 A 
ATOM     12  C   UNL d   1      30.957 -18.923  -5.182  0.00  0.00     0.007 A 
ATOM     13  C   UNL d   1      30.835 -18.718  -6.551  0.00  0.00    -0.060 A 
ATOM     14  C   UNL d   1      31.112 -19.789  -7.560  0.00  0.00     0.048 C 
ATOM     15  C   UNL d   1      30.415 -17.466  -7.010  0.00  0.00     0.036 A 
ENDBRANCH   7   9
ENDBRANCH   5   7
ENDBRANCH   1   5
BRANCH   3  16
ATOM     16  C   UNL d   1      26.703 -15.323  -2.792  0.00  0.00     0.046 A 
ATOM     17  C   UNL d   1      27.097 -16.308  -1.863  0.00  0.00    -0.035 A 
ATOM     18  C   UNL d   1      28.531 -16.713  -1.645  0.00  0.00     0.050 C 
ATOM     19  C   UNL d   1      26.126 -16.931  -1.063  0.00  0.00     0.009 A 
ATOM     20  C   UNL d   1      24.784 -16.575  -1.157  0.00  0.00     0.001 A 
ATOM     21  C   UNL d   1      24.398 -15.574  -2.043  0.00  0.00     0.009 A 
ATOM     22  C   UNL d   1      25.347 -14.920  -2.852  0.00  0.00    -0.035 A 
ATOM     23  C   UNL d   1      24.857 -13.865  -3.806  0.00  0.00     0.050 C 
ENDBRANCH   3  16
TORSDOF 4
ENDMDL
MODEL 8
REMARK VINA RESULT:    -6.308      1.463      5.895
REMARK INTER + INTRA:          -8.540
REMARK INTER:                  -7.501
REMARK INTRA:                  -1.039
REMARK CONF_INDEPENDENT:        1.193
REMARK UNBOUND:                -1.039
REMARK  4 active torsions:
REMARK  status: ('A' for Active; 'I' for Inactive)
REMARK    1  A    between atoms: C_6  and  N_7 
REMARK    2  A    between atoms: N_7  and  C_8 
REMARK    3  A    between atoms: C_8  and  C_10 
REMARK       I    between atoms: C_10  and  N_12 
REMARK    4  A    between atoms: N_12  and  C_13 
ROOT
ATOM      1  C   UNL d   1      27.656 -14.934  -5.037  0.00  0.00     0.244 C 
ATOM      2  O   UNL d   1      26.789 -15.575  -5.649  0.00  0.00    -0.271 OA
ATOM      3  N   UNL d   1      27.670 -14.751  -3.652  0.00  0.00    -0.324 N 
ATOM      4  H   UNL d   1      28.177 -13.959  -3.278  0.00  0.00     0.169 HD
ENDROOT
BRANCH   1   5
ATOM      5  C   UNL d   1      28.806 -14.257  -5.814  0.00  0.00     0.170 C 
ATOM      6  C   UNL d   1      28.166 -13.174  -6.683  0.00  0.00     0.042 C 
BRANCH   5   7
ATOM      7  N   UNL d   1      29.505 -15.265  -6.635  0.00  0.00    -0.377 N 
ATOM      8  H   UNL d   1      29.610 -15.024  -7.621  0.00  0.00     0.160 HD
BRANCH   7   9
ATOM      9  C   UNL d   1      30.030 -16.448  -6.161  0.00  0.00     0.029 A 
ATOM     10  C   UNL d   1      30.166 -16.681  -4.789  0.00  0.00     0.029 A 
ATOM     11  C   UNL d   1      30.651 -17.908  -4.309  0.00  0.00     0.003 A 
ATOM     12  C   UNL d   1      30.973 -18.937  -5.196  0.00  0.00     0.007 A 
ATOM     13  C   UNL d   1      30.842 -18.732  -6.564  0.00  0.00    -0.060 A 
ATOM     14  C   UNL d   1      31.112 -19.803  -7.575  0.00  0.00     0.048 C 
ATOM     15  C   UNL d   1      30.420 -17.480  -7.020  0.00  0.00     0.036 A 
ENDBRANCH   7   9
ENDBRANCH   5   7
ENDBRANCH   1   5
BRANCH   3  16
ATOM     16  C   UNL d   1      26.706 -15.352  -2.802  0.00  0.00     0.046 A 
ATOM     17  C   UNL d   1      25.345 -14.999  -2.910  0.00  0.00    -0.035 A 
ATOM     18  C   UNL d   1      24.814 -14.064  -3.964  0.00  0.00     0.050 C 
ATOM     19  C   UNL d   1      24.413 -15.563  -2.024  0.00  0.00     0.009 A 
ATOM     20  C   UNL d   1      24.808 -16.481  -1.056  0.00  0.00     0.001 A 
ATOM     21  C   UNL d   1      26.143 -16.863  -0.975  0.00  0.00     0.009 A 
ATOM     22  C   UNL d   1      27.103 -16.327  -1.855  0.00  0.00    -0.035 A 
ATOM     23  C   UNL d   1      28.534 -16.764  -1.694  0.00  0.00     0.050 C 
ENDBRANCH   3  16
TORSDOF 4
ENDMDL
MODEL 9
REMARK VINA RESULT:    -6.026      2.299      4.174
REMARK INTER + INTRA:          -8.508
REMARK INTER:                  -7.219
REMARK INTRA:                  -1.289
REMARK CONF_INDEPENDENT:        1.193
REMARK UNBOUND:                -1.289
REMARK  4 active torsions:
REMARK  status: ('A' for Active; 'I' for Inactive)
REMARK    1  A    between atoms: C_6  and  N_7 
REMARK    2  A    between atoms: N_7  and  C_8 
REMARK    3  A    between atoms: C_8  and  C_10 
REMARK       I    between atoms: C_10  and  N_12 
REMARK    4  A    between atoms: N_12  and  C_13 
ROOT
ATOM      1  C   UNL d   1      25.532 -13.628  -3.794  0.00  0.00     0.244 C 
ATOM      2  O   UNL d   1      24.794 -14.027  -4.706  0.00  0.00    -0.271 OA
ATOM      3  N   UNL d   1      26.498 -12.629  -3.941  0.00  0.00    -0.324 N 
ATOM      4  H   UNL d   1      27.269 -12.606  -3.286  0.00  0.00     0.169 HD
ENDROOT
BRANCH   1   5
ATOM      5  C   UNL d   1      25.430 -14.259  -2.388  0.00  0.00     0.170 C 
ATOM      6  C   UNL d   1      26.860 -14.388  -1.864  0.00  0.00     0.042 C 
BRANCH   5   7
ATOM      7  N   UNL d   1      24.769 -15.575  -2.487  0.00  0.00    -0.377 N 
ATOM      8  H   UNL d   1      24.439 -15.825  -3.420  0.00  0.00     0.160 HD
BRANCH   7   9
ATOM      9  C   UNL d   1      24.607 -16.462  -1.444  0.00  0.00     0.029 A 
ATOM     10  C   UNL d   1      23.335 -16.895  -1.054  0.00  0.00     0.029 A 
ATOM     11  C   UNL d   1      23.178 -17.839  -0.027  0.00  0.00     0.003 A 
ATOM     12  C   UNL d   1      24.294 -18.395   0.601  0.00  0.00     0.007 A 
ATOM     13  C   UNL d   1      25.568 -17.984   0.228  0.00  0.00    -0.060 A 
ATOM     14  C   UNL d   1      26.814 -18.573   0.813  0.00  0.00     0.048 C 
ATOM     15  C   UNL d   1      25.697 -16.995  -0.750  0.00  0.00     0.036 A 
ENDBRANCH   7   9
ENDBRANCH   5   7
ENDBRANCH   1   5
BRANCH   3  16
ATOM     16  C   UNL d   1      26.675 -11.925  -5.161  0.00  0.00     0.046 A 
ATOM     17  C   UNL d   1      26.169 -10.617  -5.305  0.00  0.00    -0.035 A 
ATOM     18  C   UNL d   1      25.511  -9.855  -4.185  0.00  0.00     0.050 C 
ATOM     19  C   UNL d   1      26.304  -9.956  -6.537  0.00  0.00     0.009 A 
ATOM     20  C   UNL d   1      26.950 -10.564  -7.609  0.00  0.00     0.001 A 
ATOM     21  C   UNL d   1      27.488 -11.838  -7.455  0.00  0.00     0.009 A 
ATOM     22  C   UNL d   1      27.381 -12.525  -6.231  0.00  0.00    -0.035 A 
ATOM     23  C   UNL d   1      27.963 -13.909  -6.143  0.00  0.00     0.050 C 
ENDBRANCH   3  16
TORSDOF 4
ENDMDL
