MODEL 1
REMARK VINA RESULT:   -29.469      0.000      0.000
REMARK INTER + INTRA:         -32.342
REMARK INTER:                 -30.960
REMARK INTRA:                  -1.382
REMARK CONF_INDEPENDENT:        1.492
REMARK UNBOUND:                -1.382
REMARK  5 active torsions:
REMARK  status: ('A' for Active; 'I' for Inactive)
REMARK    1  A    between atoms: C_2  and  C_3 
REMARK    2  A    between atoms: C_2  and  N_8 
REMARK    3  A    between atoms: C_3  and  C_4 
REMARK       I    between atoms: C_4  and  N_6 
REMARK    4  A    between atoms: N_6  and  N_7 
REMARK    5  A    between atoms: N_8  and  C_9 
ROOT
ATOM      1  N   UNL d   1      24.731 -17.718  -1.152  0.00  0.00    -0.385 N 
ATOM      2  H   UNL d   1      24.316 -18.038  -2.021  0.00  0.00     0.160 HD
ENDROOT
BRANCH   1   3
ATOM      3  C   UNL d   1      23.748 -17.453  -0.059  0.00  0.00     0.086 C 
ATOM      4  C   UNL d   1      22.846 -16.289  -0.514  0.00  0.00     0.032 C 
BRANCH   3   5
ATOM      5  C   UNL d   1      22.887 -18.688   0.224  0.00  0.00     0.128 C 
BRANCH   5   6
ATOM      6  C   UNL d   1      21.875 -19.027  -0.833  0.00  0.00     0.233 C 
ATOM      7  O   UNL d   1      22.146 -19.248  -2.015  0.00  0.00    -0.272 OA
ATOM      8  N   UNL d   1      20.565 -18.981  -0.371  0.00  0.00    -0.294 N 
ATOM      9  H   UNL d   1      20.346 -18.771   0.603  0.00  0.00     0.183 HD
BRANCH   8  10
ATOM     10  N   UNL d   1      19.531 -19.319  -1.264  0.00  0.00    -0.247 NA
ATOM     11  H   UNL d   1      19.994 -19.744  -2.084  0.00  0.00     0.143 HD
ATOM     12  H   UNL d   1      19.122 -18.458  -1.633  0.00  0.00     0.143 HD
ENDBRANCH   8  10
ENDBRANCH   5   6
ENDBRANCH   3   5
ENDBRANCH   1   3
BRANCH   1  13
ATOM     13  C   UNL d   1      25.898 -16.952  -1.314  0.00  0.00     0.039 A 
ATOM     14  C   UNL d   1      27.094 -17.407  -0.741  0.00  0.00     0.030 A 
ATOM     15  C   UNL d   1      28.286 -16.699  -0.785  0.00  0.00     0.003 A 
ATOM     16  C   UNL d   1      28.345 -15.524  -1.504  0.00  0.00     0.012 A 
ATOM     17  C   UNL d   1      27.213 -15.057  -2.181  0.00  0.00    -0.024 A 
ATOM     18  C   UNL d   1      27.336 -13.910  -2.975  0.00  0.00     0.012 A 
ATOM     19  C   UNL d   1      25.963 -15.746  -2.075  0.00  0.00     0.001 A 
ATOM     20  C   UNL d   1      26.242 -13.405  -3.669  0.00  0.00     0.001 A 
ATOM     21  C   UNL d   1      25.010 -14.037  -3.564  0.00  0.00     0.001 A 
ATOM     22  C   UNL d   1      24.869 -15.184  -2.774  0.00  0.00     0.014 A 
ENDBRANCH   1  13
TORSDOF 5
ENDMDL
MODEL 2
REMARK VINA RESULT:   -29.437      1.266      2.838
REMARK INTER + INTRA:         -31.964
REMARK INTER:                 -30.928
REMARK INTRA:                  -1.036
REMARK CONF_INDEPENDENT:        1.492
REMARK UNBOUND:                -1.036
REMARK  5 active torsions:
REMARK  status: ('A' for Active; 'I' for Inactive)
REMARK    1  A    between atoms: C_2  and  C_3 
REMARK    2  A    between atoms: C_2  and  N_8 
REMARK    3  A    between atoms: C_3  and  C_4 
REMARK       I    between atoms: C_4  and  N_6 
REMARK    4  A    between atoms: N_6  and  N_7 
REMARK    5  A    between atoms: N_8  and  C_9 
ROOT
ATOM      1  N   UNL d   1      24.617 -15.908  -1.159  0.00  0.00    -0.385 N 
ATOM      2  H   UNL d   1      24.972 -15.623  -0.252  0.00  0.00     0.160 HD
ENDROOT
BRANCH   1   3
ATOM      3  C   UNL d   1      23.966 -17.251  -1.173  0.00  0.00     0.086 C 
ATOM      4  C   UNL d   1      24.775 -18.173  -0.241  0.00  0.00     0.032 C 
BRANCH   3   5
ATOM      5  C   UNL d   1      22.517 -17.170  -0.681  0.00  0.00     0.128 C 
BRANCH   5   6
ATOM      6  C   UNL d   1      21.719 -18.437  -0.808  0.00  0.00     0.233 C 
ATOM      7  O   UNL d   1      22.188 -19.572  -0.705  0.00  0.00    -0.272 OA
ATOM      8  N   UNL d   1      20.390 -18.213  -1.147  0.00  0.00    -0.294 N 
ATOM      9  H   UNL d   1      20.014 -17.271  -1.256  0.00  0.00     0.183 HD
BRANCH   8  10
ATOM     10  N   UNL d   1      19.534 -19.325  -1.256  0.00  0.00    -0.247 NA
ATOM     11  H   UNL d   1      20.123 -20.154  -1.070  0.00  0.00     0.143 HD
ATOM     12  H   UNL d   1      19.261 -19.434  -2.235  0.00  0.00     0.143 HD
ENDBRANCH   8  10
ENDBRANCH   5   6
ENDBRANCH   3   5
ENDBRANCH   1   3
BRANCH   1  13
ATOM     13  C   UNL d   1      25.357 -15.420  -2.251  0.00  0.00     0.039 A 
ATOM     14  C   UNL d   1      24.745 -14.526  -3.141  0.00  0.00     0.030 A 
ATOM     15  C   UNL d   1      25.360 -14.036  -4.283  0.00  0.00     0.003 A 
ATOM     16  C   UNL d   1      26.677 -14.360  -4.530  0.00  0.00     0.012 A 
ATOM     17  C   UNL d   1      27.380 -15.173  -3.634  0.00  0.00    -0.024 A 
ATOM     18  C   UNL d   1      28.741 -15.405  -3.870  0.00  0.00     0.012 A 
ATOM     19  C   UNL d   1      26.726 -15.740  -2.494  0.00  0.00     0.001 A 
ATOM     20  C   UNL d   1      29.486 -16.204  -3.010  0.00  0.00     0.001 A 
ATOM     21  C   UNL d   1      28.872 -16.789  -1.911  0.00  0.00     0.001 A 
ATOM     22  C   UNL d   1      27.512 -16.569  -1.661  0.00  0.00     0.014 A 
ENDBRANCH   1  13
TORSDOF 5
ENDMDL
MODEL 3
REMARK VINA RESULT:   -28.902      1.035      2.477
REMARK INTER + INTRA:         -31.917
REMARK INTER:                 -30.393
REMARK INTRA:                  -1.524
REMARK CONF_INDEPENDENT:        1.492
REMARK UNBOUND:                -1.524
REMARK  5 active torsions:
REMARK  status: ('A' for Active; 'I' for Inactive)
REMARK    1  A    between atoms: C_2  and  C_3 
REMARK    2  A    between atoms: C_2  and  N_8 
REMARK    3  A    between atoms: C_3  and  C_4 
REMARK       I    between atoms: C_4  and  N_6 
REMARK    4  A    between atoms: N_6  and  N_7 
REMARK    5  A    between atoms: N_8  and  C_9 
ROOT
ATOM      1  N   UNL d   1      24.614 -17.483  -1.408  0.00  0.00    -0.385 N 
ATOM      2  H   UNL d   1      24.208 -18.050  -2.146  0.00  0.00     0.160 HD
ENDROOT
BRANCH   1   3
ATOM      3  C   UNL d   1      23.720 -17.265  -0.234  0.00  0.00     0.086 C 
ATOM      4  C   UNL d   1      22.727 -16.145  -0.603  0.00  0.00     0.032 C 
BRANCH   3   5
ATOM      5  C   UNL d   1      22.945 -18.539   0.119  0.00  0.00     0.128 C 
BRANCH   5   6
ATOM      6  C   UNL d   1      21.920 -18.972  -0.889  0.00  0.00     0.233 C 
ATOM      7  O   UNL d   1      22.172 -19.283  -2.055  0.00  0.00    -0.272 OA
ATOM      8  N   UNL d   1      20.618 -18.905  -0.407  0.00  0.00    -0.294 N 
ATOM      9  H   UNL d   1      20.414 -18.622   0.552  0.00  0.00     0.183 HD
BRANCH   8  10
ATOM     10  N   UNL d   1      19.572 -19.325  -1.250  0.00  0.00    -0.247 NA
ATOM     11  H   UNL d   1      20.027 -19.693  -2.102  0.00  0.00     0.143 HD
ATOM     12  H   UNL d   1      19.067 -18.500  -1.581  0.00  0.00     0.143 HD
ENDBRANCH   8  10
ENDBRANCH   5   6
ENDBRANCH   3   5
ENDBRANCH   1   3
BRANCH   1  13
ATOM     13  C   UNL d   1      25.514 -16.502  -1.861  0.00  0.00     0.039 A 
ATOM     14  C   UNL d   1      25.342 -15.963  -3.144  0.00  0.00     0.030 A 
ATOM     15  C   UNL d   1      26.207 -15.039  -3.712  0.00  0.00     0.003 A 
ATOM     16  C   UNL d   1      27.249 -14.541  -2.959  0.00  0.00     0.012 A 
ATOM     17  C   UNL d   1      27.425 -14.964  -1.637  0.00  0.00    -0.024 A 
ATOM     18  C   UNL d   1      28.438 -14.367  -0.875  0.00  0.00     0.012 A 
ATOM     19  C   UNL d   1      26.580 -15.972  -1.073  0.00  0.00     0.001 A 
ATOM     20  C   UNL d   1      28.655 -14.750   0.444  0.00  0.00     0.001 A 
ATOM     21  C   UNL d   1      27.867 -15.745   1.009  0.00  0.00     0.001 A 
ATOM     22  C   UNL d   1      26.851 -16.352   0.261  0.00  0.00     0.014 A 
ENDBRANCH   1  13
TORSDOF 5
ENDMDL
MODEL 4
REMARK VINA RESULT:   -28.811      1.693      2.576
REMARK INTER + INTRA:         -31.865
REMARK INTER:                 -30.302
REMARK INTRA:                  -1.563
REMARK CONF_INDEPENDENT:        1.492
REMARK UNBOUND:                -1.563
REMARK  5 active torsions:
REMARK  status: ('A' for Active; 'I' for Inactive)
REMARK    1  A    between atoms: C_2  and  C_3 
REMARK    2  A    between atoms: C_2  and  N_8 
REMARK    3  A    between atoms: C_3  and  C_4 
REMARK       I    between atoms: C_4  and  N_6 
REMARK    4  A    between atoms: N_6  and  N_7 
REMARK    5  A    between atoms: N_8  and  C_9 
ROOT
ATOM      1  N   UNL d   1      24.383 -16.542  -1.288  0.00  0.00    -0.385 N 
ATOM      2  H   UNL d   1      23.777 -16.010  -0.672  0.00  0.00     0.160 HD
ENDROOT
BRANCH   1   3
ATOM      3  C   UNL d   1      24.576 -17.966  -0.885  0.00  0.00     0.086 C 
ATOM      4  C   UNL d   1      25.839 -18.036  -0.004  0.00  0.00     0.032 C 
BRANCH   3   5
ATOM      5  C   UNL d   1      23.371 -18.487  -0.095  0.00  0.00     0.128 C 
BRANCH   5   6
ATOM      6  C   UNL d   1      22.033 -17.975  -0.544  0.00  0.00     0.233 C 
ATOM      7  O   UNL d   1      21.806 -16.811  -0.878  0.00  0.00    -0.272 OA
ATOM      8  N   UNL d   1      21.027 -18.931  -0.463  0.00  0.00    -0.294 N 
ATOM      9  H   UNL d   1      21.217 -19.887  -0.160  0.00  0.00     0.183 HD
BRANCH   8  10
ATOM     10  N   UNL d   1      19.735 -18.578  -0.895  0.00  0.00    -0.247 NA
ATOM     11  H   UNL d   1      19.510 -19.226  -1.669  0.00  0.00     0.143 HD
ATOM     12  H   UNL d   1      19.780 -17.663  -1.348  0.00  0.00     0.143 HD
ENDBRANCH   8  10
ENDBRANCH   5   6
ENDBRANCH   3   5
ENDBRANCH   1   3
BRANCH   1  13
ATOM     13  C   UNL d   1      25.403 -15.786  -1.891  0.00  0.00     0.039 A 
ATOM     14  C   UNL d   1      25.531 -15.809  -3.287  0.00  0.00     0.030 A 
ATOM     15  C   UNL d   1      26.540 -15.154  -3.978  0.00  0.00     0.003 A 
ATOM     16  C   UNL d   1      27.424 -14.357  -3.283  0.00  0.00     0.012 A 
ATOM     17  C   UNL d   1      27.299 -14.212  -1.897  0.00  0.00    -0.024 A 
ATOM     18  C   UNL d   1      28.158 -13.323  -1.239  0.00  0.00     0.012 A 
ATOM     19  C   UNL d   1      26.306 -14.946  -1.172  0.00  0.00     0.001 A 
ATOM     20  C   UNL d   1      28.075 -13.141   0.137  0.00  0.00     0.001 A 
ATOM     21  C   UNL d   1      27.138 -13.859   0.870  0.00  0.00     0.001 A 
ATOM     22  C   UNL d   1      26.273 -14.754   0.228  0.00  0.00     0.014 A 
ENDBRANCH   1  13
TORSDOF 5
ENDMDL
MODEL 5
REMARK VINA RESULT:   -27.858      1.569      2.974
REMARK INTER + INTRA:         -30.405
REMARK INTER:                 -29.350
REMARK INTRA:                  -1.055
REMARK CONF_INDEPENDENT:        1.492
REMARK UNBOUND:                -1.055
REMARK  5 active torsions:
REMARK  status: ('A' for Active; 'I' for Inactive)
REMARK    1  A    between atoms: C_2  and  C_3 
REMARK    2  A    between atoms: C_2  and  N_8 
REMARK    3  A    between atoms: C_3  and  C_4 
REMARK       I    between atoms: C_4  and  N_6 
REMARK    4  A    between atoms: N_6  and  N_7 
REMARK    5  A    between atoms: N_8  and  C_9 
ROOT
ATOM      1  N   UNL d   1      25.443 -16.853   0.130  0.00  0.00    -0.385 N 
ATOM      2  H   UNL d   1      25.851 -17.689   0.536  0.00  0.00     0.160 HD
ENDROOT
BRANCH   1   3
ATOM      3  C   UNL d   1      24.135 -17.075  -0.554  0.00  0.00     0.086 C 
ATOM      4  C   UNL d   1      24.410 -17.175  -2.067  0.00  0.00     0.032 C 
BRANCH   3   5
ATOM      5  C   UNL d   1      23.466 -18.365  -0.069  0.00  0.00     0.128 C 
BRANCH   5   6
ATOM      6  C   UNL d   1      22.292 -18.830  -0.882  0.00  0.00     0.233 C 
ATOM      7  O   UNL d   1      22.372 -19.317  -2.011  0.00  0.00    -0.272 OA
ATOM      8  N   UNL d   1      21.070 -18.576  -0.271  0.00  0.00    -0.294 N 
ATOM      9  H   UNL d   1      21.010 -18.149   0.654  0.00  0.00     0.183 HD
BRANCH   8  10
ATOM     10  N   UNL d   1      19.897 -19.004  -0.921  0.00  0.00    -0.247 NA
ATOM     11  H   UNL d   1      20.211 -19.479  -1.784  0.00  0.00     0.143 HD
ATOM     12  H   UNL d   1      19.394 -18.182  -1.264  0.00  0.00     0.143 HD
ENDBRANCH   8  10
ENDBRANCH   5   6
ENDBRANCH   3   5
ENDBRANCH   1   3
BRANCH   1  13
ATOM     13  C   UNL d   1      26.381 -15.913  -0.330  0.00  0.00     0.039 A 
ATOM     14  C   UNL d   1      25.991 -14.573  -0.467  0.00  0.00     0.030 A 
ATOM     15  C   UNL d   1      26.815 -13.579  -0.972  0.00  0.00     0.003 A 
ATOM     16  C   UNL d   1      28.125 -13.882  -1.279  0.00  0.00     0.012 A 
ATOM     17  C   UNL d   1      28.611 -15.179  -1.078  0.00  0.00    -0.024 A 
ATOM     18  C   UNL d   1      29.970 -15.426  -1.313  0.00  0.00     0.012 A 
ATOM     19  C   UNL d   1      27.742 -16.224  -0.627  0.00  0.00     0.001 A 
ATOM     20  C   UNL d   1      30.504 -16.696  -1.128  0.00  0.00     0.001 A 
ATOM     21  C   UNL d   1      29.679 -17.736  -0.717  0.00  0.00     0.001 A 
ATOM     22  C   UNL d   1      28.319 -17.506  -0.478  0.00  0.00     0.014 A 
ENDBRANCH   1  13
TORSDOF 5
ENDMDL
MODEL 6
REMARK VINA RESULT:   -27.556      1.973      2.610
REMARK INTER + INTRA:         -29.971
REMARK INTER:                 -29.048
REMARK INTRA:                  -0.923
REMARK CONF_INDEPENDENT:        1.492
REMARK UNBOUND:                -0.923
REMARK  5 active torsions:
REMARK  status: ('A' for Active; 'I' for Inactive)
REMARK    1  A    between atoms: C_2  and  C_3 
REMARK    2  A    between atoms: C_2  and  N_8 
REMARK    3  A    between atoms: C_3  and  C_4 
REMARK       I    between atoms: C_4  and  N_6 
REMARK    4  A    between atoms: N_6  and  N_7 
REMARK    5  A    between atoms: N_8  and  C_9 
ROOT
ATOM      1  N   UNL d   1      24.627 -15.963  -1.010  0.00  0.00    -0.385 N 
ATOM      2  H   UNL d   1      24.473 -15.041  -1.406  0.00  0.00     0.160 HD
ENDROOT
BRANCH   1   3
ATOM      3  C   UNL d   1      23.461 -16.514  -0.258  0.00  0.00     0.086 C 
ATOM      4  C   UNL d   1      22.179 -15.969  -0.918  0.00  0.00     0.032 C 
BRANCH   3   5
ATOM      5  C   UNL d   1      23.447 -18.045  -0.300  0.00  0.00     0.128 C 
BRANCH   5   6
ATOM      6  C   UNL d   1      22.275 -18.662  -1.008  0.00  0.00     0.233 C 
ATOM      7  O   UNL d   1      22.336 -19.225  -2.102  0.00  0.00    -0.272 OA
ATOM      8  N   UNL d   1      21.070 -18.461  -0.346  0.00  0.00    -0.294 N 
ATOM      9  H   UNL d   1      21.022 -17.971   0.547  0.00  0.00     0.183 HD
BRANCH   8  10
ATOM     10  N   UNL d   1      19.904 -19.028  -0.895  0.00  0.00    -0.247 NA
ATOM     11  H   UNL d   1      20.192 -19.446  -1.796  0.00  0.00     0.143 HD
ATOM     12  H   UNL d   1      19.270 -18.275  -1.168  0.00  0.00     0.143 HD
ENDBRANCH   8  10
ENDBRANCH   5   6
ENDBRANCH   3   5
ENDBRANCH   1   3
BRANCH   1  13
ATOM     13  C   UNL d   1      25.955 -16.215  -0.626  0.00  0.00     0.039 A 
ATOM     14  C   UNL d   1      26.563 -17.412  -1.030  0.00  0.00     0.030 A 
ATOM     15  C   UNL d   1      27.844 -17.790  -0.654  0.00  0.00     0.003 A 
ATOM     16  C   UNL d   1      28.615 -16.916   0.082  0.00  0.00     0.012 A 
ATOM     17  C   UNL d   1      28.106 -15.663   0.441  0.00  0.00    -0.024 A 
ATOM     18  C   UNL d   1      28.950 -14.767   1.110  0.00  0.00     0.012 A 
ATOM     19  C   UNL d   1      26.759 -15.301   0.119  0.00  0.00     0.001 A 
ATOM     20  C   UNL d   1      28.495 -13.509   1.488  0.00  0.00     0.001 A 
ATOM     21  C   UNL d   1      27.185 -13.140   1.212  0.00  0.00     0.001 A 
ATOM     22  C   UNL d   1      26.327 -14.024   0.546  0.00  0.00     0.014 A 
ENDBRANCH   1  13
TORSDOF 5
ENDMDL
