MODEL 1
REMARK VINA RESULT:    -7.764      0.000      0.000
REMARK INTER + INTRA:         -13.031
REMARK INTER:                 -11.344
REMARK INTRA:                  -1.687
REMARK CONF_INDEPENDENT:        3.580
REMARK UNBOUND:                -1.687
REMARK  12 active torsions:
REMARK  status: ('A' for Active; 'I' for Inactive)
REMARK    1  A    between atoms: O_2  and  C_3 
REMARK    2  A    between atoms: C_5  and  C_6 
REMARK    3  A    between atoms: C_6  and  C_7 
REMARK    4  A    between atoms: C_7  and  C_8 
REMARK       I    between atoms: C_8  and  N_10 
REMARK    5  A    between atoms: N_10  and  N_11 
REMARK    6  A    between atoms: N_11  and  C_12 
REMARK    7  A    between atoms: C_12  and  N_14 
REMARK    8  A    between atoms: N_14  and  C_15 
REMARK    9  A    between atoms: C_15  and  C_16 
REMARK   10  A    between atoms: C_16  and  C_17 
REMARK   11  A    between atoms: C_21  and  O_22 
REMARK   12  A    between atoms: C_24  and  O_25 
ROOT
ATOM      1  C   UNL d   1      26.343 -17.848   0.441  0.00  0.00     0.236 C 
ATOM      2  O   UNL d   1      26.614 -19.020   0.627  0.00  0.00    -0.272 OA
ATOM      3  N   UNL d   1      25.052 -17.409   0.168  0.00  0.00    -0.268 N 
ATOM      4  H   UNL d   1      24.804 -16.434   0.009  0.00  0.00     0.190 HD
ENDROOT
BRANCH   1   5
ATOM      5  C   UNL d   1      27.383 -16.726   0.484  0.00  0.00     0.109 C 
BRANCH   5   6
ATOM      6  C   UNL d   1      28.541 -16.932  -0.522  0.00  0.00     0.048 C 
BRANCH   6   7
ATOM      7  C   UNL d   1      28.356 -16.278  -1.888  0.00  0.00    -0.052 A 
ATOM      8  C   UNL d   1      29.439 -16.162  -2.792  0.00  0.00     0.047 A 
ATOM      9  C   UNL d   1      29.257 -15.813  -4.158  0.00  0.00     0.104 A 
ATOM     10  C   UNL d   1      27.951 -15.498  -4.588  0.00  0.00     0.135 A 
ATOM     11  C   UNL d   1      26.873 -15.544  -3.667  0.00  0.00     0.104 A 
ATOM     12  C   UNL d   1      27.090 -15.903  -2.337  0.00  0.00     0.047 A 
BRANCH   9  13
ATOM     13  O   UNL d   1      30.346 -16.141  -4.942  0.00  0.00    -0.353 OA
ATOM     14  C   UNL d   1      30.240 -16.902  -6.142  0.00  0.00     0.210 C 
ENDBRANCH   9  13
BRANCH  10  15
ATOM     15  O   UNL d   1      27.501 -15.199  -5.829  0.00  0.00    -0.351 OA
ATOM     16  C   UNL d   1      28.177 -14.354  -6.685  0.00  0.00     0.210 C 
ENDBRANCH  10  15
BRANCH  11  17
ATOM     17  O   UNL d   1      25.530 -15.336  -3.938  0.00  0.00    -0.353 OA
ATOM     18  C   UNL d   1      24.995 -14.031  -3.730  0.00  0.00     0.210 C 
ENDBRANCH  11  17
ENDBRANCH   6   7
ENDBRANCH   5   6
ENDBRANCH   1   5
BRANCH   3  19
ATOM     19  N   UNL d   1      23.978 -18.347   0.119  0.00  0.00    -0.274 N 
ATOM     20  H   UNL d   1      24.233 -19.313   0.310  0.00  0.00     0.189 HD
BRANCH  19  21
ATOM     21  C   UNL d   1      22.683 -17.924  -0.165  0.00  0.00     0.186 C 
ATOM     22  S   UNL d   1      22.343 -16.339  -0.622  0.00  0.00    -0.040 SA
BRANCH  21  23
ATOM     23  N   UNL d   1      21.714 -18.917  -0.031  0.00  0.00    -0.366 N 
ATOM     24  H   UNL d   1      21.886 -19.700   0.586  0.00  0.00     0.161 HD
BRANCH  23  25
ATOM     25  C   UNL d   1      20.477 -18.934  -0.822  0.00  0.00     0.122 C 
BRANCH  25  26
ATOM     26  C   UNL d   1      19.500 -20.076  -0.520  0.00  0.00     0.023 C 
BRANCH  26  27
ATOM     27  C   UNL d   1      19.565 -20.519   0.964  0.00  0.00    -0.021 C 
ATOM     28  C   UNL d   1      19.526 -19.325   1.924  0.00  0.00     0.009 C 
ATOM     29  C   UNL d   1      18.405 -21.461   1.296  0.00  0.00     0.009 C 
ENDBRANCH  26  27
ENDBRANCH  25  26
ENDBRANCH  23  25
ENDBRANCH  21  23
ENDBRANCH  19  21
ENDBRANCH   3  19
TORSDOF 12
ENDMDL
MODEL 2
REMARK VINA RESULT:    -7.175      2.130      3.620
REMARK INTER + INTRA:         -11.843
REMARK INTER:                 -10.755
REMARK INTRA:                  -1.088
REMARK CONF_INDEPENDENT:        3.580
REMARK UNBOUND:                -1.088
REMARK  12 active torsions:
REMARK  status: ('A' for Active; 'I' for Inactive)
REMARK    1  A    between atoms: O_2  and  C_3 
REMARK    2  A    between atoms: C_5  and  C_6 
REMARK    3  A    between atoms: C_6  and  C_7 
REMARK    4  A    between atoms: C_7  and  C_8 
REMARK       I    between atoms: C_8  and  N_10 
REMARK    5  A    between atoms: N_10  and  N_11 
REMARK    6  A    between atoms: N_11  and  C_12 
REMARK    7  A    between atoms: C_12  and  N_14 
REMARK    8  A    between atoms: N_14  and  C_15 
REMARK    9  A    between atoms: C_15  and  C_16 
REMARK   10  A    between atoms: C_16  and  C_17 
REMARK   11  A    between atoms: C_21  and  O_22 
REMARK   12  A    between atoms: C_24  and  O_25 
ROOT
ATOM      1  C   UNL d   1      24.580 -16.350  -0.995  0.00  0.00     0.236 C 
ATOM      2  O   UNL d   1      24.965 -17.102  -0.119  0.00  0.00    -0.272 OA
ATOM      3  N   UNL d   1      23.231 -16.113  -1.241  0.00  0.00    -0.268 N 
ATOM      4  H   UNL d   1      22.887 -15.488  -1.968  0.00  0.00     0.190 HD
ENDROOT
BRANCH   1   5
ATOM      5  C   UNL d   1      25.524 -15.581  -1.922  0.00  0.00     0.109 C 
BRANCH   5   6
ATOM      6  C   UNL d   1      24.783 -14.609  -2.872  0.00  0.00     0.048 C 
BRANCH   6   7
ATOM      7  C   UNL d   1      25.615 -14.041  -4.018  0.00  0.00    -0.052 A 
ATOM      8  C   UNL d   1      25.646 -12.649  -4.274  0.00  0.00     0.047 A 
ATOM      9  C   UNL d   1      26.602 -12.055  -5.143  0.00  0.00     0.104 A 
ATOM     10  C   UNL d   1      27.492 -12.911  -5.825  0.00  0.00     0.135 A 
ATOM     11  C   UNL d   1      27.417 -14.314  -5.624  0.00  0.00     0.104 A 
ATOM     12  C   UNL d   1      26.473 -14.857  -4.754  0.00  0.00     0.047 A 
BRANCH   9  13
ATOM     13  O   UNL d   1      26.723 -10.693  -4.950  0.00  0.00    -0.353 OA
ATOM     14  C   UNL d   1      26.184 -10.017  -3.817  0.00  0.00     0.210 C 
ENDBRANCH   9  13
BRANCH  10  15
ATOM     15  O   UNL d   1      28.521 -12.604  -6.648  0.00  0.00    -0.351 OA
ATOM     16  C   UNL d   1      28.523 -12.921  -7.992  0.00  0.00     0.210 C 
ENDBRANCH  10  15
BRANCH  11  17
ATOM     17  O   UNL d   1      28.256 -15.281  -6.155  0.00  0.00    -0.353 OA
ATOM     18  C   UNL d   1      29.316 -15.774  -5.339  0.00  0.00     0.210 C 
ENDBRANCH  11  17
ENDBRANCH   6   7
ENDBRANCH   5   6
ENDBRANCH   1   5
BRANCH   3  19
ATOM     19  N   UNL d   1      22.239 -16.748  -0.436  0.00  0.00    -0.274 N 
ATOM     20  H   UNL d   1      21.848 -16.175   0.308  0.00  0.00     0.189 HD
BRANCH  19  21
ATOM     21  C   UNL d   1      21.856 -18.061  -0.692  0.00  0.00     0.186 C 
ATOM     22  S   UNL d   1      22.925 -19.352  -0.518  0.00  0.00    -0.040 SA
BRANCH  21  23
ATOM     23  N   UNL d   1      20.532 -18.201  -1.104  0.00  0.00    -0.366 N 
ATOM     24  H   UNL d   1      19.963 -17.376  -1.236  0.00  0.00     0.161 HD
BRANCH  23  25
ATOM     25  C   UNL d   1      19.883 -19.508  -1.268  0.00  0.00     0.122 C 
BRANCH  25  26
ATOM     26  C   UNL d   1      20.024 -20.482  -0.094  0.00  0.00     0.023 C 
BRANCH  26  27
ATOM     27  C   UNL d   1      19.087 -20.111   1.084  0.00  0.00    -0.021 C 
ATOM     28  C   UNL d   1      18.040 -21.197   1.352  0.00  0.00     0.009 C 
ATOM     29  C   UNL d   1      19.896 -19.876   2.362  0.00  0.00     0.009 C 
ENDBRANCH  26  27
ENDBRANCH  25  26
ENDBRANCH  23  25
ENDBRANCH  21  23
ENDBRANCH  19  21
ENDBRANCH   3  19
TORSDOF 12
ENDMDL
MODEL 3
REMARK VINA RESULT:    -6.843      2.281      3.021
REMARK INTER + INTRA:         -11.716
REMARK INTER:                 -10.422
REMARK INTRA:                  -1.293
REMARK CONF_INDEPENDENT:        3.580
REMARK UNBOUND:                -1.293
REMARK  12 active torsions:
REMARK  status: ('A' for Active; 'I' for Inactive)
REMARK    1  A    between atoms: O_2  and  C_3 
REMARK    2  A    between atoms: C_5  and  C_6 
REMARK    3  A    between atoms: C_6  and  C_7 
REMARK    4  A    between atoms: C_7  and  C_8 
REMARK       I    between atoms: C_8  and  N_10 
REMARK    5  A    between atoms: N_10  and  N_11 
REMARK    6  A    between atoms: N_11  and  C_12 
REMARK    7  A    between atoms: C_12  and  N_14 
REMARK    8  A    between atoms: N_14  and  C_15 
REMARK    9  A    between atoms: C_15  and  C_16 
REMARK   10  A    between atoms: C_16  and  C_17 
REMARK   11  A    between atoms: C_21  and  O_22 
REMARK   12  A    between atoms: C_24  and  O_25 
ROOT
ATOM      1  C   UNL d   1      25.519 -17.802  -0.681  0.00  0.00     0.236 C 
ATOM      2  O   UNL d   1      25.093 -17.615  -1.805  0.00  0.00    -0.272 OA
ATOM      3  N   UNL d   1      24.790 -18.470   0.297  0.00  0.00    -0.268 N 
ATOM      4  H   UNL d   1      25.127 -18.637   1.244  0.00  0.00     0.190 HD
ENDROOT
BRANCH   1   5
ATOM      5  C   UNL d   1      26.896 -17.327  -0.212  0.00  0.00     0.109 C 
BRANCH   5   6
ATOM      6  C   UNL d   1      26.915 -15.838   0.209  0.00  0.00     0.048 C 
BRANCH   6   7
ATOM      7  C   UNL d   1      26.891 -14.827  -0.933  0.00  0.00    -0.052 A 
ATOM      8  C   UNL d   1      26.454 -15.201  -2.227  0.00  0.00     0.047 A 
ATOM      9  C   UNL d   1      26.161 -14.245  -3.238  0.00  0.00     0.104 A 
ATOM     10  C   UNL d   1      26.396 -12.885  -2.945  0.00  0.00     0.135 A 
ATOM     11  C   UNL d   1      26.902 -12.513  -1.673  0.00  0.00     0.104 A 
ATOM     12  C   UNL d   1      27.166 -13.479  -0.703  0.00  0.00     0.047 A 
BRANCH   9  13
ATOM     13  O   UNL d   1      25.387 -14.767  -4.256  0.00  0.00    -0.353 OA
ATOM     14  C   UNL d   1      25.915 -15.592  -5.290  0.00  0.00     0.210 C 
ENDBRANCH   9  13
BRANCH  10  15
ATOM     15  O   UNL d   1      26.147 -11.787  -3.696  0.00  0.00    -0.351 OA
ATOM     16  C   UNL d   1      27.151 -11.000  -4.224  0.00  0.00     0.210 C 
ENDBRANCH  10  15
BRANCH  11  17
ATOM     17  O   UNL d   1      27.119 -11.228  -1.202  0.00  0.00    -0.353 OA
ATOM     18  C   UNL d   1      27.385 -11.056   0.189  0.00  0.00     0.210 C 
ENDBRANCH  11  17
ENDBRANCH   6   7
ENDBRANCH   5   6
ENDBRANCH   1   5
BRANCH   3  19
ATOM     19  N   UNL d   1      23.495 -18.987  -0.010  0.00  0.00    -0.274 N 
ATOM     20  H   UNL d   1      23.347 -19.964   0.231  0.00  0.00     0.189 HD
BRANCH  19  21
ATOM     21  C   UNL d   1      22.528 -18.172  -0.589  0.00  0.00     0.186 C 
ATOM     22  S   UNL d   1      22.574 -16.493  -0.444  0.00  0.00    -0.040 SA
BRANCH  21  23
ATOM     23  N   UNL d   1      21.536 -18.863  -1.282  0.00  0.00    -0.366 N 
ATOM     24  H   UNL d   1      21.777 -19.366  -2.125  0.00  0.00     0.161 HD
BRANCH  23  25
ATOM     25  C   UNL d   1      20.120 -18.823  -0.896  0.00  0.00     0.122 C 
BRANCH  25  26
ATOM     26  C   UNL d   1      19.531 -20.130  -0.357  0.00  0.00     0.023 C 
BRANCH  26  27
ATOM     27  C   UNL d   1      18.930 -19.956   1.061  0.00  0.00    -0.021 C 
ATOM     28  C   UNL d   1      18.039 -21.137   1.458  0.00  0.00     0.009 C 
ATOM     29  C   UNL d   1      20.041 -19.801   2.102  0.00  0.00     0.009 C 
ENDBRANCH  26  27
ENDBRANCH  25  26
ENDBRANCH  23  25
ENDBRANCH  21  23
ENDBRANCH  19  21
ENDBRANCH   3  19
TORSDOF 12
ENDMDL
MODEL 4
REMARK VINA RESULT:    -6.778      1.319      2.082
REMARK INTER + INTRA:         -11.604
REMARK INTER:                 -10.357
REMARK INTRA:                  -1.247
REMARK CONF_INDEPENDENT:        3.580
REMARK UNBOUND:                -1.247
REMARK  12 active torsions:
REMARK  status: ('A' for Active; 'I' for Inactive)
REMARK    1  A    between atoms: O_2  and  C_3 
REMARK    2  A    between atoms: C_5  and  C_6 
REMARK    3  A    between atoms: C_6  and  C_7 
REMARK    4  A    between atoms: C_7  and  C_8 
REMARK       I    between atoms: C_8  and  N_10 
REMARK    5  A    between atoms: N_10  and  N_11 
REMARK    6  A    between atoms: N_11  and  C_12 
REMARK    7  A    between atoms: C_12  and  N_14 
REMARK    8  A    between atoms: N_14  and  C_15 
REMARK    9  A    between atoms: C_15  and  C_16 
REMARK   10  A    between atoms: C_16  and  C_17 
REMARK   11  A    between atoms: C_21  and  O_22 
REMARK   12  A    between atoms: C_24  and  O_25 
ROOT
ATOM      1  C   UNL d   1      25.280 -17.844  -0.482  0.00  0.00     0.236 C 
ATOM      2  O   UNL d   1      24.899 -17.713  -1.630  0.00  0.00    -0.272 OA
ATOM      3  N   UNL d   1      24.480 -18.386   0.518  0.00  0.00    -0.268 N 
ATOM      4  H   UNL d   1      24.779 -18.504   1.485  0.00  0.00     0.190 HD
ENDROOT
BRANCH   1   5
ATOM      5  C   UNL d   1      26.674 -17.430  -0.004  0.00  0.00     0.109 C 
BRANCH   5   6
ATOM      6  C   UNL d   1      27.000 -15.945  -0.293  0.00  0.00     0.048 C 
BRANCH   6   7
ATOM      7  C   UNL d   1      27.891 -15.686  -1.504  0.00  0.00    -0.052 A 
ATOM      8  C   UNL d   1      29.302 -15.708  -1.387  0.00  0.00     0.047 A 
ATOM      9  C   UNL d   1      30.160 -15.741  -2.519  0.00  0.00     0.104 A 
ATOM     10  C   UNL d   1      29.566 -15.669  -3.797  0.00  0.00     0.135 A 
ATOM     11  C   UNL d   1      28.155 -15.575  -3.916  0.00  0.00     0.104 A 
ATOM     12  C   UNL d   1      27.346 -15.558  -2.781  0.00  0.00     0.047 A 
BRANCH   9  13
ATOM     13  O   UNL d   1      31.439 -16.158  -2.207  0.00  0.00    -0.353 OA
ATOM     14  C   UNL d   1      31.897 -16.328  -0.868  0.00  0.00     0.210 C 
ENDBRANCH   9  13
BRANCH  10  15
ATOM     15  O   UNL d   1      30.141 -15.743  -5.020  0.00  0.00    -0.351 OA
ATOM     16  C   UNL d   1      30.030 -16.855  -5.831  0.00  0.00     0.210 C 
ENDBRANCH  10  15
BRANCH  11  17
ATOM     17  O   UNL d   1      27.413 -15.569  -5.086  0.00  0.00    -0.353 OA
ATOM     18  C   UNL d   1      26.055 -15.137  -5.020  0.00  0.00     0.210 C 
ENDBRANCH  11  17
ENDBRANCH   6   7
ENDBRANCH   5   6
ENDBRANCH   1   5
BRANCH   3  19
ATOM     19  N   UNL d   1      23.161 -18.834   0.208  0.00  0.00    -0.274 N 
ATOM     20  H   UNL d   1      22.908 -19.743   0.590  0.00  0.00     0.189 HD
BRANCH  19  21
ATOM     21  C   UNL d   1      22.308 -18.047  -0.560  0.00  0.00     0.186 C 
ATOM     22  S   UNL d   1      22.391 -16.364  -0.539  0.00  0.00    -0.040 SA
BRANCH  21  23
ATOM     23  N   UNL d   1      21.396 -18.769  -1.326  0.00  0.00    -0.366 N 
ATOM     24  H   UNL d   1      21.645 -19.045  -2.266  0.00  0.00     0.161 HD
BRANCH  23  25
ATOM     25  C   UNL d   1      20.036 -19.075  -0.865  0.00  0.00     0.122 C 
BRANCH  25  26
ATOM     26  C   UNL d   1      19.854 -20.414  -0.143  0.00  0.00     0.023 C 
BRANCH  26  27
ATOM     27  C   UNL d   1      18.984 -20.273   1.132  0.00  0.00    -0.021 C 
ATOM     28  C   UNL d   1      18.085 -21.494   1.354  0.00  0.00     0.009 C 
ATOM     29  C   UNL d   1      19.867 -20.076   2.367  0.00  0.00     0.009 C 
ENDBRANCH  26  27
ENDBRANCH  25  26
ENDBRANCH  23  25
ENDBRANCH  21  23
ENDBRANCH  19  21
ENDBRANCH   3  19
TORSDOF 12
ENDMDL
MODEL 5
REMARK VINA RESULT:    -6.666      2.246      3.080
REMARK INTER + INTRA:         -11.590
REMARK INTER:                 -10.246
REMARK INTRA:                  -1.344
REMARK CONF_INDEPENDENT:        3.580
REMARK UNBOUND:                -1.344
REMARK  12 active torsions:
REMARK  status: ('A' for Active; 'I' for Inactive)
REMARK    1  A    between atoms: O_2  and  C_3 
REMARK    2  A    between atoms: C_5  and  C_6 
REMARK    3  A    between atoms: C_6  and  C_7 
REMARK    4  A    between atoms: C_7  and  C_8 
REMARK       I    between atoms: C_8  and  N_10 
REMARK    5  A    between atoms: N_10  and  N_11 
REMARK    6  A    between atoms: N_11  and  C_12 
REMARK    7  A    between atoms: C_12  and  N_14 
REMARK    8  A    between atoms: N_14  and  C_15 
REMARK    9  A    between atoms: C_15  and  C_16 
REMARK   10  A    between atoms: C_16  and  C_17 
REMARK   11  A    between atoms: C_21  and  O_22 
REMARK   12  A    between atoms: C_24  and  O_25 
ROOT
ATOM      1  C   UNL d   1      25.330 -18.071  -0.025  0.00  0.00     0.236 C 
ATOM      2  O   UNL d   1      25.374 -18.184  -1.236  0.00  0.00    -0.272 OA
ATOM      3  N   UNL d   1      24.214 -18.433   0.722  0.00  0.00    -0.268 N 
ATOM      4  H   UNL d   1      24.156 -18.347   1.736  0.00  0.00     0.190 HD
ENDROOT
BRANCH   1   5
ATOM      5  C   UNL d   1      26.487 -17.523   0.814  0.00  0.00     0.109 C 
BRANCH   5   6
ATOM      6  C   UNL d   1      27.510 -16.713  -0.019  0.00  0.00     0.048 C 
BRANCH   6   7
ATOM      7  C   UNL d   1      26.962 -15.473  -0.717  0.00  0.00    -0.052 A 
ATOM      8  C   UNL d   1      27.375 -14.176  -0.327  0.00  0.00     0.047 A 
ATOM      9  C   UNL d   1      27.105 -13.022  -1.112  0.00  0.00     0.104 A 
ATOM     10  C   UNL d   1      26.328 -13.187  -2.278  0.00  0.00     0.135 A 
ATOM     11  C   UNL d   1      25.851 -14.475  -2.634  0.00  0.00     0.104 A 
ATOM     12  C   UNL d   1      26.148 -15.585  -1.844  0.00  0.00     0.047 A 
BRANCH   9  13
ATOM     13  O   UNL d   1      27.914 -11.952  -0.783  0.00  0.00    -0.353 OA
ATOM     14  C   UNL d   1      27.407 -10.650  -0.503  0.00  0.00     0.210 C 
ENDBRANCH   9  13
BRANCH  10  15
ATOM     15  O   UNL d   1      25.984 -12.278  -3.220  0.00  0.00    -0.351 OA
ATOM     16  C   UNL d   1      26.910 -11.480  -3.861  0.00  0.00     0.210 C 
ENDBRANCH  10  15
BRANCH  11  17
ATOM     17  O   UNL d   1      25.143 -14.820  -3.774  0.00  0.00    -0.353 OA
ATOM     18  C   UNL d   1      25.825 -14.790  -5.026  0.00  0.00     0.210 C 
ENDBRANCH  11  17
ENDBRANCH   6   7
ENDBRANCH   5   6
ENDBRANCH   1   5
BRANCH   3  19
ATOM     19  N   UNL d   1      23.068 -18.980   0.070  0.00  0.00    -0.274 N 
ATOM     20  H   UNL d   1      22.896 -19.967   0.246  0.00  0.00     0.189 HD
BRANCH  19  21
ATOM     21  C   UNL d   1      22.264 -18.180  -0.735  0.00  0.00     0.186 C 
ATOM     22  S   UNL d   1      22.513 -16.519  -0.873  0.00  0.00    -0.040 SA
BRANCH  21  23
ATOM     23  N   UNL d   1      21.251 -18.870  -1.398  0.00  0.00    -0.366 N 
ATOM     24  H   UNL d   1      21.337 -19.046  -2.391  0.00  0.00     0.161 HD
BRANCH  23  25
ATOM     25  C   UNL d   1      20.004 -19.279  -0.741  0.00  0.00     0.122 C 
BRANCH  25  26
ATOM     26  C   UNL d   1      20.138 -20.341   0.356  0.00  0.00     0.023 C 
BRANCH  26  27
ATOM     27  C   UNL d   1      18.902 -20.369   1.292  0.00  0.00    -0.021 C 
ATOM     28  C   UNL d   1      17.972 -21.546   0.983  0.00  0.00     0.009 C 
ATOM     29  C   UNL d   1      19.338 -20.451   2.757  0.00  0.00     0.009 C 
ENDBRANCH  26  27
ENDBRANCH  25  26
ENDBRANCH  23  25
ENDBRANCH  21  23
ENDBRANCH  19  21
ENDBRANCH   3  19
TORSDOF 12
ENDMDL
MODEL 6
REMARK VINA RESULT:    -6.568      3.451      5.054
REMARK INTER + INTRA:         -11.762
REMARK INTER:                 -10.148
REMARK INTRA:                  -1.614
REMARK CONF_INDEPENDENT:        3.580
REMARK UNBOUND:                -1.614
REMARK  12 active torsions:
REMARK  status: ('A' for Active; 'I' for Inactive)
REMARK    1  A    between atoms: O_2  and  C_3 
REMARK    2  A    between atoms: C_5  and  C_6 
REMARK    3  A    between atoms: C_6  and  C_7 
REMARK    4  A    between atoms: C_7  and  C_8 
REMARK       I    between atoms: C_8  and  N_10 
REMARK    5  A    between atoms: N_10  and  N_11 
REMARK    6  A    between atoms: N_11  and  C_12 
REMARK    7  A    between atoms: C_12  and  N_14 
REMARK    8  A    between atoms: N_14  and  C_15 
REMARK    9  A    between atoms: C_15  and  C_16 
REMARK   10  A    between atoms: C_16  and  C_17 
REMARK   11  A    between atoms: C_21  and  O_22 
REMARK   12  A    between atoms: C_24  and  O_25 
ROOT
ATOM      1  C   UNL d   1      26.462 -17.733  -0.131  0.00  0.00     0.236 C 
ATOM      2  O   UNL d   1      26.797 -18.753   0.442  0.00  0.00    -0.272 OA
ATOM      3  N   UNL d   1      25.134 -17.436  -0.420  0.00  0.00    -0.268 N 
ATOM      4  H   UNL d   1      24.831 -16.589  -0.898  0.00  0.00     0.190 HD
ENDROOT
BRANCH   1   5
ATOM      5  C   UNL d   1      27.452 -16.664  -0.600  0.00  0.00     0.109 C 
BRANCH   5   6
ATOM      6  C   UNL d   1      28.416 -16.197   0.517  0.00  0.00     0.048 C 
BRANCH   6   7
ATOM      7  C   UNL d   1      28.138 -14.813   1.095  0.00  0.00    -0.052 A 
ATOM      8  C   UNL d   1      27.989 -13.688   0.249  0.00  0.00     0.047 A 
ATOM      9  C   UNL d   1      27.469 -12.449   0.714  0.00  0.00     0.104 A 
ATOM     10  C   UNL d   1      27.172 -12.335   2.088  0.00  0.00     0.135 A 
ATOM     11  C   UNL d   1      27.388 -13.439   2.953  0.00  0.00     0.104 A 
ATOM     12  C   UNL d   1      27.888 -14.642   2.456  0.00  0.00     0.047 A 
BRANCH   9  13
ATOM     13  O   UNL d   1      27.034 -11.635  -0.313  0.00  0.00    -0.353 OA
ATOM     14  C   UNL d   1      27.055 -12.031  -1.682  0.00  0.00     0.210 C 
ENDBRANCH   9  13
BRANCH  10  15
ATOM     15  O   UNL d   1      26.618 -11.303   2.767  0.00  0.00    -0.351 OA
ATOM     16  C   UNL d   1      27.040  -9.998   2.618  0.00  0.00     0.210 C 
ENDBRANCH  10  15
BRANCH  11  17
ATOM     17  O   UNL d   1      27.084 -13.518   4.303  0.00  0.00    -0.353 OA
ATOM     18  C   UNL d   1      27.808 -14.449   5.103  0.00  0.00     0.210 C 
ENDBRANCH  11  17
ENDBRANCH   6   7
ENDBRANCH   5   6
ENDBRANCH   1   5
BRANCH   3  19
ATOM     19  N   UNL d   1      24.101 -18.336  -0.019  0.00  0.00    -0.274 N 
ATOM     20  H   UNL d   1      24.409 -19.143   0.516  0.00  0.00     0.189 HD
BRANCH  19  21
ATOM     21  C   UNL d   1      22.774 -18.082  -0.353  0.00  0.00     0.186 C 
ATOM     22  S   UNL d   1      22.234 -16.535  -0.746  0.00  0.00    -0.040 SA
BRANCH  21  23
ATOM     23  N   UNL d   1      21.951 -19.206  -0.324  0.00  0.00    -0.366 N 
ATOM     24  H   UNL d   1      22.222 -20.006   0.231  0.00  0.00     0.161 HD
BRANCH  23  25
ATOM     25  C   UNL d   1      20.739 -19.326  -1.144  0.00  0.00     0.122 C 
BRANCH  25  26
ATOM     26  C   UNL d   1      19.420 -19.474  -0.378  0.00  0.00     0.023 C 
BRANCH  26  27
ATOM     27  C   UNL d   1      19.530 -20.502   0.776  0.00  0.00    -0.021 C 
ATOM     28  C   UNL d   1      19.895 -19.837   2.107  0.00  0.00     0.009 C 
ATOM     29  C   UNL d   1      18.213 -21.263   0.946  0.00  0.00     0.009 C 
ENDBRANCH  26  27
ENDBRANCH  25  26
ENDBRANCH  23  25
ENDBRANCH  21  23
ENDBRANCH  19  21
ENDBRANCH   3  19
TORSDOF 12
ENDMDL
MODEL 7
REMARK VINA RESULT:    -6.482      2.464      4.053
REMARK INTER + INTRA:         -11.519
REMARK INTER:                 -10.062
REMARK INTRA:                  -1.457
REMARK CONF_INDEPENDENT:        3.580
REMARK UNBOUND:                -1.457
REMARK  12 active torsions:
REMARK  status: ('A' for Active; 'I' for Inactive)
REMARK    1  A    between atoms: O_2  and  C_3 
REMARK    2  A    between atoms: C_5  and  C_6 
REMARK    3  A    between atoms: C_6  and  C_7 
REMARK    4  A    between atoms: C_7  and  C_8 
REMARK       I    between atoms: C_8  and  N_10 
REMARK    5  A    between atoms: N_10  and  N_11 
REMARK    6  A    between atoms: N_11  and  C_12 
REMARK    7  A    between atoms: C_12  and  N_14 
REMARK    8  A    between atoms: N_14  and  C_15 
REMARK    9  A    between atoms: C_15  and  C_16 
REMARK   10  A    between atoms: C_16  and  C_17 
REMARK   11  A    between atoms: C_21  and  O_22 
REMARK   12  A    between atoms: C_24  and  O_25 
ROOT
ATOM      1  C   UNL d   1      25.299 -14.727  -3.121  0.00  0.00     0.236 C 
ATOM      2  O   UNL d   1      25.157 -15.108  -4.267  0.00  0.00    -0.272 OA
ATOM      3  N   UNL d   1      25.114 -15.561  -2.023  0.00  0.00    -0.268 N 
ATOM      4  H   UNL d   1      25.226 -15.263  -1.056  0.00  0.00     0.190 HD
ENDROOT
BRANCH   1   5
ATOM      5  C   UNL d   1      25.693 -13.295  -2.751  0.00  0.00     0.109 C 
BRANCH   5   6
ATOM      6  C   UNL d   1      25.540 -12.300  -3.926  0.00  0.00     0.048 C 
BRANCH   6   7
ATOM      7  C   UNL d   1      26.573 -12.430  -5.042  0.00  0.00    -0.052 A 
ATOM      8  C   UNL d   1      27.374 -13.591  -5.161  0.00  0.00     0.047 A 
ATOM      9  C   UNL d   1      28.145 -13.869  -6.322  0.00  0.00     0.104 A 
ATOM     10  C   UNL d   1      28.160 -12.902  -7.349  0.00  0.00     0.135 A 
ATOM     11  C   UNL d   1      27.414 -11.703  -7.202  0.00  0.00     0.104 A 
ATOM     12  C   UNL d   1      26.660 -11.472  -6.052  0.00  0.00     0.047 A 
BRANCH   9  13
ATOM     13  O   UNL d   1      28.518 -15.196  -6.409  0.00  0.00    -0.353 OA
ATOM     14  C   UNL d   1      29.503 -15.784  -5.564  0.00  0.00     0.210 C 
ENDBRANCH   9  13
BRANCH  10  15
ATOM     15  O   UNL d   1      28.752 -12.945  -8.565  0.00  0.00    -0.351 OA
ATOM     16  C   UNL d   1      29.928 -12.279  -8.847  0.00  0.00     0.210 C 
ENDBRANCH  10  15
BRANCH  11  17
ATOM     17  O   UNL d   1      27.264 -10.691  -8.137  0.00  0.00    -0.353 OA
ATOM     18  C   UNL d   1      26.867  -9.401  -7.675  0.00  0.00     0.210 C 
ENDBRANCH  11  17
ENDBRANCH   6   7
ENDBRANCH   5   6
ENDBRANCH   1   5
BRANCH   3  19
ATOM     19  N   UNL d   1      24.764 -16.931  -2.223  0.00  0.00    -0.274 N 
ATOM     20  H   UNL d   1      24.780 -17.249  -3.188  0.00  0.00     0.189 HD
BRANCH  19  21
ATOM     21  C   UNL d   1      24.440 -17.742  -1.140  0.00  0.00     0.186 C 
ATOM     22  S   UNL d   1      25.414 -17.828   0.233  0.00  0.00    -0.040 SA
BRANCH  21  23
ATOM     23  N   UNL d   1      23.261 -18.467  -1.300  0.00  0.00    -0.366 N 
ATOM     24  H   UNL d   1      23.018 -18.826  -2.213  0.00  0.00     0.161 HD
BRANCH  23  25
ATOM     25  C   UNL d   1      22.291 -18.659  -0.214  0.00  0.00     0.122 C 
BRANCH  25  26
ATOM     26  C   UNL d   1      20.902 -19.152  -0.631  0.00  0.00     0.023 C 
BRANCH  26  27
ATOM     27  C   UNL d   1      20.240 -20.023   0.467  0.00  0.00    -0.021 C 
ATOM     28  C   UNL d   1      20.280 -19.346   1.841  0.00  0.00     0.009 C 
ATOM     29  C   UNL d   1      18.784 -20.329   0.107  0.00  0.00     0.009 C 
ENDBRANCH  26  27
ENDBRANCH  25  26
ENDBRANCH  23  25
ENDBRANCH  21  23
ENDBRANCH  19  21
ENDBRANCH   3  19
TORSDOF 12
ENDMDL
MODEL 8
REMARK VINA RESULT:    -5.750      4.364      8.886
REMARK INTER + INTRA:         -11.635
REMARK INTER:                  -9.330
REMARK INTRA:                  -2.305
REMARK CONF_INDEPENDENT:        3.580
REMARK UNBOUND:                -2.305
REMARK  12 active torsions:
REMARK  status: ('A' for Active; 'I' for Inactive)
REMARK    1  A    between atoms: O_2  and  C_3 
REMARK    2  A    between atoms: C_5  and  C_6 
REMARK    3  A    between atoms: C_6  and  C_7 
REMARK    4  A    between atoms: C_7  and  C_8 
REMARK       I    between atoms: C_8  and  N_10 
REMARK    5  A    between atoms: N_10  and  N_11 
REMARK    6  A    between atoms: N_11  and  C_12 
REMARK    7  A    between atoms: C_12  and  N_14 
REMARK    8  A    between atoms: N_14  and  C_15 
REMARK    9  A    between atoms: C_15  and  C_16 
REMARK   10  A    between atoms: C_16  and  C_17 
REMARK   11  A    between atoms: C_21  and  O_22 
REMARK   12  A    between atoms: C_24  and  O_25 
ROOT
ATOM      1  C   UNL d   1      27.299 -14.423  -5.474  0.00  0.00     0.236 C 
ATOM      2  O   UNL d   1      26.950 -15.575  -5.654  0.00  0.00    -0.272 OA
ATOM      3  N   UNL d   1      28.393 -13.860  -6.124  0.00  0.00    -0.268 N 
ATOM      4  H   UNL d   1      28.703 -12.900  -5.988  0.00  0.00     0.190 HD
ENDROOT
BRANCH   1   5
ATOM      5  C   UNL d   1      26.583 -13.464  -4.521  0.00  0.00     0.109 C 
BRANCH   5   6
ATOM      6  C   UNL d   1      25.288 -14.060  -3.919  0.00  0.00     0.048 C 
BRANCH   6   7
ATOM      7  C   UNL d   1      25.484 -15.056  -2.781  0.00  0.00    -0.052 A 
ATOM      8  C   UNL d   1      24.375 -15.581  -2.075  0.00  0.00     0.047 A 
ATOM      9  C   UNL d   1      24.486 -16.699  -1.202  0.00  0.00     0.104 A 
ATOM     10  C   UNL d   1      25.772 -17.238  -0.986  0.00  0.00     0.135 A 
ATOM     11  C   UNL d   1      26.896 -16.668  -1.638  0.00  0.00     0.104 A 
ATOM     12  C   UNL d   1      26.744 -15.580  -2.496  0.00  0.00     0.047 A 
BRANCH   9  13
ATOM     13  O   UNL d   1      23.267 -17.292  -0.938  0.00  0.00    -0.353 OA
ATOM     14  C   UNL d   1      23.128 -18.454  -0.125  0.00  0.00     0.210 C 
ENDBRANCH   9  13
BRANCH  10  15
ATOM     15  O   UNL d   1      26.141 -18.322  -0.264  0.00  0.00    -0.351 OA
ATOM     16  C   UNL d   1      26.727 -18.225   0.982  0.00  0.00     0.210 C 
ENDBRANCH  10  15
BRANCH  11  17
ATOM     17  O   UNL d   1      28.206 -17.118  -1.592  0.00  0.00    -0.353 OA
ATOM     18  C   UNL d   1      29.248 -16.190  -1.890  0.00  0.00     0.210 C 
ENDBRANCH  11  17
ENDBRANCH   6   7
ENDBRANCH   5   6
ENDBRANCH   1   5
BRANCH   3  19
ATOM     19  N   UNL d   1      29.141 -14.636  -7.059  0.00  0.00    -0.274 N 
ATOM     20  H   UNL d   1      28.891 -14.502  -8.036  0.00  0.00     0.189 HD
BRANCH  19  21
ATOM     21  C   UNL d   1      30.141 -15.499  -6.622  0.00  0.00     0.186 C 
ATOM     22  S   UNL d   1      31.679 -15.501  -7.311  0.00  0.00    -0.040 SA
BRANCH  21  23
ATOM     23  N   UNL d   1      29.754 -16.347  -5.587  0.00  0.00    -0.366 N 
ATOM     24  H   UNL d   1      28.908 -16.148  -5.071  0.00  0.00     0.161 HD
BRANCH  23  25
ATOM     25  C   UNL d   1      30.572 -17.481  -5.138  0.00  0.00     0.122 C 
BRANCH  25  26
ATOM     26  C   UNL d   1      30.407 -18.785  -5.927  0.00  0.00     0.023 C 
BRANCH  26  27
ATOM     27  C   UNL d   1      31.370 -18.856  -7.140  0.00  0.00    -0.021 C 
ATOM     28  C   UNL d   1      32.840 -18.839  -6.710  0.00  0.00     0.009 C 
ATOM     29  C   UNL d   1      31.107 -20.120  -7.962  0.00  0.00     0.009 C 
ENDBRANCH  26  27
ENDBRANCH  25  26
ENDBRANCH  23  25
ENDBRANCH  21  23
ENDBRANCH  19  21
ENDBRANCH   3  19
TORSDOF 12
ENDMDL
MODEL 9
REMARK VINA RESULT:    -5.724      4.418      8.259
REMARK INTER + INTRA:         -11.678
REMARK INTER:                  -9.304
REMARK INTRA:                  -2.374
REMARK CONF_INDEPENDENT:        3.580
REMARK UNBOUND:                -2.374
REMARK  12 active torsions:
REMARK  status: ('A' for Active; 'I' for Inactive)
REMARK    1  A    between atoms: O_2  and  C_3 
REMARK    2  A    between atoms: C_5  and  C_6 
REMARK    3  A    between atoms: C_6  and  C_7 
REMARK    4  A    between atoms: C_7  and  C_8 
REMARK       I    between atoms: C_8  and  N_10 
REMARK    5  A    between atoms: N_10  and  N_11 
REMARK    6  A    between atoms: N_11  and  C_12 
REMARK    7  A    between atoms: C_12  and  N_14 
REMARK    8  A    between atoms: N_14  and  C_15 
REMARK    9  A    between atoms: C_15  and  C_16 
REMARK   10  A    between atoms: C_16  and  C_17 
REMARK   11  A    between atoms: C_21  and  O_22 
REMARK   12  A    between atoms: C_24  and  O_25 
ROOT
ATOM      1  C   UNL d   1      27.327 -14.418  -5.575  0.00  0.00     0.236 C 
ATOM      2  O   UNL d   1      26.941 -15.554  -5.772  0.00  0.00    -0.272 OA
ATOM      3  N   UNL d   1      28.414 -13.867  -6.247  0.00  0.00    -0.268 N 
ATOM      4  H   UNL d   1      28.754 -12.918  -6.097  0.00  0.00     0.190 HD
ENDROOT
BRANCH   1   5
ATOM      5  C   UNL d   1      26.671 -13.465  -4.573  0.00  0.00     0.109 C 
BRANCH   5   6
ATOM      6  C   UNL d   1      25.365 -14.031  -3.964  0.00  0.00     0.048 C 
BRANCH   6   7
ATOM      7  C   UNL d   1      25.540 -15.172  -2.966  0.00  0.00    -0.052 A 
ATOM      8  C   UNL d   1      26.825 -15.686  -2.666  0.00  0.00     0.047 A 
ATOM      9  C   UNL d   1      27.061 -16.549  -1.562  0.00  0.00     0.104 A 
ATOM     10  C   UNL d   1      25.949 -16.958  -0.797  0.00  0.00     0.135 A 
ATOM     11  C   UNL d   1      24.649 -16.501  -1.138  0.00  0.00     0.104 A 
ATOM     12  C   UNL d   1      24.460 -15.645  -2.222  0.00  0.00     0.047 A 
BRANCH   9  13
ATOM     13  O   UNL d   1      28.395 -16.609  -1.208  0.00  0.00    -0.353 OA
ATOM     14  C   UNL d   1      29.425 -15.956  -1.945  0.00  0.00     0.210 C 
ENDBRANCH   9  13
BRANCH  10  15
ATOM     15  O   UNL d   1      25.906 -17.714   0.325  0.00  0.00    -0.351 OA
ATOM     16  C   UNL d   1      26.921 -18.579   0.683  0.00  0.00     0.210 C 
ENDBRANCH  10  15
BRANCH  11  17
ATOM     17  O   UNL d   1      23.469 -16.747  -0.455  0.00  0.00    -0.353 OA
ATOM     18  C   UNL d   1      22.912 -18.059  -0.523  0.00  0.00     0.210 C 
ENDBRANCH  11  17
ENDBRANCH   6   7
ENDBRANCH   5   6
ENDBRANCH   1   5
BRANCH   3  19
ATOM     19  N   UNL d   1      29.108 -14.637  -7.228  0.00  0.00    -0.274 N 
ATOM     20  H   UNL d   1      28.837 -14.461  -8.192  0.00  0.00     0.189 HD
BRANCH  19  21
ATOM     21  C   UNL d   1      30.088 -15.548  -6.847  0.00  0.00     0.186 C 
ATOM     22  S   UNL d   1      31.582 -15.625  -7.622  0.00  0.00    -0.040 SA
BRANCH  21  23
ATOM     23  N   UNL d   1      29.719 -16.377  -5.790  0.00  0.00    -0.366 N 
ATOM     24  H   UNL d   1      28.739 -16.557  -5.618  0.00  0.00     0.161 HD
BRANCH  23  25
ATOM     25  C   UNL d   1      30.690 -16.936  -4.840  0.00  0.00     0.122 C 
BRANCH  25  26
ATOM     26  C   UNL d   1      30.407 -18.359  -4.347  0.00  0.00     0.023 C 
BRANCH  26  27
ATOM     27  C   UNL d   1      31.015 -19.431  -5.288  0.00  0.00    -0.021 C 
ATOM     28  C   UNL d   1      30.431 -20.823  -5.027  0.00  0.00     0.009 C 
ATOM     29  C   UNL d   1      30.778 -19.059  -6.753  0.00  0.00     0.009 C 
ENDBRANCH  26  27
ENDBRANCH  25  26
ENDBRANCH  23  25
ENDBRANCH  21  23
ENDBRANCH  19  21
ENDBRANCH   3  19
TORSDOF 12
ENDMDL
