MODEL 1
REMARK VINA RESULT:    -9.950      0.000      0.000
REMARK INTER + INTRA:         -14.634
REMARK INTER:                 -12.336
REMARK INTRA:                  -2.298
REMARK CONF_INDEPENDENT:        2.386
REMARK UNBOUND:                -2.298
REMARK  8 active torsions:
REMARK  status: ('A' for Active; 'I' for Inactive)
REMARK       I    between atoms: C_2  and  N_3 
REMARK    1  A    between atoms: C_2  and  C_13 
REMARK    2  A    between atoms: N_3  and  N_4 
REMARK    3  A    between atoms: C_5  and  C_6 
REMARK    4  A    between atoms: C_10  and  O_11 
REMARK    5  A    between atoms: C_15  and  C_16 
REMARK    6  A    between atoms: C_21  and  O_22 
REMARK    7  A    between atoms: O_22  and  C_23 
REMARK    8  A    between atoms: C_23  and  C_24 
ROOT
ATOM      1  C   UNL d   1      27.846 -14.066   2.268  0.00  0.00     0.121 A 
ATOM      2  C   UNL d   1      27.228 -13.132   1.456  0.00  0.00     0.071 A 
ATOM      3  C   UNL d   1      27.725 -13.288   0.141  0.00  0.00     0.092 A 
ATOM      4  N   UNL d   1      28.573 -14.330   0.107  0.00  0.00    -0.174 NA
ATOM      5  N   UNL d   1      28.638 -14.760   1.394  0.00  0.00    -0.272 N 
ATOM      6  H   UNL d   1      29.202 -15.582   1.579  0.00  0.00     0.189 HD
ENDROOT
BRANCH   3   7
ATOM      7  C   UNL d   1      27.357 -12.476  -1.033  0.00  0.00     0.028 A 
ATOM      8  C   UNL d   1      27.973 -11.235  -1.251  0.00  0.00     0.017 A 
ATOM      9  C   UNL d   1      27.670 -10.474  -2.387  0.00  0.00     0.001 A 
ATOM     10  C   UNL d   1      26.739 -10.935  -3.314  0.00  0.00     0.003 A 
ATOM     11  C   UNL d   1      26.121 -12.169  -3.118  0.00  0.00     0.038 A 
ATOM     12  C   UNL d   1      26.434 -12.948  -1.993  0.00  0.00     0.081 A 
BRANCH  12  13
ATOM     13  O   UNL d   1      25.887 -14.174  -1.743  0.00  0.00    -0.346 OA
BRANCH  13  14
ATOM     14  C   UNL d   1      26.563 -15.333  -2.214  0.00  0.00     0.215 C 
BRANCH  14  15
ATOM     15  C   UNL d   1      26.317 -16.415  -1.183  0.00  0.00    -0.023 C 
ATOM     16  C   UNL d   1      27.488 -16.998  -0.594  0.00  0.00     0.010 C 
ATOM     17  C   UNL d   1      27.379 -18.099   0.228  0.00  0.00     0.002 C 
ATOM     18  C   UNL d   1      26.116 -18.578   0.542  0.00  0.00     0.012 C 
ATOM     19  C   UNL d   1      24.968 -17.995  -0.037  0.00  0.00    -0.028 C 
ATOM     20  C   UNL d   1      23.759 -18.607   0.231  0.00  0.00    -0.005 C 
ATOM     21  C   UNL d   1      24.945 -16.869  -0.815  0.00  0.00    -0.018 C 
ATOM     22  C   UNL d   1      22.585 -18.127  -0.382  0.00  0.00     0.043 C 
ATOM     23  C   UNL d   1      22.213 -16.860  -0.748  0.00  0.00    -0.016 C 
ATOM     24  C   UNL d   1      23.485 -16.327  -1.071  0.00  0.00     0.009 C 
ENDBRANCH  14  15
ENDBRANCH  13  14
ENDBRANCH  12  13
ENDBRANCH   3   7
BRANCH   1  25
ATOM     25  C   UNL d   1      27.575 -14.314   3.679  0.00  0.00     0.289 C 
ATOM     26  O   UNL d   1      26.650 -13.745   4.253  0.00  0.00    -0.264 OA
ATOM     27  N   UNL d   1      28.456 -15.162   4.348  0.00  0.00    -0.242 N 
ATOM     28  H   UNL d   1      29.230 -15.572   3.851  0.00  0.00     0.192 HD
BRANCH  27  29
ATOM     29  N   UNL d   1      28.347 -15.362   5.719  0.00  0.00    -0.183 NA
ATOM     30  C   UNL d   1      28.768 -14.448   6.550  0.00  0.00     0.150 C 
BRANCH  30  31
ATOM     31  C   UNL d   1      29.290 -13.115   6.198  0.00  0.00    -0.014 A 
ATOM     32  C   UNL d   1      28.403 -12.037   6.229  0.00  0.00     0.013 A 
ATOM     33  C   UNL d   1      28.807 -10.789   5.777  0.00  0.00     0.004 A 
ATOM     34  C   UNL d   1      30.128 -10.591   5.374  0.00  0.00     0.036 A 
ATOM     35  C   UNL d   1      31.030 -11.656   5.421  0.00  0.00     0.066 A 
ATOM     36  C   UNL d   1      30.621 -12.927   5.824  0.00  0.00     0.049 A 
BRANCH  35  37
ATOM     37  O   UNL d   1      32.340 -11.510   5.065  0.00  0.00    -0.361 OA
ATOM     38  H   UNL d   1      32.880 -12.201   5.482  0.00  0.00     0.217 HD
ENDBRANCH  35  37
ENDBRANCH  30  31
ENDBRANCH  27  29
ENDBRANCH   1  25
TORSDOF 8
ENDMDL
MODEL 2
REMARK VINA RESULT:    -9.472      5.545      9.518
REMARK INTER + INTRA:         -14.158
REMARK INTER:                 -11.858
REMARK INTRA:                  -2.300
REMARK CONF_INDEPENDENT:        2.386
REMARK UNBOUND:                -2.300
REMARK  8 active torsions:
REMARK  status: ('A' for Active; 'I' for Inactive)
REMARK       I    between atoms: C_2  and  N_3 
REMARK    1  A    between atoms: C_2  and  C_13 
REMARK    2  A    between atoms: N_3  and  N_4 
REMARK    3  A    between atoms: C_5  and  C_6 
REMARK    4  A    between atoms: C_10  and  O_11 
REMARK    5  A    between atoms: C_15  and  C_16 
REMARK    6  A    between atoms: C_21  and  O_22 
REMARK    7  A    between atoms: O_22  and  C_23 
REMARK    8  A    between atoms: C_23  and  C_24 
ROOT
ATOM      1  C   UNL d   1      25.686 -12.496  -3.829  0.00  0.00     0.121 A 
ATOM      2  C   UNL d   1      26.017 -13.315  -2.764  0.00  0.00     0.071 A 
ATOM      3  C   UNL d   1      25.235 -14.490  -2.848  0.00  0.00     0.092 A 
ATOM      4  N   UNL d   1      24.489 -14.449  -3.965  0.00  0.00    -0.174 NA
ATOM      5  N   UNL d   1      24.766 -13.240  -4.517  0.00  0.00    -0.272 N 
ATOM      6  H   UNL d   1      24.330 -13.026  -5.407  0.00  0.00     0.189 HD
ENDROOT
BRANCH   3   7
ATOM      7  C   UNL d   1      25.248 -15.616  -1.897  0.00  0.00     0.028 A 
ATOM      8  C   UNL d   1      24.043 -16.208  -1.491  0.00  0.00     0.017 A 
ATOM      9  C   UNL d   1      24.041 -17.310  -0.627  0.00  0.00     0.001 A 
ATOM     10  C   UNL d   1      25.240 -17.827  -0.144  0.00  0.00     0.003 A 
ATOM     11  C   UNL d   1      26.448 -17.256  -0.541  0.00  0.00     0.038 A 
ATOM     12  C   UNL d   1      26.461 -16.166  -1.424  0.00  0.00     0.081 A 
BRANCH  12  13
ATOM     13  O   UNL d   1      27.602 -15.567  -1.874  0.00  0.00    -0.346 OA
BRANCH  13  14
ATOM     14  C   UNL d   1      28.732 -16.379  -2.164  0.00  0.00     0.215 C 
BRANCH  14  15
ATOM     15  C   UNL d   1      29.109 -16.084  -3.600  0.00  0.00    -0.023 C 
ATOM     16  C   UNL d   1      28.670 -14.820  -4.118  0.00  0.00     0.010 C 
ATOM     17  C   UNL d   1      28.816 -14.527  -5.457  0.00  0.00     0.002 C 
ATOM     18  C   UNL d   1      29.469 -15.437  -6.274  0.00  0.00     0.012 C 
ATOM     19  C   UNL d   1      29.904 -16.676  -5.757  0.00  0.00    -0.028 C 
ATOM     20  C   UNL d   1      30.437 -17.575  -6.661  0.00  0.00    -0.005 C 
ATOM     21  C   UNL d   1      29.870 -17.054  -4.441  0.00  0.00    -0.018 C 
ATOM     22  C   UNL d   1      30.813 -18.861  -6.225  0.00  0.00     0.043 C 
ATOM     23  C   UNL d   1      31.319 -19.295  -5.029  0.00  0.00    -0.016 C 
ATOM     24  C   UNL d   1      30.679 -18.378  -4.159  0.00  0.00     0.009 C 
ENDBRANCH  14  15
ENDBRANCH  13  14
ENDBRANCH  12  13
ENDBRANCH   3   7
BRANCH   1  25
ATOM     25  C   UNL d   1      26.303 -11.221  -4.177  0.00  0.00     0.289 C 
ATOM     26  O   UNL d   1      27.250 -10.782  -3.529  0.00  0.00    -0.264 OA
ATOM     27  N   UNL d   1      25.721 -10.506  -5.222  0.00  0.00    -0.242 N 
ATOM     28  H   UNL d   1      24.917 -10.882  -5.697  0.00  0.00     0.192 HD
BRANCH  27  29
ATOM     29  N   UNL d   1      26.167  -9.230  -5.545  0.00  0.00    -0.183 NA
ATOM     30  C   UNL d   1      26.825  -9.029  -6.655  0.00  0.00     0.150 C 
BRANCH  30  31
ATOM     31  C   UNL d   1      27.092 -10.022  -7.710  0.00  0.00    -0.014 A 
ATOM     32  C   UNL d   1      26.655  -9.733  -9.005  0.00  0.00     0.013 A 
ATOM     33  C   UNL d   1      26.758 -10.689 -10.005  0.00  0.00     0.004 A 
ATOM     34  C   UNL d   1      27.380 -11.909  -9.737  0.00  0.00     0.036 A 
ATOM     35  C   UNL d   1      27.884 -12.160  -8.459  0.00  0.00     0.066 A 
ATOM     36  C   UNL d   1      27.739 -11.226  -7.434  0.00  0.00     0.049 A 
BRANCH  35  37
ATOM     37  O   UNL d   1      28.526 -13.325  -8.151  0.00  0.00    -0.361 OA
ATOM     38  H   UNL d   1      28.974 -13.679  -8.937  0.00  0.00     0.217 HD
ENDBRANCH  35  37
ENDBRANCH  30  31
ENDBRANCH  27  29
ENDBRANCH   1  25
TORSDOF 8
ENDMDL
MODEL 3
REMARK VINA RESULT:    -9.105      1.082      2.219
REMARK INTER + INTRA:         -14.143
REMARK INTER:                 -11.492
REMARK INTRA:                  -2.651
REMARK CONF_INDEPENDENT:        2.386
REMARK UNBOUND:                -2.651
REMARK  8 active torsions:
REMARK  status: ('A' for Active; 'I' for Inactive)
REMARK       I    between atoms: C_2  and  N_3 
REMARK    1  A    between atoms: C_2  and  C_13 
REMARK    2  A    between atoms: N_3  and  N_4 
REMARK    3  A    between atoms: C_5  and  C_6 
REMARK    4  A    between atoms: C_10  and  O_11 
REMARK    5  A    between atoms: C_15  and  C_16 
REMARK    6  A    between atoms: C_21  and  O_22 
REMARK    7  A    between atoms: O_22  and  C_23 
REMARK    8  A    between atoms: C_23  and  C_24 
ROOT
ATOM      1  C   UNL d   1      27.995 -14.145   1.657  0.00  0.00     0.121 A 
ATOM      2  C   UNL d   1      27.410 -13.555   0.551  0.00  0.00     0.071 A 
ATOM      3  C   UNL d   1      28.154 -13.924  -0.594  0.00  0.00     0.092 A 
ATOM      4  N   UNL d   1      29.131 -14.775  -0.235  0.00  0.00    -0.174 NA
ATOM      5  N   UNL d   1      29.020 -14.870   1.115  0.00  0.00    -0.272 N 
ATOM      6  H   UNL d   1      29.650 -15.510   1.586  0.00  0.00     0.189 HD
ENDROOT
BRANCH   3   7
ATOM      7  C   UNL d   1      27.895 -13.491  -1.980  0.00  0.00     0.028 A 
ATOM      8  C   UNL d   1      28.935 -12.962  -2.757  0.00  0.00     0.017 A 
ATOM      9  C   UNL d   1      28.717 -12.592  -4.090  0.00  0.00     0.001 A 
ATOM     10  C   UNL d   1      27.455 -12.733  -4.661  0.00  0.00     0.003 A 
ATOM     11  C   UNL d   1      26.410 -13.263  -3.906  0.00  0.00     0.038 A 
ATOM     12  C   UNL d   1      26.625 -13.656  -2.576  0.00  0.00     0.081 A 
BRANCH  12  13
ATOM     13  O   UNL d   1      25.659 -14.202  -1.781  0.00  0.00    -0.346 OA
BRANCH  13  14
ATOM     14  C   UNL d   1      24.607 -14.940  -2.391  0.00  0.00     0.215 C 
BRANCH  14  15
ATOM     15  C   UNL d   1      24.386 -16.159  -1.521  0.00  0.00    -0.023 C 
ATOM     16  C   UNL d   1      23.018 -16.511  -1.270  0.00  0.00     0.010 C 
ATOM     17  C   UNL d   1      22.709 -17.499  -0.360  0.00  0.00     0.002 C 
ATOM     18  C   UNL d   1      23.741 -18.203   0.241  0.00  0.00     0.012 C 
ATOM     19  C   UNL d   1      25.085 -17.856  -0.016  0.00  0.00    -0.028 C 
ATOM     20  C   UNL d   1      26.050 -18.523   0.713  0.00  0.00    -0.005 C 
ATOM     21  C   UNL d   1      25.516 -16.940  -0.938  0.00  0.00    -0.018 C 
ATOM     22  C   UNL d   1      27.405 -18.166   0.566  0.00  0.00     0.043 C 
ATOM     23  C   UNL d   1      28.104 -17.710  -0.520  0.00  0.00    -0.016 C 
ATOM     24  C   UNL d   1      27.075 -16.987  -1.172  0.00  0.00     0.009 C 
ENDBRANCH  14  15
ENDBRANCH  13  14
ENDBRANCH  12  13
ENDBRANCH   3   7
BRANCH   1  25
ATOM     25  C   UNL d   1      27.511 -14.097   3.032  0.00  0.00     0.289 C 
ATOM     26  O   UNL d   1      26.651 -13.287   3.369  0.00  0.00    -0.264 OA
ATOM     27  N   UNL d   1      28.120 -14.958   3.943  0.00  0.00    -0.242 N 
ATOM     28  H   UNL d   1      28.853 -15.575   3.633  0.00  0.00     0.192 HD
BRANCH  27  29
ATOM     29  N   UNL d   1      27.807 -14.900   5.296  0.00  0.00    -0.183 NA
ATOM     30  C   UNL d   1      28.277 -13.932   6.035  0.00  0.00     0.150 C 
BRANCH  30  31
ATOM     31  C   UNL d   1      29.066 -12.776   5.572  0.00  0.00    -0.014 A 
ATOM     32  C   UNL d   1      28.376 -11.624   5.190  0.00  0.00     0.013 A 
ATOM     33  C   UNL d   1      29.058 -10.559   4.619  0.00  0.00     0.004 A 
ATOM     34  C   UNL d   1      30.448 -10.606   4.508  0.00  0.00     0.036 A 
ATOM     35  C   UNL d   1      31.139 -11.731   4.964  0.00  0.00     0.066 A 
ATOM     36  C   UNL d   1      30.458 -12.827   5.491  0.00  0.00     0.049 A 
BRANCH  35  37
ATOM     37  O   UNL d   1      32.500 -11.816   4.906  0.00  0.00    -0.361 OA
ATOM     38  H   UNL d   1      32.813 -12.569   5.434  0.00  0.00     0.217 HD
ENDBRANCH  35  37
ENDBRANCH  30  31
ENDBRANCH  27  29
ENDBRANCH   1  25
TORSDOF 8
ENDMDL
MODEL 4
REMARK VINA RESULT:    -9.095      3.955      7.790
REMARK INTER + INTRA:         -14.398
REMARK INTER:                 -11.482
REMARK INTRA:                  -2.916
REMARK CONF_INDEPENDENT:        2.386
REMARK UNBOUND:                -2.916
REMARK  8 active torsions:
REMARK  status: ('A' for Active; 'I' for Inactive)
REMARK       I    between atoms: C_2  and  N_3 
REMARK    1  A    between atoms: C_2  and  C_13 
REMARK    2  A    between atoms: N_3  and  N_4 
REMARK    3  A    between atoms: C_5  and  C_6 
REMARK    4  A    between atoms: C_10  and  O_11 
REMARK    5  A    between atoms: C_15  and  C_16 
REMARK    6  A    between atoms: C_21  and  O_22 
REMARK    7  A    between atoms: O_22  and  C_23 
REMARK    8  A    between atoms: C_23  and  C_24 
ROOT
ATOM      1  C   UNL d   1      28.715 -17.156  -0.519  0.00  0.00     0.121 A 
ATOM      2  C   UNL d   1      27.478 -17.528  -1.015  0.00  0.00     0.071 A 
ATOM      3  C   UNL d   1      26.484 -17.059  -0.125  0.00  0.00     0.092 A 
ATOM      4  N   UNL d   1      27.065 -16.353   0.860  0.00  0.00    -0.174 NA
ATOM      5  N   UNL d   1      28.396 -16.446   0.607  0.00  0.00    -0.272 N 
ATOM      6  H   UNL d   1      29.020 -15.936   1.221  0.00  0.00     0.189 HD
ENDROOT
BRANCH   3   7
ATOM      7  C   UNL d   1      25.029 -17.263  -0.256  0.00  0.00     0.028 A 
ATOM      8  C   UNL d   1      24.426 -18.400   0.299  0.00  0.00     0.017 A 
ATOM      9  C   UNL d   1      23.039 -18.583   0.226  0.00  0.00     0.001 A 
ATOM     10  C   UNL d   1      22.238 -17.641  -0.414  0.00  0.00     0.003 A 
ATOM     11  C   UNL d   1      22.819 -16.501  -0.967  0.00  0.00     0.038 A 
ATOM     12  C   UNL d   1      24.205 -16.298  -0.879  0.00  0.00     0.081 A 
BRANCH  12  13
ATOM     13  O   UNL d   1      24.845 -15.199  -1.377  0.00  0.00    -0.346 OA
BRANCH  13  14
ATOM     14  C   UNL d   1      24.744 -14.921  -2.768  0.00  0.00     0.215 C 
BRANCH  14  15
ATOM     15  C   UNL d   1      26.162 -14.743  -3.268  0.00  0.00    -0.023 C 
ATOM     16  C   UNL d   1      26.408 -15.154  -4.620  0.00  0.00     0.010 C 
ATOM     17  C   UNL d   1      27.695 -15.188  -5.114  0.00  0.00     0.002 C 
ATOM     18  C   UNL d   1      28.733 -14.737  -4.313  0.00  0.00     0.012 C 
ATOM     19  C   UNL d   1      28.482 -14.328  -2.985  0.00  0.00    -0.028 C 
ATOM     20  C   UNL d   1      29.584 -14.009  -2.215  0.00  0.00    -0.005 C 
ATOM     21  C   UNL d   1      27.249 -14.194  -2.405  0.00  0.00    -0.018 C 
ATOM     22  C   UNL d   1      29.411 -13.673  -0.858  0.00  0.00     0.043 C 
ATOM     23  C   UNL d   1      28.389 -13.028  -0.212  0.00  0.00    -0.016 C 
ATOM     24  C   UNL d   1      27.301 -13.457  -1.011  0.00  0.00     0.009 C 
ENDBRANCH  14  15
ENDBRANCH  13  14
ENDBRANCH  12  13
ENDBRANCH   3   7
BRANCH   1  25
ATOM     25  C   UNL d   1      30.010 -17.363  -1.155  0.00  0.00     0.289 C 
ATOM     26  O   UNL d   1      30.280 -16.823  -2.225  0.00  0.00    -0.264 OA
ATOM     27  N   UNL d   1      30.883 -18.251  -0.530  0.00  0.00    -0.242 N 
ATOM     28  H   UNL d   1      30.604 -18.708   0.324  0.00  0.00     0.192 HD
BRANCH  27  29
ATOM     29  N   UNL d   1      32.090 -18.600  -1.124  0.00  0.00    -0.183 NA
ATOM     30  C   UNL d   1      32.436 -19.856  -1.214  0.00  0.00     0.150 C 
BRANCH  30  31
ATOM     31  C   UNL d   1      31.621 -21.021  -0.827  0.00  0.00    -0.014 A 
ATOM     32  C   UNL d   1      31.588 -22.113  -1.696  0.00  0.00     0.013 A 
ATOM     33  C   UNL d   1      30.733 -23.177  -1.447  0.00  0.00     0.004 A 
ATOM     34  C   UNL d   1      29.969 -23.195  -0.279  0.00  0.00     0.036 A 
ATOM     35  C   UNL d   1      30.067 -22.134   0.624  0.00  0.00     0.066 A 
ATOM     36  C   UNL d   1      30.884 -21.036   0.358  0.00  0.00     0.049 A 
BRANCH  35  37
ATOM     37  O   UNL d   1      29.365 -22.115   1.795  0.00  0.00    -0.361 OA
ATOM     38  H   UNL d   1      29.217 -21.199   2.083  0.00  0.00     0.217 HD
ENDBRANCH  35  37
ENDBRANCH  30  31
ENDBRANCH  27  29
ENDBRANCH   1  25
TORSDOF 8
ENDMDL
MODEL 5
REMARK VINA RESULT:    -8.972      3.658      8.392
REMARK INTER + INTRA:         -14.540
REMARK INTER:                 -11.359
REMARK INTRA:                  -3.181
REMARK CONF_INDEPENDENT:        2.386
REMARK UNBOUND:                -3.181
REMARK  8 active torsions:
REMARK  status: ('A' for Active; 'I' for Inactive)
REMARK       I    between atoms: C_2  and  N_3 
REMARK    1  A    between atoms: C_2  and  C_13 
REMARK    2  A    between atoms: N_3  and  N_4 
REMARK    3  A    between atoms: C_5  and  C_6 
REMARK    4  A    between atoms: C_10  and  O_11 
REMARK    5  A    between atoms: C_15  and  C_16 
REMARK    6  A    between atoms: C_21  and  O_22 
REMARK    7  A    between atoms: O_22  and  C_23 
REMARK    8  A    between atoms: C_23  and  C_24 
ROOT
ATOM      1  C   UNL d   1      26.309 -14.563  -4.374  0.00  0.00     0.121 A 
ATOM      2  C   UNL d   1      26.355 -15.603  -3.463  0.00  0.00     0.071 A 
ATOM      3  C   UNL d   1      25.208 -15.523  -2.640  0.00  0.00     0.092 A 
ATOM      4  N   UNL d   1      24.427 -14.513  -3.061  0.00  0.00    -0.174 NA
ATOM      5  N   UNL d   1      25.121 -13.949  -4.083  0.00  0.00    -0.272 N 
ATOM      6  H   UNL d   1      24.677 -13.182  -4.576  0.00  0.00     0.189 HD
ENDROOT
BRANCH   3   7
ATOM      7  C   UNL d   1      24.876 -16.419  -1.518  0.00  0.00     0.028 A 
ATOM      8  C   UNL d   1      23.541 -16.771  -1.269  0.00  0.00     0.017 A 
ATOM      9  C   UNL d   1      23.214 -17.660  -0.238  0.00  0.00     0.001 A 
ATOM     10  C   UNL d   1      24.213 -18.200   0.568  0.00  0.00     0.003 A 
ATOM     11  C   UNL d   1      25.546 -17.867   0.333  0.00  0.00     0.038 A 
ATOM     12  C   UNL d   1      25.885 -16.994  -0.712  0.00  0.00     0.081 A 
BRANCH  12  13
ATOM     13  O   UNL d   1      27.167 -16.637  -1.018  0.00  0.00    -0.346 OA
BRANCH  13  14
ATOM     14  C   UNL d   1      28.023 -16.200   0.030  0.00  0.00     0.215 C 
BRANCH  14  15
ATOM     15  C   UNL d   1      27.626 -14.770   0.333  0.00  0.00    -0.023 C 
ATOM     16  C   UNL d   1      27.247 -13.971  -0.797  0.00  0.00     0.010 C 
ATOM     17  C   UNL d   1      27.030 -12.617  -0.652  0.00  0.00     0.002 C 
ATOM     18  C   UNL d   1      27.100 -12.060   0.617  0.00  0.00     0.012 C 
ATOM     19  C   UNL d   1      27.468 -12.854   1.725  0.00  0.00    -0.028 C 
ATOM     20  C   UNL d   1      27.633 -12.200   2.930  0.00  0.00    -0.005 C 
ATOM     21  C   UNL d   1      27.648 -14.212   1.716  0.00  0.00    -0.018 C 
ATOM     22  C   UNL d   1      28.080 -12.918   4.056  0.00  0.00     0.043 C 
ATOM     23  C   UNL d   1      27.868 -14.217   4.440  0.00  0.00    -0.016 C 
ATOM     24  C   UNL d   1      27.780 -14.825   3.164  0.00  0.00     0.009 C 
ENDBRANCH  14  15
ENDBRANCH  13  14
ENDBRANCH  12  13
ENDBRANCH   3   7
BRANCH   1  25
ATOM     25  C   UNL d   1      27.247 -14.310  -5.461  0.00  0.00     0.289 C 
ATOM     26  O   UNL d   1      27.347 -15.093  -6.403  0.00  0.00    -0.264 OA
ATOM     27  N   UNL d   1      28.064 -13.187  -5.339  0.00  0.00    -0.242 N 
ATOM     28  H   UNL d   1      27.980 -12.595  -4.528  0.00  0.00     0.192 HD
BRANCH  27  29
ATOM     29  N   UNL d   1      29.067 -12.932  -6.266  0.00  0.00    -0.183 NA
ATOM     30  C   UNL d   1      30.039 -13.787  -6.430  0.00  0.00     0.150 C 
BRANCH  30  31
ATOM     31  C   UNL d   1      30.166 -15.107  -5.786  0.00  0.00    -0.014 A 
ATOM     32  C   UNL d   1      30.448 -16.207  -6.599  0.00  0.00     0.013 A 
ATOM     33  C   UNL d   1      30.443 -17.488  -6.066  0.00  0.00     0.004 A 
ATOM     34  C   UNL d   1      30.242 -17.669  -4.697  0.00  0.00     0.036 A 
ATOM     35  C   UNL d   1      30.038 -16.557  -3.877  0.00  0.00     0.066 A 
ATOM     36  C   UNL d   1      29.989 -15.269  -4.412  0.00  0.00     0.049 A 
BRANCH  35  37
ATOM     37  O   UNL d   1      29.865 -16.675  -2.528  0.00  0.00    -0.361 OA
ATOM     38  H   UNL d   1      28.918 -16.678  -2.311  0.00  0.00     0.217 HD
ENDBRANCH  35  37
ENDBRANCH  30  31
ENDBRANCH  27  29
ENDBRANCH   1  25
TORSDOF 8
ENDMDL
MODEL 6
REMARK VINA RESULT:    -8.932      5.301      8.818
REMARK INTER + INTRA:         -14.264
REMARK INTER:                 -11.318
REMARK INTRA:                  -2.946
REMARK CONF_INDEPENDENT:        2.386
REMARK UNBOUND:                -2.946
REMARK  8 active torsions:
REMARK  status: ('A' for Active; 'I' for Inactive)
REMARK       I    between atoms: C_2  and  N_3 
REMARK    1  A    between atoms: C_2  and  C_13 
REMARK    2  A    between atoms: N_3  and  N_4 
REMARK    3  A    between atoms: C_5  and  C_6 
REMARK    4  A    between atoms: C_10  and  O_11 
REMARK    5  A    between atoms: C_15  and  C_16 
REMARK    6  A    between atoms: C_21  and  O_22 
REMARK    7  A    between atoms: O_22  and  C_23 
REMARK    8  A    between atoms: C_23  and  C_24 
ROOT
ATOM      1  C   UNL d   1      25.527 -12.823  -3.497  0.00  0.00     0.121 A 
ATOM      2  C   UNL d   1      25.966 -13.609  -2.447  0.00  0.00     0.071 A 
ATOM      3  C   UNL d   1      25.230 -14.816  -2.459  0.00  0.00     0.092 A 
ATOM      4  N   UNL d   1      24.405 -14.825  -3.520  0.00  0.00    -0.174 NA
ATOM      5  N   UNL d   1      24.593 -13.615  -4.107  0.00  0.00    -0.272 N 
ATOM      6  H   UNL d   1      24.086 -13.435  -4.966  0.00  0.00     0.189 HD
ENDROOT
BRANCH   3   7
ATOM      7  C   UNL d   1      25.356 -15.925  -1.494  0.00  0.00     0.028 A 
ATOM      8  C   UNL d   1      24.210 -16.581  -1.023  0.00  0.00     0.017 A 
ATOM      9  C   UNL d   1      24.316 -17.667  -0.145  0.00  0.00     0.001 A 
ATOM     10  C   UNL d   1      25.567 -18.104   0.284  0.00  0.00     0.003 A 
ATOM     11  C   UNL d   1      26.717 -17.469  -0.178  0.00  0.00     0.038 A 
ATOM     12  C   UNL d   1      26.622 -16.394  -1.075  0.00  0.00     0.081 A 
BRANCH  12  13
ATOM     13  O   UNL d   1      27.702 -15.735  -1.588  0.00  0.00    -0.346 OA
BRANCH  13  14
ATOM     14  C   UNL d   1      29.003 -16.241  -1.319  0.00  0.00     0.215 C 
BRANCH  14  15
ATOM     15  C   UNL d   1      29.565 -16.695  -2.650  0.00  0.00    -0.023 C 
ATOM     16  C   UNL d   1      30.610 -17.676  -2.588  0.00  0.00     0.010 C 
ATOM     17  C   UNL d   1      31.300 -18.031  -3.728  0.00  0.00     0.002 C 
ATOM     18  C   UNL d   1      30.909 -17.489  -4.943  0.00  0.00     0.012 C 
ATOM     19  C   UNL d   1      29.875 -16.529  -4.997  0.00  0.00    -0.028 C 
ATOM     20  C   UNL d   1      29.629 -15.950  -6.226  0.00  0.00    -0.005 C 
ATOM     21  C   UNL d   1      29.082 -16.144  -3.950  0.00  0.00    -0.018 C 
ATOM     22  C   UNL d   1      28.668 -14.925  -6.333  0.00  0.00     0.043 C 
ATOM     23  C   UNL d   1      27.496 -14.714  -5.655  0.00  0.00    -0.016 C 
ATOM     24  C   UNL d   1      27.851 -15.266  -4.399  0.00  0.00     0.009 C 
ENDBRANCH  14  15
ENDBRANCH  13  14
ENDBRANCH  12  13
ENDBRANCH   3   7
BRANCH   1  25
ATOM     25  C   UNL d   1      26.065 -11.531  -3.907  0.00  0.00     0.289 C 
ATOM     26  O   UNL d   1      26.903 -10.951  -3.220  0.00  0.00    -0.264 OA
ATOM     27  N   UNL d   1      25.530 -10.965  -5.063  0.00  0.00    -0.242 N 
ATOM     28  H   UNL d   1      24.811 -11.454  -5.572  0.00  0.00     0.192 HD
BRANCH  27  29
ATOM     29  N   UNL d   1      25.895  -9.686  -5.464  0.00  0.00    -0.183 NA
ATOM     30  C   UNL d   1      26.990  -9.503  -6.151  0.00  0.00     0.150 C 
BRANCH  30  31
ATOM     31  C   UNL d   1      27.891 -10.551  -6.664  0.00  0.00    -0.014 A 
ATOM     32  C   UNL d   1      29.095 -10.764  -5.991  0.00  0.00     0.013 A 
ATOM     33  C   UNL d   1      30.038 -11.640  -6.508  0.00  0.00     0.004 A 
ATOM     34  C   UNL d   1      29.744 -12.377  -7.657  0.00  0.00     0.036 A 
ATOM     35  C   UNL d   1      28.505 -12.215  -8.280  0.00  0.00     0.066 A 
ATOM     36  C   UNL d   1      27.572 -11.299  -7.798  0.00  0.00     0.049 A 
BRANCH  35  37
ATOM     37  O   UNL d   1      28.155 -12.931  -9.389  0.00  0.00    -0.361 OA
ATOM     38  H   UNL d   1      28.787 -13.654  -9.535  0.00  0.00     0.217 HD
ENDBRANCH  35  37
ENDBRANCH  30  31
ENDBRANCH  27  29
ENDBRANCH   1  25
TORSDOF 8
ENDMDL
MODEL 7
REMARK VINA RESULT:    -8.279      4.004      8.374
REMARK INTER + INTRA:         -14.696
REMARK INTER:                 -10.665
REMARK INTRA:                  -4.031
REMARK CONF_INDEPENDENT:        2.386
REMARK UNBOUND:                -4.031
REMARK  8 active torsions:
REMARK  status: ('A' for Active; 'I' for Inactive)
REMARK       I    between atoms: C_2  and  N_3 
REMARK    1  A    between atoms: C_2  and  C_13 
REMARK    2  A    between atoms: N_3  and  N_4 
REMARK    3  A    between atoms: C_5  and  C_6 
REMARK    4  A    between atoms: C_10  and  O_11 
REMARK    5  A    between atoms: C_15  and  C_16 
REMARK    6  A    between atoms: C_21  and  O_22 
REMARK    7  A    between atoms: O_22  and  C_23 
REMARK    8  A    between atoms: C_23  and  C_24 
ROOT
ATOM      1  C   UNL d   1      26.291 -14.556  -4.543  0.00  0.00     0.121 A 
ATOM      2  C   UNL d   1      26.343 -15.581  -3.615  0.00  0.00     0.071 A 
ATOM      3  C   UNL d   1      25.219 -15.467  -2.765  0.00  0.00     0.092 A 
ATOM      4  N   UNL d   1      24.445 -14.450  -3.183  0.00  0.00    -0.174 NA
ATOM      5  N   UNL d   1      25.122 -13.916  -4.232  0.00  0.00    -0.272 N 
ATOM      6  H   UNL d   1      24.679 -13.150  -4.727  0.00  0.00     0.189 HD
ENDROOT
BRANCH   3   7
ATOM      7  C   UNL d   1      24.900 -16.337  -1.618  0.00  0.00     0.028 A 
ATOM      8  C   UNL d   1      23.564 -16.581  -1.270  0.00  0.00     0.017 A 
ATOM      9  C   UNL d   1      23.245 -17.445  -0.215  0.00  0.00     0.001 A 
ATOM     10  C   UNL d   1      24.254 -18.066   0.516  0.00  0.00     0.003 A 
ATOM     11  C   UNL d   1      25.588 -17.841   0.181  0.00  0.00     0.038 A 
ATOM     12  C   UNL d   1      25.917 -16.994  -0.889  0.00  0.00     0.081 A 
BRANCH  12  13
ATOM     13  O   UNL d   1      27.198 -16.740  -1.290  0.00  0.00    -0.346 OA
BRANCH  13  14
ATOM     14  C   UNL d   1      28.208 -16.595  -0.300  0.00  0.00     0.215 C 
BRANCH  14  15
ATOM     15  C   UNL d   1      28.005 -15.226   0.314  0.00  0.00    -0.023 C 
ATOM     16  C   UNL d   1      27.780 -15.200   1.731  0.00  0.00     0.010 C 
ATOM     17  C   UNL d   1      27.421 -14.026   2.358  0.00  0.00     0.002 C 
ATOM     18  C   UNL d   1      27.365 -12.858   1.612  0.00  0.00     0.012 C 
ATOM     19  C   UNL d   1      27.594 -12.890   0.219  0.00  0.00    -0.028 C 
ATOM     20  C   UNL d   1      27.401 -11.708  -0.469  0.00  0.00    -0.005 C 
ATOM     21  C   UNL d   1      28.014 -13.976  -0.501  0.00  0.00    -0.018 C 
ATOM     22  C   UNL d   1      27.531 -11.690  -1.872  0.00  0.00     0.043 C 
ATOM     23  C   UNL d   1      28.347 -12.403  -2.711  0.00  0.00    -0.016 C 
ATOM     24  C   UNL d   1      28.438 -13.611  -1.976  0.00  0.00     0.009 C 
ENDBRANCH  14  15
ENDBRANCH  13  14
ENDBRANCH  12  13
ENDBRANCH   3   7
BRANCH   1  25
ATOM     25  C   UNL d   1      27.205 -14.339  -5.658  0.00  0.00     0.289 C 
ATOM     26  O   UNL d   1      27.364 -15.200  -6.520  0.00  0.00    -0.264 OA
ATOM     27  N   UNL d   1      27.933 -13.150  -5.652  0.00  0.00    -0.242 N 
ATOM     28  H   UNL d   1      27.805 -12.490  -4.901  0.00  0.00     0.192 HD
BRANCH  27  29
ATOM     29  N   UNL d   1      28.912 -12.910  -6.608  0.00  0.00    -0.183 NA
ATOM     30  C   UNL d   1      29.920 -13.731  -6.734  0.00  0.00     0.150 C 
BRANCH  30  31
ATOM     31  C   UNL d   1      30.114 -15.000  -6.010  0.00  0.00    -0.014 A 
ATOM     32  C   UNL d   1      30.416 -16.139  -6.759  0.00  0.00     0.013 A 
ATOM     33  C   UNL d   1      30.474 -17.382  -6.146  0.00  0.00     0.004 A 
ATOM     34  C   UNL d   1      30.316 -17.481  -4.763  0.00  0.00     0.036 A 
ATOM     35  C   UNL d   1      30.092 -16.326  -4.010  0.00  0.00     0.066 A 
ATOM     36  C   UNL d   1      29.980 -15.079  -4.624  0.00  0.00     0.049 A 
BRANCH  35  37
ATOM     37  O   UNL d   1      29.959 -16.363  -2.652  0.00  0.00    -0.361 OA
ATOM     38  H   UNL d   1      29.054 -16.622  -2.410  0.00  0.00     0.217 HD
ENDBRANCH  35  37
ENDBRANCH  30  31
ENDBRANCH  27  29
ENDBRANCH   1  25
TORSDOF 8
ENDMDL
MODEL 8
REMARK VINA RESULT:    -8.119      4.687      9.060
REMARK INTER + INTRA:         -14.157
REMARK INTER:                 -10.505
REMARK INTRA:                  -3.651
REMARK CONF_INDEPENDENT:        2.386
REMARK UNBOUND:                -3.651
REMARK  8 active torsions:
REMARK  status: ('A' for Active; 'I' for Inactive)
REMARK       I    between atoms: C_2  and  N_3 
REMARK    1  A    between atoms: C_2  and  C_13 
REMARK    2  A    between atoms: N_3  and  N_4 
REMARK    3  A    between atoms: C_5  and  C_6 
REMARK    4  A    between atoms: C_10  and  O_11 
REMARK    5  A    between atoms: C_15  and  C_16 
REMARK    6  A    between atoms: C_21  and  O_22 
REMARK    7  A    between atoms: O_22  and  C_23 
REMARK    8  A    between atoms: C_23  and  C_24 
ROOT
ATOM      1  C   UNL d   1      25.789 -13.590  -3.797  0.00  0.00     0.121 A 
ATOM      2  C   UNL d   1      25.342 -14.084  -2.585  0.00  0.00     0.071 A 
ATOM      3  C   UNL d   1      25.150 -15.479  -2.718  0.00  0.00     0.092 A 
ATOM      4  N   UNL d   1      25.530 -15.866  -3.948  0.00  0.00    -0.174 NA
ATOM      5  N   UNL d   1      25.888 -14.714  -4.572  0.00  0.00    -0.272 N 
ATOM      6  H   UNL d   1      26.254 -14.793  -5.514  0.00  0.00     0.189 HD
ENDROOT
BRANCH   3   7
ATOM      7  C   UNL d   1      24.651 -16.394  -1.675  0.00  0.00     0.028 A 
ATOM      8  C   UNL d   1      23.310 -16.335  -1.271  0.00  0.00     0.017 A 
ATOM      9  C   UNL d   1      22.808 -17.230  -0.317  0.00  0.00     0.001 A 
ATOM     10  C   UNL d   1      23.642 -18.188   0.255  0.00  0.00     0.003 A 
ATOM     11  C   UNL d   1      24.976 -18.266  -0.139  0.00  0.00     0.038 A 
ATOM     12  C   UNL d   1      25.482 -17.388  -1.110  0.00  0.00     0.081 A 
BRANCH  12  13
ATOM     13  O   UNL d   1      26.770 -17.416  -1.562  0.00  0.00    -0.346 OA
BRANCH  13  14
ATOM     14  C   UNL d   1      27.819 -17.100  -0.657  0.00  0.00     0.215 C 
BRANCH  14  15
ATOM     15  C   UNL d   1      28.348 -15.744  -1.078  0.00  0.00    -0.023 C 
ATOM     16  C   UNL d   1      28.409 -14.747  -0.049  0.00  0.00     0.010 C 
ATOM     17  C   UNL d   1      28.716 -13.440  -0.362  0.00  0.00     0.002 C 
ATOM     18  C   UNL d   1      29.049 -13.126  -1.672  0.00  0.00     0.012 C 
ATOM     19  C   UNL d   1      28.993 -14.115  -2.678  0.00  0.00    -0.028 C 
ATOM     20  C   UNL d   1      29.220 -13.695  -3.975  0.00  0.00    -0.005 C 
ATOM     21  C   UNL d   1      28.761 -15.450  -2.481  0.00  0.00    -0.018 C 
ATOM     22  C   UNL d   1      29.097 -14.614  -5.035  0.00  0.00     0.043 C 
ATOM     23  C   UNL d   1      29.357 -15.958  -5.099  0.00  0.00    -0.016 C 
ATOM     24  C   UNL d   1      29.037 -16.320  -3.767  0.00  0.00     0.009 C 
ENDBRANCH  14  15
ENDBRANCH  13  14
ENDBRANCH  12  13
ENDBRANCH   3   7
BRANCH   1  25
ATOM     25  C   UNL d   1      26.190 -12.219  -4.089  0.00  0.00     0.289 C 
ATOM     26  O   UNL d   1      27.027 -11.646  -3.395  0.00  0.00    -0.264 OA
ATOM     27  N   UNL d   1      25.528 -11.579  -5.135  0.00  0.00    -0.242 N 
ATOM     28  H   UNL d   1      24.815 -12.071  -5.650  0.00  0.00     0.192 HD
BRANCH  27  29
ATOM     29  N   UNL d   1      25.759 -10.237  -5.409  0.00  0.00    -0.183 NA
ATOM     30  C   UNL d   1      26.510  -9.895  -6.420  0.00  0.00     0.150 C 
BRANCH  30  31
ATOM     31  C   UNL d   1      27.104 -10.801  -7.419  0.00  0.00    -0.014 A 
ATOM     32  C   UNL d   1      26.651 -10.707  -8.737  0.00  0.00     0.013 A 
ATOM     33  C   UNL d   1      27.075 -11.625  -9.687  0.00  0.00     0.004 A 
ATOM     34  C   UNL d   1      28.024 -12.589  -9.345  0.00  0.00     0.036 A 
ATOM     35  C   UNL d   1      28.530 -12.627  -8.044  0.00  0.00     0.066 A 
ATOM     36  C   UNL d   1      28.071 -11.742  -7.068  0.00  0.00     0.049 A 
BRANCH  35  37
ATOM     37  O   UNL d   1      29.480 -13.530  -7.664  0.00  0.00    -0.361 OA
ATOM     38  H   UNL d   1      29.800 -14.026  -8.436  0.00  0.00     0.217 HD
ENDBRANCH  35  37
ENDBRANCH  30  31
ENDBRANCH  27  29
ENDBRANCH   1  25
TORSDOF 8
ENDMDL
MODEL 9
REMARK VINA RESULT:    -7.317      3.470      7.918
REMARK INTER + INTRA:         -14.224
REMARK INTER:                  -9.703
REMARK INTRA:                  -4.520
REMARK CONF_INDEPENDENT:        2.386
REMARK UNBOUND:                -4.520
REMARK  8 active torsions:
REMARK  status: ('A' for Active; 'I' for Inactive)
REMARK       I    between atoms: C_2  and  N_3 
REMARK    1  A    between atoms: C_2  and  C_13 
REMARK    2  A    between atoms: N_3  and  N_4 
REMARK    3  A    between atoms: C_5  and  C_6 
REMARK    4  A    between atoms: C_10  and  O_11 
REMARK    5  A    between atoms: C_15  and  C_16 
REMARK    6  A    between atoms: C_21  and  O_22 
REMARK    7  A    between atoms: O_22  and  C_23 
REMARK    8  A    between atoms: C_23  and  C_24 
ROOT
ATOM      1  C   UNL d   1      29.295 -16.477  -1.125  0.00  0.00     0.121 A 
ATOM      2  C   UNL d   1      28.032 -16.737  -1.625  0.00  0.00     0.071 A 
ATOM      3  C   UNL d   1      27.165 -16.984  -0.536  0.00  0.00     0.092 A 
ATOM      4  N   UNL d   1      27.838 -16.815   0.616  0.00  0.00    -0.174 NA
ATOM      5  N   UNL d   1      29.109 -16.533   0.230  0.00  0.00    -0.272 N 
ATOM      6  H   UNL d   1      29.778 -16.325   0.962  0.00  0.00     0.189 HD
ENDROOT
BRANCH   3   7
ATOM      7  C   UNL d   1      25.734 -17.332  -0.620  0.00  0.00     0.028 A 
ATOM      8  C   UNL d   1      25.185 -18.269   0.266  0.00  0.00     0.017 A 
ATOM      9  C   UNL d   1      23.819 -18.574   0.230  0.00  0.00     0.001 A 
ATOM     10  C   UNL d   1      22.985 -17.958  -0.699  0.00  0.00     0.003 A 
ATOM     11  C   UNL d   1      23.511 -17.019  -1.584  0.00  0.00     0.038 A 
ATOM     12  C   UNL d   1      24.875 -16.691  -1.541  0.00  0.00     0.081 A 
BRANCH  12  13
ATOM     13  O   UNL d   1      25.460 -15.767  -2.360  0.00  0.00    -0.346 OA
BRANCH  13  14
ATOM     14  C   UNL d   1      24.697 -14.641  -2.773  0.00  0.00     0.215 C 
BRANCH  14  15
ATOM     15  C   UNL d   1      25.615 -13.442  -2.654  0.00  0.00    -0.023 C 
ATOM     16  C   UNL d   1      25.580 -12.513  -3.747  0.00  0.00     0.010 C 
ATOM     17  C   UNL d   1      26.492 -11.481  -3.813  0.00  0.00     0.002 C 
ATOM     18  C   UNL d   1      27.384 -11.307  -2.766  0.00  0.00     0.012 C 
ATOM     19  C   UNL d   1      27.408 -12.222  -1.690  0.00  0.00    -0.028 C 
ATOM     20  C   UNL d   1      28.405 -12.048  -0.750  0.00  0.00    -0.005 C 
ATOM     21  C   UNL d   1      26.520 -13.243  -1.484  0.00  0.00    -0.018 C 
ATOM     22  C   UNL d   1      28.537 -12.975   0.303  0.00  0.00     0.043 C 
ATOM     23  C   UNL d   1      27.600 -13.707   0.983  0.00  0.00    -0.016 C 
ATOM     24  C   UNL d   1      26.657 -13.900  -0.057  0.00  0.00     0.009 C 
ENDBRANCH  14  15
ENDBRANCH  13  14
ENDBRANCH  12  13
ENDBRANCH   3   7
BRANCH   1  25
ATOM     25  C   UNL d   1      30.477 -16.094  -1.888  0.00  0.00     0.289 C 
ATOM     26  O   UNL d   1      31.244 -15.231  -1.469  0.00  0.00    -0.264 OA
ATOM     27  N   UNL d   1      30.645 -16.698  -3.133  0.00  0.00    -0.242 N 
ATOM     28  H   UNL d   1      29.967 -17.368  -3.458  0.00  0.00     0.192 HD
BRANCH  27  29
ATOM     29  N   UNL d   1      31.675 -16.308  -3.980  0.00  0.00    -0.183 NA
ATOM     30  C   UNL d   1      31.424 -15.542  -5.006  0.00  0.00     0.150 C 
BRANCH  30  31
ATOM     31  C   UNL d   1      30.128 -14.928  -5.348  0.00  0.00    -0.014 A 
ATOM     32  C   UNL d   1      30.137 -13.639  -5.885  0.00  0.00     0.013 A 
ATOM     33  C   UNL d   1      28.944 -12.964  -6.098  0.00  0.00     0.004 A 
ATOM     34  C   UNL d   1      27.730 -13.608  -5.856  0.00  0.00     0.036 A 
ATOM     35  C   UNL d   1      27.729 -14.925  -5.392  0.00  0.00     0.066 A 
ATOM     36  C   UNL d   1      28.923 -15.594  -5.126  0.00  0.00     0.049 A 
BRANCH  35  37
ATOM     37  O   UNL d   1      26.570 -15.611  -5.167  0.00  0.00    -0.361 OA
ATOM     38  H   UNL d   1      26.362 -15.616  -4.218  0.00  0.00     0.217 HD
ENDBRANCH  35  37
ENDBRANCH  30  31
ENDBRANCH  27  29
ENDBRANCH   1  25
TORSDOF 8
ENDMDL
