MODEL 1
REMARK VINA RESULT:   -31.212      0.000      0.000
REMARK INTER + INTRA:         -32.916
REMARK INTER:                 -32.405
REMARK INTRA:                  -0.511
REMARK CONF_INDEPENDENT:        1.193
REMARK UNBOUND:                -0.511
REMARK  4 active torsions:
REMARK  status: ('A' for Active; 'I' for Inactive)
REMARK       I    between atoms: C_2  and  N_3 
REMARK    1  A    between atoms: C_2  and  C_12 
REMARK    2  A    between atoms: N_3  and  N_4 
REMARK    3  A    between atoms: C_5  and  C_6 
REMARK    4  A    between atoms: C_14  and  C_15 
ROOT
ATOM      1  C   UNL d   1      25.726 -16.128  -1.758  0.00  0.00     0.148 A 
ATOM      2  C   UNL d   1      25.613 -15.561  -3.064  0.00  0.00     0.071 A 
ATOM      3  C   UNL d   1      26.864 -15.101  -3.421  0.00  0.00     0.062 A 
ATOM      4  N   UNL d   1      27.655 -15.418  -2.342  0.00  0.00    -0.277 N 
ATOM      5  N   UNL d   1      26.983 -15.963  -1.294  0.00  0.00    -0.169 NA
ATOM      6  H   UNL d   1      28.653 -15.258  -2.248  0.00  0.00     0.189 HD
ENDROOT
BRANCH   1   7
ATOM      7  C   UNL d   1      24.650 -16.871  -1.053  0.00  0.00     0.292 C 
ATOM      8  O   UNL d   1      24.931 -17.910  -0.443  0.00  0.00    -0.264 OA
ATOM      9  N   UNL d   1      23.339 -16.383  -1.162  0.00  0.00    -0.242 N 
ATOM     10  H   UNL d   1      23.142 -15.570  -1.736  0.00  0.00     0.192 HD
BRANCH   9  11
ATOM     11  N   UNL d   1      22.316 -17.064  -0.513  0.00  0.00    -0.182 NA
ATOM     12  C   UNL d   1      21.949 -18.231  -0.952  0.00  0.00     0.170 C 
BRANCH  12  13
ATOM     13  C   UNL d   1      20.839 -19.000  -0.307  0.00  0.00     0.075 A 
ATOM     14  C   UNL d   1      20.895 -19.321   1.045  0.00  0.00     0.033 A 
ATOM     15  C   UNL d   1      19.827 -20.018   1.614  0.00  0.00     0.004 A 
ATOM     16  C   UNL d   1      18.753 -20.395   0.816  0.00  0.00     0.019 A 
ATOM     17  C   UNL d   1      18.781 -20.033  -0.524  0.00  0.00     0.117 A 
ATOM     18  N   UNL d   1      19.786 -19.324  -1.103  0.00  0.00    -0.260 NA
ENDBRANCH  12  13
ENDBRANCH   9  11
ENDBRANCH   1   7
BRANCH   3  19
ATOM     19  C   UNL d   1      27.321 -14.420  -4.635  0.00  0.00    -0.006 A 
ATOM     20  C   UNL d   1      28.322 -15.007  -5.424  0.00  0.00     0.015 A 
ATOM     21  C   UNL d   1      28.793 -14.372  -6.581  0.00  0.00     0.026 A 
ATOM     22  C   UNL d   1      28.282 -13.130  -6.959  0.00  0.00     0.055 A 
ATOM     23 CL   UNL d   1      28.889 -12.414  -8.411  0.00  0.00    -0.083 Cl
ATOM     24  C   UNL d   1      27.305 -12.519  -6.166  0.00  0.00     0.056 A 
ATOM     25 CL   UNL d   1      26.660 -10.959  -6.545  0.00  0.00    -0.083 Cl
ATOM     26  C   UNL d   1      26.821 -13.167  -5.014  0.00  0.00     0.039 A 
ENDBRANCH   3  19
TORSDOF 4
ENDMDL
MODEL 2
REMARK VINA RESULT:   -31.111      0.787      1.562
REMARK INTER + INTRA:         -32.804
REMARK INTER:                 -32.304
REMARK INTRA:                  -0.500
REMARK CONF_INDEPENDENT:        1.193
REMARK UNBOUND:                -0.500
REMARK  4 active torsions:
REMARK  status: ('A' for Active; 'I' for Inactive)
REMARK       I    between atoms: C_2  and  N_3 
REMARK    1  A    between atoms: C_2  and  C_12 
REMARK    2  A    between atoms: N_3  and  N_4 
REMARK    3  A    between atoms: C_5  and  C_6 
REMARK    4  A    between atoms: C_14  and  C_15 
ROOT
ATOM      1  C   UNL d   1      25.670 -16.130  -1.561  0.00  0.00     0.148 A 
ATOM      2  C   UNL d   1      25.683 -15.676  -2.915  0.00  0.00     0.071 A 
ATOM      3  C   UNL d   1      26.949 -15.191  -3.173  0.00  0.00     0.062 A 
ATOM      4  N   UNL d   1      27.625 -15.384  -1.993  0.00  0.00    -0.277 N 
ATOM      5  N   UNL d   1      26.860 -15.872  -0.980  0.00  0.00    -0.169 NA
ATOM      6  H   UNL d   1      28.601 -15.172  -1.805  0.00  0.00     0.189 HD
ENDROOT
BRANCH   1   7
ATOM      7  C   UNL d   1      24.549 -16.862  -0.916  0.00  0.00     0.292 C 
ATOM      8  O   UNL d   1      24.785 -17.910  -0.302  0.00  0.00    -0.264 OA
ATOM      9  N   UNL d   1      23.253 -16.352  -1.084  0.00  0.00    -0.242 N 
ATOM     10  H   UNL d   1      23.097 -15.531  -1.660  0.00  0.00     0.192 HD
BRANCH   9  11
ATOM     11  N   UNL d   1      22.189 -17.021  -0.491  0.00  0.00    -0.182 NA
ATOM     12  C   UNL d   1      21.925 -18.243  -0.850  0.00  0.00     0.170 C 
BRANCH  12  13
ATOM     13  C   UNL d   1      20.780 -19.006  -0.263  0.00  0.00     0.075 A 
ATOM     14  C   UNL d   1      20.764 -19.325   1.091  0.00  0.00     0.033 A 
ATOM     15  C   UNL d   1      19.665 -20.015   1.605  0.00  0.00     0.004 A 
ATOM     16  C   UNL d   1      18.631 -20.387   0.753  0.00  0.00     0.019 A 
ATOM     17  C   UNL d   1      18.730 -20.027  -0.584  0.00  0.00     0.117 A 
ATOM     18  N   UNL d   1      19.767 -19.324  -1.112  0.00  0.00    -0.260 NA
ENDBRANCH  12  13
ENDBRANCH   9  11
ENDBRANCH   1   7
BRANCH   3  19
ATOM     19  C   UNL d   1      27.513 -14.590  -4.384  0.00  0.00    -0.006 A 
ATOM     20  C   UNL d   1      26.907 -13.455  -4.942  0.00  0.00     0.015 A 
ATOM     21  C   UNL d   1      27.411 -12.867  -6.110  0.00  0.00     0.026 A 
ATOM     22  C   UNL d   1      28.522 -13.417  -6.749  0.00  0.00     0.055 A 
ATOM     23 CL   UNL d   1      29.110 -12.629  -8.171  0.00  0.00    -0.083 Cl
ATOM     24  C   UNL d   1      29.119 -14.567  -6.221  0.00  0.00     0.056 A 
ATOM     25 CL   UNL d   1      30.469 -15.332  -6.986  0.00  0.00    -0.083 Cl
ATOM     26  C   UNL d   1      28.621 -15.145  -5.039  0.00  0.00     0.039 A 
ENDBRANCH   3  19
TORSDOF 4
ENDMDL
MODEL 3
REMARK VINA RESULT:   -30.980      0.697      1.481
REMARK INTER + INTRA:         -32.665
REMARK INTER:                 -32.173
REMARK INTRA:                  -0.492
REMARK CONF_INDEPENDENT:        1.193
REMARK UNBOUND:                -0.492
REMARK  4 active torsions:
REMARK  status: ('A' for Active; 'I' for Inactive)
REMARK       I    between atoms: C_2  and  N_3 
REMARK    1  A    between atoms: C_2  and  C_12 
REMARK    2  A    between atoms: N_3  and  N_4 
REMARK    3  A    between atoms: C_5  and  C_6 
REMARK    4  A    between atoms: C_14  and  C_15 
ROOT
ATOM      1  C   UNL d   1      25.529 -16.062  -1.866  0.00  0.00     0.148 A 
ATOM      2  C   UNL d   1      25.291 -15.142  -2.932  0.00  0.00     0.071 A 
ATOM      3  C   UNL d   1      26.522 -14.715  -3.388  0.00  0.00     0.062 A 
ATOM      4  N   UNL d   1      27.421 -15.393  -2.601  0.00  0.00    -0.277 N 
ATOM      5  N   UNL d   1      26.854 -16.149  -1.623  0.00  0.00    -0.169 NA
ATOM      6  H   UNL d   1      28.435 -15.357  -2.660  0.00  0.00     0.189 HD
ENDROOT
BRANCH   1   7
ATOM      7  C   UNL d   1      24.485 -16.875  -1.190  0.00  0.00     0.292 C 
ATOM      8  O   UNL d   1      24.738 -18.045  -0.876  0.00  0.00    -0.264 OA
ATOM      9  N   UNL d   1      23.229 -16.286  -0.986  0.00  0.00    -0.242 N 
ATOM     10  H   UNL d   1      23.042 -15.348  -1.328  0.00  0.00     0.192 HD
BRANCH   9  11
ATOM     11  N   UNL d   1      22.236 -17.027  -0.357  0.00  0.00    -0.182 NA
ATOM     12  C   UNL d   1      21.843 -18.146  -0.890  0.00  0.00     0.170 C 
BRANCH  12  13
ATOM     13  C   UNL d   1      20.764 -18.976  -0.269  0.00  0.00     0.075 A 
ATOM     14  C   UNL d   1      20.826 -19.325   1.076  0.00  0.00     0.033 A 
ATOM     15  C   UNL d   1      19.786 -20.079   1.623  0.00  0.00     0.004 A 
ATOM     16  C   UNL d   1      18.733 -20.482   0.810  0.00  0.00     0.019 A 
ATOM     17  C   UNL d   1      18.751 -20.088  -0.520  0.00  0.00     0.117 A 
ATOM     18  N   UNL d   1      19.728 -19.325  -1.078  0.00  0.00    -0.260 NA
ENDBRANCH  12  13
ENDBRANCH   9  11
ENDBRANCH   1   7
BRANCH   3  19
ATOM     19  C   UNL d   1      26.871 -13.763  -4.445  0.00  0.00    -0.006 A 
ATOM     20  C   UNL d   1      26.151 -12.565  -4.564  0.00  0.00     0.015 A 
ATOM     21  C   UNL d   1      26.448 -11.642  -5.576  0.00  0.00     0.026 A 
ATOM     22  C   UNL d   1      27.462 -11.911  -6.497  0.00  0.00     0.055 A 
ATOM     23 CL   UNL d   1      27.795 -10.719  -7.703  0.00  0.00    -0.083 Cl
ATOM     24  C   UNL d   1      28.168 -13.115  -6.409  0.00  0.00     0.056 A 
ATOM     25 CL   UNL d   1      29.403 -13.538  -7.544  0.00  0.00    -0.083 Cl
ATOM     26  C   UNL d   1      27.879 -14.032  -5.381  0.00  0.00     0.039 A 
ENDBRANCH   3  19
TORSDOF 4
ENDMDL
MODEL 4
REMARK VINA RESULT:   -30.511      1.430      1.767
REMARK INTER + INTRA:         -32.235
REMARK INTER:                 -31.704
REMARK INTRA:                  -0.530
REMARK CONF_INDEPENDENT:        1.193
REMARK UNBOUND:                -0.530
REMARK  4 active torsions:
REMARK  status: ('A' for Active; 'I' for Inactive)
REMARK       I    between atoms: C_2  and  N_3 
REMARK    1  A    between atoms: C_2  and  C_12 
REMARK    2  A    between atoms: N_3  and  N_4 
REMARK    3  A    between atoms: C_5  and  C_6 
REMARK    4  A    between atoms: C_14  and  C_15 
ROOT
ATOM      1  C   UNL d   1      25.194 -15.505  -1.912  0.00  0.00     0.148 A 
ATOM      2  C   UNL d   1      25.816 -15.912  -3.132  0.00  0.00     0.071 A 
ATOM      3  C   UNL d   1      26.995 -15.203  -3.246  0.00  0.00     0.062 A 
ATOM      4  N   UNL d   1      27.031 -14.433  -2.110  0.00  0.00    -0.277 N 
ATOM      5  N   UNL d   1      25.924 -14.532  -1.327  0.00  0.00    -0.169 NA
ATOM      6  H   UNL d   1      27.769 -13.794  -1.827  0.00  0.00     0.189 HD
ENDROOT
BRANCH   1   7
ATOM      7  C   UNL d   1      23.979 -16.126  -1.325  0.00  0.00     0.292 C 
ATOM      8  O   UNL d   1      22.878 -15.589  -1.503  0.00  0.00    -0.264 OA
ATOM      9  N   UNL d   1      24.145 -17.277  -0.541  0.00  0.00    -0.242 N 
ATOM     10  H   UNL d   1      25.075 -17.640  -0.358  0.00  0.00     0.192 HD
BRANCH   9  11
ATOM     11  N   UNL d   1      23.023 -17.874   0.020  0.00  0.00    -0.182 NA
ATOM     12  C   UNL d   1      22.143 -18.433  -0.758  0.00  0.00     0.170 C 
BRANCH  12  13
ATOM     13  C   UNL d   1      20.905 -19.072  -0.213  0.00  0.00     0.075 A 
ATOM     14  C   UNL d   1      20.798 -19.361   1.144  0.00  0.00     0.033 A 
ATOM     15  C   UNL d   1      19.615 -19.934   1.616  0.00  0.00     0.004 A 
ATOM     16  C   UNL d   1      18.590 -20.223   0.723  0.00  0.00     0.019 A 
ATOM     17  C   UNL d   1      18.783 -19.901  -0.613  0.00  0.00     0.117 A 
ATOM     18  N   UNL d   1      19.905 -19.310  -1.103  0.00  0.00    -0.260 NA
ENDBRANCH  12  13
ENDBRANCH   9  11
ENDBRANCH   1   7
BRANCH   3  19
ATOM     19  C   UNL d   1      28.013 -15.208  -4.300  0.00  0.00    -0.006 A 
ATOM     20  C   UNL d   1      29.114 -16.071  -4.196  0.00  0.00     0.015 A 
ATOM     21  C   UNL d   1      30.115 -16.087  -5.177  0.00  0.00     0.026 A 
ATOM     22  C   UNL d   1      30.038 -15.225  -6.272  0.00  0.00     0.055 A 
ATOM     23 CL   UNL d   1      31.291 -15.313  -7.459  0.00  0.00    -0.083 Cl
ATOM     24  C   UNL d   1      28.961 -14.338  -6.373  0.00  0.00     0.056 A 
ATOM     25 CL   UNL d   1      28.825 -13.207  -7.676  0.00  0.00    -0.083 Cl
ATOM     26  C   UNL d   1      27.950 -14.336  -5.395  0.00  0.00     0.039 A 
ENDBRANCH   3  19
TORSDOF 4
ENDMDL
MODEL 5
REMARK VINA RESULT:   -30.013      4.696      5.163
REMARK INTER + INTRA:         -31.902
REMARK INTER:                 -31.206
REMARK INTRA:                  -0.695
REMARK CONF_INDEPENDENT:        1.193
REMARK UNBOUND:                -0.695
REMARK  4 active torsions:
REMARK  status: ('A' for Active; 'I' for Inactive)
REMARK       I    between atoms: C_2  and  N_3 
REMARK    1  A    between atoms: C_2  and  C_12 
REMARK    2  A    between atoms: N_3  and  N_4 
REMARK    3  A    between atoms: C_5  and  C_6 
REMARK    4  A    between atoms: C_14  and  C_15 
ROOT
ATOM      1  C   UNL d   1      26.078 -17.087  -0.478  0.00  0.00     0.148 A 
ATOM      2  C   UNL d   1      26.961 -16.680   0.568  0.00  0.00     0.071 A 
ATOM      3  C   UNL d   1      27.922 -15.868   0.000  0.00  0.00     0.062 A 
ATOM      4  N   UNL d   1      27.571 -15.816  -1.327  0.00  0.00    -0.277 N 
ATOM      5  N   UNL d   1      26.514 -16.604  -1.660  0.00  0.00    -0.169 NA
ATOM      6  H   UNL d   1      28.032 -15.287  -2.062  0.00  0.00     0.189 HD
ENDROOT
BRANCH   1   7
ATOM      7  C   UNL d   1      24.817 -17.848  -0.283  0.00  0.00     0.292 C 
ATOM      8  O   UNL d   1      24.539 -18.281   0.842  0.00  0.00    -0.264 OA
ATOM      9  N   UNL d   1      24.017 -18.088  -1.410  0.00  0.00    -0.242 N 
ATOM     10  H   UNL d   1      24.321 -17.780  -2.328  0.00  0.00     0.192 HD
BRANCH   9  11
ATOM     11  N   UNL d   1      22.834 -18.799  -1.252  0.00  0.00    -0.182 NA
ATOM     12  C   UNL d   1      22.032 -18.493  -0.275  0.00  0.00     0.170 C 
BRANCH  12  13
ATOM     13  C   UNL d   1      20.755 -19.238  -0.042  0.00  0.00     0.075 A 
ATOM     14  C   UNL d   1      20.466 -19.769   1.210  0.00  0.00     0.033 A 
ATOM     15  C   UNL d   1      19.252 -20.435   1.392  0.00  0.00     0.004 A 
ATOM     16  C   UNL d   1      18.379 -20.572   0.319  0.00  0.00     0.019 A 
ATOM     17  C   UNL d   1      18.749 -20.010  -0.895  0.00  0.00     0.117 A 
ATOM     18  N   UNL d   1      19.905 -19.325  -1.100  0.00  0.00    -0.260 NA
ENDBRANCH  12  13
ENDBRANCH   9  11
ENDBRANCH   1   7
BRANCH   3  19
ATOM     19  C   UNL d   1      29.076 -15.193   0.598  0.00  0.00    -0.006 A 
ATOM     20  C   UNL d   1      30.360 -15.426   0.082  0.00  0.00     0.015 A 
ATOM     21  C   UNL d   1      31.486 -14.810   0.643  0.00  0.00     0.026 A 
ATOM     22  C   UNL d   1      31.349 -13.962   1.742  0.00  0.00     0.055 A 
ATOM     23 CL   UNL d   1      32.775 -13.213   2.369  0.00  0.00    -0.083 Cl
ATOM     24  C   UNL d   1      30.079 -13.743   2.286  0.00  0.00     0.056 A 
ATOM     25 CL   UNL d   1      29.838 -12.743   3.677  0.00  0.00    -0.083 Cl
ATOM     26  C   UNL d   1      28.948 -14.350   1.710  0.00  0.00     0.039 A 
ENDBRANCH   3  19
TORSDOF 4
ENDMDL
MODEL 6
REMARK VINA RESULT:   -29.907      4.683      5.285
REMARK INTER + INTRA:         -31.818
REMARK INTER:                 -31.100
REMARK INTRA:                  -0.718
REMARK CONF_INDEPENDENT:        1.193
REMARK UNBOUND:                -0.718
REMARK  4 active torsions:
REMARK  status: ('A' for Active; 'I' for Inactive)
REMARK       I    between atoms: C_2  and  N_3 
REMARK    1  A    between atoms: C_2  and  C_12 
REMARK    2  A    between atoms: N_3  and  N_4 
REMARK    3  A    between atoms: C_5  and  C_6 
REMARK    4  A    between atoms: C_14  and  C_15 
ROOT
ATOM      1  C   UNL d   1      26.124 -17.038  -0.470  0.00  0.00     0.148 A 
ATOM      2  C   UNL d   1      27.296 -17.102   0.345  0.00  0.00     0.071 A 
ATOM      3  C   UNL d   1      28.129 -16.076  -0.055  0.00  0.00     0.062 A 
ATOM      4  N   UNL d   1      27.429 -15.451  -1.058  0.00  0.00    -0.277 N 
ATOM      5  N   UNL d   1      26.255 -16.055  -1.385  0.00  0.00    -0.169 NA
ATOM      6  H   UNL d   1      27.712 -14.627  -1.581  0.00  0.00     0.189 HD
ENDROOT
BRANCH   1   7
ATOM      7  C   UNL d   1      24.905 -17.865  -0.277  0.00  0.00     0.292 C 
ATOM      8  O   UNL d   1      24.767 -18.504   0.773  0.00  0.00    -0.264 OA
ATOM      9  N   UNL d   1      23.983 -17.924  -1.332  0.00  0.00    -0.242 N 
ATOM     10  H   UNL d   1      24.173 -17.444  -2.206  0.00  0.00     0.192 HD
BRANCH   9  11
ATOM     11  N   UNL d   1      22.836 -18.693  -1.176  0.00  0.00    -0.182 NA
ATOM     12  C   UNL d   1      21.973 -18.371  -0.257  0.00  0.00     0.170 C 
BRANCH  12  13
ATOM     13  C   UNL d   1      20.731 -19.173  -0.029  0.00  0.00     0.075 A 
ATOM     14  C   UNL d   1      20.448 -19.693   1.230  0.00  0.00     0.033 A 
ATOM     15  C   UNL d   1      19.266 -20.415   1.408  0.00  0.00     0.004 A 
ATOM     16  C   UNL d   1      18.419 -20.617   0.325  0.00  0.00     0.019 A 
ATOM     17  C   UNL d   1      18.780 -20.062  -0.895  0.00  0.00     0.117 A 
ATOM     18  N   UNL d   1      19.904 -19.324  -1.096  0.00  0.00    -0.260 NA
ENDBRANCH  12  13
ENDBRANCH   9  11
ENDBRANCH   1   7
BRANCH   3  19
ATOM     19  C   UNL d   1      29.459 -15.686   0.419  0.00  0.00    -0.006 A 
ATOM     20  C   UNL d   1      29.634 -14.446   1.052  0.00  0.00     0.015 A 
ATOM     21  C   UNL d   1      30.896 -14.036   1.500  0.00  0.00     0.026 A 
ATOM     22  C   UNL d   1      32.010 -14.855   1.308  0.00  0.00     0.055 A 
ATOM     23 CL   UNL d   1      33.533 -14.301   1.909  0.00  0.00    -0.083 Cl
ATOM     24  C   UNL d   1      31.856 -16.081   0.653  0.00  0.00     0.056 A 
ATOM     25 CL   UNL d   1      33.199 -17.125   0.337  0.00  0.00    -0.083 Cl
ATOM     26  C   UNL d   1      30.584 -16.497   0.219  0.00  0.00     0.039 A 
ENDBRANCH   3  19
TORSDOF 4
ENDMDL
MODEL 7
REMARK VINA RESULT:   -29.651      2.553      3.155
REMARK INTER + INTRA:         -31.310
REMARK INTER:                 -30.844
REMARK INTRA:                  -0.466
REMARK CONF_INDEPENDENT:        1.193
REMARK UNBOUND:                -0.466
REMARK  4 active torsions:
REMARK  status: ('A' for Active; 'I' for Inactive)
REMARK       I    between atoms: C_2  and  N_3 
REMARK    1  A    between atoms: C_2  and  C_12 
REMARK    2  A    between atoms: N_3  and  N_4 
REMARK    3  A    between atoms: C_5  and  C_6 
REMARK    4  A    between atoms: C_14  and  C_15 
ROOT
ATOM      1  C   UNL d   1      25.963 -17.299  -0.289  0.00  0.00     0.148 A 
ATOM      2  C   UNL d   1      26.701 -16.847  -1.425  0.00  0.00     0.071 A 
ATOM      3  C   UNL d   1      27.923 -16.398  -0.967  0.00  0.00     0.062 A 
ATOM      4  N   UNL d   1      27.868 -16.609   0.389  0.00  0.00    -0.277 N 
ATOM      5  N   UNL d   1      26.672 -17.074   0.837  0.00  0.00    -0.169 NA
ATOM      6  H   UNL d   1      28.601 -16.424   1.068  0.00  0.00     0.189 HD
ENDROOT
BRANCH   1   7
ATOM      7  C   UNL d   1      24.653 -17.999  -0.345  0.00  0.00     0.292 C 
ATOM      8  O   UNL d   1      24.616 -19.227  -0.199  0.00  0.00    -0.264 OA
ATOM      9  N   UNL d   1      23.513 -17.230  -0.618  0.00  0.00    -0.242 N 
ATOM     10  H   UNL d   1      23.599 -16.236  -0.807  0.00  0.00     0.192 HD
BRANCH   9  11
ATOM     11  N   UNL d   1      22.277 -17.863  -0.677  0.00  0.00    -0.182 NA
ATOM     12  C   UNL d   1      21.936 -18.684   0.271  0.00  0.00     0.170 C 
BRANCH  12  13
ATOM     13  C   UNL d   1      20.628 -19.411   0.250  0.00  0.00     0.075 A 
ATOM     14  C   UNL d   1      20.189 -20.107   1.372  0.00  0.00     0.033 A 
ATOM     15  C   UNL d   1      18.951 -20.751   1.320  0.00  0.00     0.004 A 
ATOM     16  C   UNL d   1      18.203 -20.702   0.149  0.00  0.00     0.019 A 
ATOM     17  C   UNL d   1      18.718 -19.984  -0.922  0.00  0.00     0.117 A 
ATOM     18  N   UNL d   1      19.902 -19.316  -0.895  0.00  0.00    -0.260 NA
ENDBRANCH  12  13
ENDBRANCH   9  11
ENDBRANCH   1   7
BRANCH   3  19
ATOM     19  C   UNL d   1      29.058 -15.815  -1.688  0.00  0.00    -0.006 A 
ATOM     20  C   UNL d   1      30.181 -15.375  -0.973  0.00  0.00     0.015 A 
ATOM     21  C   UNL d   1      31.275 -14.796  -1.630  0.00  0.00     0.026 A 
ATOM     22  C   UNL d   1      31.255 -14.632  -3.016  0.00  0.00     0.055 A 
ATOM     23 CL   UNL d   1      32.646 -13.935  -3.768  0.00  0.00    -0.083 Cl
ATOM     24  C   UNL d   1      30.129 -15.039  -3.739  0.00  0.00     0.056 A 
ATOM     25 CL   UNL d   1      30.013 -14.824  -5.452  0.00  0.00    -0.083 Cl
ATOM     26  C   UNL d   1      29.039 -15.636  -3.078  0.00  0.00     0.039 A 
ENDBRANCH   3  19
TORSDOF 4
ENDMDL
