MODEL 1
REMARK VINA RESULT:    -7.052      0.000      0.000
REMARK INTER + INTRA:          -8.617
REMARK INTER:                  -7.946
REMARK INTRA:                  -0.671
REMARK CONF_INDEPENDENT:        0.895
REMARK UNBOUND:                -0.671
REMARK  3 active torsions:
REMARK  status: ('A' for Active; 'I' for Inactive)
REMARK    1  A    between atoms: C_2  and  C_16 
REMARK    2  A    between atoms: N_3  and  N_4 
REMARK       I    between atoms: N_4  and  C_5 
REMARK    3  A    between atoms: C_5  and  C_7 
ROOT
ATOM      1  N   UNL d   1      26.437 -16.051  -1.774  0.00  0.00    -0.242 N 
ATOM      2  C   UNL d   1      26.316 -14.695  -1.489  0.00  0.00     0.274 C 
ATOM      3  O   UNL d   1      26.565 -14.191  -0.390  0.00  0.00    -0.266 OA
ATOM      4  H   UNL d   1      26.228 -16.366  -2.713  0.00  0.00     0.192 HD
ENDROOT
BRANCH   2   5
ATOM      5  C   UNL d   1      25.906 -13.858  -2.626  0.00  0.00     0.061 A 
ATOM      6  C   UNL d   1      25.078 -14.284  -3.655  0.00  0.00     0.106 A 
ATOM      7  N   UNL d   1      24.917 -13.262  -4.552  0.00  0.00    -0.364 N 
ATOM      8  C   UNL d   1      25.686 -12.183  -4.182  0.00  0.00     0.043 A 
ATOM      9  H   UNL d   1      24.357 -13.306  -5.395  0.00  0.00     0.165 HD
ATOM     10  C   UNL d   1      25.898 -10.956  -4.829  0.00  0.00     0.030 A 
ATOM     11  C   UNL d   1      26.310 -12.525  -2.976  0.00  0.00     0.008 A 
ATOM     12  C   UNL d   1      26.795 -10.060  -4.240  0.00  0.00     0.002 A 
ATOM     13  C   UNL d   1      27.438 -10.374  -3.046  0.00  0.00     0.001 A 
ATOM     14  C   UNL d   1      27.202 -11.595  -2.405  0.00  0.00     0.015 A 
ENDBRANCH   2   5
BRANCH   1  15
ATOM     15  N   UNL d   1      26.903 -16.947  -0.831  0.00  0.00    -0.176 NA
ATOM     16  C   UNL d   1      26.076 -17.677  -0.131  0.00  0.00     0.061 C 
ATOM     17  C   UNL d   1      26.655 -18.578   0.954  0.00  0.00     0.073 C 
BRANCH  16  18
ATOM     18  C   UNL d   1      24.595 -17.708  -0.284  0.00  0.00    -0.010 A 
ATOM     19  C   UNL d   1      23.924 -18.935  -0.290  0.00  0.00     0.013 A 
ATOM     20  C   UNL d   1      22.584 -18.991  -0.664  0.00  0.00     0.001 A 
ATOM     21  C   UNL d   1      21.879 -17.813  -0.894  0.00  0.00     0.000 A 
ATOM     22  C   UNL d   1      22.522 -16.579  -0.798  0.00  0.00     0.001 A 
ATOM     23  C   UNL d   1      23.886 -16.523  -0.507  0.00  0.00     0.013 A 
ENDBRANCH  16  18
ENDBRANCH   1  15
TORSDOF 3
ENDMDL
MODEL 2
REMARK VINA RESULT:    -7.008      0.162      1.067
REMARK INTER + INTRA:          -8.584
REMARK INTER:                  -7.903
REMARK INTRA:                  -0.681
REMARK CONF_INDEPENDENT:        0.895
REMARK UNBOUND:                -0.681
REMARK  3 active torsions:
REMARK  status: ('A' for Active; 'I' for Inactive)
REMARK    1  A    between atoms: C_2  and  C_16 
REMARK    2  A    between atoms: N_3  and  N_4 
REMARK       I    between atoms: N_4  and  C_5 
REMARK    3  A    between atoms: C_5  and  C_7 
ROOT
ATOM      1  N   UNL d   1      26.448 -15.951  -1.769  0.00  0.00    -0.242 N 
ATOM      2  C   UNL d   1      26.300 -14.601  -1.470  0.00  0.00     0.274 C 
ATOM      3  O   UNL d   1      26.521 -14.106  -0.362  0.00  0.00    -0.266 OA
ATOM      4  H   UNL d   1      26.262 -16.258  -2.715  0.00  0.00     0.192 HD
ENDROOT
BRANCH   2   5
ATOM      5  C   UNL d   1      25.899 -13.756  -2.606  0.00  0.00     0.061 A 
ATOM      6  C   UNL d   1      25.106 -14.186  -3.660  0.00  0.00     0.106 A 
ATOM      7  N   UNL d   1      24.943 -13.155  -4.547  0.00  0.00    -0.364 N 
ATOM      8  C   UNL d   1      25.680 -12.065  -4.143  0.00  0.00     0.043 A 
ATOM      9  H   UNL d   1      24.405 -13.200  -5.403  0.00  0.00     0.165 HD
ATOM     10  C   UNL d   1      25.879 -10.824  -4.768  0.00  0.00     0.030 A 
ATOM     11  C   UNL d   1      26.282 -12.410  -2.927  0.00  0.00     0.008 A 
ATOM     12  C   UNL d   1      26.741  -9.917  -4.145  0.00  0.00     0.002 A 
ATOM     13  C   UNL d   1      27.363 -10.235  -2.941  0.00  0.00     0.001 A 
ATOM     14  C   UNL d   1      27.139 -11.469  -2.322  0.00  0.00     0.015 A 
ENDBRANCH   2   5
BRANCH   1  15
ATOM     15  N   UNL d   1      26.909 -16.851  -0.828  0.00  0.00    -0.176 NA
ATOM     16  C   UNL d   1      26.087 -17.646  -0.197  0.00  0.00     0.061 C 
ATOM     17  C   UNL d   1      26.654 -18.549   0.893  0.00  0.00     0.073 C 
BRANCH  16  18
ATOM     18  C   UNL d   1      24.621 -17.750  -0.433  0.00  0.00    -0.010 A 
ATOM     19  C   UNL d   1      23.850 -16.587  -0.534  0.00  0.00     0.013 A 
ATOM     20  C   UNL d   1      22.460 -16.673  -0.519  0.00  0.00     0.001 A 
ATOM     21  C   UNL d   1      21.842 -17.920  -0.546  0.00  0.00     0.000 A 
ATOM     22  C   UNL d   1      22.609 -19.085  -0.540  0.00  0.00     0.001 A 
ATOM     23  C   UNL d   1      24.001 -19.004  -0.468  0.00  0.00     0.013 A 
ENDBRANCH  16  18
ENDBRANCH   1  15
TORSDOF 3
ENDMDL
MODEL 3
REMARK VINA RESULT:    -6.946      4.037      7.290
REMARK INTER + INTRA:          -8.194
REMARK INTER:                  -7.841
REMARK INTRA:                  -0.353
REMARK CONF_INDEPENDENT:        0.895
REMARK UNBOUND:                -0.353
REMARK  3 active torsions:
REMARK  status: ('A' for Active; 'I' for Inactive)
REMARK    1  A    between atoms: C_2  and  C_16 
REMARK    2  A    between atoms: N_3  and  N_4 
REMARK       I    between atoms: N_4  and  C_5 
REMARK    3  A    between atoms: C_5  and  C_7 
ROOT
ATOM      1  N   UNL d   1      27.729 -15.081  -3.900  0.00  0.00    -0.242 N 
ATOM      2  C   UNL d   1      26.478 -15.443  -3.412  0.00  0.00     0.274 C 
ATOM      3  O   UNL d   1      25.412 -15.200  -3.985  0.00  0.00    -0.266 OA
ATOM      4  H   UNL d   1      28.548 -15.344  -3.367  0.00  0.00     0.192 HD
ENDROOT
BRANCH   2   5
ATOM      5  C   UNL d   1      26.501 -16.202  -2.153  0.00  0.00     0.061 A 
ATOM      6  C   UNL d   1      27.656 -16.555  -1.471  0.00  0.00     0.106 A 
ATOM      7  N   UNL d   1      27.316 -17.269  -0.353  0.00  0.00    -0.364 N 
ATOM      8  C   UNL d   1      25.956 -17.469  -0.317  0.00  0.00     0.043 A 
ATOM      9  H   UNL d   1      27.971 -17.644   0.322  0.00  0.00     0.165 HD
ATOM     10  C   UNL d   1      25.171 -18.200   0.588  0.00  0.00     0.030 A 
ATOM     11  C   UNL d   1      25.419 -16.805  -1.427  0.00  0.00     0.008 A 
ATOM     12  C   UNL d   1      23.798 -18.280   0.337  0.00  0.00     0.002 A 
ATOM     13  C   UNL d   1      23.235 -17.639  -0.764  0.00  0.00     0.001 A 
ATOM     14  C   UNL d   1      24.029 -16.898  -1.645  0.00  0.00     0.015 A 
ENDBRANCH   2   5
BRANCH   1  15
ATOM     15  N   UNL d   1      27.871 -14.446  -5.119  0.00  0.00    -0.176 NA
ATOM     16  C   UNL d   1      28.760 -14.847  -5.988  0.00  0.00     0.061 C 
ATOM     17  C   UNL d   1      28.923 -14.044  -7.272  0.00  0.00     0.073 C 
BRANCH  16  18
ATOM     18  C   UNL d   1      29.654 -16.029  -5.839  0.00  0.00    -0.010 A 
ATOM     19  C   UNL d   1      30.406 -16.471  -6.932  0.00  0.00     0.013 A 
ATOM     20  C   UNL d   1      31.057 -17.700  -6.874  0.00  0.00     0.001 A 
ATOM     21  C   UNL d   1      31.075 -18.420  -5.682  0.00  0.00     0.000 A 
ATOM     22  C   UNL d   1      30.403 -17.936  -4.559  0.00  0.00     0.001 A 
ATOM     23  C   UNL d   1      29.677 -16.747  -4.639  0.00  0.00     0.013 A 
ENDBRANCH  16  18
ENDBRANCH   1  15
TORSDOF 3
ENDMDL
MODEL 4
REMARK VINA RESULT:    -6.852      2.331      7.098
REMARK INTER + INTRA:          -8.456
REMARK INTER:                  -7.747
REMARK INTRA:                  -0.709
REMARK CONF_INDEPENDENT:        0.895
REMARK UNBOUND:                -0.709
REMARK  3 active torsions:
REMARK  status: ('A' for Active; 'I' for Inactive)
REMARK    1  A    between atoms: C_2  and  C_16 
REMARK    2  A    between atoms: N_3  and  N_4 
REMARK       I    between atoms: N_4  and  C_5 
REMARK    3  A    between atoms: C_5  and  C_7 
ROOT
ATOM      1  N   UNL d   1      25.903 -13.089  -3.001  0.00  0.00    -0.242 N 
ATOM      2  C   UNL d   1      25.142 -14.253  -2.981  0.00  0.00     0.274 C 
ATOM      3  O   UNL d   1      24.154 -14.450  -3.694  0.00  0.00    -0.266 OA
ATOM      4  H   UNL d   1      26.709 -13.030  -2.392  0.00  0.00     0.192 HD
ENDROOT
BRANCH   2   5
ATOM      5  C   UNL d   1      25.629 -15.295  -2.065  0.00  0.00     0.061 A 
ATOM      6  C   UNL d   1      26.969 -15.544  -1.803  0.00  0.00     0.106 A 
ATOM      7  N   UNL d   1      27.066 -16.589  -0.922  0.00  0.00    -0.364 N 
ATOM      8  C   UNL d   1      25.815 -17.095  -0.650  0.00  0.00     0.043 A 
ATOM      9  H   UNL d   1      27.931 -16.972  -0.562  0.00  0.00     0.165 HD
ATOM     10  C   UNL d   1      25.434 -18.199   0.126  0.00  0.00     0.030 A 
ATOM     11  C   UNL d   1      24.897 -16.299  -1.346  0.00  0.00     0.008 A 
ATOM     12  C   UNL d   1      24.074 -18.519   0.173  0.00  0.00     0.002 A 
ATOM     13  C   UNL d   1      23.136 -17.753  -0.515  0.00  0.00     0.001 A 
ATOM     14  C   UNL d   1      23.532 -16.644  -1.270  0.00  0.00     0.015 A 
ENDBRANCH   2   5
BRANCH   1  15
ATOM     15  N   UNL d   1      25.622 -12.059  -3.878  0.00  0.00    -0.176 NA
ATOM     16  C   UNL d   1      26.243 -11.962  -5.023  0.00  0.00     0.061 C 
ATOM     17  C   UNL d   1      25.948 -10.751  -5.900  0.00  0.00     0.073 C 
BRANCH  16  18
ATOM     18  C   UNL d   1      27.239 -12.930  -5.560  0.00  0.00    -0.010 A 
ATOM     19  C   UNL d   1      27.030 -14.303  -5.395  0.00  0.00     0.013 A 
ATOM     20  C   UNL d   1      28.056 -15.200  -5.680  0.00  0.00     0.001 A 
ATOM     21  C   UNL d   1      29.236 -14.741  -6.261  0.00  0.00     0.000 A 
ATOM     22  C   UNL d   1      29.412 -13.381  -6.514  0.00  0.00     0.001 A 
ATOM     23  C   UNL d   1      28.420 -12.469  -6.150  0.00  0.00     0.013 A 
ENDBRANCH  16  18
ENDBRANCH   1  15
TORSDOF 3
ENDMDL
MODEL 5
REMARK VINA RESULT:    -6.715      3.898      6.971
REMARK INTER + INTRA:          -8.342
REMARK INTER:                  -7.610
REMARK INTRA:                  -0.732
REMARK CONF_INDEPENDENT:        0.895
REMARK UNBOUND:                -0.732
REMARK  3 active torsions:
REMARK  status: ('A' for Active; 'I' for Inactive)
REMARK    1  A    between atoms: C_2  and  C_16 
REMARK    2  A    between atoms: N_3  and  N_4 
REMARK       I    between atoms: N_4  and  C_5 
REMARK    3  A    between atoms: C_5  and  C_7 
ROOT
ATOM      1  N   UNL d   1      28.742 -15.468   0.775  0.00  0.00    -0.242 N 
ATOM      2  C   UNL d   1      27.457 -15.396   0.247  0.00  0.00     0.274 C 
ATOM      3  O   UNL d   1      26.937 -14.361  -0.178  0.00  0.00    -0.266 OA
ATOM      4  H   UNL d   1      29.087 -16.370   1.079  0.00  0.00     0.192 HD
ENDROOT
BRANCH   2   5
ATOM      5  C   UNL d   1      26.745 -16.681   0.174  0.00  0.00     0.061 A 
ATOM      6  C   UNL d   1      27.347 -17.921   0.337  0.00  0.00     0.106 A 
ATOM      7  N   UNL d   1      26.401 -18.901   0.190  0.00  0.00    -0.364 N 
ATOM      8  C   UNL d   1      25.190 -18.341  -0.146  0.00  0.00     0.043 A 
ATOM      9  H   UNL d   1      26.574 -19.896   0.263  0.00  0.00     0.165 HD
ATOM     10  C   UNL d   1      23.967 -18.950  -0.466  0.00  0.00     0.030 A 
ATOM     11  C   UNL d   1      25.374 -16.952  -0.156  0.00  0.00     0.008 A 
ATOM     12  C   UNL d   1      22.906 -18.118  -0.833  0.00  0.00     0.002 A 
ATOM     13  C   UNL d   1      23.060 -16.735  -0.861  0.00  0.00     0.001 A 
ATOM     14  C   UNL d   1      24.281 -16.142  -0.521  0.00  0.00     0.015 A 
ENDBRANCH   2   5
BRANCH   1  15
ATOM     15  N   UNL d   1      29.565 -14.360   0.821  0.00  0.00    -0.176 NA
ATOM     16  C   UNL d   1      29.751 -13.705   1.936  0.00  0.00     0.061 C 
ATOM     17  C   UNL d   1      30.599 -12.440   1.893  0.00  0.00     0.073 C 
BRANCH  16  18
ATOM     18  C   UNL d   1      29.196 -14.074   3.267  0.00  0.00    -0.010 A 
ATOM     19  C   UNL d   1      27.821 -13.960   3.501  0.00  0.00     0.013 A 
ATOM     20  C   UNL d   1      27.327 -14.074   4.797  0.00  0.00     0.001 A 
ATOM     21  C   UNL d   1      28.180 -14.441   5.835  0.00  0.00     0.000 A 
ATOM     22  C   UNL d   1      29.537 -14.647   5.589  0.00  0.00     0.001 A 
ATOM     23  C   UNL d   1      30.052 -14.450   4.307  0.00  0.00     0.013 A 
ENDBRANCH  16  18
ENDBRANCH   1  15
TORSDOF 3
ENDMDL
MODEL 6
REMARK VINA RESULT:    -6.640      4.309      5.934
REMARK INTER + INTRA:          -8.150
REMARK INTER:                  -7.535
REMARK INTRA:                  -0.614
REMARK CONF_INDEPENDENT:        0.895
REMARK UNBOUND:                -0.614
REMARK  3 active torsions:
REMARK  status: ('A' for Active; 'I' for Inactive)
REMARK    1  A    between atoms: C_2  and  C_16 
REMARK    2  A    between atoms: N_3  and  N_4 
REMARK       I    between atoms: N_4  and  C_5 
REMARK    3  A    between atoms: C_5  and  C_7 
ROOT
ATOM      1  N   UNL d   1      27.112 -14.145  -0.014  0.00  0.00    -0.242 N 
ATOM      2  C   UNL d   1      27.125 -13.136   0.943  0.00  0.00     0.274 C 
ATOM      3  O   UNL d   1      26.669 -12.003   0.766  0.00  0.00    -0.266 OA
ATOM      4  H   UNL d   1      27.492 -15.049   0.234  0.00  0.00     0.192 HD
ENDROOT
BRANCH   2   5
ATOM      5  C   UNL d   1      27.689 -13.526   2.244  0.00  0.00     0.061 A 
ATOM      6  C   UNL d   1      28.092 -14.813   2.570  0.00  0.00     0.106 A 
ATOM      7  N   UNL d   1      28.550 -14.825   3.861  0.00  0.00    -0.364 N 
ATOM      8  C   UNL d   1      28.388 -13.583   4.431  0.00  0.00     0.043 A 
ATOM      9  H   UNL d   1      28.907 -15.638   4.347  0.00  0.00     0.165 HD
ATOM     10  C   UNL d   1      28.640 -13.147   5.740  0.00  0.00     0.030 A 
ATOM     11  C   UNL d   1      27.858 -12.748   3.439  0.00  0.00     0.008 A 
ATOM     12  C   UNL d   1      28.316 -11.825   6.056  0.00  0.00     0.002 A 
ATOM     13  C   UNL d   1      27.780 -10.972   5.095  0.00  0.00     0.001 A 
ATOM     14  C   UNL d   1      27.552 -11.418   3.789  0.00  0.00     0.015 A 
ENDBRANCH   2   5
BRANCH   1  15
ATOM     15  N   UNL d   1      26.529 -13.956  -1.253  0.00  0.00    -0.176 NA
ATOM     16  C   UNL d   1      25.691 -14.830  -1.743  0.00  0.00     0.061 C 
ATOM     17  C   UNL d   1      25.156 -14.601  -3.152  0.00  0.00     0.073 C 
BRANCH  16  18
ATOM     18  C   UNL d   1      25.206 -16.056  -1.052  0.00  0.00    -0.010 A 
ATOM     19  C   UNL d   1      26.127 -16.946  -0.490  0.00  0.00     0.013 A 
ATOM     20  C   UNL d   1      25.705 -18.199  -0.054  0.00  0.00     0.001 A 
ATOM     21  C   UNL d   1      24.347 -18.510  -0.049  0.00  0.00     0.000 A 
ATOM     22  C   UNL d   1      23.414 -17.588  -0.523  0.00  0.00     0.001 A 
ATOM     23  C   UNL d   1      23.841 -16.364  -1.041  0.00  0.00     0.013 A 
ENDBRANCH  16  18
ENDBRANCH   1  15
TORSDOF 3
ENDMDL
MODEL 7
REMARK VINA RESULT:    -6.271      2.677      6.481
REMARK INTER + INTRA:          -8.291
REMARK INTER:                  -7.166
REMARK INTRA:                  -1.126
REMARK CONF_INDEPENDENT:        0.895
REMARK UNBOUND:                -1.126
REMARK  3 active torsions:
REMARK  status: ('A' for Active; 'I' for Inactive)
REMARK    1  A    between atoms: C_2  and  C_16 
REMARK    2  A    between atoms: N_3  and  N_4 
REMARK       I    between atoms: N_4  and  C_5 
REMARK    3  A    between atoms: C_5  and  C_7 
ROOT
ATOM      1  N   UNL d   1      29.039 -16.142  -4.288  0.00  0.00    -0.242 N 
ATOM      2  C   UNL d   1      28.962 -15.455  -3.081  0.00  0.00     0.274 C 
ATOM      3  O   UNL d   1      29.182 -14.248  -2.952  0.00  0.00    -0.266 OA
ATOM      4  H   UNL d   1      28.820 -17.130  -4.295  0.00  0.00     0.192 HD
ENDROOT
BRANCH   2   5
ATOM      5  C   UNL d   1      28.540 -16.271  -1.932  0.00  0.00     0.061 A 
ATOM      6  C   UNL d   1      29.408 -16.957  -1.096  0.00  0.00     0.106 A 
ATOM      7  N   UNL d   1      28.682 -17.624  -0.145  0.00  0.00    -0.364 N 
ATOM      8  C   UNL d   1      27.336 -17.459  -0.379  0.00  0.00     0.043 A 
ATOM      9  H   UNL d   1      29.071 -18.200   0.591  0.00  0.00     0.165 HD
ATOM     10  C   UNL d   1      26.227 -18.012   0.280  0.00  0.00     0.030 A 
ATOM     11  C   UNL d   1      27.218 -16.610  -1.486  0.00  0.00     0.008 A 
ATOM     12  C   UNL d   1      24.959 -17.711  -0.223  0.00  0.00     0.002 A 
ATOM     13  C   UNL d   1      24.808 -16.878  -1.328  0.00  0.00     0.001 A 
ATOM     14  C   UNL d   1      25.923 -16.320  -1.962  0.00  0.00     0.015 A 
ENDBRANCH   2   5
BRANCH   1  15
ATOM     15  N   UNL d   1      29.333 -15.490  -5.470  0.00  0.00    -0.176 NA
ATOM     16  C   UNL d   1      28.542 -14.564  -5.942  0.00  0.00     0.061 C 
ATOM     17  C   UNL d   1      28.881 -13.951  -7.296  0.00  0.00     0.073 C 
BRANCH  16  18
ATOM     18  C   UNL d   1      27.311 -14.047  -5.282  0.00  0.00    -0.010 A 
ATOM     19  C   UNL d   1      27.265 -12.719  -4.844  0.00  0.00     0.013 A 
ATOM     20  C   UNL d   1      26.223 -12.296  -4.024  0.00  0.00     0.001 A 
ATOM     21  C   UNL d   1      25.158 -13.153  -3.757  0.00  0.00     0.000 A 
ATOM     22  C   UNL d   1      25.155 -14.450  -4.270  0.00  0.00     0.001 A 
ATOM     23  C   UNL d   1      26.239 -14.907  -5.021  0.00  0.00     0.013 A 
ENDBRANCH  16  18
ENDBRANCH   1  15
TORSDOF 3
ENDMDL
MODEL 8
REMARK VINA RESULT:    -6.252      2.085      6.879
REMARK INTER + INTRA:          -8.052
REMARK INTER:                  -7.147
REMARK INTRA:                  -0.904
REMARK CONF_INDEPENDENT:        0.895
REMARK UNBOUND:                -0.904
REMARK  3 active torsions:
REMARK  status: ('A' for Active; 'I' for Inactive)
REMARK    1  A    between atoms: C_2  and  C_16 
REMARK    2  A    between atoms: N_3  and  N_4 
REMARK       I    between atoms: N_4  and  C_5 
REMARK    3  A    between atoms: C_5  and  C_7 
ROOT
ATOM      1  N   UNL d   1      27.806 -15.609  -3.919  0.00  0.00    -0.242 N 
ATOM      2  C   UNL d   1      26.513 -15.588  -3.407  0.00  0.00     0.274 C 
ATOM      3  O   UNL d   1      25.530 -15.163  -4.020  0.00  0.00    -0.266 OA
ATOM      4  H   UNL d   1      28.544 -15.998  -3.345  0.00  0.00     0.192 HD
ENDROOT
BRANCH   2   5
ATOM      5  C   UNL d   1      26.369 -16.168  -2.063  0.00  0.00     0.061 A 
ATOM      6  C   UNL d   1      27.351 -16.128  -1.084  0.00  0.00     0.106 A 
ATOM      7  N   UNL d   1      26.895 -16.775   0.034  0.00  0.00    -0.364 N 
ATOM      8  C   UNL d   1      25.653 -17.317  -0.208  0.00  0.00     0.043 A 
ATOM      9  H   UNL d   1      27.413 -16.889   0.897  0.00  0.00     0.165 HD
ATOM     10  C   UNL d   1      24.840 -18.120   0.606  0.00  0.00     0.030 A 
ATOM     11  C   UNL d   1      25.296 -16.946  -1.510  0.00  0.00     0.008 A 
ATOM     12  C   UNL d   1      23.637 -18.582   0.065  0.00  0.00     0.002 A 
ATOM     13  C   UNL d   1      23.259 -18.238  -1.230  0.00  0.00     0.001 A 
ATOM     14  C   UNL d   1      24.072 -17.421  -2.022  0.00  0.00     0.015 A 
ENDBRANCH   2   5
BRANCH   1  15
ATOM     15  N   UNL d   1      28.079 -15.184  -5.204  0.00  0.00    -0.176 NA
ATOM     16  C   UNL d   1      27.921 -13.934  -5.548  0.00  0.00     0.061 C 
ATOM     17  C   UNL d   1      28.155 -13.553  -7.005  0.00  0.00     0.073 C 
BRANCH  16  18
ATOM     18  C   UNL d   1      27.516 -12.824  -4.641  0.00  0.00    -0.010 A 
ATOM     19  C   UNL d   1      28.325 -12.490  -3.550  0.00  0.00     0.013 A 
ATOM     20  C   UNL d   1      27.846 -11.623  -2.571  0.00  0.00     0.001 A 
ATOM     21  C   UNL d   1      26.622 -10.983  -2.750  0.00  0.00     0.000 A 
ATOM     22  C   UNL d   1      25.853 -11.244  -3.884  0.00  0.00     0.001 A 
ATOM     23  C   UNL d   1      26.290 -12.177  -4.825  0.00  0.00     0.013 A 
ENDBRANCH  16  18
ENDBRANCH   1  15
TORSDOF 3
ENDMDL
MODEL 9
REMARK VINA RESULT:    -6.217      3.819      6.795
REMARK INTER + INTRA:          -8.019
REMARK INTER:                  -7.112
REMARK INTRA:                  -0.907
REMARK CONF_INDEPENDENT:        0.895
REMARK UNBOUND:                -0.907
REMARK  3 active torsions:
REMARK  status: ('A' for Active; 'I' for Inactive)
REMARK    1  A    between atoms: C_2  and  C_16 
REMARK    2  A    between atoms: N_3  and  N_4 
REMARK       I    between atoms: N_4  and  C_5 
REMARK    3  A    between atoms: C_5  and  C_7 
ROOT
ATOM      1  N   UNL d   1      26.902 -15.373  -4.314  0.00  0.00    -0.242 N 
ATOM      2  C   UNL d   1      25.626 -15.135  -3.815  0.00  0.00     0.274 C 
ATOM      3  O   UNL d   1      24.789 -14.412  -4.361  0.00  0.00    -0.266 OA
ATOM      4  H   UNL d   1      27.510 -15.999  -3.803  0.00  0.00     0.192 HD
ENDROOT
BRANCH   2   5
ATOM      5  C   UNL d   1      25.301 -15.862  -2.578  0.00  0.00     0.061 A 
ATOM      6  C   UNL d   1      24.034 -15.928  -2.017  0.00  0.00     0.106 A 
ATOM      7  N   UNL d   1      24.091 -16.668  -0.866  0.00  0.00    -0.364 N 
ATOM      8  C   UNL d   1      25.392 -17.033  -0.604  0.00  0.00     0.043 A 
ATOM      9  H   UNL d   1      23.304 -16.873  -0.263  0.00  0.00     0.165 HD
ATOM     10  C   UNL d   1      25.937 -17.722   0.490  0.00  0.00     0.030 A 
ATOM     11  C   UNL d   1      26.169 -16.549  -1.663  0.00  0.00     0.008 A 
ATOM     12  C   UNL d   1      27.323 -17.900   0.517  0.00  0.00     0.002 A 
ATOM     13  C   UNL d   1      28.125 -17.422  -0.516  0.00  0.00     0.001 A 
ATOM     14  C   UNL d   1      27.563 -16.754  -1.609  0.00  0.00     0.015 A 
ENDBRANCH   2   5
BRANCH   1  15
ATOM     15  N   UNL d   1      27.317 -14.833  -5.516  0.00  0.00    -0.176 NA
ATOM     16  C   UNL d   1      28.513 -15.070  -5.983  0.00  0.00     0.061 C 
ATOM     17  C   UNL d   1      28.935 -14.370  -7.270  0.00  0.00     0.073 C 
BRANCH  16  18
ATOM     18  C   UNL d   1      29.530 -15.966  -5.365  0.00  0.00    -0.010 A 
ATOM     19  C   UNL d   1      30.034 -17.049  -6.093  0.00  0.00     0.013 A 
ATOM     20  C   UNL d   1      30.798 -18.020  -5.452  0.00  0.00     0.001 A 
ATOM     21  C   UNL d   1      31.176 -17.840  -4.124  0.00  0.00     0.000 A 
ATOM     22  C   UNL d   1      30.752 -16.713  -3.420  0.00  0.00     0.001 A 
ATOM     23  C   UNL d   1      29.914 -15.780  -4.034  0.00  0.00     0.013 A 
ENDBRANCH  16  18
ENDBRANCH   1  15
TORSDOF 3
ENDMDL
