MODEL 1
REMARK VINA RESULT:    -8.630      0.000      0.000
REMARK INTER + INTRA:         -10.641
REMARK INTER:                 -10.122
REMARK INTRA:                  -0.520
REMARK CONF_INDEPENDENT:        1.492
REMARK UNBOUND:                -0.520
REMARK  5 active torsions:
REMARK  status: ('A' for Active; 'I' for Inactive)
REMARK    1  A    between atoms: C_5  and  C_6 
REMARK    2  A    between atoms: C_6  and  N_8 
REMARK    3  A    between atoms: N_8  and  C_9 
REMARK    4  A    between atoms: C_11  and  N_12 
REMARK    5  A    between atoms: C_17  and  N_18 
ROOT
ATOM      1  C   UNL d   1      25.251 -17.360  -0.957  0.00  0.00     0.056 C 
ATOM      2  C   UNL d   1      25.020 -16.714  -2.186  0.00  0.00     0.067 C 
ATOM      3  C   UNL d   1      26.069 -16.005  -2.800  0.00  0.00     0.105 C 
ATOM      4  C   UNL d   1      27.312 -15.885  -2.175  0.00  0.00     0.038 C 
ATOM      5  C   UNL d   1      27.544 -16.554  -0.982  0.00  0.00     0.028 C 
ATOM      6  C   UNL d   1      26.561 -17.369  -0.417  0.00  0.00     0.033 C 
ENDROOT
BRANCH   1   7
ATOM      7  N   UNL d   1      24.120 -17.929  -0.299  0.00  0.00    -0.345 N 
ATOM      8  H   UNL d   1      24.323 -18.491   0.525  0.00  0.00     0.167 HD
BRANCH   7   9
ATOM      9  C   UNL d   1      22.787 -17.554  -0.419  0.00  0.00     0.111 C 
ATOM     10  S   UNL d   1      22.522 -15.954  -0.881  0.00  0.00    -0.059 SA
BRANCH   9  11
ATOM     11  C   UNL d   1      21.681 -18.576  -0.198  0.00  0.00     0.002 A 
ATOM     12  C   UNL d   1      21.293 -18.950   1.099  0.00  0.00     0.015 A 
ATOM     13  C   UNL d   1      20.133 -19.707   1.312  0.00  0.00     0.007 A 
ATOM     14  C   UNL d   1      19.317 -20.073   0.239  0.00  0.00    -0.062 A 
ATOM     15  C   UNL d   1      18.078 -20.890   0.439  0.00  0.00     0.048 C 
ATOM     16  C   UNL d   1      19.681 -19.689  -1.050  0.00  0.00     0.007 A 
ATOM     17  C   UNL d   1      20.887 -19.019  -1.270  0.00  0.00     0.015 A 
ENDBRANCH   9  11
ENDBRANCH   7   9
ENDBRANCH   1   7
BRANCH   6  18
ATOM     18  N   UNL d   1      27.015 -18.246   0.581  0.00  0.00    -0.301 NA
ATOM     19  H   UNL d   1      28.021 -18.198   0.727  0.00  0.00     0.124 HD
ATOM     20  H   UNL d   1      26.519 -18.220   1.461  0.00  0.00     0.124 HD
ENDBRANCH   6  18
BRANCH   3  21
ATOM     21  N   UNL d   1      25.875 -15.373  -4.111  0.00  0.00    -0.116 N 
ATOM     22  O   UNL d   1      24.865 -14.690  -4.285  0.00  0.00    -0.532 OA
ATOM     23  O   UNL d   1      26.749 -15.575  -4.977  0.00  0.00    -0.532 OA
ENDBRANCH   3  21
TORSDOF 5
ENDMDL
MODEL 2
REMARK VINA RESULT:    -7.456      2.284      3.255
REMARK INTER + INTRA:          -9.840
REMARK INTER:                  -8.948
REMARK INTRA:                  -0.892
REMARK CONF_INDEPENDENT:        1.492
REMARK UNBOUND:                -0.892
REMARK  5 active torsions:
REMARK  status: ('A' for Active; 'I' for Inactive)
REMARK    1  A    between atoms: C_5  and  C_6 
REMARK    2  A    between atoms: C_6  and  N_8 
REMARK    3  A    between atoms: N_8  and  C_9 
REMARK    4  A    between atoms: C_11  and  N_12 
REMARK    5  A    between atoms: C_17  and  N_18 
ROOT
ATOM      1  C   UNL d   1      26.340 -14.884  -1.368  0.00  0.00     0.056 C 
ATOM      2  C   UNL d   1      26.308 -15.518  -2.625  0.00  0.00     0.067 C 
ATOM      3  C   UNL d   1      26.397 -14.738  -3.793  0.00  0.00     0.105 C 
ATOM      4  C   UNL d   1      26.452 -13.345  -3.719  0.00  0.00     0.038 C 
ATOM      5  C   UNL d   1      26.519 -12.729  -2.479  0.00  0.00     0.028 C 
ATOM      6  C   UNL d   1      26.563 -13.486  -1.307  0.00  0.00     0.033 C 
ENDROOT
BRANCH   1   7
ATOM      7  N   UNL d   1      26.088 -15.697  -0.223  0.00  0.00    -0.345 N 
ATOM      8  H   UNL d   1      25.844 -15.198   0.629  0.00  0.00     0.167 HD
BRANCH   7   9
ATOM      9  C   UNL d   1      25.801 -17.056  -0.190  0.00  0.00     0.111 C 
ATOM     10  S   UNL d   1      27.057 -18.049   0.340  0.00  0.00    -0.059 SA
BRANCH   9  11
ATOM     11  C   UNL d   1      24.411 -17.555  -0.558  0.00  0.00     0.002 A 
ATOM     12  C   UNL d   1      24.065 -18.908  -0.404  0.00  0.00     0.015 A 
ATOM     13  C   UNL d   1      22.734 -19.326  -0.521  0.00  0.00     0.007 A 
ATOM     14  C   UNL d   1      21.715 -18.400  -0.756  0.00  0.00    -0.062 A 
ATOM     15  C   UNL d   1      20.286 -18.824  -0.895  0.00  0.00     0.048 C 
ATOM     16  C   UNL d   1      22.045 -17.052  -0.890  0.00  0.00     0.007 A 
ATOM     17  C   UNL d   1      23.382 -16.650  -0.870  0.00  0.00     0.015 A 
ENDBRANCH   9  11
ENDBRANCH   7   9
ENDBRANCH   1   7
BRANCH   6  18
ATOM     18  N   UNL d   1      26.969 -12.785  -0.159  0.00  0.00    -0.301 NA
ATOM     19  H   UNL d   1      27.306 -13.395   0.582  0.00  0.00     0.124 HD
ATOM     20  H   UNL d   1      27.601 -12.010  -0.307  0.00  0.00     0.124 HD
ENDBRANCH   6  18
BRANCH   3  21
ATOM     21  N   UNL d   1      26.428 -15.377  -5.114  0.00  0.00    -0.116 N 
ATOM     22  O   UNL d   1      25.439 -16.015  -5.477  0.00  0.00    -0.532 OA
ATOM     23  O   UNL d   1      27.467 -15.238  -5.791  0.00  0.00    -0.532 OA
ENDBRANCH   3  21
TORSDOF 5
ENDMDL
MODEL 3
REMARK VINA RESULT:    -7.281      2.603      3.980
REMARK INTER + INTRA:          -9.532
REMARK INTER:                  -8.772
REMARK INTRA:                  -0.759
REMARK CONF_INDEPENDENT:        1.492
REMARK UNBOUND:                -0.759
REMARK  5 active torsions:
REMARK  status: ('A' for Active; 'I' for Inactive)
REMARK    1  A    between atoms: C_5  and  C_6 
REMARK    2  A    between atoms: C_6  and  N_8 
REMARK    3  A    between atoms: N_8  and  C_9 
REMARK    4  A    between atoms: C_11  and  N_12 
REMARK    5  A    between atoms: C_17  and  N_18 
ROOT
ATOM      1  C   UNL d   1      26.216 -15.027  -2.948  0.00  0.00     0.056 C 
ATOM      2  C   UNL d   1      27.588 -15.340  -2.954  0.00  0.00     0.067 C 
ATOM      3  C   UNL d   1      28.279 -15.388  -4.179  0.00  0.00     0.105 C 
ATOM      4  C   UNL d   1      27.606 -15.193  -5.387  0.00  0.00     0.038 C 
ATOM      5  C   UNL d   1      26.263 -14.849  -5.372  0.00  0.00     0.028 C 
ATOM      6  C   UNL d   1      25.585 -14.668  -4.165  0.00  0.00     0.033 C 
ENDROOT
BRANCH   1   7
ATOM      7  N   UNL d   1      25.527 -15.145  -1.704  0.00  0.00    -0.345 N 
ATOM      8  H   UNL d   1      24.782 -14.471  -1.544  0.00  0.00     0.167 HD
BRANCH   7   9
ATOM      9  C   UNL d   1      25.502 -16.237  -0.845  0.00  0.00     0.111 C 
ATOM     10  S   UNL d   1      26.943 -16.551  -0.028  0.00  0.00    -0.059 SA
BRANCH   9  11
ATOM     11  C   UNL d   1      24.215 -17.025  -0.646  0.00  0.00     0.002 A 
ATOM     12  C   UNL d   1      22.962 -16.426  -0.852  0.00  0.00     0.015 A 
ATOM     13  C   UNL d   1      21.794 -17.198  -0.896  0.00  0.00     0.007 A 
ATOM     14  C   UNL d   1      21.857 -18.588  -0.773  0.00  0.00    -0.062 A 
ATOM     15  C   UNL d   1      20.622 -19.435  -0.806  0.00  0.00     0.048 C 
ATOM     16  C   UNL d   1      23.097 -19.196  -0.589  0.00  0.00     0.007 A 
ATOM     17  C   UNL d   1      24.248 -18.417  -0.449  0.00  0.00     0.015 A 
ENDBRANCH   9  11
ENDBRANCH   7   9
ENDBRANCH   1   7
BRANCH   6  18
ATOM     18  N   UNL d   1      24.353 -14.001  -4.268  0.00  0.00    -0.301 NA
ATOM     19  H   UNL d   1      24.450 -12.990  -4.331  0.00  0.00     0.124 HD
ATOM     20  H   UNL d   1      23.711 -14.349  -4.967  0.00  0.00     0.124 HD
ENDBRANCH   6  18
BRANCH   3  21
ATOM     21  N   UNL d   1      29.723 -15.651  -4.210  0.00  0.00    -0.116 N 
ATOM     22  O   UNL d   1      30.122 -16.645  -4.820  0.00  0.00    -0.532 OA
ATOM     23  O   UNL d   1      30.463 -14.849  -3.607  0.00  0.00    -0.532 OA
ENDBRANCH   3  21
TORSDOF 5
ENDMDL
MODEL 4
REMARK VINA RESULT:    -7.177      1.985      2.821
REMARK INTER + INTRA:          -9.507
REMARK INTER:                  -8.668
REMARK INTRA:                  -0.839
REMARK CONF_INDEPENDENT:        1.492
REMARK UNBOUND:                -0.839
REMARK  5 active torsions:
REMARK  status: ('A' for Active; 'I' for Inactive)
REMARK    1  A    between atoms: C_5  and  C_6 
REMARK    2  A    between atoms: C_6  and  N_8 
REMARK    3  A    between atoms: N_8  and  C_9 
REMARK    4  A    between atoms: C_11  and  N_12 
REMARK    5  A    between atoms: C_17  and  N_18 
ROOT
ATOM      1  C   UNL d   1      27.203 -16.283  -1.454  0.00  0.00     0.056 C 
ATOM      2  C   UNL d   1      26.408 -15.904  -2.553  0.00  0.00     0.067 C 
ATOM      3  C   UNL d   1      27.030 -15.561  -3.768  0.00  0.00     0.105 C 
ATOM      4  C   UNL d   1      28.422 -15.532  -3.875  0.00  0.00     0.038 C 
ATOM      5  C   UNL d   1      29.198 -15.941  -2.801  0.00  0.00     0.028 C 
ATOM      6  C   UNL d   1      28.605 -16.409  -1.628  0.00  0.00     0.033 C 
ENDROOT
BRANCH   1   7
ATOM      7  N   UNL d   1      26.541 -16.467  -0.204  0.00  0.00    -0.345 N 
ATOM      8  H   UNL d   1      26.331 -15.617   0.315  0.00  0.00     0.167 HD
BRANCH   7   9
ATOM      9  C   UNL d   1      25.851 -17.589   0.238  0.00  0.00     0.111 C 
ATOM     10  S   UNL d   1      26.668 -18.546   1.361  0.00  0.00    -0.059 SA
BRANCH   9  11
ATOM     11  C   UNL d   1      24.433 -17.857  -0.245  0.00  0.00     0.002 A 
ATOM     12  C   UNL d   1      23.938 -19.168  -0.339  0.00  0.00     0.015 A 
ATOM     13  C   UNL d   1      22.575 -19.407  -0.559  0.00  0.00     0.007 A 
ATOM     14  C   UNL d   1      21.673 -18.345  -0.651  0.00  0.00    -0.062 A 
ATOM     15  C   UNL d   1      20.213 -18.574  -0.895  0.00  0.00     0.048 C 
ATOM     16  C   UNL d   1      22.150 -17.040  -0.538  0.00  0.00     0.007 A 
ATOM     17  C   UNL d   1      23.521 -16.801  -0.416  0.00  0.00     0.015 A 
ENDBRANCH   9  11
ENDBRANCH   7   9
ENDBRANCH   1   7
BRANCH   6  18
ATOM     18  N   UNL d   1      29.464 -17.103  -0.760  0.00  0.00    -0.301 NA
ATOM     19  H   UNL d   1      29.739 -16.555   0.052  0.00  0.00     0.124 HD
ATOM     20  H   UNL d   1      29.173 -18.032  -0.489  0.00  0.00     0.124 HD
ENDBRANCH   6  18
BRANCH   3  21
ATOM     21  N   UNL d   1      26.224 -15.222  -4.947  0.00  0.00    -0.116 N 
ATOM     22  O   UNL d   1      25.145 -14.654  -4.773  0.00  0.00    -0.532 OA
ATOM     23  O   UNL d   1      26.683 -15.539  -6.063  0.00  0.00    -0.532 OA
ENDBRANCH   3  21
TORSDOF 5
ENDMDL
MODEL 5
REMARK VINA RESULT:    -7.111      3.445      7.313
REMARK INTER + INTRA:          -9.416
REMARK INTER:                  -8.603
REMARK INTRA:                  -0.813
REMARK CONF_INDEPENDENT:        1.492
REMARK UNBOUND:                -0.813
REMARK  5 active torsions:
REMARK  status: ('A' for Active; 'I' for Inactive)
REMARK    1  A    between atoms: C_5  and  C_6 
REMARK    2  A    between atoms: C_6  and  N_8 
REMARK    3  A    between atoms: N_8  and  C_9 
REMARK    4  A    between atoms: C_11  and  N_12 
REMARK    5  A    between atoms: C_17  and  N_18 
ROOT
ATOM      1  C   UNL d   1      25.186 -16.364  -1.054  0.00  0.00     0.056 C 
ATOM      2  C   UNL d   1      23.852 -16.678  -1.376  0.00  0.00     0.067 C 
ATOM      3  C   UNL d   1      23.291 -17.877  -0.898  0.00  0.00     0.105 C 
ATOM      4  C   UNL d   1      24.060 -18.783  -0.166  0.00  0.00     0.038 C 
ATOM      5  C   UNL d   1      25.362 -18.452   0.179  0.00  0.00     0.028 C 
ATOM      6  C   UNL d   1      25.900 -17.213  -0.172  0.00  0.00     0.033 C 
ENDROOT
BRANCH   1   7
ATOM      7  N   UNL d   1      25.756 -15.221  -1.689  0.00  0.00    -0.345 N 
ATOM      8  H   UNL d   1      26.487 -14.743  -1.167  0.00  0.00     0.167 HD
BRANCH   7   9
ATOM      9  C   UNL d   1      25.697 -14.876  -3.034  0.00  0.00     0.111 C 
ATOM     10  S   UNL d   1      24.299 -14.063  -3.513  0.00  0.00    -0.059 SA
BRANCH   9  11
ATOM     11  C   UNL d   1      26.870 -15.180  -3.955  0.00  0.00     0.002 A 
ATOM     12  C   UNL d   1      26.867 -14.753  -5.293  0.00  0.00     0.015 A 
ATOM     13  C   UNL d   1      28.028 -14.827  -6.074  0.00  0.00     0.007 A 
ATOM     14  C   UNL d   1      29.225 -15.292  -5.525  0.00  0.00    -0.062 A 
ATOM     15  C   UNL d   1      30.476 -15.389  -6.341  0.00  0.00     0.048 C 
ATOM     16  C   UNL d   1      29.244 -15.699  -4.192  0.00  0.00     0.007 A 
ATOM     17  C   UNL d   1      28.065 -15.716  -3.444  0.00  0.00     0.015 A 
ENDBRANCH   9  11
ENDBRANCH   7   9
ENDBRANCH   1   7
BRANCH   6  18
ATOM     18  N   UNL d   1      27.076 -16.858   0.510  0.00  0.00    -0.301 NA
ATOM     19  H   UNL d   1      26.899 -16.326   1.360  0.00  0.00     0.124 HD
ATOM     20  H   UNL d   1      27.738 -17.603   0.680  0.00  0.00     0.124 HD
ENDBRANCH   6  18
BRANCH   3  21
ATOM     21  N   UNL d   1      21.884 -18.201  -1.167  0.00  0.00    -0.116 N 
ATOM     22  O   UNL d   1      21.030 -17.356  -0.896  0.00  0.00    -0.532 OA
ATOM     23  O   UNL d   1      21.639 -19.324  -1.651  0.00  0.00    -0.532 OA
ENDBRANCH   3  21
TORSDOF 5
ENDMDL
MODEL 6
REMARK VINA RESULT:    -7.024      1.618      1.972
REMARK INTER + INTRA:          -9.272
REMARK INTER:                  -8.516
REMARK INTRA:                  -0.756
REMARK CONF_INDEPENDENT:        1.492
REMARK UNBOUND:                -0.756
REMARK  5 active torsions:
REMARK  status: ('A' for Active; 'I' for Inactive)
REMARK    1  A    between atoms: C_5  and  C_6 
REMARK    2  A    between atoms: C_6  and  N_8 
REMARK    3  A    between atoms: N_8  and  C_9 
REMARK    4  A    between atoms: C_11  and  N_12 
REMARK    5  A    between atoms: C_17  and  N_18 
ROOT
ATOM      1  C   UNL d   1      25.168 -15.900  -1.543  0.00  0.00     0.056 C 
ATOM      2  C   UNL d   1      25.254 -16.027  -2.942  0.00  0.00     0.067 C 
ATOM      3  C   UNL d   1      26.310 -15.399  -3.628  0.00  0.00     0.105 C 
ATOM      4  C   UNL d   1      27.231 -14.602  -2.945  0.00  0.00     0.038 C 
ATOM      5  C   UNL d   1      27.162 -14.510  -1.564  0.00  0.00     0.028 C 
ATOM      6  C   UNL d   1      26.203 -15.227  -0.846  0.00  0.00     0.033 C 
ENDROOT
BRANCH   1   7
ATOM      7  N   UNL d   1      23.997 -16.419  -0.913  0.00  0.00    -0.345 N 
ATOM      8  H   UNL d   1      23.144 -15.883  -1.055  0.00  0.00     0.167 HD
BRANCH   7   9
ATOM      9  C   UNL d   1      23.790 -17.705  -0.428  0.00  0.00     0.111 C 
ATOM     10  S   UNL d   1      25.182 -18.542   0.024  0.00  0.00    -0.059 SA
BRANCH   9  11
ATOM     11  C   UNL d   1      22.376 -18.248  -0.278  0.00  0.00     0.002 A 
ATOM     12  C   UNL d   1      21.625 -18.626  -1.403  0.00  0.00     0.015 A 
ATOM     13  C   UNL d   1      20.425 -19.335  -1.260  0.00  0.00     0.007 A 
ATOM     14  C   UNL d   1      19.970 -19.715   0.005  0.00  0.00    -0.062 A 
ATOM     15  C   UNL d   1      18.686 -20.465   0.184  0.00  0.00     0.048 C 
ATOM     16  C   UNL d   1      20.719 -19.363   1.126  0.00  0.00     0.007 A 
ATOM     17  C   UNL d   1      21.862 -18.574   0.990  0.00  0.00     0.015 A 
ENDBRANCH   9  11
ENDBRANCH   7   9
ENDBRANCH   1   7
BRANCH   6  18
ATOM     18  N   UNL d   1      26.440 -15.326   0.534  0.00  0.00    -0.301 NA
ATOM     19  H   UNL d   1      26.142 -14.501   1.050  0.00  0.00     0.124 HD
ATOM     20  H   UNL d   1      26.119 -16.171   0.985  0.00  0.00     0.124 HD
ENDBRANCH   6  18
BRANCH   3  21
ATOM     21  N   UNL d   1      26.460 -15.566  -5.079  0.00  0.00    -0.116 N 
ATOM     22  O   UNL d   1      25.525 -16.062  -5.709  0.00  0.00    -0.532 OA
ATOM     23  O   UNL d   1      27.538 -15.198  -5.587  0.00  0.00    -0.532 OA
ENDBRANCH   3  21
TORSDOF 5
ENDMDL
MODEL 7
REMARK VINA RESULT:    -7.015      2.262      3.724
REMARK INTER + INTRA:          -9.359
REMARK INTER:                  -8.506
REMARK INTRA:                  -0.852
REMARK CONF_INDEPENDENT:        1.492
REMARK UNBOUND:                -0.852
REMARK  5 active torsions:
REMARK  status: ('A' for Active; 'I' for Inactive)
REMARK    1  A    between atoms: C_5  and  C_6 
REMARK    2  A    between atoms: C_6  and  N_8 
REMARK    3  A    between atoms: N_8  and  C_9 
REMARK    4  A    between atoms: C_11  and  N_12 
REMARK    5  A    between atoms: C_17  and  N_18 
ROOT
ATOM      1  C   UNL d   1      28.589 -16.710  -1.318  0.00  0.00     0.056 C 
ATOM      2  C   UNL d   1      28.045 -16.234  -2.526  0.00  0.00     0.067 C 
ATOM      3  C   UNL d   1      28.857 -16.182  -3.674  0.00  0.00     0.105 C 
ATOM      4  C   UNL d   1      30.207 -16.535  -3.612  0.00  0.00     0.038 C 
ATOM      5  C   UNL d   1      30.727 -17.037  -2.428  0.00  0.00     0.028 C 
ATOM      6  C   UNL d   1      29.911 -17.220  -1.310  0.00  0.00     0.033 C 
ENDROOT
BRANCH   1   7
ATOM      7  N   UNL d   1      27.777 -16.595  -0.150  0.00  0.00    -0.345 N 
ATOM      8  H   UNL d   1      28.261 -16.707   0.738  0.00  0.00     0.167 HD
BRANCH   7   9
ATOM      9  C   UNL d   1      26.514 -16.027  -0.043  0.00  0.00     0.111 C 
ATOM     10  S   UNL d   1      26.484 -14.405   0.416  0.00  0.00    -0.059 SA
BRANCH   9  11
ATOM     11  C   UNL d   1      25.276 -16.843  -0.389  0.00  0.00     0.002 A 
ATOM     12  C   UNL d   1      25.186 -18.201  -0.043  0.00  0.00     0.015 A 
ATOM     13  C   UNL d   1      23.972 -18.891  -0.150  0.00  0.00     0.007 A 
ATOM     14  C   UNL d   1      22.814 -18.231  -0.568  0.00  0.00    -0.062 A 
ATOM     15  C   UNL d   1      21.506 -18.948  -0.700  0.00  0.00     0.048 C 
ATOM     16  C   UNL d   1      22.887 -16.878  -0.893  0.00  0.00     0.007 A 
ATOM     17  C   UNL d   1      24.116 -16.216  -0.879  0.00  0.00     0.015 A 
ENDBRANCH   9  11
ENDBRANCH   7   9
ENDBRANCH   1   7
BRANCH   6  18
ATOM     18  N   UNL d   1      30.453 -18.036  -0.304  0.00  0.00    -0.301 NA
ATOM     19  H   UNL d   1      30.528 -17.564   0.595  0.00  0.00     0.124 HD
ATOM     20  H   UNL d   1      30.042 -18.953  -0.199  0.00  0.00     0.124 HD
ENDBRANCH   6  18
BRANCH   3  21
ATOM     21  N   UNL d   1      28.300 -15.749  -4.962  0.00  0.00    -0.116 N 
ATOM     22  O   UNL d   1      29.075 -15.574  -5.903  0.00  0.00    -0.532 OA
ATOM     23  O   UNL d   1      27.066 -15.577  -5.022  0.00  0.00    -0.532 OA
ENDBRANCH   3  21
TORSDOF 5
ENDMDL
MODEL 8
REMARK VINA RESULT:    -6.806      3.196      4.412
REMARK INTER + INTRA:          -8.968
REMARK INTER:                  -8.298
REMARK INTRA:                  -0.670
REMARK CONF_INDEPENDENT:        1.492
REMARK UNBOUND:                -0.670
REMARK  5 active torsions:
REMARK  status: ('A' for Active; 'I' for Inactive)
REMARK    1  A    between atoms: C_5  and  C_6 
REMARK    2  A    between atoms: C_6  and  N_8 
REMARK    3  A    between atoms: N_8  and  C_9 
REMARK    4  A    between atoms: C_11  and  N_12 
REMARK    5  A    between atoms: C_17  and  N_18 
ROOT
ATOM      1  C   UNL d   1      25.797 -14.419  -2.509  0.00  0.00     0.056 C 
ATOM      2  C   UNL d   1      26.402 -13.749  -1.429  0.00  0.00     0.067 C 
ATOM      3  C   UNL d   1      26.722 -12.384  -1.556  0.00  0.00     0.105 C 
ATOM      4  C   UNL d   1      26.504 -11.708  -2.758  0.00  0.00     0.038 C 
ATOM      5  C   UNL d   1      25.875 -12.364  -3.805  0.00  0.00     0.028 C 
ATOM      6  C   UNL d   1      25.431 -13.679  -3.661  0.00  0.00     0.033 C 
ENDROOT
BRANCH   1   7
ATOM      7  N   UNL d   1      25.638 -15.832  -2.391  0.00  0.00    -0.345 N 
ATOM      8  H   UNL d   1      25.871 -16.374  -3.219  0.00  0.00     0.167 HD
BRANCH   7   9
ATOM      9  C   UNL d   1      25.538 -16.583  -1.226  0.00  0.00     0.111 C 
ATOM     10  S   UNL d   1      26.930 -16.639  -0.277  0.00  0.00    -0.059 SA
BRANCH   9  11
ATOM     11  C   UNL d   1      24.218 -17.241  -0.850  0.00  0.00     0.002 A 
ATOM     12  C   UNL d   1      23.000 -16.561  -1.015  0.00  0.00     0.015 A 
ATOM     13  C   UNL d   1      21.778 -17.235  -0.890  0.00  0.00     0.007 A 
ATOM     14  C   UNL d   1      21.747 -18.608  -0.637  0.00  0.00    -0.062 A 
ATOM     15  C   UNL d   1      20.454 -19.350  -0.489  0.00  0.00     0.048 C 
ATOM     16  C   UNL d   1      22.950 -19.297  -0.493  0.00  0.00     0.007 A 
ATOM     17  C   UNL d   1      24.163 -18.607  -0.520  0.00  0.00     0.015 A 
ENDBRANCH   9  11
ENDBRANCH   7   9
ENDBRANCH   1   7
BRANCH   6  18
ATOM     18  N   UNL d   1      24.524 -14.113  -4.642  0.00  0.00    -0.301 NA
ATOM     19  H   UNL d   1      23.617 -13.656  -4.578  0.00  0.00     0.124 HD
ATOM     20  H   UNL d   1      24.861 -14.118  -5.595  0.00  0.00     0.124 HD
ENDBRANCH   6  18
BRANCH   3  21
ATOM     21  N   UNL d   1      27.297 -11.645  -0.425  0.00  0.00    -0.116 N 
ATOM     22  O   UNL d   1      27.475 -12.247   0.635  0.00  0.00    -0.532 OA
ATOM     23  O   UNL d   1      27.565 -10.441  -0.607  0.00  0.00    -0.532 OA
ENDBRANCH   3  21
TORSDOF 5
ENDMDL
MODEL 9
REMARK VINA RESULT:    -6.787      5.334      6.916
REMARK INTER + INTRA:          -9.047
REMARK INTER:                  -8.278
REMARK INTRA:                  -0.768
REMARK CONF_INDEPENDENT:        1.492
REMARK UNBOUND:                -0.768
REMARK  5 active torsions:
REMARK  status: ('A' for Active; 'I' for Inactive)
REMARK    1  A    between atoms: C_5  and  C_6 
REMARK    2  A    between atoms: C_6  and  N_8 
REMARK    3  A    between atoms: N_8  and  C_9 
REMARK    4  A    between atoms: C_11  and  N_12 
REMARK    5  A    between atoms: C_17  and  N_18 
ROOT
ATOM      1  C   UNL d   1      28.445 -13.827   2.792  0.00  0.00     0.056 C 
ATOM      2  C   UNL d   1      27.691 -12.683   2.471  0.00  0.00     0.067 C 
ATOM      3  C   UNL d   1      27.403 -11.742   3.477  0.00  0.00     0.105 C 
ATOM      4  C   UNL d   1      27.801 -11.963   4.797  0.00  0.00     0.038 C 
ATOM      5  C   UNL d   1      28.574 -13.073   5.100  0.00  0.00     0.028 C 
ATOM      6  C   UNL d   1      28.983 -13.955   4.097  0.00  0.00     0.033 C 
ENDROOT
BRANCH   1   7
ATOM      7  N   UNL d   1      28.575 -14.826   1.781  0.00  0.00    -0.345 N 
ATOM      8  H   UNL d   1      28.868 -15.746   2.102  0.00  0.00     0.167 HD
BRANCH   7   9
ATOM      9  C   UNL d   1      28.043 -14.812   0.497  0.00  0.00     0.111 C 
ATOM     10  S   UNL d   1      28.660 -13.626  -0.530  0.00  0.00    -0.059 SA
BRANCH   9  11
ATOM     11  C   UNL d   1      27.021 -15.859   0.081  0.00  0.00     0.002 A 
ATOM     12  C   UNL d   1      27.063 -17.160   0.609  0.00  0.00     0.015 A 
ATOM     13  C   UNL d   1      26.001 -18.051   0.411  0.00  0.00     0.007 A 
ATOM     14  C   UNL d   1      24.858 -17.651  -0.287  0.00  0.00    -0.062 A 
ATOM     15  C   UNL d   1      23.714 -18.588  -0.521  0.00  0.00     0.048 C 
ATOM     16  C   UNL d   1      24.797 -16.356  -0.797  0.00  0.00     0.007 A 
ATOM     17  C   UNL d   1      25.895 -15.501  -0.682  0.00  0.00     0.015 A 
ENDBRANCH   9  11
ENDBRANCH   7   9
ENDBRANCH   1   7
BRANCH   6  18
ATOM     18  N   UNL d   1      30.022 -14.828   4.458  0.00  0.00    -0.301 NA
ATOM     19  H   UNL d   1      30.170 -15.574   3.781  0.00  0.00     0.124 HD
ATOM     20  H   UNL d   1      30.899 -14.398   4.721  0.00  0.00     0.124 HD
ENDBRANCH   6  18
BRANCH   3  21
ATOM     21  N   UNL d   1      26.672 -10.509   3.157  0.00  0.00    -0.116 N 
ATOM     22  O   UNL d   1      26.125 -10.425   2.057  0.00  0.00    -0.532 OA
ATOM     23  O   UNL d   1      26.656  -9.614   4.025  0.00  0.00    -0.532 OA
ENDBRANCH   3  21
TORSDOF 5
ENDMDL
