MODEL 1
REMARK VINA RESULT:    -8.161      0.000      0.000
REMARK INTER + INTRA:         -11.460
REMARK INTER:                 -10.249
REMARK INTRA:                  -1.211
REMARK CONF_INDEPENDENT:        2.088
REMARK UNBOUND:                -1.211
REMARK  7 active torsions:
REMARK  status: ('A' for Active; 'I' for Inactive)
REMARK    1  A    between atoms: C_2  and  N_3 
REMARK       I    between atoms: N_3  and  C_4 
REMARK    2  A    between atoms: C_4  and  C_6 
REMARK    3  A    between atoms: C_6  and  N_8 
REMARK       I    between atoms: N_8  and  C_9 
REMARK    4  A    between atoms: C_9  and  C_11 
REMARK    5  A    between atoms: C_13  and  N_14 
REMARK       I    between atoms: N_14  and  C_15 
REMARK    6  A    between atoms: C_15  and  C_17 
REMARK    7  A    between atoms: C_21  and  O_22 
ROOT
ATOM      1  C   UNL d   1      25.299 -16.519  -1.594  0.00  0.00     0.067 A 
ATOM      2  C   UNL d   1      23.929 -16.827  -1.338  0.00  0.00     0.049 A 
ATOM      3  C   UNL d   1      23.571 -17.705  -0.295  0.00  0.00     0.035 A 
ATOM      4  C   UNL d   1      24.614 -18.218   0.485  0.00  0.00     0.032 A 
ATOM      5  C   UNL d   1      25.955 -17.908   0.254  0.00  0.00     0.040 A 
ATOM      6  C   UNL d   1      26.298 -17.069  -0.790  0.00  0.00     0.081 A 
ENDROOT
BRANCH   1   7
ATOM      7  C   UNL d   1      25.655 -15.535  -2.656  0.00  0.00     0.255 C 
ATOM      8  N   UNL d   1      26.960 -15.070  -2.702  0.00  0.00    -0.344 N 
ATOM      9  H   UNL d   1      27.598 -15.309  -1.945  0.00  0.00     0.163 HD
ATOM     10  O   UNL d   1      24.780 -15.199  -3.456  0.00  0.00    -0.268 OA
BRANCH   8  11
ATOM     11  C   UNL d   1      27.443 -14.087  -3.690  0.00  0.00     0.172 C 
ATOM     12  C   UNL d   1      26.421 -12.965  -3.843  0.00  0.00     0.042 C 
BRANCH  11  13
ATOM     13  C   UNL d   1      27.704 -14.760  -5.078  0.00  0.00     0.240 C 
ATOM     14  N   UNL d   1      28.991 -14.644  -5.592  0.00  0.00    -0.360 N 
ATOM     15  H   UNL d   1      29.706 -14.158  -5.067  0.00  0.00     0.162 HD
ATOM     16  O   UNL d   1      26.819 -15.371  -5.681  0.00  0.00    -0.271 OA
BRANCH  14  17
ATOM     17  C   UNL d   1      29.338 -15.199  -6.894  0.00  0.00     0.118 C 
ATOM     18  C   UNL d   1      30.604 -16.044  -6.869  0.00  0.00     0.026 C 
ENDBRANCH  14  17
ENDBRANCH  11  13
ENDBRANCH   8  11
ENDBRANCH   1   7
BRANCH   6  19
ATOM     19  O   UNL d   1      27.614 -16.770  -1.001  0.00  0.00    -0.360 OA
ATOM     20  H   UNL d   1      28.163 -17.255  -0.361  0.00  0.00     0.217 HD
ENDBRANCH   6  19
BRANCH   3  21
ATOM     21  N   UNL d   1      22.202 -18.060  -0.041  0.00  0.00    -0.327 N 
ATOM     22  C   UNL d   1      21.422 -18.843  -0.895  0.00  0.00     0.221 C 
ATOM     23  O   UNL d   1      21.814 -19.325  -1.958  0.00  0.00    -0.273 OA
ATOM     24  H   UNL d   1      21.781 -17.708   0.812  0.00  0.00     0.169 HD
BRANCH  22  25
ATOM     25  C   UNL d   1      19.983 -19.115  -0.477  0.00  0.00     0.098 C 
ATOM     26  C   UNL d   1      19.986 -19.701   0.945  0.00  0.00     0.014 C 
ENDBRANCH  22  25
ENDBRANCH   3  21
TORSDOF 7
ENDMDL
MODEL 2
REMARK VINA RESULT:    -7.559      1.528      2.739
REMARK INTER + INTRA:         -11.702
REMARK INTER:                  -9.647
REMARK INTRA:                  -2.055
REMARK CONF_INDEPENDENT:        2.088
REMARK UNBOUND:                -2.055
REMARK  7 active torsions:
REMARK  status: ('A' for Active; 'I' for Inactive)
REMARK    1  A    between atoms: C_2  and  N_3 
REMARK       I    between atoms: N_3  and  C_4 
REMARK    2  A    between atoms: C_4  and  C_6 
REMARK    3  A    between atoms: C_6  and  N_8 
REMARK       I    between atoms: N_8  and  C_9 
REMARK    4  A    between atoms: C_9  and  C_11 
REMARK    5  A    between atoms: C_13  and  N_14 
REMARK       I    between atoms: N_14  and  C_15 
REMARK    6  A    between atoms: C_15  and  C_17 
REMARK    7  A    between atoms: C_21  and  O_22 
ROOT
ATOM      1  C   UNL d   1      24.805 -16.388  -1.704  0.00  0.00     0.067 A 
ATOM      2  C   UNL d   1      23.507 -16.793  -1.270  0.00  0.00     0.049 A 
ATOM      3  C   UNL d   1      23.355 -17.724  -0.223  0.00  0.00     0.035 A 
ATOM      4  C   UNL d   1      24.528 -18.192   0.382  0.00  0.00     0.032 A 
ATOM      5  C   UNL d   1      25.801 -17.788  -0.022  0.00  0.00     0.040 A 
ATOM      6  C   UNL d   1      25.941 -16.896  -1.071  0.00  0.00     0.081 A 
ENDROOT
BRANCH   1   7
ATOM      7  C   UNL d   1      24.946 -15.351  -2.766  0.00  0.00     0.255 C 
ATOM      8  N   UNL d   1      25.999 -15.472  -3.658  0.00  0.00    -0.344 N 
ATOM      9  H   UNL d   1      26.711 -16.181  -3.491  0.00  0.00     0.163 HD
ATOM     10  O   UNL d   1      24.108 -14.449  -2.814  0.00  0.00    -0.268 OA
BRANCH   8  11
ATOM     11  C   UNL d   1      26.263 -14.512  -4.746  0.00  0.00     0.172 C 
ATOM     12  C   UNL d   1      27.464 -14.977  -5.563  0.00  0.00     0.042 C 
BRANCH  11  13
ATOM     13  C   UNL d   1      26.526 -13.076  -4.184  0.00  0.00     0.240 C 
ATOM     14  N   UNL d   1      25.404 -12.302  -3.910  0.00  0.00    -0.360 N 
ATOM     15  H   UNL d   1      24.477 -12.679  -4.059  0.00  0.00     0.162 HD
ATOM     16  O   UNL d   1      27.667 -12.655  -3.986  0.00  0.00    -0.271 OA
BRANCH  14  17
ATOM     17  C   UNL d   1      25.530 -10.936  -3.419  0.00  0.00     0.118 C 
ATOM     18  C   UNL d   1      25.808  -9.924  -4.522  0.00  0.00     0.026 C 
ENDBRANCH  14  17
ENDBRANCH  11  13
ENDBRANCH   8  11
ENDBRANCH   1   7
BRANCH   6  19
ATOM     19  O   UNL d   1      27.192 -16.506  -1.452  0.00  0.00    -0.360 OA
ATOM     20  H   UNL d   1      27.731 -16.326  -0.662  0.00  0.00     0.217 HD
ENDBRANCH   6  19
BRANCH   3  21
ATOM     21  N   UNL d   1      22.061 -18.176   0.207  0.00  0.00    -0.327 N 
ATOM     22  C   UNL d   1      21.195 -18.942  -0.578  0.00  0.00     0.221 C 
ATOM     23  O   UNL d   1      21.440 -19.325  -1.722  0.00  0.00    -0.273 OA
ATOM     24  H   UNL d   1      21.761 -17.909   1.139  0.00  0.00     0.169 HD
BRANCH  22  25
ATOM     25  C   UNL d   1      19.853 -19.326   0.030  0.00  0.00     0.098 C 
ATOM     26  C   UNL d   1      20.077 -19.741   1.494  0.00  0.00     0.014 C 
ENDBRANCH  22  25
ENDBRANCH   3  21
TORSDOF 7
ENDMDL
MODEL 3
REMARK VINA RESULT:    -7.324      3.244      3.808
REMARK INTER + INTRA:         -10.834
REMARK INTER:                  -9.413
REMARK INTRA:                  -1.422
REMARK CONF_INDEPENDENT:        2.088
REMARK UNBOUND:                -1.422
REMARK  7 active torsions:
REMARK  status: ('A' for Active; 'I' for Inactive)
REMARK    1  A    between atoms: C_2  and  N_3 
REMARK       I    between atoms: N_3  and  C_4 
REMARK    2  A    between atoms: C_4  and  C_6 
REMARK    3  A    between atoms: C_6  and  N_8 
REMARK       I    between atoms: N_8  and  C_9 
REMARK    4  A    between atoms: C_9  and  C_11 
REMARK    5  A    between atoms: C_13  and  N_14 
REMARK       I    between atoms: N_14  and  C_15 
REMARK    6  A    between atoms: C_15  and  C_17 
REMARK    7  A    between atoms: C_21  and  O_22 
ROOT
ATOM      1  C   UNL d   1      24.775 -17.564  -0.182  0.00  0.00     0.067 A 
ATOM      2  C   UNL d   1      23.821 -18.535   0.245  0.00  0.00     0.049 A 
ATOM      3  C   UNL d   1      22.453 -18.387  -0.064  0.00  0.00     0.035 A 
ATOM      4  C   UNL d   1      22.097 -17.272  -0.832  0.00  0.00     0.032 A 
ATOM      5  C   UNL d   1      23.025 -16.327  -1.270  0.00  0.00     0.040 A 
ATOM      6  C   UNL d   1      24.360 -16.465  -0.936  0.00  0.00     0.081 A 
ENDROOT
BRANCH   1   7
ATOM      7  C   UNL d   1      26.225 -17.772   0.094  0.00  0.00     0.255 C 
ATOM      8  N   UNL d   1      27.071 -16.679  -0.004  0.00  0.00    -0.344 N 
ATOM      9  H   UNL d   1      26.708 -15.805  -0.380  0.00  0.00     0.163 HD
ATOM     10  O   UNL d   1      26.600 -18.901   0.418  0.00  0.00    -0.268 OA
BRANCH   8  11
ATOM     11  C   UNL d   1      28.525 -16.747   0.230  0.00  0.00     0.172 C 
ATOM     12  C   UNL d   1      29.060 -15.355   0.550  0.00  0.00     0.042 C 
BRANCH  11  13
ATOM     13  C   UNL d   1      29.272 -17.330  -1.014  0.00  0.00     0.240 C 
ATOM     14  N   UNL d   1      30.355 -18.164  -0.754  0.00  0.00    -0.360 N 
ATOM     15  H   UNL d   1      30.613 -18.378   0.200  0.00  0.00     0.162 HD
ATOM     16  O   UNL d   1      28.916 -17.073  -2.166  0.00  0.00    -0.271 OA
BRANCH  14  17
ATOM     17  C   UNL d   1      31.148 -18.733  -1.836  0.00  0.00     0.118 C 
ATOM     18  C   UNL d   1      32.314 -17.849  -2.254  0.00  0.00     0.026 C 
ENDBRANCH  14  17
ENDBRANCH  11  13
ENDBRANCH   8  11
ENDBRANCH   1   7
BRANCH   6  19
ATOM     19  O   UNL d   1      25.258 -15.535  -1.377  0.00  0.00    -0.360 OA
ATOM     20  H   UNL d   1      25.978 -15.982  -1.856  0.00  0.00     0.217 HD
ENDBRANCH   6  19
BRANCH   3  21
ATOM     21  N   UNL d   1      21.468 -19.331   0.386  0.00  0.00    -0.327 N 
ATOM     22  C   UNL d   1      20.449 -19.846  -0.418  0.00  0.00     0.221 C 
ATOM     23  O   UNL d   1      20.279 -19.560  -1.603  0.00  0.00    -0.273 OA
ATOM     24  H   UNL d   1      21.518 -19.629   1.355  0.00  0.00     0.169 HD
BRANCH  22  25
ATOM     25  C   UNL d   1      19.480 -20.829   0.224  0.00  0.00     0.098 C 
ATOM     26  C   UNL d   1      18.753 -20.121   1.380  0.00  0.00     0.014 C 
ENDBRANCH  22  25
ENDBRANCH   3  21
TORSDOF 7
ENDMDL
MODEL 4
REMARK VINA RESULT:    -6.965      2.145      3.419
REMARK INTER + INTRA:         -10.460
REMARK INTER:                  -9.053
REMARK INTRA:                  -1.408
REMARK CONF_INDEPENDENT:        2.088
REMARK UNBOUND:                -1.408
REMARK  7 active torsions:
REMARK  status: ('A' for Active; 'I' for Inactive)
REMARK    1  A    between atoms: C_2  and  N_3 
REMARK       I    between atoms: N_3  and  C_4 
REMARK    2  A    between atoms: C_4  and  C_6 
REMARK    3  A    between atoms: C_6  and  N_8 
REMARK       I    between atoms: N_8  and  C_9 
REMARK    4  A    between atoms: C_9  and  C_11 
REMARK    5  A    between atoms: C_13  and  N_14 
REMARK       I    between atoms: N_14  and  C_15 
REMARK    6  A    between atoms: C_15  and  C_17 
REMARK    7  A    between atoms: C_21  and  O_22 
ROOT
ATOM      1  C   UNL d   1      25.356 -15.862  -1.995  0.00  0.00     0.067 A 
ATOM      2  C   UNL d   1      24.046 -16.304  -1.642  0.00  0.00     0.049 A 
ATOM      3  C   UNL d   1      23.857 -17.252  -0.617  0.00  0.00     0.035 A 
ATOM      4  C   UNL d   1      25.005 -17.699   0.050  0.00  0.00     0.032 A 
ATOM      5  C   UNL d   1      26.288 -17.260  -0.276  0.00  0.00     0.040 A 
ATOM      6  C   UNL d   1      26.465 -16.351  -1.304  0.00  0.00     0.081 A 
ENDROOT
BRANCH   1   7
ATOM      7  C   UNL d   1      25.532 -14.808  -3.035  0.00  0.00     0.255 C 
ATOM      8  N   UNL d   1      26.548 -13.882  -2.858  0.00  0.00    -0.344 N 
ATOM      9  H   UNL d   1      27.057 -13.868  -1.977  0.00  0.00     0.163 HD
ATOM     10  O   UNL d   1      24.781 -14.822  -4.012  0.00  0.00    -0.268 OA
BRANCH   8  11
ATOM     11  C   UNL d   1      26.824 -12.782  -3.801  0.00  0.00     0.172 C 
ATOM     12  C   UNL d   1      28.293 -12.814  -4.213  0.00  0.00     0.042 C 
BRANCH  11  13
ATOM     13  C   UNL d   1      26.480 -11.394  -3.169  0.00  0.00     0.240 C 
ATOM     14  N   UNL d   1      25.545 -10.618  -3.846  0.00  0.00    -0.360 N 
ATOM     15  H   UNL d   1      25.114 -10.965  -4.692  0.00  0.00     0.162 HD
ATOM     16  O   UNL d   1      27.001 -11.010  -2.120  0.00  0.00    -0.271 OA
BRANCH  14  17
ATOM     17  C   UNL d   1      25.177  -9.291  -3.369  0.00  0.00     0.118 C 
ATOM     18  C   UNL d   1      24.830  -8.324  -4.492  0.00  0.00     0.026 C 
ENDBRANCH  14  17
ENDBRANCH  11  13
ENDBRANCH   8  11
ENDBRANCH   1   7
BRANCH   6  19
ATOM     19  O   UNL d   1      27.727 -15.925  -1.608  0.00  0.00    -0.360 OA
ATOM     20  H   UNL d   1      28.333 -16.167  -0.886  0.00  0.00     0.217 HD
ENDBRANCH   6  19
BRANCH   3  21
ATOM     21  N   UNL d   1      22.551 -17.741  -0.268  0.00  0.00    -0.327 N 
ATOM     22  C   UNL d   1      21.865 -18.726  -0.981  0.00  0.00     0.221 C 
ATOM     23  O   UNL d   1      22.297 -19.295  -1.984  0.00  0.00    -0.273 OA
ATOM     24  H   UNL d   1      22.104 -17.331   0.546  0.00  0.00     0.169 HD
BRANCH  22  25
ATOM     25  C   UNL d   1      20.482 -19.119  -0.479  0.00  0.00     0.098 C 
ATOM     26  C   UNL d   1      20.602 -19.579   0.984  0.00  0.00     0.014 C 
ENDBRANCH  22  25
ENDBRANCH   3  21
TORSDOF 7
ENDMDL
MODEL 5
REMARK VINA RESULT:    -6.811      2.195      3.168
REMARK INTER + INTRA:         -10.203
REMARK INTER:                  -8.899
REMARK INTRA:                  -1.304
REMARK CONF_INDEPENDENT:        2.088
REMARK UNBOUND:                -1.304
REMARK  7 active torsions:
REMARK  status: ('A' for Active; 'I' for Inactive)
REMARK    1  A    between atoms: C_2  and  N_3 
REMARK       I    between atoms: N_3  and  C_4 
REMARK    2  A    between atoms: C_4  and  C_6 
REMARK    3  A    between atoms: C_6  and  N_8 
REMARK       I    between atoms: N_8  and  C_9 
REMARK    4  A    between atoms: C_9  and  C_11 
REMARK    5  A    between atoms: C_13  and  N_14 
REMARK       I    between atoms: N_14  and  C_15 
REMARK    6  A    between atoms: C_15  and  C_17 
REMARK    7  A    between atoms: C_21  and  O_22 
ROOT
ATOM      1  C   UNL d   1      25.217 -17.547  -0.438  0.00  0.00     0.067 A 
ATOM      2  C   UNL d   1      24.272 -18.575  -0.145  0.00  0.00     0.049 A 
ATOM      3  C   UNL d   1      22.894 -18.368  -0.355  0.00  0.00     0.035 A 
ATOM      4  C   UNL d   1      22.515 -17.133  -0.895  0.00  0.00     0.032 A 
ATOM      5  C   UNL d   1      23.433 -16.128  -1.202  0.00  0.00     0.040 A 
ATOM      6  C   UNL d   1      24.781 -16.330  -0.964  0.00  0.00     0.081 A 
ENDROOT
BRANCH   1   7
ATOM      7  C   UNL d   1      26.676 -17.807  -0.274  0.00  0.00     0.255 C 
ATOM      8  N   UNL d   1      27.564 -16.980  -0.943  0.00  0.00    -0.344 N 
ATOM      9  H   UNL d   1      27.204 -16.308  -1.618  0.00  0.00     0.163 HD
ATOM     10  O   UNL d   1      27.024 -18.730   0.464  0.00  0.00    -0.268 OA
BRANCH   8  11
ATOM     11  C   UNL d   1      29.030 -17.133  -0.879  0.00  0.00     0.172 C 
ATOM     12  C   UNL d   1      29.591 -16.249   0.230  0.00  0.00     0.042 C 
BRANCH  11  13
ATOM     13  C   UNL d   1      29.698 -16.762  -2.244  0.00  0.00     0.240 C 
ATOM     14  N   UNL d   1      28.848 -16.325  -3.254  0.00  0.00    -0.360 N 
ATOM     15  H   UNL d   1      27.855 -16.244  -3.082  0.00  0.00     0.162 HD
ATOM     16  O   UNL d   1      30.916 -16.844  -2.414  0.00  0.00    -0.271 OA
BRANCH  14  17
ATOM     17  C   UNL d   1      29.357 -15.989  -4.577  0.00  0.00     0.118 C 
ATOM     18  C   UNL d   1      30.030 -17.161  -5.277  0.00  0.00     0.026 C 
ENDBRANCH  14  17
ENDBRANCH  11  13
ENDBRANCH   8  11
ENDBRANCH   1   7
BRANCH   6  19
ATOM     19  O   UNL d   1      25.669 -15.340  -1.275  0.00  0.00    -0.360 OA
ATOM     20  H   UNL d   1      25.530 -14.581  -0.682  0.00  0.00     0.217 HD
ENDBRANCH   6  19
BRANCH   3  21
ATOM     21  N   UNL d   1      21.919 -19.373  -0.032  0.00  0.00    -0.327 N 
ATOM     22  C   UNL d   1      20.557 -19.269  -0.324  0.00  0.00     0.221 C 
ATOM     23  O   UNL d   1      20.034 -18.312  -0.895  0.00  0.00    -0.273 OA
ATOM     24  H   UNL d   1      22.249 -20.205   0.446  0.00  0.00     0.169 HD
BRANCH  22  25
ATOM     25  C   UNL d   1      19.659 -20.423   0.100  0.00  0.00     0.098 C 
ATOM     26  C   UNL d   1      18.898 -20.013   1.372  0.00  0.00     0.014 C 
ENDBRANCH  22  25
ENDBRANCH   3  21
TORSDOF 7
ENDMDL
MODEL 6
REMARK VINA RESULT:    -6.439      3.363      5.537
REMARK INTER + INTRA:         -10.470
REMARK INTER:                  -8.527
REMARK INTRA:                  -1.943
REMARK CONF_INDEPENDENT:        2.088
REMARK UNBOUND:                -1.943
REMARK  7 active torsions:
REMARK  status: ('A' for Active; 'I' for Inactive)
REMARK    1  A    between atoms: C_2  and  N_3 
REMARK       I    between atoms: N_3  and  C_4 
REMARK    2  A    between atoms: C_4  and  C_6 
REMARK    3  A    between atoms: C_6  and  N_8 
REMARK       I    between atoms: N_8  and  C_9 
REMARK    4  A    between atoms: C_9  and  C_11 
REMARK    5  A    between atoms: C_13  and  N_14 
REMARK       I    between atoms: N_14  and  C_15 
REMARK    6  A    between atoms: C_15  and  C_17 
REMARK    7  A    between atoms: C_21  and  O_22 
ROOT
ATOM      1  C   UNL d   1      25.832 -16.610  -0.337  0.00  0.00     0.067 A 
ATOM      2  C   UNL d   1      24.879 -17.502   0.239  0.00  0.00     0.049 A 
ATOM      3  C   UNL d   1      23.887 -18.109  -0.556  0.00  0.00     0.035 A 
ATOM      4  C   UNL d   1      23.912 -17.821  -1.927  0.00  0.00     0.032 A 
ATOM      5  C   UNL d   1      24.850 -16.964  -2.502  0.00  0.00     0.040 A 
ATOM      6  C   UNL d   1      25.802 -16.350  -1.708  0.00  0.00     0.081 A 
ENDROOT
BRANCH   1   7
ATOM      7  C   UNL d   1      26.917 -16.031   0.506  0.00  0.00     0.255 C 
ATOM      8  N   UNL d   1      27.297 -14.720   0.270  0.00  0.00    -0.344 N 
ATOM      9  H   UNL d   1      26.922 -14.234  -0.543  0.00  0.00     0.163 HD
ATOM     10  O   UNL d   1      27.409 -16.738   1.388  0.00  0.00    -0.268 OA
BRANCH   8  11
ATOM     11  C   UNL d   1      28.362 -14.030   1.020  0.00  0.00     0.172 C 
ATOM     12  C   UNL d   1      29.651 -14.842   0.949  0.00  0.00     0.042 C 
BRANCH  11  13
ATOM     13  C   UNL d   1      27.954 -13.811   2.514  0.00  0.00     0.240 C 
ATOM     14  N   UNL d   1      28.136 -14.891   3.372  0.00  0.00    -0.360 N 
ATOM     15  H   UNL d   1      28.530 -15.755   3.024  0.00  0.00     0.162 HD
ATOM     16  O   UNL d   1      27.503 -12.736   2.914  0.00  0.00    -0.271 OA
BRANCH  14  17
ATOM     17  C   UNL d   1      27.755 -14.812   4.776  0.00  0.00     0.118 C 
ATOM     18  C   UNL d   1      28.346 -13.607   5.492  0.00  0.00     0.026 C 
ENDBRANCH  14  17
ENDBRANCH  11  13
ENDBRANCH   8  11
ENDBRANCH   1   7
BRANCH   6  19
ATOM     19  O   UNL d   1      26.718 -15.518  -2.287  0.00  0.00    -0.360 OA
ATOM     20  H   UNL d   1      27.574 -15.614  -1.834  0.00  0.00     0.217 HD
ENDBRANCH   6  19
BRANCH   3  21
ATOM     21  N   UNL d   1      22.893 -18.982   0.006  0.00  0.00    -0.327 N 
ATOM     22  C   UNL d   1      21.519 -18.847  -0.206  0.00  0.00     0.221 C 
ATOM     23  O   UNL d   1      20.999 -17.975  -0.901  0.00  0.00    -0.273 OA
ATOM     24  H   UNL d   1      23.220 -19.735   0.601  0.00  0.00     0.169 HD
BRANCH  22  25
ATOM     25  C   UNL d   1      20.604 -19.854   0.477  0.00  0.00     0.098 C 
ATOM     26  C   UNL d   1      19.300 -19.961  -0.332  0.00  0.00     0.014 C 
ENDBRANCH  22  25
ENDBRANCH   3  21
TORSDOF 7
ENDMDL
MODEL 7
REMARK VINA RESULT:    -6.185      1.537      2.145
REMARK INTER + INTRA:         -10.077
REMARK INTER:                  -8.273
REMARK INTRA:                  -1.803
REMARK CONF_INDEPENDENT:        2.088
REMARK UNBOUND:                -1.803
REMARK  7 active torsions:
REMARK  status: ('A' for Active; 'I' for Inactive)
REMARK    1  A    between atoms: C_2  and  N_3 
REMARK       I    between atoms: N_3  and  C_4 
REMARK    2  A    between atoms: C_4  and  C_6 
REMARK    3  A    between atoms: C_6  and  N_8 
REMARK       I    between atoms: N_8  and  C_9 
REMARK    4  A    between atoms: C_9  and  C_11 
REMARK    5  A    between atoms: C_13  and  N_14 
REMARK       I    between atoms: N_14  and  C_15 
REMARK    6  A    between atoms: C_15  and  C_17 
REMARK    7  A    between atoms: C_21  and  O_22 
ROOT
ATOM      1  C   UNL d   1      25.374 -16.765  -1.337  0.00  0.00     0.067 A 
ATOM      2  C   UNL d   1      23.962 -16.849  -1.520  0.00  0.00     0.049 A 
ATOM      3  C   UNL d   1      23.178 -17.692  -0.707  0.00  0.00     0.035 A 
ATOM      4  C   UNL d   1      23.848 -18.401   0.298  0.00  0.00     0.032 A 
ATOM      5  C   UNL d   1      25.226 -18.312   0.497  0.00  0.00     0.040 A 
ATOM      6  C   UNL d   1      25.990 -17.504  -0.326  0.00  0.00     0.081 A 
ENDROOT
BRANCH   1   7
ATOM      7  C   UNL d   1      26.178 -15.817  -2.161  0.00  0.00     0.255 C 
ATOM      8  N   UNL d   1      27.429 -16.227  -2.592  0.00  0.00    -0.344 N 
ATOM      9  H   UNL d   1      27.815 -17.100  -2.236  0.00  0.00     0.163 HD
ATOM     10  O   UNL d   1      25.683 -14.723  -2.437  0.00  0.00    -0.268 OA
BRANCH   8  11
ATOM     11  C   UNL d   1      28.331 -15.386  -3.400  0.00  0.00     0.172 C 
ATOM     12  C   UNL d   1      28.965 -14.315  -2.517  0.00  0.00     0.042 C 
BRANCH  11  13
ATOM     13  C   UNL d   1      27.568 -14.713  -4.587  0.00  0.00     0.240 C 
ATOM     14  N   UNL d   1      26.898 -13.527  -4.302  0.00  0.00    -0.360 N 
ATOM     15  H   UNL d   1      26.934 -13.135  -3.371  0.00  0.00     0.162 HD
ATOM     16  O   UNL d   1      27.566 -15.201  -5.719  0.00  0.00    -0.271 OA
BRANCH  14  17
ATOM     17  C   UNL d   1      26.122 -12.834  -5.322  0.00  0.00     0.118 C 
ATOM     18  C   UNL d   1      26.050 -11.329  -5.102  0.00  0.00     0.026 C 
ENDBRANCH  14  17
ENDBRANCH  11  13
ENDBRANCH   8  11
ENDBRANCH   1   7
BRANCH   6  19
ATOM     19  O   UNL d   1      27.337 -17.422  -0.116  0.00  0.00    -0.360 OA
ATOM     20  H   UNL d   1      27.531 -16.652   0.446  0.00  0.00     0.217 HD
ENDBRANCH   6  19
BRANCH   3  21
ATOM     21  N   UNL d   1      21.760 -17.823  -0.895  0.00  0.00    -0.327 N 
ATOM     22  C   UNL d   1      21.031 -18.978  -0.602  0.00  0.00     0.221 C 
ATOM     23  O   UNL d   1      21.514 -20.013  -0.142  0.00  0.00    -0.273 OA
ATOM     24  H   UNL d   1      21.265 -17.022  -1.276  0.00  0.00     0.169 HD
BRANCH  22  25
ATOM     25  C   UNL d   1      19.534 -18.949  -0.874  0.00  0.00     0.098 C 
ATOM     26  C   UNL d   1      18.874 -20.113  -0.114  0.00  0.00     0.014 C 
ENDBRANCH  22  25
ENDBRANCH   3  21
TORSDOF 7
ENDMDL
MODEL 8
REMARK VINA RESULT:    -6.136      2.860      4.407
REMARK INTER + INTRA:         -10.061
REMARK INTER:                  -8.224
REMARK INTRA:                  -1.836
REMARK CONF_INDEPENDENT:        2.088
REMARK UNBOUND:                -1.836
REMARK  7 active torsions:
REMARK  status: ('A' for Active; 'I' for Inactive)
REMARK    1  A    between atoms: C_2  and  N_3 
REMARK       I    between atoms: N_3  and  C_4 
REMARK    2  A    between atoms: C_4  and  C_6 
REMARK    3  A    between atoms: C_6  and  N_8 
REMARK       I    between atoms: N_8  and  C_9 
REMARK    4  A    between atoms: C_9  and  C_11 
REMARK    5  A    between atoms: C_13  and  N_14 
REMARK       I    between atoms: N_14  and  C_15 
REMARK    6  A    between atoms: C_15  and  C_17 
REMARK    7  A    between atoms: C_21  and  O_22 
ROOT
ATOM      1  C   UNL d   1      25.897 -17.016  -0.696  0.00  0.00     0.067 A 
ATOM      2  C   UNL d   1      25.017 -18.041  -0.234  0.00  0.00     0.049 A 
ATOM      3  C   UNL d   1      23.628 -17.951  -0.455  0.00  0.00     0.035 A 
ATOM      4  C   UNL d   1      23.173 -16.839  -1.174  0.00  0.00     0.032 A 
ATOM      5  C   UNL d   1      24.027 -15.842  -1.645  0.00  0.00     0.040 A 
ATOM      6  C   UNL d   1      25.386 -15.924  -1.398  0.00  0.00     0.081 A 
ENDROOT
BRANCH   1   7
ATOM      7  C   UNL d   1      27.370 -17.161  -0.514  0.00  0.00     0.255 C 
ATOM      8  N   UNL d   1      28.200 -16.678  -1.513  0.00  0.00    -0.344 N 
ATOM      9  H   UNL d   1      27.789 -16.358  -2.388  0.00  0.00     0.163 HD
ATOM     10  O   UNL d   1      27.780 -17.682   0.525  0.00  0.00    -0.268 OA
BRANCH   8  11
ATOM     11  C   UNL d   1      29.671 -16.767  -1.467  0.00  0.00     0.172 C 
ATOM     12  C   UNL d   1      30.087 -18.119  -0.895  0.00  0.00     0.042 C 
BRANCH  11  13
ATOM     13  C   UNL d   1      30.283 -15.615  -0.605  0.00  0.00     0.240 C 
ATOM     14  N   UNL d   1      29.948 -15.603   0.745  0.00  0.00    -0.360 N 
ATOM     15  H   UNL d   1      29.351 -16.325   1.126  0.00  0.00     0.162 HD
ATOM     16  O   UNL d   1      31.031 -14.765  -1.093  0.00  0.00    -0.271 OA
BRANCH  14  17
ATOM     17  C   UNL d   1      30.430 -14.554   1.634  0.00  0.00     0.118 C 
ATOM     18  C   UNL d   1      31.582 -15.002   2.522  0.00  0.00     0.026 C 
ENDBRANCH  14  17
ENDBRANCH  11  13
ENDBRANCH   8  11
ENDBRANCH   1   7
BRANCH   6  19
ATOM     19  O   UNL d   1      26.211 -14.943  -1.870  0.00  0.00    -0.360 OA
ATOM     20  H   UNL d   1      25.701 -14.335  -2.434  0.00  0.00     0.217 HD
ENDBRANCH   6  19
BRANCH   3  21
ATOM     21  N   UNL d   1      22.717 -18.950   0.033  0.00  0.00    -0.327 N 
ATOM     22  C   UNL d   1      21.344 -18.951  -0.221  0.00  0.00     0.221 C 
ATOM     23  O   UNL d   1      20.754 -18.106  -0.895  0.00  0.00    -0.273 OA
ATOM     24  H   UNL d   1      23.105 -19.692   0.605  0.00  0.00     0.169 HD
BRANCH  22  25
ATOM     25  C   UNL d   1      20.521 -20.080   0.384  0.00  0.00     0.098 C 
ATOM     26  C   UNL d   1      19.075 -19.964  -0.129  0.00  0.00     0.014 C 
ENDBRANCH  22  25
ENDBRANCH   3  21
TORSDOF 7
ENDMDL
MODEL 9
REMARK VINA RESULT:    -5.760      2.465      4.381
REMARK INTER + INTRA:          -9.789
REMARK INTER:                  -7.848
REMARK INTRA:                  -1.941
REMARK CONF_INDEPENDENT:        2.088
REMARK UNBOUND:                -1.941
REMARK  7 active torsions:
REMARK  status: ('A' for Active; 'I' for Inactive)
REMARK    1  A    between atoms: C_2  and  N_3 
REMARK       I    between atoms: N_3  and  C_4 
REMARK    2  A    between atoms: C_4  and  C_6 
REMARK    3  A    between atoms: C_6  and  N_8 
REMARK       I    between atoms: N_8  and  C_9 
REMARK    4  A    between atoms: C_9  and  C_11 
REMARK    5  A    between atoms: C_13  and  N_14 
REMARK       I    between atoms: N_14  and  C_15 
REMARK    6  A    between atoms: C_15  and  C_17 
REMARK    7  A    between atoms: C_21  and  O_22 
ROOT
ATOM      1  C   UNL d   1      26.634 -14.243  -4.670  0.00  0.00     0.067 A 
ATOM      2  C   UNL d   1      26.545 -15.404  -3.846  0.00  0.00     0.049 A 
ATOM      3  C   UNL d   1      25.541 -15.515  -2.863  0.00  0.00     0.035 A 
ATOM      4  C   UNL d   1      24.629 -14.456  -2.769  0.00  0.00     0.032 A 
ATOM      5  C   UNL d   1      24.697 -13.325  -3.583  0.00  0.00     0.040 A 
ATOM      6  C   UNL d   1      25.704 -13.212  -4.525  0.00  0.00     0.081 A 
ENDROOT
BRANCH   1   7
ATOM      7  C   UNL d   1      27.659 -14.173  -5.751  0.00  0.00     0.255 C 
ATOM      8  N   UNL d   1      28.296 -12.961  -5.967  0.00  0.00    -0.344 N 
ATOM      9  H   UNL d   1      27.963 -12.132  -5.479  0.00  0.00     0.163 HD
ATOM     10  O   UNL d   1      27.908 -15.200  -6.385  0.00  0.00    -0.268 OA
BRANCH   8  11
ATOM     11  C   UNL d   1      29.318 -12.750  -7.009  0.00  0.00     0.172 C 
ATOM     12  C   UNL d   1      28.696 -12.950  -8.388  0.00  0.00     0.042 C 
BRANCH  11  13
ATOM     13  C   UNL d   1      30.527 -13.724  -6.824  0.00  0.00     0.240 C 
ATOM     14  N   UNL d   1      30.347 -15.029  -7.272  0.00  0.00    -0.360 N 
ATOM     15  H   UNL d   1      29.475 -15.301  -7.706  0.00  0.00     0.162 HD
ATOM     16  O   UNL d   1      31.588 -13.355  -6.317  0.00  0.00    -0.271 OA
BRANCH  14  17
ATOM     17  C   UNL d   1      31.392 -16.032  -7.116  0.00  0.00     0.118 C 
ATOM     18  C   UNL d   1      30.849 -17.445  -6.957  0.00  0.00     0.026 C 
ENDBRANCH  14  17
ENDBRANCH  11  13
ENDBRANCH   8  11
ENDBRANCH   1   7
BRANCH   6  19
ATOM     19  O   UNL d   1      25.755 -12.102  -5.318  0.00  0.00    -0.360 OA
ATOM     20  H   UNL d   1      24.874 -11.690  -5.356  0.00  0.00     0.217 HD
ENDBRANCH   6  19
BRANCH   3  21
ATOM     21  N   UNL d   1      25.452 -16.657  -1.995  0.00  0.00    -0.327 N 
ATOM     22  C   UNL d   1      24.330 -16.975  -1.227  0.00  0.00     0.221 C 
ATOM     23  O   UNL d   1      23.286 -16.322  -1.208  0.00  0.00    -0.273 OA
ATOM     24  H   UNL d   1      26.266 -17.260  -1.936  0.00  0.00     0.169 HD
BRANCH  22  25
ATOM     25  C   UNL d   1      24.410 -18.217  -0.351  0.00  0.00     0.098 C 
ATOM     26  C   UNL d   1      25.750 -18.201   0.405  0.00  0.00     0.014 C 
ENDBRANCH  22  25
ENDBRANCH   3  21
TORSDOF 7
ENDMDL
