MODEL 1
REMARK VINA RESULT:   -10.527      0.000      0.000
REMARK INTER + INTRA:         -14.411
REMARK INTER:                 -13.212
REMARK INTRA:                  -1.198
REMARK CONF_INDEPENDENT:        2.685
REMARK UNBOUND:                -1.198
REMARK  9 active torsions:
REMARK  status: ('A' for Active; 'I' for Inactive)
REMARK    1  A    between atoms: O_2  and  C_3 
REMARK    2  A    between atoms: C_5  and  C_6 
REMARK       I    between atoms: C_6  and  N_8 
REMARK    3  A    between atoms: N_8  and  C_9 
REMARK    4  A    between atoms: C_9  and  N_11 
REMARK    5  A    between atoms: N_11  and  C_12 
REMARK    6  A    between atoms: C_15  and  C_16 
REMARK       I    between atoms: C_16  and  N_18 
REMARK    7  A    between atoms: N_18  and  C_19 
REMARK    8  A    between atoms: C_28  and  O_29 
REMARK    9  A    between atoms: C_31  and  O_32 
ROOT
ATOM      1  C   UNL d   1      28.824 -15.786  -0.408  0.00  0.00     0.179 C 
ATOM      2  S   UNL d   1      29.492 -15.050  -1.782  0.00  0.00    -0.040 SA
ENDROOT
BRANCH   1   3
ATOM      3  N   UNL d   1      28.725 -15.121   0.842  0.00  0.00    -0.299 N 
ATOM      4  C   UNL d   1      27.932 -13.967   1.088  0.00  0.00     0.258 C 
ATOM      5  O   UNL d   1      27.327 -13.351   0.206  0.00  0.00    -0.267 OA
ATOM      6  H   UNL d   1      29.200 -15.546   1.625  0.00  0.00     0.171 HD
BRANCH   4   7
ATOM      7  C   UNL d   1      27.724 -13.389   2.454  0.00  0.00     0.037 A 
ATOM      8  C   UNL d   1      27.977 -14.227   3.586  0.00  0.00     0.057 A 
ATOM      9  C   UNL d   1      28.041 -13.748   4.914  0.00  0.00     0.105 A 
ATOM     10  C   UNL d   1      27.781 -12.382   5.101  0.00  0.00     0.135 A 
ATOM     11  C   UNL d   1      27.454 -11.552   3.982  0.00  0.00     0.105 A 
ATOM     12  C   UNL d   1      27.405 -12.060   2.675  0.00  0.00     0.057 A 
BRANCH   9  13
ATOM     13  O   UNL d   1      28.636 -14.631   5.794  0.00  0.00    -0.353 OA
ATOM     14  C   UNL d   1      29.951 -14.448   6.319  0.00  0.00     0.210 C 
ENDBRANCH   9  13
BRANCH  10  15
ATOM     15  O   UNL d   1      27.865 -11.654   6.240  0.00  0.00    -0.351 OA
ATOM     16  C   UNL d   1      28.968 -11.688   7.072  0.00  0.00     0.210 C 
ENDBRANCH  10  15
BRANCH  11  17
ATOM     17  O   UNL d   1      27.223 -10.184   4.021  0.00  0.00    -0.353 OA
ATOM     18  C   UNL d   1      26.351  -9.620   3.041  0.00  0.00     0.210 C 
ENDBRANCH  11  17
ENDBRANCH   4   7
ENDBRANCH   1   3
BRANCH   1  19
ATOM     19  N   UNL d   1      28.290 -17.105  -0.430  0.00  0.00    -0.333 N 
ATOM     20  H   UNL d   1      28.879 -17.897  -0.201  0.00  0.00     0.168 HD
BRANCH  19  21
ATOM     21  C   UNL d   1      26.875 -17.378  -0.454  0.00  0.00     0.034 A 
ATOM     22  C   UNL d   1      26.284 -18.398   0.300  0.00  0.00     0.030 A 
ATOM     23  C   UNL d   1      24.882 -18.575   0.259  0.00  0.00     0.019 A 
ATOM     24  C   UNL d   1      24.048 -17.705  -0.476  0.00  0.00     0.032 A 
ATOM     25  C   UNL d   1      24.645 -16.733  -1.264  0.00  0.00     0.019 A 
ATOM     26  C   UNL d   1      26.035 -16.606  -1.269  0.00  0.00     0.030 A 
BRANCH  24  27
ATOM     27  C   UNL d   1      22.569 -17.832  -0.363  0.00  0.00     0.252 C 
ATOM     28  O   UNL d   1      21.896 -16.935  -0.894  0.00  0.00    -0.268 OA
ATOM     29  N   UNL d   1      22.013 -18.915   0.308  0.00  0.00    -0.352 N 
ATOM     30  H   UNL d   1      22.598 -19.702   0.553  0.00  0.00     0.163 HD
BRANCH  29  31
ATOM     31  C   UNL d   1      20.561 -19.116   0.449  0.00  0.00     0.084 C 
ATOM     32  C   UNL d   1      20.013 -20.073  -0.637  0.00  0.00     0.025 C 
ATOM     33  C   UNL d   1      18.533 -20.419  -0.422  0.00  0.00     0.002 C 
ATOM     34  C   UNL d   1      18.274 -20.964   0.979  0.00  0.00     0.000 C 
ATOM     35  C   UNL d   1      18.759 -19.983   2.027  0.00  0.00     0.002 C 
ATOM     36  C   UNL d   1      20.227 -19.673   1.838  0.00  0.00     0.025 C 
ENDBRANCH  29  31
ENDBRANCH  24  27
ENDBRANCH  19  21
ENDBRANCH   1  19
TORSDOF 9
ENDMDL
MODEL 2
REMARK VINA RESULT:   -10.161      0.636      2.327
REMARK INTER + INTRA:         -14.173
REMARK INTER:                 -12.846
REMARK INTRA:                  -1.327
REMARK CONF_INDEPENDENT:        2.685
REMARK UNBOUND:                -1.327
REMARK  9 active torsions:
REMARK  status: ('A' for Active; 'I' for Inactive)
REMARK    1  A    between atoms: O_2  and  C_3 
REMARK    2  A    between atoms: C_5  and  C_6 
REMARK       I    between atoms: C_6  and  N_8 
REMARK    3  A    between atoms: N_8  and  C_9 
REMARK    4  A    between atoms: C_9  and  N_11 
REMARK    5  A    between atoms: N_11  and  C_12 
REMARK    6  A    between atoms: C_15  and  C_16 
REMARK       I    between atoms: C_16  and  N_18 
REMARK    7  A    between atoms: N_18  and  C_19 
REMARK    8  A    between atoms: C_28  and  O_29 
REMARK    9  A    between atoms: C_31  and  O_32 
ROOT
ATOM      1  C   UNL d   1      28.275 -15.509  -1.106  0.00  0.00     0.179 C 
ATOM      2  S   UNL d   1      28.449 -14.816  -2.644  0.00  0.00    -0.040 SA
ENDROOT
BRANCH   1   3
ATOM      3  N   UNL d   1      28.527 -14.787   0.091  0.00  0.00    -0.299 N 
ATOM      4  C   UNL d   1      27.529 -14.363   1.010  0.00  0.00     0.258 C 
ATOM      5  O   UNL d   1      26.317 -14.483   0.808  0.00  0.00    -0.267 OA
ATOM      6  H   UNL d   1      29.494 -14.629   0.333  0.00  0.00     0.171 HD
BRANCH   4   7
ATOM      7  C   UNL d   1      27.845 -13.748   2.339  0.00  0.00     0.037 A 
ATOM      8  C   UNL d   1      27.725 -12.328   2.469  0.00  0.00     0.057 A 
ATOM      9  C   UNL d   1      27.769 -11.651   3.709  0.00  0.00     0.105 A 
ATOM     10  C   UNL d   1      28.000 -12.439   4.846  0.00  0.00     0.135 A 
ATOM     11  C   UNL d   1      28.193 -13.851   4.716  0.00  0.00     0.105 A 
ATOM     12  C   UNL d   1      28.138 -14.492   3.468  0.00  0.00     0.057 A 
BRANCH   9  13
ATOM     13  O   UNL d   1      27.288 -10.357   3.651  0.00  0.00    -0.353 OA
ATOM     14  C   UNL d   1      26.464  -9.874   2.588  0.00  0.00     0.210 C 
ENDBRANCH   9  13
BRANCH  10  15
ATOM     15  O   UNL d   1      27.998 -12.065   6.148  0.00  0.00    -0.351 OA
ATOM     16  C   UNL d   1      28.539 -10.871   6.585  0.00  0.00     0.210 C 
ENDBRANCH  10  15
BRANCH  11  17
ATOM     17  O   UNL d   1      28.382 -14.748   5.757  0.00  0.00    -0.353 OA
ATOM     18  C   UNL d   1      29.345 -14.423   6.761  0.00  0.00     0.210 C 
ENDBRANCH  11  17
ENDBRANCH   4   7
ENDBRANCH   1   3
BRANCH   1  19
ATOM     19  N   UNL d   1      27.832 -16.848  -0.916  0.00  0.00    -0.333 N 
ATOM     20  H   UNL d   1      28.483 -17.563  -0.614  0.00  0.00     0.168 HD
BRANCH  19  21
ATOM     21  C   UNL d   1      26.438 -17.208  -0.823  0.00  0.00     0.034 A 
ATOM     22  C   UNL d   1      25.979 -18.275  -0.045  0.00  0.00     0.030 A 
ATOM     23  C   UNL d   1      24.591 -18.538   0.032  0.00  0.00     0.019 A 
ATOM     24  C   UNL d   1      23.645 -17.709  -0.608  0.00  0.00     0.032 A 
ATOM     25  C   UNL d   1      24.112 -16.687  -1.421  0.00  0.00     0.019 A 
ATOM     26  C   UNL d   1      25.485 -16.474  -1.544  0.00  0.00     0.030 A 
BRANCH  24  27
ATOM     27  C   UNL d   1      22.192 -17.928  -0.369  0.00  0.00     0.252 C 
ATOM     28  O   UNL d   1      21.417 -17.115  -0.896  0.00  0.00    -0.268 OA
ATOM     29  N   UNL d   1      21.769 -19.002   0.406  0.00  0.00    -0.352 N 
ATOM     30  H   UNL d   1      22.427 -19.730   0.648  0.00  0.00     0.163 HD
BRANCH  29  31
ATOM     31  C   UNL d   1      20.351 -19.292   0.674  0.00  0.00     0.084 C 
ATOM     32  C   UNL d   1      19.715 -20.120  -0.469  0.00  0.00     0.025 C 
ATOM     33  C   UNL d   1      18.282 -20.565  -0.145  0.00  0.00     0.002 C 
ATOM     34  C   UNL d   1      18.204 -21.306   1.185  0.00  0.00     0.000 C 
ATOM     35  C   UNL d   1      18.771 -20.453   2.302  0.00  0.00     0.002 C 
ATOM     36  C   UNL d   1      20.197 -20.047   1.999  0.00  0.00     0.025 C 
ENDBRANCH  29  31
ENDBRANCH  24  27
ENDBRANCH  19  21
ENDBRANCH   1  19
TORSDOF 9
ENDMDL
MODEL 3
REMARK VINA RESULT:   -10.115      5.292      8.464
REMARK INTER + INTRA:         -14.000
REMARK INTER:                 -12.799
REMARK INTRA:                  -1.200
REMARK CONF_INDEPENDENT:        2.685
REMARK UNBOUND:                -1.200
REMARK  9 active torsions:
REMARK  status: ('A' for Active; 'I' for Inactive)
REMARK    1  A    between atoms: O_2  and  C_3 
REMARK    2  A    between atoms: C_5  and  C_6 
REMARK       I    between atoms: C_6  and  N_8 
REMARK    3  A    between atoms: N_8  and  C_9 
REMARK    4  A    between atoms: C_9  and  N_11 
REMARK    5  A    between atoms: N_11  and  C_12 
REMARK    6  A    between atoms: C_15  and  C_16 
REMARK       I    between atoms: C_16  and  N_18 
REMARK    7  A    between atoms: N_18  and  C_19 
REMARK    8  A    between atoms: C_28  and  O_29 
REMARK    9  A    between atoms: C_31  and  O_32 
ROOT
ATOM      1  C   UNL d   1      28.318 -15.815  -2.040  0.00  0.00     0.179 C 
ATOM      2  S   UNL d   1      27.928 -14.166  -2.118  0.00  0.00    -0.040 SA
ENDROOT
BRANCH   1   3
ATOM      3  N   UNL d   1      29.153 -16.448  -2.998  0.00  0.00    -0.299 N 
ATOM      4  C   UNL d   1      29.018 -16.316  -4.407  0.00  0.00     0.258 C 
ATOM      5  O   UNL d   1      28.084 -15.719  -4.952  0.00  0.00    -0.267 OA
ATOM      6  H   UNL d   1      29.939 -16.972  -2.644  0.00  0.00     0.171 HD
BRANCH   4   7
ATOM      7  C   UNL d   1      30.012 -16.866  -5.383  0.00  0.00     0.037 A 
ATOM      8  C   UNL d   1      30.205 -18.283  -5.421  0.00  0.00     0.057 A 
ATOM      9  C   UNL d   1      30.933 -18.945  -6.436  0.00  0.00     0.105 A 
ATOM     10  C   UNL d   1      31.531 -18.132  -7.411  0.00  0.00     0.135 A 
ATOM     11  C   UNL d   1      31.403 -16.708  -7.338  0.00  0.00     0.105 A 
ATOM     12  C   UNL d   1      30.668 -16.085  -6.318  0.00  0.00     0.057 A 
BRANCH   9  13
ATOM     13  O   UNL d   1      30.703 -20.306  -6.485  0.00  0.00    -0.353 OA
ATOM     14  C   UNL d   1      31.741 -21.270  -6.670  0.00  0.00     0.210 C 
ENDBRANCH   9  13
BRANCH  10  15
ATOM     15  O   UNL d   1      32.197 -18.505  -8.530  0.00  0.00    -0.351 OA
ATOM     16  C   UNL d   1      31.641 -19.322  -9.496  0.00  0.00     0.210 C 
ENDBRANCH  10  15
BRANCH  11  17
ATOM     17  O   UNL d   1      31.902 -15.797  -8.257  0.00  0.00    -0.353 OA
ATOM     18  C   UNL d   1      33.273 -15.413  -8.150  0.00  0.00     0.210 C 
ENDBRANCH  11  17
ENDBRANCH   4   7
ENDBRANCH   1   3
BRANCH   1  19
ATOM     19  N   UNL d   1      27.862 -16.660  -0.990  0.00  0.00    -0.333 N 
ATOM     20  H   UNL d   1      28.443 -16.824  -0.177  0.00  0.00     0.168 HD
BRANCH  19  21
ATOM     21  C   UNL d   1      26.484 -17.063  -0.851  0.00  0.00     0.034 A 
ATOM     22  C   UNL d   1      26.035 -17.892   0.183  0.00  0.00     0.030 A 
ATOM     23  C   UNL d   1      24.660 -18.206   0.281  0.00  0.00     0.019 A 
ATOM     24  C   UNL d   1      23.710 -17.651  -0.605  0.00  0.00     0.032 A 
ATOM     25  C   UNL d   1      24.170 -16.876  -1.659  0.00  0.00     0.019 A 
ATOM     26  C   UNL d   1      25.536 -16.624  -1.786  0.00  0.00     0.030 A 
BRANCH  24  27
ATOM     27  C   UNL d   1      22.259 -17.882  -0.368  0.00  0.00     0.252 C 
ATOM     28  O   UNL d   1      21.478 -17.076  -0.896  0.00  0.00    -0.268 OA
ATOM     29  N   UNL d   1      21.844 -18.958   0.407  0.00  0.00    -0.352 N 
ATOM     30  H   UNL d   1      22.506 -19.682   0.651  0.00  0.00     0.163 HD
BRANCH  29  31
ATOM     31  C   UNL d   1      20.427 -19.260   0.674  0.00  0.00     0.084 C 
ATOM     32  C   UNL d   1      19.794 -20.076  -0.479  0.00  0.00     0.025 C 
ATOM     33  C   UNL d   1      18.364 -20.533  -0.158  0.00  0.00     0.002 C 
ATOM     34  C   UNL d   1      18.291 -21.292   1.163  0.00  0.00     0.000 C 
ATOM     35  C   UNL d   1      18.856 -20.450   2.289  0.00  0.00     0.002 C 
ATOM     36  C   UNL d   1      20.280 -20.032   1.990  0.00  0.00     0.025 C 
ENDBRANCH  29  31
ENDBRANCH  24  27
ENDBRANCH  19  21
ENDBRANCH   1  19
TORSDOF 9
ENDMDL
MODEL 4
REMARK VINA RESULT:    -9.848      5.430      8.594
REMARK INTER + INTRA:         -13.598
REMARK INTER:                 -12.532
REMARK INTRA:                  -1.066
REMARK CONF_INDEPENDENT:        2.685
REMARK UNBOUND:                -1.066
REMARK  9 active torsions:
REMARK  status: ('A' for Active; 'I' for Inactive)
REMARK    1  A    between atoms: O_2  and  C_3 
REMARK    2  A    between atoms: C_5  and  C_6 
REMARK       I    between atoms: C_6  and  N_8 
REMARK    3  A    between atoms: N_8  and  C_9 
REMARK    4  A    between atoms: C_9  and  N_11 
REMARK    5  A    between atoms: N_11  and  C_12 
REMARK    6  A    between atoms: C_15  and  C_16 
REMARK       I    between atoms: C_16  and  N_18 
REMARK    7  A    between atoms: N_18  and  C_19 
REMARK    8  A    between atoms: C_28  and  O_29 
REMARK    9  A    between atoms: C_31  and  O_32 
ROOT
ATOM      1  C   UNL d   1      27.748 -15.755  -2.432  0.00  0.00     0.179 C 
ATOM      2  S   UNL d   1      27.252 -14.134  -2.367  0.00  0.00    -0.040 SA
ENDROOT
BRANCH   1   3
ATOM      3  N   UNL d   1      28.643 -16.240  -3.422  0.00  0.00    -0.299 N 
ATOM      4  C   UNL d   1      28.601 -15.887  -4.799  0.00  0.00     0.258 C 
ATOM      5  O   UNL d   1      27.707 -15.201  -5.302  0.00  0.00    -0.267 OA
ATOM      6  H   UNL d   1      29.404 -16.822  -3.105  0.00  0.00     0.171 HD
BRANCH   4   7
ATOM      7  C   UNL d   1      29.657 -16.288  -5.783  0.00  0.00     0.037 A 
ATOM      8  C   UNL d   1      30.193 -15.279  -6.644  0.00  0.00     0.057 A 
ATOM      9  C   UNL d   1      31.339 -15.468  -7.449  0.00  0.00     0.105 A 
ATOM     10  C   UNL d   1      31.923 -16.743  -7.420  0.00  0.00     0.135 A 
ATOM     11  C   UNL d   1      31.348 -17.780  -6.617  0.00  0.00     0.105 A 
ATOM     12  C   UNL d   1      30.212 -17.555  -5.825  0.00  0.00     0.057 A 
BRANCH   9  13
ATOM     13  O   UNL d   1      31.887 -14.290  -7.918  0.00  0.00    -0.353 OA
ATOM     14  C   UNL d   1      32.800 -14.232  -9.015  0.00  0.00     0.210 C 
ENDBRANCH   9  13
BRANCH  10  15
ATOM     15  O   UNL d   1      33.065 -17.164  -8.015  0.00  0.00    -0.351 OA
ATOM     16  C   UNL d   1      33.071 -17.953  -9.150  0.00  0.00     0.210 C 
ENDBRANCH  10  15
BRANCH  11  17
ATOM     17  O   UNL d   1      31.850 -19.063  -6.462  0.00  0.00    -0.353 OA
ATOM     18  C   UNL d   1      31.232 -20.122  -7.196  0.00  0.00     0.210 C 
ENDBRANCH  11  17
ENDBRANCH   4   7
ENDBRANCH   1   3
BRANCH   1  19
ATOM     19  N   UNL d   1      27.326 -16.723  -1.479  0.00  0.00    -0.333 N 
ATOM     20  H   UNL d   1      27.990 -17.117  -0.823  0.00  0.00     0.168 HD
BRANCH  19  21
ATOM     21  C   UNL d   1      25.939 -16.964  -1.168  0.00  0.00     0.034 A 
ATOM     22  C   UNL d   1      24.913 -16.086  -1.534  0.00  0.00     0.030 A 
ATOM     23  C   UNL d   1      23.571 -16.414  -1.234  0.00  0.00     0.019 A 
ATOM     24  C   UNL d   1      23.228 -17.642  -0.627  0.00  0.00     0.032 A 
ATOM     25  C   UNL d   1      24.254 -18.481  -0.219  0.00  0.00     0.019 A 
ATOM     26  C   UNL d   1      25.580 -18.120  -0.460  0.00  0.00     0.030 A 
BRANCH  24  27
ATOM     27  C   UNL d   1      21.795 -18.014  -0.475  0.00  0.00     0.252 C 
ATOM     28  O   UNL d   1      21.000 -17.485  -1.267  0.00  0.00    -0.268 OA
ATOM     29  N   UNL d   1      21.411 -18.913   0.512  0.00  0.00    -0.352 N 
ATOM     30  H   UNL d   1      22.116 -19.450   0.998  0.00  0.00     0.163 HD
BRANCH  29  31
ATOM     31  C   UNL d   1      20.016 -19.340   0.714  0.00  0.00     0.084 C 
ATOM     32  C   UNL d   1      19.471 -20.099  -0.519  0.00  0.00     0.025 C 
ATOM     33  C   UNL d   1      18.073 -20.686  -0.277  0.00  0.00     0.002 C 
ATOM     34  C   UNL d   1      18.031 -21.559   0.973  0.00  0.00     0.000 C 
ATOM     35  C   UNL d   1      18.507 -20.777   2.181  0.00  0.00     0.002 C 
ATOM     36  C   UNL d   1      19.900 -20.232   1.956  0.00  0.00     0.025 C 
ENDBRANCH  29  31
ENDBRANCH  24  27
ENDBRANCH  19  21
ENDBRANCH   1  19
TORSDOF 9
ENDMDL
MODEL 5
REMARK VINA RESULT:    -9.804      4.510      6.116
REMARK INTER + INTRA:         -13.846
REMARK INTER:                 -12.489
REMARK INTRA:                  -1.357
REMARK CONF_INDEPENDENT:        2.685
REMARK UNBOUND:                -1.357
REMARK  9 active torsions:
REMARK  status: ('A' for Active; 'I' for Inactive)
REMARK    1  A    between atoms: O_2  and  C_3 
REMARK    2  A    between atoms: C_5  and  C_6 
REMARK       I    between atoms: C_6  and  N_8 
REMARK    3  A    between atoms: N_8  and  C_9 
REMARK    4  A    between atoms: C_9  and  N_11 
REMARK    5  A    between atoms: N_11  and  C_12 
REMARK    6  A    between atoms: C_15  and  C_16 
REMARK       I    between atoms: C_16  and  N_18 
REMARK    7  A    between atoms: N_18  and  C_19 
REMARK    8  A    between atoms: C_28  and  O_29 
REMARK    9  A    between atoms: C_31  and  O_32 
ROOT
ATOM      1  C   UNL d   1      28.366 -16.134  -2.174  0.00  0.00     0.179 C 
ATOM      2  S   UNL d   1      29.486 -16.999  -3.109  0.00  0.00    -0.040 SA
ENDROOT
BRANCH   1   3
ATOM      3  N   UNL d   1      27.905 -14.841  -2.538  0.00  0.00    -0.299 N 
ATOM      4  C   UNL d   1      27.307 -14.514  -3.786  0.00  0.00     0.258 C 
ATOM      5  O   UNL d   1      27.226 -15.301  -4.733  0.00  0.00    -0.267 OA
ATOM      6  H   UNL d   1      27.943 -14.125  -1.828  0.00  0.00     0.171 HD
BRANCH   4   7
ATOM      7  C   UNL d   1      26.685 -13.182  -4.074  0.00  0.00     0.037 A 
ATOM      8  C   UNL d   1      26.563 -12.248  -2.997  0.00  0.00     0.057 A 
ATOM      9  C   UNL d   1      26.210 -10.891  -3.176  0.00  0.00     0.105 A 
ATOM     10  C   UNL d   1      25.917 -10.487  -4.487  0.00  0.00     0.135 A 
ATOM     11  C   UNL d   1      25.965 -11.434  -5.560  0.00  0.00     0.105 A 
ATOM     12  C   UNL d   1      26.325 -12.773  -5.346  0.00  0.00     0.057 A 
BRANCH   9  13
ATOM     13  O   UNL d   1      26.491 -10.097  -2.081  0.00  0.00    -0.353 OA
ATOM     14  C   UNL d   1      27.671  -9.299  -1.974  0.00  0.00     0.210 C 
ENDBRANCH   9  13
BRANCH  10  15
ATOM     15  O   UNL d   1      25.644  -9.242  -4.947  0.00  0.00    -0.351 OA
ATOM     16  C   UNL d   1      24.598  -8.478  -4.465  0.00  0.00     0.210 C 
ENDBRANCH  10  15
BRANCH  11  17
ATOM     17  O   UNL d   1      25.745 -11.157  -6.901  0.00  0.00    -0.353 OA
ATOM     18  C   UNL d   1      26.878 -11.074  -7.767  0.00  0.00     0.210 C 
ENDBRANCH  11  17
ENDBRANCH   4   7
ENDBRANCH   1   3
BRANCH   1  19
ATOM     19  N   UNL d   1      27.794 -16.662  -0.983  0.00  0.00    -0.333 N 
ATOM     20  H   UNL d   1      28.282 -16.573  -0.099  0.00  0.00     0.168 HD
BRANCH  19  21
ATOM     21  C   UNL d   1      26.408 -17.049  -0.884  0.00  0.00     0.034 A 
ATOM     22  C   UNL d   1      25.983 -18.173  -0.168  0.00  0.00     0.030 A 
ATOM     23  C   UNL d   1      24.602 -18.463  -0.077  0.00  0.00     0.019 A 
ATOM     24  C   UNL d   1      23.629 -17.608  -0.639  0.00  0.00     0.032 A 
ATOM     25  C   UNL d   1      24.061 -16.527  -1.393  0.00  0.00     0.019 A 
ATOM     26  C   UNL d   1      25.428 -16.285  -1.532  0.00  0.00     0.030 A 
BRANCH  24  27
ATOM     27  C   UNL d   1      22.185 -17.866  -0.383  0.00  0.00     0.252 C 
ATOM     28  O   UNL d   1      21.382 -17.073  -0.898  0.00  0.00    -0.268 OA
ATOM     29  N   UNL d   1      21.800 -18.952   0.395  0.00  0.00    -0.352 N 
ATOM     30  H   UNL d   1      22.479 -19.663   0.628  0.00  0.00     0.163 HD
BRANCH  29  31
ATOM     31  C   UNL d   1      20.393 -19.280   0.680  0.00  0.00     0.084 C 
ATOM     32  C   UNL d   1      19.758 -20.101  -0.468  0.00  0.00     0.025 C 
ATOM     33  C   UNL d   1      18.341 -20.584  -0.130  0.00  0.00     0.002 C 
ATOM     34  C   UNL d   1      18.301 -21.352   1.187  0.00  0.00     0.000 C 
ATOM     35  C   UNL d   1      18.867 -20.507   2.310  0.00  0.00     0.002 C 
ATOM     36  C   UNL d   1      20.278 -20.062   1.993  0.00  0.00     0.025 C 
ENDBRANCH  29  31
ENDBRANCH  24  27
ENDBRANCH  19  21
ENDBRANCH   1  19
TORSDOF 9
ENDMDL
MODEL 6
REMARK VINA RESULT:    -9.198      4.797      7.745
REMARK INTER + INTRA:         -13.137
REMARK INTER:                 -11.882
REMARK INTRA:                  -1.254
REMARK CONF_INDEPENDENT:        2.685
REMARK UNBOUND:                -1.254
REMARK  9 active torsions:
REMARK  status: ('A' for Active; 'I' for Inactive)
REMARK    1  A    between atoms: O_2  and  C_3 
REMARK    2  A    between atoms: C_5  and  C_6 
REMARK       I    between atoms: C_6  and  N_8 
REMARK    3  A    between atoms: N_8  and  C_9 
REMARK    4  A    between atoms: C_9  and  N_11 
REMARK    5  A    between atoms: N_11  and  C_12 
REMARK    6  A    between atoms: C_15  and  C_16 
REMARK       I    between atoms: C_16  and  N_18 
REMARK    7  A    between atoms: N_18  and  C_19 
REMARK    8  A    between atoms: C_28  and  O_29 
REMARK    9  A    between atoms: C_31  and  O_32 
ROOT
ATOM      1  C   UNL d   1      28.150 -15.794  -1.380  0.00  0.00     0.179 C 
ATOM      2  S   UNL d   1      28.442 -14.680  -0.135  0.00  0.00    -0.040 SA
ENDROOT
BRANCH   1   3
ATOM      3  N   UNL d   1      28.527 -15.550  -2.727  0.00  0.00    -0.299 N 
ATOM      4  C   UNL d   1      27.702 -14.923  -3.701  0.00  0.00     0.258 C 
ATOM      5  O   UNL d   1      26.521 -14.622  -3.505  0.00  0.00    -0.267 OA
ATOM      6  H   UNL d   1      29.475 -15.777  -2.985  0.00  0.00     0.171 HD
BRANCH   4   7
ATOM      7  C   UNL d   1      28.188 -14.535  -5.064  0.00  0.00     0.037 A 
ATOM      8  C   UNL d   1      27.537 -13.447  -5.726  0.00  0.00     0.057 A 
ATOM      9  C   UNL d   1      28.035 -12.837  -6.900  0.00  0.00     0.105 A 
ATOM     10  C   UNL d   1      29.202 -13.390  -7.447  0.00  0.00     0.135 A 
ATOM     11  C   UNL d   1      29.819 -14.525  -6.831  0.00  0.00     0.105 A 
ATOM     12  C   UNL d   1      29.299 -15.103  -5.662  0.00  0.00     0.057 A 
BRANCH   9  13
ATOM     13  O   UNL d   1      27.466 -11.607  -7.169  0.00  0.00    -0.353 OA
ATOM     14  C   UNL d   1      27.073 -11.195  -8.479  0.00  0.00     0.210 C 
ENDBRANCH   9  13
BRANCH  10  15
ATOM     15  O   UNL d   1      29.933 -12.950  -8.499  0.00  0.00    -0.351 OA
ATOM     16  C   UNL d   1      30.393 -11.650  -8.600  0.00  0.00     0.210 C 
ENDBRANCH  10  15
BRANCH  11  17
ATOM     17  O   UNL d   1      30.995 -15.136  -7.239  0.00  0.00    -0.353 OA
ATOM     18  C   UNL d   1      31.035 -16.564  -7.276  0.00  0.00     0.210 C 
ENDBRANCH  11  17
ENDBRANCH   4   7
ENDBRANCH   1   3
BRANCH   1  19
ATOM     19  N   UNL d   1      27.539 -17.057  -1.148  0.00  0.00    -0.333 N 
ATOM     20  H   UNL d   1      28.106 -17.865  -0.919  0.00  0.00     0.168 HD
BRANCH  19  21
ATOM     21  C   UNL d   1      26.125 -17.213  -0.908  0.00  0.00     0.034 A 
ATOM     22  C   UNL d   1      25.157 -16.403  -1.511  0.00  0.00     0.030 A 
ATOM     23  C   UNL d   1      23.787 -16.647  -1.262  0.00  0.00     0.019 A 
ATOM     24  C   UNL d   1      23.362 -17.732  -0.465  0.00  0.00     0.032 A 
ATOM     25  C   UNL d   1      24.328 -18.495   0.173  0.00  0.00     0.019 A 
ATOM     26  C   UNL d   1      25.679 -18.208  -0.027  0.00  0.00     0.030 A 
BRANCH  24  27
ATOM     27  C   UNL d   1      21.911 -18.045  -0.360  0.00  0.00     0.252 C 
ATOM     28  O   UNL d   1      21.160 -17.458  -1.155  0.00  0.00    -0.268 OA
ATOM     29  N   UNL d   1      21.463 -18.957   0.589  0.00  0.00    -0.352 N 
ATOM     30  H   UNL d   1      22.131 -19.539   1.075  0.00  0.00     0.163 HD
BRANCH  29  31
ATOM     31  C   UNL d   1      20.046 -19.328   0.743  0.00  0.00     0.084 C 
ATOM     32  C   UNL d   1      19.591 -20.304  -0.369  0.00  0.00     0.025 C 
ATOM     33  C   UNL d   1      18.165 -20.825  -0.145  0.00  0.00     0.002 C 
ATOM     34  C   UNL d   1      17.995 -21.444   1.238  0.00  0.00     0.000 C 
ATOM     35  C   UNL d   1      18.384 -20.450   2.314  0.00  0.00     0.002 C 
ATOM     36  C   UNL d   1      19.803 -19.966   2.115  0.00  0.00     0.025 C 
ENDBRANCH  29  31
ENDBRANCH  24  27
ENDBRANCH  19  21
ENDBRANCH   1  19
TORSDOF 9
ENDMDL
MODEL 7
REMARK VINA RESULT:    -9.131      4.786      6.740
REMARK INTER + INTRA:         -13.128
REMARK INTER:                 -11.816
REMARK INTRA:                  -1.312
REMARK CONF_INDEPENDENT:        2.685
REMARK UNBOUND:                -1.312
REMARK  9 active torsions:
REMARK  status: ('A' for Active; 'I' for Inactive)
REMARK    1  A    between atoms: O_2  and  C_3 
REMARK    2  A    between atoms: C_5  and  C_6 
REMARK       I    between atoms: C_6  and  N_8 
REMARK    3  A    between atoms: N_8  and  C_9 
REMARK    4  A    between atoms: C_9  and  N_11 
REMARK    5  A    between atoms: N_11  and  C_12 
REMARK    6  A    between atoms: C_15  and  C_16 
REMARK       I    between atoms: C_16  and  N_18 
REMARK    7  A    between atoms: N_18  and  C_19 
REMARK    8  A    between atoms: C_28  and  O_29 
REMARK    9  A    between atoms: C_31  and  O_32 
ROOT
ATOM      1  C   UNL d   1      29.427 -16.940  -0.952  0.00  0.00     0.179 C 
ATOM      2  S   UNL d   1      30.662 -18.080  -1.181  0.00  0.00    -0.040 SA
ENDROOT
BRANCH   1   3
ATOM      3  N   UNL d   1      29.203 -15.865  -1.851  0.00  0.00    -0.299 N 
ATOM      4  C   UNL d   1      29.081 -15.997  -3.262  0.00  0.00     0.258 C 
ATOM      5  O   UNL d   1      29.267 -17.056  -3.868  0.00  0.00    -0.267 OA
ATOM      6  H   UNL d   1      29.052 -14.953  -1.446  0.00  0.00     0.171 HD
BRANCH   4   7
ATOM      7  C   UNL d   1      28.684 -14.867  -4.162  0.00  0.00     0.037 A 
ATOM      8  C   UNL d   1      29.601 -14.470  -5.186  0.00  0.00     0.057 A 
ATOM      9  C   UNL d   1      29.263 -13.584  -6.235  0.00  0.00     0.105 A 
ATOM     10  C   UNL d   1      27.970 -13.042  -6.206  0.00  0.00     0.135 A 
ATOM     11  C   UNL d   1      27.072 -13.379  -5.143  0.00  0.00     0.105 A 
ATOM     12  C   UNL d   1      27.439 -14.267  -4.120  0.00  0.00     0.057 A 
BRANCH   9  13
ATOM     13  O   UNL d   1      30.153 -13.611  -7.291  0.00  0.00    -0.353 OA
ATOM     14  C   UNL d   1      31.372 -14.356  -7.270  0.00  0.00     0.210 C 
ENDBRANCH   9  13
BRANCH  10  15
ATOM     15  O   UNL d   1      27.364 -12.252  -7.124  0.00  0.00    -0.351 OA
ATOM     16  C   UNL d   1      26.717 -11.076  -6.791  0.00  0.00     0.210 C 
ENDBRANCH  10  15
BRANCH  11  17
ATOM     17  O   UNL d   1      25.757 -12.953  -5.021  0.00  0.00    -0.353 OA
ATOM     18  C   UNL d   1      24.927 -13.597  -4.053  0.00  0.00     0.210 C 
ENDBRANCH  11  17
ENDBRANCH   4   7
ENDBRANCH   1   3
BRANCH   1  19
ATOM     19  N   UNL d   1      28.516 -17.009   0.139  0.00  0.00    -0.333 N 
ATOM     20  H   UNL d   1      28.789 -16.670   1.054  0.00  0.00     0.168 HD
BRANCH  19  21
ATOM     21  C   UNL d   1      27.104 -17.245  -0.032  0.00  0.00     0.034 A 
ATOM     22  C   UNL d   1      26.477 -18.429   0.371  0.00  0.00     0.030 A 
ATOM     23  C   UNL d   1      25.079 -18.569   0.213  0.00  0.00     0.019 A 
ATOM     24  C   UNL d   1      24.282 -17.515  -0.286  0.00  0.00     0.032 A 
ATOM     25  C   UNL d   1      24.918 -16.367  -0.733  0.00  0.00     0.019 A 
ATOM     26  C   UNL d   1      26.306 -16.262  -0.634  0.00  0.00     0.030 A 
BRANCH  24  27
ATOM     27  C   UNL d   1      22.800 -17.649  -0.286  0.00  0.00     0.252 C 
ATOM     28  O   UNL d   1      22.164 -16.749  -0.855  0.00  0.00    -0.268 OA
ATOM     29  N   UNL d   1      22.200 -18.742   0.328  0.00  0.00    -0.352 N 
ATOM     30  H   UNL d   1      22.768 -19.530   0.607  0.00  0.00     0.163 HD
BRANCH  29  31
ATOM     31  C   UNL d   1      20.743 -18.951   0.357  0.00  0.00     0.084 C 
ATOM     32  C   UNL d   1      20.255 -19.717  -0.897  0.00  0.00     0.025 C 
ATOM     33  C   UNL d   1      18.765 -20.080  -0.820  0.00  0.00     0.002 C 
ATOM     34  C   UNL d   1      18.430 -20.841   0.459  0.00  0.00     0.000 C 
ATOM     35  C   UNL d   1      18.857 -20.045   1.676  0.00  0.00     0.002 C 
ATOM     36  C   UNL d   1      20.333 -19.720   1.618  0.00  0.00     0.025 C 
ENDBRANCH  29  31
ENDBRANCH  24  27
ENDBRANCH  19  21
ENDBRANCH   1  19
TORSDOF 9
ENDMDL
MODEL 8
REMARK VINA RESULT:    -8.972      4.299      6.806
REMARK INTER + INTRA:         -13.005
REMARK INTER:                 -11.657
REMARK INTRA:                  -1.348
REMARK CONF_INDEPENDENT:        2.685
REMARK UNBOUND:                -1.348
REMARK  9 active torsions:
REMARK  status: ('A' for Active; 'I' for Inactive)
REMARK    1  A    between atoms: O_2  and  C_3 
REMARK    2  A    between atoms: C_5  and  C_6 
REMARK       I    between atoms: C_6  and  N_8 
REMARK    3  A    between atoms: N_8  and  C_9 
REMARK    4  A    between atoms: C_9  and  N_11 
REMARK    5  A    between atoms: N_11  and  C_12 
REMARK    6  A    between atoms: C_15  and  C_16 
REMARK       I    between atoms: C_16  and  N_18 
REMARK    7  A    between atoms: N_18  and  C_19 
REMARK    8  A    between atoms: C_28  and  O_29 
REMARK    9  A    between atoms: C_31  and  O_32 
ROOT
ATOM      1  C   UNL d   1      28.370 -15.954  -1.150  0.00  0.00     0.179 C 
ATOM      2  S   UNL d   1      29.451 -15.322  -0.005  0.00  0.00    -0.040 SA
ENDROOT
BRANCH   1   3
ATOM      3  N   UNL d   1      28.097 -15.303  -2.382  0.00  0.00    -0.299 N 
ATOM      4  C   UNL d   1      27.299 -14.136  -2.525  0.00  0.00     0.258 C 
ATOM      5  O   UNL d   1      26.664 -13.623  -1.599  0.00  0.00    -0.267 OA
ATOM      6  H   UNL d   1      28.564 -15.662  -3.201  0.00  0.00     0.171 HD
BRANCH   4   7
ATOM      7  C   UNL d   1      27.165 -13.384  -3.814  0.00  0.00     0.037 A 
ATOM      8  C   UNL d   1      26.649 -12.050  -3.765  0.00  0.00     0.057 A 
ATOM      9  C   UNL d   1      26.684 -11.159  -4.862  0.00  0.00     0.105 A 
ATOM     10  C   UNL d   1      27.210 -11.661  -6.061  0.00  0.00     0.135 A 
ATOM     11  C   UNL d   1      27.661 -13.018  -6.138  0.00  0.00     0.105 A 
ATOM     12  C   UNL d   1      27.616 -13.874  -5.027  0.00  0.00     0.057 A 
BRANCH   9  13
ATOM     13  O   UNL d   1      26.469  -9.841  -4.511  0.00  0.00    -0.353 OA
ATOM     14  C   UNL d   1      25.474  -9.432  -3.570  0.00  0.00     0.210 C 
ENDBRANCH   9  13
BRANCH  10  15
ATOM     15  O   UNL d   1      27.443 -11.004  -7.223  0.00  0.00    -0.351 OA
ATOM     16  C   UNL d   1      26.446 -10.726  -8.139  0.00  0.00     0.210 C 
ENDBRANCH  10  15
BRANCH  11  17
ATOM     17  O   UNL d   1      28.242 -13.622  -7.243  0.00  0.00    -0.353 OA
ATOM     18  C   UNL d   1      29.648 -13.873  -7.213  0.00  0.00     0.210 C 
ENDBRANCH  11  17
ENDBRANCH   4   7
ENDBRANCH   1   3
BRANCH   1  19
ATOM     19  N   UNL d   1      27.694 -17.191  -0.962  0.00  0.00    -0.333 N 
ATOM     20  H   UNL d   1      28.217 -18.030  -0.738  0.00  0.00     0.168 HD
BRANCH  19  21
ATOM     21  C   UNL d   1      26.269 -17.284  -0.759  0.00  0.00     0.034 A 
ATOM     22  C   UNL d   1      25.339 -16.669  -1.605  0.00  0.00     0.030 A 
ATOM     23  C   UNL d   1      23.956 -16.844  -1.369  0.00  0.00     0.019 A 
ATOM     24  C   UNL d   1      23.483 -17.680  -0.333  0.00  0.00     0.032 A 
ATOM     25  C   UNL d   1      24.410 -18.240   0.533  0.00  0.00     0.019 A 
ATOM     26  C   UNL d   1      25.771 -18.010   0.332  0.00  0.00     0.030 A 
BRANCH  24  27
ATOM     27  C   UNL d   1      22.026 -17.961  -0.221  0.00  0.00     0.252 C 
ATOM     28  O   UNL d   1      21.272 -17.246  -0.899  0.00  0.00    -0.268 OA
ATOM     29  N   UNL d   1      21.576 -18.982   0.608  0.00  0.00    -0.352 N 
ATOM     30  H   UNL d   1      22.239 -19.646   0.984  0.00  0.00     0.163 HD
BRANCH  29  31
ATOM     31  C   UNL d   1      20.153 -19.329   0.759  0.00  0.00     0.084 C 
ATOM     32  C   UNL d   1      19.675 -20.271  -0.372  0.00  0.00     0.025 C 
ATOM     33  C   UNL d   1      18.239 -20.768  -0.154  0.00  0.00     0.002 C 
ATOM     34  C   UNL d   1      18.062 -21.414   1.216  0.00  0.00     0.000 C 
ATOM     35  C   UNL d   1      18.474 -20.452   2.312  0.00  0.00     0.002 C 
ATOM     36  C   UNL d   1      19.902 -19.992   2.118  0.00  0.00     0.025 C 
ENDBRANCH  29  31
ENDBRANCH  24  27
ENDBRANCH  19  21
ENDBRANCH   1  19
TORSDOF 9
ENDMDL
MODEL 9
REMARK VINA RESULT:    -8.586      4.198      5.534
REMARK INTER + INTRA:         -13.049
REMARK INTER:                 -11.270
REMARK INTRA:                  -1.779
REMARK CONF_INDEPENDENT:        2.685
REMARK UNBOUND:                -1.779
REMARK  9 active torsions:
REMARK  status: ('A' for Active; 'I' for Inactive)
REMARK    1  A    between atoms: O_2  and  C_3 
REMARK    2  A    between atoms: C_5  and  C_6 
REMARK       I    between atoms: C_6  and  N_8 
REMARK    3  A    between atoms: N_8  and  C_9 
REMARK    4  A    between atoms: C_9  and  N_11 
REMARK    5  A    between atoms: N_11  and  C_12 
REMARK    6  A    between atoms: C_15  and  C_16 
REMARK       I    between atoms: C_16  and  N_18 
REMARK    7  A    between atoms: N_18  and  C_19 
REMARK    8  A    between atoms: C_28  and  O_29 
REMARK    9  A    between atoms: C_31  and  O_32 
ROOT
ATOM      1  C   UNL d   1      28.322 -15.748   0.155  0.00  0.00     0.179 C 
ATOM      2  S   UNL d   1      27.504 -14.389   0.754  0.00  0.00    -0.040 SA
ENDROOT
BRANCH   1   3
ATOM      3  N   UNL d   1      29.606 -16.134   0.622  0.00  0.00    -0.299 N 
ATOM      4  C   UNL d   1      30.636 -16.682  -0.191  0.00  0.00     0.258 C 
ATOM      5  O   UNL d   1      30.482 -16.986  -1.377  0.00  0.00    -0.267 OA
ATOM      6  H   UNL d   1      29.820 -15.936   1.588  0.00  0.00     0.171 HD
BRANCH   4   7
ATOM      7  C   UNL d   1      32.030 -16.925   0.301  0.00  0.00     0.037 A 
ATOM      8  C   UNL d   1      32.992 -15.878   0.142  0.00  0.00     0.057 A 
ATOM      9  C   UNL d   1      34.264 -15.886   0.758  0.00  0.00     0.105 A 
ATOM     10  C   UNL d   1      34.588 -17.023   1.512  0.00  0.00     0.135 A 
ATOM     11  C   UNL d   1      33.659 -18.108   1.615  0.00  0.00     0.105 A 
ATOM     12  C   UNL d   1      32.401 -18.063   0.994  0.00  0.00     0.057 A 
BRANCH   9  13
ATOM     13  O   UNL d   1      34.882 -14.651   0.768  0.00  0.00    -0.353 OA
ATOM     14  C   UNL d   1      34.205 -13.433   0.452  0.00  0.00     0.210 C 
ENDBRANCH   9  13
BRANCH  10  15
ATOM     15  O   UNL d   1      35.687 -17.249   2.271  0.00  0.00    -0.351 OA
ATOM     16  C   UNL d   1      35.751 -16.921   3.613  0.00  0.00     0.210 C 
ENDBRANCH  10  15
BRANCH  11  17
ATOM     17  O   UNL d   1      33.834 -19.263   2.363  0.00  0.00    -0.353 OA
ATOM     18  C   UNL d   1      32.787 -19.655   3.252  0.00  0.00     0.210 C 
ENDBRANCH  11  17
ENDBRANCH   4   7
ENDBRANCH   1   3
BRANCH   1  19
ATOM     19  N   UNL d   1      27.759 -16.607  -0.829  0.00  0.00    -0.333 N 
ATOM     20  H   UNL d   1      28.361 -17.126  -1.458  0.00  0.00     0.168 HD
BRANCH  19  21
ATOM     21  C   UNL d   1      26.384 -17.040  -0.799  0.00  0.00     0.034 A 
ATOM     22  C   UNL d   1      25.970 -18.217  -0.165  0.00  0.00     0.030 A 
ATOM     23  C   UNL d   1      24.597 -18.551  -0.138  0.00  0.00     0.019 A 
ATOM     24  C   UNL d   1      23.616 -17.692  -0.681  0.00  0.00     0.032 A 
ATOM     25  C   UNL d   1      24.039 -16.557  -1.355  0.00  0.00     0.019 A 
ATOM     26  C   UNL d   1      25.402 -16.267  -1.434  0.00  0.00     0.030 A 
BRANCH  24  27
ATOM     27  C   UNL d   1      22.174 -18.007  -0.490  0.00  0.00     0.252 C 
ATOM     28  O   UNL d   1      21.379 -17.443  -1.257  0.00  0.00    -0.268 OA
ATOM     29  N   UNL d   1      21.782 -18.894   0.506  0.00  0.00    -0.352 N 
ATOM     30  H   UNL d   1      22.479 -19.461   0.970  0.00  0.00     0.163 HD
BRANCH  29  31
ATOM     31  C   UNL d   1      20.378 -19.266   0.747  0.00  0.00     0.084 C 
ATOM     32  C   UNL d   1      19.795 -20.079  -0.435  0.00  0.00     0.025 C 
ATOM     33  C   UNL d   1      18.384 -20.607  -0.145  0.00  0.00     0.002 C 
ATOM     34  C   UNL d   1      18.330 -21.404   1.155  0.00  0.00     0.000 C 
ATOM     35  C   UNL d   1      18.844 -20.568   2.310  0.00  0.00     0.002 C 
ATOM     36  C   UNL d   1      20.250 -20.079   2.040  0.00  0.00     0.025 C 
ENDBRANCH  29  31
ENDBRANCH  24  27
ENDBRANCH  19  21
ENDBRANCH   1  19
TORSDOF 9
ENDMDL
