MODEL 1
REMARK VINA RESULT:    -8.326      0.000      0.000
REMARK INTER + INTRA:         -14.159
REMARK INTER:                 -11.309
REMARK INTRA:                  -2.850
REMARK CONF_INDEPENDENT:        2.983
REMARK UNBOUND:                -2.850
REMARK  10 active torsions:
REMARK  status: ('A' for Active; 'I' for Inactive)
REMARK    1  A    between atoms: C_7  and  N_8 
REMARK       I    between atoms: N_8  and  C_9 
REMARK    2  A    between atoms: C_9  and  C_11 
REMARK    3  A    between atoms: C_11  and  C_12 
REMARK    4  A    between atoms: C_12  and  C_13 
REMARK       I    between atoms: C_13  and  N_15 
REMARK    5  A    between atoms: N_15  and  N_16 
REMARK    6  A    between atoms: N_16  and  C_17 
REMARK    7  A    between atoms: C_17  and  N_19 
REMARK       I    between atoms: N_19  and  C_20 
REMARK    8  A    between atoms: C_20  and  C_22 
REMARK    9  A    between atoms: C_22  and  O_23 
REMARK   10  A    between atoms: O_23  and  C_24 
ROOT
ATOM      1  C   UNL d   1      27.395 -14.041  -5.787  0.00  0.00     0.236 C 
ATOM      2  O   UNL d   1      27.448 -15.266  -5.659  0.00  0.00    -0.272 OA
ATOM      3  N   UNL d   1      28.178 -13.366  -6.715  0.00  0.00    -0.268 N 
ATOM      4  H   UNL d   1      28.147 -12.351  -6.834  0.00  0.00     0.190 HD
ENDROOT
BRANCH   3   5
ATOM      5  N   UNL d   1      29.113 -14.075  -7.597  0.00  0.00    -0.273 N 
ATOM      6  H   UNL d   1      28.812 -14.116  -8.569  0.00  0.00     0.189 HD
BRANCH   5   7
ATOM      7  C   UNL d   1      30.295 -14.618  -7.052  0.00  0.00     0.193 C 
ATOM      8  S   UNL d   1      31.779 -14.174  -7.727  0.00  0.00    -0.039 SA
BRANCH   7   9
ATOM      9  N   UNL d   1      30.129 -15.514  -5.955  0.00  0.00    -0.301 N 
ATOM     10  C   UNL d   1      30.917 -15.542  -4.768  0.00  0.00     0.248 C 
ATOM     11  O   UNL d   1      31.857 -14.766  -4.583  0.00  0.00    -0.271 OA
ATOM     12  H   UNL d   1      29.380 -16.189  -6.022  0.00  0.00     0.171 HD
BRANCH  10  13
ATOM     13  C   UNL d   1      30.609 -16.591  -3.649  0.00  0.00     0.278 C 
BRANCH  13  14
ATOM     14  O   UNL d   1      29.752 -17.613  -4.221  0.00  0.00    -0.342 OA
BRANCH  14  15
ATOM     15  C   UNL d   1      30.283 -18.569  -5.044  0.00  0.00     0.070 A 
ATOM     16  C   UNL d   1      30.779 -19.726  -4.430  0.00  0.00     0.038 A 
ATOM     17  C   UNL d   1      31.369 -20.747  -5.189  0.00  0.00     0.022 A 
ATOM     18  C   UNL d   1      31.493 -20.610  -6.573  0.00  0.00     0.017 A 
ATOM     19 BR   UNL d   1      32.280 -22.061  -7.517  0.00  0.00    -0.051 Br
ATOM     20  C   UNL d   1      31.045 -19.441  -7.205  0.00  0.00    -0.042 A 
ATOM     21  C   UNL d   1      31.155 -19.203  -8.685  0.00  0.00     0.049 C 
ATOM     22  C   UNL d   1      30.449 -18.422  -6.419  0.00  0.00     0.044 A 
ENDBRANCH  14  15
ENDBRANCH  13  14
ENDBRANCH  10  13
ENDBRANCH   7   9
ENDBRANCH   5   7
ENDBRANCH   3   5
BRANCH   1  23
ATOM     23  C   UNL d   1      26.466 -13.168  -4.936  0.00  0.00     0.114 C 
BRANCH  23  24
ATOM     24  C   UNL d   1      26.636 -13.389  -3.402  0.00  0.00     0.112 C 
BRANCH  24  25
ATOM     25  C   UNL d   1      25.904 -14.654  -2.972  0.00  0.00     0.222 C 
ATOM     26  N   UNL d   1      26.133 -15.115  -1.674  0.00  0.00    -0.327 N 
ATOM     27  H   UNL d   1      26.769 -14.594  -1.080  0.00  0.00     0.169 HD
ATOM     28  O   UNL d   1      25.156 -15.189  -3.797  0.00  0.00    -0.273 OA
BRANCH  26  29
ATOM     29  C   UNL d   1      25.532 -16.287  -1.096  0.00  0.00     0.041 A 
ATOM     30  C   UNL d   1      26.284 -17.249  -0.384  0.00  0.00    -0.035 A 
ATOM     31  C   UNL d   1      25.626 -18.381   0.158  0.00  0.00     0.009 A 
ATOM     32  C   UNL d   1      27.768 -17.142  -0.164  0.00  0.00     0.050 C 
ATOM     33  C   UNL d   1      24.251 -18.575   0.006  0.00  0.00     0.007 A 
ATOM     34  C   UNL d   1      23.505 -17.637  -0.689  0.00  0.00    -0.060 A 
ATOM     35  C   UNL d   1      22.027 -17.773  -0.895  0.00  0.00     0.048 C 
ATOM     36  C   UNL d   1      24.153 -16.519  -1.224  0.00  0.00     0.037 A 
ENDBRANCH  26  29
ENDBRANCH  24  25
ENDBRANCH  23  24
ENDBRANCH   1  23
TORSDOF 10
ENDMDL
MODEL 2
REMARK VINA RESULT:    -8.099      5.643      8.447
REMARK INTER + INTRA:         -14.561
REMARK INTER:                 -11.082
REMARK INTRA:                  -3.479
REMARK CONF_INDEPENDENT:        2.983
REMARK UNBOUND:                -3.479
REMARK  10 active torsions:
REMARK  status: ('A' for Active; 'I' for Inactive)
REMARK    1  A    between atoms: C_7  and  N_8 
REMARK       I    between atoms: N_8  and  C_9 
REMARK    2  A    between atoms: C_9  and  C_11 
REMARK    3  A    between atoms: C_11  and  C_12 
REMARK    4  A    between atoms: C_12  and  C_13 
REMARK       I    between atoms: C_13  and  N_15 
REMARK    5  A    between atoms: N_15  and  N_16 
REMARK    6  A    between atoms: N_16  and  C_17 
REMARK    7  A    between atoms: C_17  and  N_19 
REMARK       I    between atoms: N_19  and  C_20 
REMARK    8  A    between atoms: C_20  and  C_22 
REMARK    9  A    between atoms: C_22  and  O_23 
REMARK   10  A    between atoms: O_23  and  C_24 
ROOT
ATOM      1  C   UNL d   1      26.212 -11.317  -3.145  0.00  0.00     0.236 C 
ATOM      2  O   UNL d   1      26.286 -11.518  -1.931  0.00  0.00    -0.272 OA
ATOM      3  N   UNL d   1      25.657 -10.154  -3.663  0.00  0.00    -0.268 N 
ATOM      4  H   UNL d   1      25.587  -9.970  -4.667  0.00  0.00     0.190 HD
ENDROOT
BRANCH   3   5
ATOM      5  N   UNL d   1      25.125  -9.098  -2.792  0.00  0.00    -0.273 N 
ATOM      6  H   UNL d   1      24.120  -8.958  -2.881  0.00  0.00     0.189 HD
BRANCH   5   7
ATOM      7  C   UNL d   1      26.008  -8.394  -1.946  0.00  0.00     0.193 C 
ATOM      8  S   UNL d   1      26.663  -6.935  -2.492  0.00  0.00    -0.039 SA
BRANCH   7   9
ATOM      9  N   UNL d   1      26.275  -8.990  -0.679  0.00  0.00    -0.301 N 
ATOM     10  C   UNL d   1      25.928  -8.450   0.593  0.00  0.00     0.248 C 
ATOM     11  O   UNL d   1      25.349  -7.369   0.712  0.00  0.00    -0.271 OA
ATOM     12  H   UNL d   1      26.752  -9.882  -0.682  0.00  0.00     0.171 HD
BRANCH  10  13
ATOM     13  C   UNL d   1      26.293  -9.228   1.899  0.00  0.00     0.278 C 
BRANCH  13  14
ATOM     14  O   UNL d   1      26.641 -10.587   1.527  0.00  0.00    -0.342 OA
BRANCH  14  15
ATOM     15  C   UNL d   1      27.100 -11.460   2.475  0.00  0.00     0.070 A 
ATOM     16  C   UNL d   1      27.162 -12.811   2.112  0.00  0.00     0.038 A 
ATOM     17  C   UNL d   1      27.591 -13.783   3.027  0.00  0.00     0.022 A 
ATOM     18  C   UNL d   1      27.938 -13.417   4.328  0.00  0.00     0.017 A 
ATOM     19 BR   UNL d   1      28.534 -14.803   5.485  0.00  0.00    -0.051 Br
ATOM     20  C   UNL d   1      27.839 -12.076   4.729  0.00  0.00    -0.042 A 
ATOM     21  C   UNL d   1      28.175 -11.598   6.114  0.00  0.00     0.049 C 
ATOM     22  C   UNL d   1      27.406 -11.109   3.788  0.00  0.00     0.044 A 
ENDBRANCH  14  15
ENDBRANCH  13  14
ENDBRANCH  10  13
ENDBRANCH   7   9
ENDBRANCH   5   7
ENDBRANCH   3   5
BRANCH   1  23
ATOM     23  C   UNL d   1      26.726 -12.328  -4.176  0.00  0.00     0.114 C 
BRANCH  23  24
ATOM     24  C   UNL d   1      25.609 -13.247  -4.755  0.00  0.00     0.112 C 
BRANCH  24  25
ATOM     25  C   UNL d   1      25.534 -14.545  -3.961  0.00  0.00     0.222 C 
ATOM     26  N   UNL d   1      25.480 -14.440  -2.569  0.00  0.00    -0.327 N 
ATOM     27  H   UNL d   1      25.491 -13.515  -2.152  0.00  0.00     0.169 HD
ATOM     28  O   UNL d   1      25.526 -15.603  -4.597  0.00  0.00    -0.273 OA
BRANCH  26  29
ATOM     29  C   UNL d   1      25.405 -15.552  -1.660  0.00  0.00     0.041 A 
ATOM     30  C   UNL d   1      26.521 -15.990  -0.910  0.00  0.00    -0.035 A 
ATOM     31  C   UNL d   1      26.377 -17.094  -0.033  0.00  0.00     0.009 A 
ATOM     32  C   UNL d   1      27.876 -15.344  -0.988  0.00  0.00     0.050 C 
ATOM     33  C   UNL d   1      25.160 -17.765   0.109  0.00  0.00     0.007 A 
ATOM     34  C   UNL d   1      24.061 -17.343  -0.621  0.00  0.00    -0.060 A 
ATOM     35  C   UNL d   1      22.722 -18.010  -0.524  0.00  0.00     0.048 C 
ATOM     36  C   UNL d   1      24.202 -16.253  -1.486  0.00  0.00     0.037 A 
ENDBRANCH  26  29
ENDBRANCH  24  25
ENDBRANCH  23  24
ENDBRANCH   1  23
TORSDOF 10
ENDMDL
MODEL 3
REMARK VINA RESULT:    -7.897      5.291      7.409
REMARK INTER + INTRA:         -14.601
REMARK INTER:                 -10.880
REMARK INTRA:                  -3.721
REMARK CONF_INDEPENDENT:        2.983
REMARK UNBOUND:                -3.721
REMARK  10 active torsions:
REMARK  status: ('A' for Active; 'I' for Inactive)
REMARK    1  A    between atoms: C_7  and  N_8 
REMARK       I    between atoms: N_8  and  C_9 
REMARK    2  A    between atoms: C_9  and  C_11 
REMARK    3  A    between atoms: C_11  and  C_12 
REMARK    4  A    between atoms: C_12  and  C_13 
REMARK       I    between atoms: C_13  and  N_15 
REMARK    5  A    between atoms: N_15  and  N_16 
REMARK    6  A    between atoms: N_16  and  C_17 
REMARK    7  A    between atoms: C_17  and  N_19 
REMARK       I    between atoms: N_19  and  C_20 
REMARK    8  A    between atoms: C_20  and  C_22 
REMARK    9  A    between atoms: C_22  and  O_23 
REMARK   10  A    between atoms: O_23  and  C_24 
ROOT
ATOM      1  C   UNL d   1      26.462  -8.489  -0.873  0.00  0.00     0.236 C 
ATOM      2  O   UNL d   1      27.611  -8.890  -0.678  0.00  0.00    -0.272 OA
ATOM      3  N   UNL d   1      25.753  -8.823  -2.019  0.00  0.00    -0.268 N 
ATOM      4  H   UNL d   1      24.799  -8.499  -2.198  0.00  0.00     0.190 HD
ENDROOT
BRANCH   3   5
ATOM      5  N   UNL d   1      26.334  -9.673  -3.067  0.00  0.00    -0.273 N 
ATOM      6  H   UNL d   1      27.289  -9.969  -2.874  0.00  0.00     0.189 HD
BRANCH   5   7
ATOM      7  C   UNL d   1      25.560  -9.992  -4.202  0.00  0.00     0.193 C 
ATOM      8  S   UNL d   1      24.750  -8.747  -5.007  0.00  0.00    -0.039 SA
BRANCH   7   9
ATOM      9  N   UNL d   1      25.528 -11.368  -4.576  0.00  0.00    -0.301 N 
ATOM     10  C   UNL d   1      26.417 -12.383  -4.119  0.00  0.00     0.248 C 
ATOM     11  O   UNL d   1      27.335 -12.147  -3.332  0.00  0.00    -0.271 OA
ATOM     12  H   UNL d   1      24.805 -11.651  -5.224  0.00  0.00     0.171 HD
BRANCH  10  13
ATOM     13  C   UNL d   1      26.251 -13.853  -4.626  0.00  0.00     0.278 C 
BRANCH  13  14
ATOM     14  O   UNL d   1      25.147 -14.453  -3.901  0.00  0.00    -0.342 OA
BRANCH  14  15
ATOM     15  C   UNL d   1      25.394 -15.285  -2.843  0.00  0.00     0.070 A 
ATOM     16  C   UNL d   1      26.730 -15.645  -2.621  0.00  0.00     0.038 A 
ATOM     17  C   UNL d   1      27.076 -16.516  -1.579  0.00  0.00     0.022 A 
ATOM     18  C   UNL d   1      26.085 -17.060  -0.760  0.00  0.00     0.017 A 
ATOM     19 BR   UNL d   1      26.659 -18.209   0.643  0.00  0.00    -0.051 Br
ATOM     20  C   UNL d   1      24.737 -16.751  -0.992  0.00  0.00    -0.042 A 
ATOM     21  C   UNL d   1      23.605 -17.305  -0.171  0.00  0.00     0.049 C 
ATOM     22  C   UNL d   1      24.408 -15.866  -2.049  0.00  0.00     0.044 A 
ENDBRANCH  14  15
ENDBRANCH  13  14
ENDBRANCH  10  13
ENDBRANCH   7   9
ENDBRANCH   5   7
ENDBRANCH   3   5
BRANCH   1  23
ATOM     23  C   UNL d   1      25.725  -7.594   0.131  0.00  0.00     0.114 C 
BRANCH  23  24
ATOM     24  C   UNL d   1      26.283  -7.698   1.583  0.00  0.00     0.112 C 
BRANCH  24  25
ATOM     25  C   UNL d   1      26.205  -9.139   2.071  0.00  0.00     0.222 C 
ATOM     26  N   UNL d   1      27.263  -9.986   1.735  0.00  0.00    -0.327 N 
ATOM     27  H   UNL d   1      28.029  -9.610   1.188  0.00  0.00     0.169 HD
ATOM     28  O   UNL d   1      25.214  -9.464   2.732  0.00  0.00    -0.273 OA
BRANCH  26  29
ATOM     29  C   UNL d   1      27.361 -11.371   2.109  0.00  0.00     0.041 A 
ATOM     30  C   UNL d   1      27.302 -12.416   1.158  0.00  0.00    -0.035 A 
ATOM     31  C   UNL d   1      27.404 -13.760   1.596  0.00  0.00     0.009 A 
ATOM     32  C   UNL d   1      27.133 -12.183  -0.318  0.00  0.00     0.050 C 
ATOM     33  C   UNL d   1      27.559 -14.082   2.946  0.00  0.00     0.007 A 
ATOM     34  C   UNL d   1      27.620 -13.066   3.885  0.00  0.00    -0.060 A 
ATOM     35  C   UNL d   1      27.786 -13.330   5.352  0.00  0.00     0.048 C 
ATOM     36  C   UNL d   1      27.520 -11.739   3.454  0.00  0.00     0.037 A 
ENDBRANCH  26  29
ENDBRANCH  24  25
ENDBRANCH  23  24
ENDBRANCH   1  23
TORSDOF 10
ENDMDL
MODEL 4
REMARK VINA RESULT:    -7.505      3.936      6.215
REMARK INTER + INTRA:         -14.584
REMARK INTER:                 -10.488
REMARK INTRA:                  -4.097
REMARK CONF_INDEPENDENT:        2.983
REMARK UNBOUND:                -4.097
REMARK  10 active torsions:
REMARK  status: ('A' for Active; 'I' for Inactive)
REMARK    1  A    between atoms: C_7  and  N_8 
REMARK       I    between atoms: N_8  and  C_9 
REMARK    2  A    between atoms: C_9  and  C_11 
REMARK    3  A    between atoms: C_11  and  C_12 
REMARK    4  A    between atoms: C_12  and  C_13 
REMARK       I    between atoms: C_13  and  N_15 
REMARK    5  A    between atoms: N_15  and  N_16 
REMARK    6  A    between atoms: N_16  and  C_17 
REMARK    7  A    between atoms: C_17  and  N_19 
REMARK       I    between atoms: N_19  and  C_20 
REMARK    8  A    between atoms: C_20  and  C_22 
REMARK    9  A    between atoms: C_22  and  O_23 
REMARK   10  A    between atoms: O_23  and  C_24 
ROOT
ATOM      1  C   UNL d   1      27.213 -14.793  -5.256  0.00  0.00     0.236 C 
ATOM      2  O   UNL d   1      26.629 -15.545  -6.039  0.00  0.00    -0.272 OA
ATOM      3  N   UNL d   1      28.503 -15.055  -4.812  0.00  0.00    -0.268 N 
ATOM      4  H   UNL d   1      29.002 -14.442  -4.163  0.00  0.00     0.190 HD
ENDROOT
BRANCH   3   5
ATOM      5  N   UNL d   1      29.244 -16.244  -5.251  0.00  0.00    -0.273 N 
ATOM      6  H   UNL d   1      28.846 -16.698  -6.071  0.00  0.00     0.189 HD
BRANCH   5   7
ATOM      7  C   UNL d   1      30.391 -16.643  -4.533  0.00  0.00     0.193 C 
ATOM      8  S   UNL d   1      31.421 -17.791  -5.223  0.00  0.00    -0.039 SA
BRANCH   7   9
ATOM      9  N   UNL d   1      30.584 -16.027  -3.261  0.00  0.00    -0.301 N 
ATOM     10  C   UNL d   1      29.574 -15.781  -2.287  0.00  0.00     0.248 C 
ATOM     11  O   UNL d   1      28.394 -16.084  -2.471  0.00  0.00    -0.271 OA
ATOM     12  H   UNL d   1      31.525 -15.743  -3.026  0.00  0.00     0.171 HD
BRANCH  10  13
ATOM     13  C   UNL d   1      29.946 -15.093  -0.932  0.00  0.00     0.278 C 
BRANCH  13  14
ATOM     14  O   UNL d   1      28.752 -14.451  -0.415  0.00  0.00    -0.342 OA
BRANCH  14  15
ATOM     15  C   UNL d   1      28.615 -14.244   0.930  0.00  0.00     0.070 A 
ATOM     16  C   UNL d   1      27.402 -13.693   1.364  0.00  0.00     0.038 A 
ATOM     17  C   UNL d   1      27.181 -13.418   2.721  0.00  0.00     0.022 A 
ATOM     18  C   UNL d   1      28.184 -13.666   3.659  0.00  0.00     0.017 A 
ATOM     19 BR   UNL d   1      27.778 -13.287   5.478  0.00  0.00    -0.051 Br
ATOM     20  C   UNL d   1      29.424 -14.175   3.243  0.00  0.00    -0.042 A 
ATOM     21  C   UNL d   1      30.564 -14.455   4.183  0.00  0.00     0.049 C 
ATOM     22  C   UNL d   1      29.625 -14.448   1.867  0.00  0.00     0.044 A 
ENDBRANCH  14  15
ENDBRANCH  13  14
ENDBRANCH  10  13
ENDBRANCH   7   9
ENDBRANCH   5   7
ENDBRANCH   3   5
BRANCH   1  23
ATOM     23  C   UNL d   1      26.566 -13.514  -4.712  0.00  0.00     0.114 C 
BRANCH  23  24
ATOM     24  C   UNL d   1      26.487 -13.470  -3.156  0.00  0.00     0.112 C 
BRANCH  24  25
ATOM     25  C   UNL d   1      25.596 -14.597  -2.646  0.00  0.00     0.222 C 
ATOM     26  N   UNL d   1      26.068 -15.344  -1.564  0.00  0.00    -0.327 N 
ATOM     27  H   UNL d   1      26.971 -15.107  -1.169  0.00  0.00     0.169 HD
ATOM     28  O   UNL d   1      24.518 -14.775  -3.220  0.00  0.00    -0.273 OA
BRANCH  26  29
ATOM     29  C   UNL d   1      25.366 -16.439  -0.951  0.00  0.00     0.041 A 
ATOM     30  C   UNL d   1      26.016 -17.382  -0.122  0.00  0.00    -0.035 A 
ATOM     31  C   UNL d   1      25.264 -18.439   0.450  0.00  0.00     0.009 A 
ATOM     32  C   UNL d   1      27.486 -17.332   0.195  0.00  0.00     0.050 C 
ATOM     33  C   UNL d   1      23.894 -18.575   0.215  0.00  0.00     0.007 A 
ATOM     34  C   UNL d   1      23.248 -17.656  -0.595  0.00  0.00    -0.060 A 
ATOM     35  C   UNL d   1      21.781 -17.733  -0.895  0.00  0.00     0.048 C 
ATOM     36  C   UNL d   1      23.989 -16.612  -1.159  0.00  0.00     0.037 A 
ENDBRANCH  26  29
ENDBRANCH  24  25
ENDBRANCH  23  24
ENDBRANCH   1  23
TORSDOF 10
ENDMDL
MODEL 5
REMARK VINA RESULT:    -7.496      4.783      7.553
REMARK INTER + INTRA:         -14.383
REMARK INTER:                 -10.479
REMARK INTRA:                  -3.904
REMARK CONF_INDEPENDENT:        2.983
REMARK UNBOUND:                -3.904
REMARK  10 active torsions:
REMARK  status: ('A' for Active; 'I' for Inactive)
REMARK    1  A    between atoms: C_7  and  N_8 
REMARK       I    between atoms: N_8  and  C_9 
REMARK    2  A    between atoms: C_9  and  C_11 
REMARK    3  A    between atoms: C_11  and  C_12 
REMARK    4  A    between atoms: C_12  and  C_13 
REMARK       I    between atoms: C_13  and  N_15 
REMARK    5  A    between atoms: N_15  and  N_16 
REMARK    6  A    between atoms: N_16  and  C_17 
REMARK    7  A    between atoms: C_17  and  N_19 
REMARK       I    between atoms: N_19  and  C_20 
REMARK    8  A    between atoms: C_20  and  C_22 
REMARK    9  A    between atoms: C_22  and  O_23 
REMARK   10  A    between atoms: O_23  and  C_24 
ROOT
ATOM      1  C   UNL d   1      26.474 -14.168  -4.908  0.00  0.00     0.236 C 
ATOM      2  O   UNL d   1      25.381 -14.677  -4.653  0.00  0.00    -0.272 OA
ATOM      3  N   UNL d   1      26.700 -12.806  -4.759  0.00  0.00    -0.268 N 
ATOM      4  H   UNL d   1      27.600 -12.366  -4.966  0.00  0.00     0.190 HD
ENDROOT
BRANCH   3   5
ATOM      5  N   UNL d   1      25.649 -11.895  -4.288  0.00  0.00    -0.273 N 
ATOM      6  H   UNL d   1      24.786 -11.948  -4.826  0.00  0.00     0.189 HD
BRANCH   5   7
ATOM      7  C   UNL d   1      25.909 -11.058  -3.183  0.00  0.00     0.193 C 
ATOM      8  S   UNL d   1      25.521  -9.417  -3.299  0.00  0.00    -0.039 SA
BRANCH   7   9
ATOM      9  N   UNL d   1      26.489 -11.684  -2.041  0.00  0.00    -0.301 N 
ATOM     10  C   UNL d   1      26.262 -13.024  -1.613  0.00  0.00     0.248 C 
ATOM     11  O   UNL d   1      25.505 -13.788  -2.215  0.00  0.00    -0.271 OA
ATOM     12  H   UNL d   1      27.124 -11.128  -1.484  0.00  0.00     0.171 HD
BRANCH  10  13
ATOM     13  C   UNL d   1      26.976 -13.568  -0.332  0.00  0.00     0.278 C 
BRANCH  13  14
ATOM     14  O   UNL d   1      27.448 -12.428   0.433  0.00  0.00    -0.342 OA
BRANCH  14  15
ATOM     15  C   UNL d   1      27.589 -12.526   1.791  0.00  0.00     0.070 A 
ATOM     16  C   UNL d   1      27.621 -11.326   2.511  0.00  0.00     0.038 A 
ATOM     17  C   UNL d   1      27.792 -11.326   3.903  0.00  0.00     0.022 A 
ATOM     18  C   UNL d   1      27.961 -12.529   4.589  0.00  0.00     0.017 A 
ATOM     19 BR   UNL d   1      28.156 -12.427   6.478  0.00  0.00    -0.051 Br
ATOM     20  C   UNL d   1      27.978 -13.742   3.883  0.00  0.00    -0.042 A 
ATOM     21  C   UNL d   1      28.171 -15.081   4.539  0.00  0.00     0.049 C 
ATOM     22  C   UNL d   1      27.800 -13.720   2.477  0.00  0.00     0.044 A 
ENDBRANCH  14  15
ENDBRANCH  13  14
ENDBRANCH  10  13
ENDBRANCH   7   9
ENDBRANCH   5   7
ENDBRANCH   3   5
BRANCH   1  23
ATOM     23  C   UNL d   1      27.665 -14.993  -5.409  0.00  0.00     0.114 C 
BRANCH  23  24
ATOM     24  C   UNL d   1      28.797 -15.156  -4.349  0.00  0.00     0.112 C 
BRANCH  24  25
ATOM     25  C   UNL d   1      28.352 -16.115  -3.252  0.00  0.00     0.222 C 
ATOM     26  N   UNL d   1      27.144 -15.834  -2.609  0.00  0.00    -0.327 N 
ATOM     27  H   UNL d   1      26.621 -15.014  -2.898  0.00  0.00     0.169 HD
ATOM     28  O   UNL d   1      29.085 -17.076  -3.003  0.00  0.00    -0.273 OA
BRANCH  26  29
ATOM     29  C   UNL d   1      26.568 -16.624  -1.555  0.00  0.00     0.041 A 
ATOM     30  C   UNL d   1      27.297 -16.989  -0.400  0.00  0.00    -0.035 A 
ATOM     31  C   UNL d   1      26.666 -17.771   0.600  0.00  0.00     0.009 A 
ATOM     32  C   UNL d   1      28.727 -16.591  -0.165  0.00  0.00     0.050 C 
ATOM     33  C   UNL d   1      25.342 -18.194   0.475  0.00  0.00     0.007 A 
ATOM     34  C   UNL d   1      24.618 -17.842  -0.653  0.00  0.00    -0.060 A 
ATOM     35  C   UNL d   1      23.193 -18.256  -0.861  0.00  0.00     0.048 C 
ATOM     36  C   UNL d   1      25.239 -17.069  -1.640  0.00  0.00     0.037 A 
ENDBRANCH  26  29
ENDBRANCH  24  25
ENDBRANCH  23  24
ENDBRANCH   1  23
TORSDOF 10
ENDMDL
MODEL 6
REMARK VINA RESULT:    -7.063      3.656      5.801
REMARK INTER + INTRA:         -14.493
REMARK INTER:                 -10.046
REMARK INTRA:                  -4.448
REMARK CONF_INDEPENDENT:        2.983
REMARK UNBOUND:                -4.448
REMARK  10 active torsions:
REMARK  status: ('A' for Active; 'I' for Inactive)
REMARK    1  A    between atoms: C_7  and  N_8 
REMARK       I    between atoms: N_8  and  C_9 
REMARK    2  A    between atoms: C_9  and  C_11 
REMARK    3  A    between atoms: C_11  and  C_12 
REMARK    4  A    between atoms: C_12  and  C_13 
REMARK       I    between atoms: C_13  and  N_15 
REMARK    5  A    between atoms: N_15  and  N_16 
REMARK    6  A    between atoms: N_16  and  C_17 
REMARK    7  A    between atoms: C_17  and  N_19 
REMARK       I    between atoms: N_19  and  C_20 
REMARK    8  A    between atoms: C_20  and  C_22 
REMARK    9  A    between atoms: C_22  and  O_23 
REMARK   10  A    between atoms: O_23  and  C_24 
ROOT
ATOM      1  C   UNL d   1      27.057 -14.443  -5.396  0.00  0.00     0.236 C 
ATOM      2  O   UNL d   1      26.915 -15.590  -4.967  0.00  0.00    -0.272 OA
ATOM      3  N   UNL d   1      28.104 -14.102  -6.243  0.00  0.00    -0.268 N 
ATOM      4  H   UNL d   1      28.238 -13.156  -6.608  0.00  0.00     0.190 HD
ENDROOT
BRANCH   3   5
ATOM      5  N   UNL d   1      29.100 -15.090  -6.676  0.00  0.00    -0.273 N 
ATOM      6  H   UNL d   1      29.282 -15.080  -7.678  0.00  0.00     0.189 HD
BRANCH   5   7
ATOM      7  C   UNL d   1      29.695 -15.934  -5.714  0.00  0.00     0.193 C 
ATOM      8  S   UNL d   1      30.412 -17.374  -6.232  0.00  0.00    -0.039 SA
BRANCH   7   9
ATOM      9  N   UNL d   1      29.636 -15.487  -4.361  0.00  0.00    -0.301 N 
ATOM     10  C   UNL d   1      30.670 -14.805  -3.657  0.00  0.00     0.248 C 
ATOM     11  O   UNL d   1      31.755 -14.539  -4.177  0.00  0.00    -0.271 OA
ATOM     12  H   UNL d   1      28.780 -15.666  -3.855  0.00  0.00     0.171 HD
BRANCH  10  13
ATOM     13  C   UNL d   1      30.452 -14.378  -2.168  0.00  0.00     0.278 C 
BRANCH  13  14
ATOM     14  O   UNL d   1      29.028 -14.429  -1.894  0.00  0.00    -0.342 OA
BRANCH  14  15
ATOM     15  C   UNL d   1      28.465 -13.526  -1.033  0.00  0.00     0.070 A 
ATOM     16  C   UNL d   1      28.612 -12.171  -1.354  0.00  0.00     0.038 A 
ATOM     17  C   UNL d   1      28.094 -11.173  -0.516  0.00  0.00     0.022 A 
ATOM     18  C   UNL d   1      27.444 -11.520   0.669  0.00  0.00     0.017 A 
ATOM     19 BR   UNL d   1      26.751 -10.096   1.723  0.00  0.00    -0.051 Br
ATOM     20  C   UNL d   1      27.325 -12.869   1.035  0.00  0.00    -0.042 A 
ATOM     21  C   UNL d   1      26.657 -13.330   2.300  0.00  0.00     0.049 C 
ATOM     22  C   UNL d   1      27.853 -13.862   0.172  0.00  0.00     0.044 A 
ENDBRANCH  14  15
ENDBRANCH  13  14
ENDBRANCH  10  13
ENDBRANCH   7   9
ENDBRANCH   5   7
ENDBRANCH   3   5
BRANCH   1  23
ATOM     23  C   UNL d   1      26.095 -13.306  -5.030  0.00  0.00     0.114 C 
BRANCH  23  24
ATOM     24  C   UNL d   1      25.939 -13.094  -3.495  0.00  0.00     0.112 C 
BRANCH  24  25
ATOM     25  C   UNL d   1      25.207 -14.278  -2.875  0.00  0.00     0.222 C 
ATOM     26  N   UNL d   1      25.953 -15.137  -2.064  0.00  0.00    -0.327 N 
ATOM     27  H   UNL d   1      26.937 -14.937  -1.924  0.00  0.00     0.169 HD
ATOM     28  O   UNL d   1      24.005 -14.401  -3.127  0.00  0.00    -0.273 OA
BRANCH  26  29
ATOM     29  C   UNL d   1      25.433 -16.300  -1.398  0.00  0.00     0.041 A 
ATOM     30  C   UNL d   1      26.266 -17.206  -0.702  0.00  0.00    -0.035 A 
ATOM     31  C   UNL d   1      25.686 -18.334  -0.067  0.00  0.00     0.009 A 
ATOM     32  C   UNL d   1      27.757 -17.044  -0.592  0.00  0.00     0.050 C 
ATOM     33  C   UNL d   1      24.312 -18.576  -0.113  0.00  0.00     0.007 A 
ATOM     34  C   UNL d   1      23.488 -17.694  -0.792  0.00  0.00    -0.060 A 
ATOM     35  C   UNL d   1      22.004 -17.884  -0.886  0.00  0.00     0.048 C 
ATOM     36  C   UNL d   1      24.058 -16.580  -1.417  0.00  0.00     0.037 A 
ENDBRANCH  26  29
ENDBRANCH  24  25
ENDBRANCH  23  24
ENDBRANCH   1  23
TORSDOF 10
ENDMDL
MODEL 7
REMARK VINA RESULT:    -6.870      5.116      7.737
REMARK INTER + INTRA:         -14.422
REMARK INTER:                  -9.853
REMARK INTRA:                  -4.569
REMARK CONF_INDEPENDENT:        2.983
REMARK UNBOUND:                -4.569
REMARK  10 active torsions:
REMARK  status: ('A' for Active; 'I' for Inactive)
REMARK    1  A    between atoms: C_7  and  N_8 
REMARK       I    between atoms: N_8  and  C_9 
REMARK    2  A    between atoms: C_9  and  C_11 
REMARK    3  A    between atoms: C_11  and  C_12 
REMARK    4  A    between atoms: C_12  and  C_13 
REMARK       I    between atoms: C_13  and  N_15 
REMARK    5  A    between atoms: N_15  and  N_16 
REMARK    6  A    between atoms: N_16  and  C_17 
REMARK    7  A    between atoms: C_17  and  N_19 
REMARK       I    between atoms: N_19  and  C_20 
REMARK    8  A    between atoms: C_20  and  C_22 
REMARK    9  A    between atoms: C_22  and  O_23 
REMARK   10  A    between atoms: O_23  and  C_24 
ROOT
ATOM      1  C   UNL d   1      29.070 -15.096  -4.160  0.00  0.00     0.236 C 
ATOM      2  O   UNL d   1      29.685 -16.094  -4.542  0.00  0.00    -0.272 OA
ATOM      3  N   UNL d   1      29.313 -14.514  -2.923  0.00  0.00    -0.268 N 
ATOM      4  H   UNL d   1      28.813 -13.686  -2.589  0.00  0.00     0.190 HD
ENDROOT
BRANCH   3   5
ATOM      5  N   UNL d   1      30.318 -15.055  -1.998  0.00  0.00    -0.273 N 
ATOM      6  H   UNL d   1      30.823 -15.860  -2.364  0.00  0.00     0.189 HD
BRANCH   5   7
ATOM      7  C   UNL d   1      30.491 -14.447  -0.737  0.00  0.00     0.193 C 
ATOM      8  S   UNL d   1      31.944 -13.647  -0.415  0.00  0.00    -0.039 SA
BRANCH   7   9
ATOM      9  N   UNL d   1      29.400 -14.564   0.173  0.00  0.00    -0.301 N 
ATOM     10  C   UNL d   1      28.174 -13.841   0.113  0.00  0.00     0.248 C 
ATOM     11  O   UNL d   1      27.945 -13.008  -0.767  0.00  0.00    -0.271 OA
ATOM     12  H   UNL d   1      29.503 -15.226   0.931  0.00  0.00     0.171 HD
BRANCH  10  13
ATOM     13  C   UNL d   1      27.069 -14.083   1.192  0.00  0.00     0.278 C 
BRANCH  13  14
ATOM     14  O   UNL d   1      27.658 -14.859   2.267  0.00  0.00    -0.342 OA
BRANCH  14  15
ATOM     15  C   UNL d   1      27.935 -14.266   3.468  0.00  0.00     0.070 A 
ATOM     16  C   UNL d   1      28.155 -15.117   4.558  0.00  0.00     0.038 A 
ATOM     17  C   UNL d   1      28.416 -14.599   5.835  0.00  0.00     0.022 A 
ATOM     18  C   UNL d   1      28.433 -13.219   6.042  0.00  0.00     0.017 A 
ATOM     19 BR   UNL d   1      28.825 -12.614   7.802  0.00  0.00    -0.051 Br
ATOM     20  C   UNL d   1      28.171 -12.346   4.975  0.00  0.00    -0.042 A 
ATOM     21  C   UNL d   1      28.152 -10.849   5.112  0.00  0.00     0.049 C 
ATOM     22  C   UNL d   1      27.912 -12.891   3.692  0.00  0.00     0.044 A 
ENDBRANCH  14  15
ENDBRANCH  13  14
ENDBRANCH  10  13
ENDBRANCH   7   9
ENDBRANCH   5   7
ENDBRANCH   3   5
BRANCH   1  23
ATOM     23  C   UNL d   1      27.992 -14.420  -5.016  0.00  0.00     0.114 C 
BRANCH  23  24
ATOM     24  C   UNL d   1      26.816 -13.828  -4.182  0.00  0.00     0.112 C 
BRANCH  24  25
ATOM     25  C   UNL d   1      26.055 -14.948  -3.483  0.00  0.00     0.222 C 
ATOM     26  N   UNL d   1      26.432 -15.257  -2.174  0.00  0.00    -0.327 N 
ATOM     27  H   UNL d   1      27.187 -14.729  -1.751  0.00  0.00     0.169 HD
ATOM     28  O   UNL d   1      25.155 -15.507  -4.117  0.00  0.00    -0.273 OA
BRANCH  26  29
ATOM     29  C   UNL d   1      25.828 -16.278  -1.362  0.00  0.00     0.041 A 
ATOM     30  C   UNL d   1      26.595 -17.193  -0.605  0.00  0.00    -0.035 A 
ATOM     31  C   UNL d   1      25.934 -18.176   0.173  0.00  0.00     0.009 A 
ATOM     32  C   UNL d   1      28.098 -17.188  -0.576  0.00  0.00     0.050 C 
ATOM     33  C   UNL d   1      24.541 -18.267   0.212  0.00  0.00     0.007 A 
ATOM     34  C   UNL d   1      23.780 -17.375  -0.525  0.00  0.00    -0.060 A 
ATOM     35  C   UNL d   1      22.281 -17.407  -0.536  0.00  0.00     0.048 C 
ATOM     36  C   UNL d   1      24.432 -16.404  -1.293  0.00  0.00     0.037 A 
ENDBRANCH  26  29
ENDBRANCH  24  25
ENDBRANCH  23  24
ENDBRANCH   1  23
TORSDOF 10
ENDMDL
MODEL 8
REMARK VINA RESULT:    -6.793      5.592      7.972
REMARK INTER + INTRA:         -14.376
REMARK INTER:                  -9.776
REMARK INTRA:                  -4.600
REMARK CONF_INDEPENDENT:        2.983
REMARK UNBOUND:                -4.600
REMARK  10 active torsions:
REMARK  status: ('A' for Active; 'I' for Inactive)
REMARK    1  A    between atoms: C_7  and  N_8 
REMARK       I    between atoms: N_8  and  C_9 
REMARK    2  A    between atoms: C_9  and  C_11 
REMARK    3  A    between atoms: C_11  and  C_12 
REMARK    4  A    between atoms: C_12  and  C_13 
REMARK       I    between atoms: C_13  and  N_15 
REMARK    5  A    between atoms: N_15  and  N_16 
REMARK    6  A    between atoms: N_16  and  C_17 
REMARK    7  A    between atoms: C_17  and  N_19 
REMARK       I    between atoms: N_19  and  C_20 
REMARK    8  A    between atoms: C_20  and  C_22 
REMARK    9  A    between atoms: C_22  and  O_23 
REMARK   10  A    between atoms: O_23  and  C_24 
ROOT
ATOM      1  C   UNL d   1      29.767 -13.763   4.727  0.00  0.00     0.236 C 
ATOM      2  O   UNL d   1      30.473 -12.903   5.257  0.00  0.00    -0.272 OA
ATOM      3  N   UNL d   1      30.258 -14.611   3.744  0.00  0.00    -0.268 N 
ATOM      4  H   UNL d   1      29.687 -15.331   3.293  0.00  0.00     0.190 HD
ENDROOT
BRANCH   3   5
ATOM      5  N   UNL d   1      31.649 -14.531   3.278  0.00  0.00    -0.273 N 
ATOM      6  H   UNL d   1      32.290 -14.135   3.963  0.00  0.00     0.189 HD
BRANCH   5   7
ATOM      7  C   UNL d   1      31.967 -14.985   1.981  0.00  0.00     0.193 C 
ATOM      8  S   UNL d   1      33.552 -14.801   1.424  0.00  0.00    -0.039 SA
BRANCH   7   9
ATOM      9  N   UNL d   1      30.900 -15.572   1.239  0.00  0.00    -0.301 N 
ATOM     10  C   UNL d   1      30.597 -15.328  -0.131  0.00  0.00     0.248 C 
ATOM     11  O   UNL d   1      31.256 -14.548  -0.822  0.00  0.00    -0.271 OA
ATOM     12  H   UNL d   1      30.304 -16.225   1.730  0.00  0.00     0.171 HD
BRANCH  10  13
ATOM     13  C   UNL d   1      29.386 -16.052  -0.806  0.00  0.00     0.278 C 
BRANCH  13  14
ATOM     14  O   UNL d   1      28.578 -16.643   0.245  0.00  0.00    -0.342 OA
BRANCH  14  15
ATOM     15  C   UNL d   1      27.240 -16.844   0.048  0.00  0.00     0.070 A 
ATOM     16  C   UNL d   1      26.653 -17.912   0.738  0.00  0.00     0.038 A 
ATOM     17  C   UNL d   1      25.293 -18.214   0.576  0.00  0.00     0.022 A 
ATOM     18  C   UNL d   1      24.508 -17.465  -0.303  0.00  0.00     0.017 A 
ATOM     19 BR   UNL d   1      22.670 -17.934  -0.432  0.00  0.00    -0.051 Br
ATOM     20  C   UNL d   1      25.084 -16.420  -1.040  0.00  0.00    -0.042 A 
ATOM     21  C   UNL d   1      24.318 -15.575  -2.020  0.00  0.00     0.049 C 
ATOM     22  C   UNL d   1      26.460 -16.129  -0.859  0.00  0.00     0.044 A 
ENDBRANCH  14  15
ENDBRANCH  13  14
ENDBRANCH  10  13
ENDBRANCH   7   9
ENDBRANCH   5   7
ENDBRANCH   3   5
BRANCH   1  23
ATOM     23  C   UNL d   1      28.296 -13.965   5.110  0.00  0.00     0.114 C 
BRANCH  23  24
ATOM     24  C   UNL d   1      27.406 -14.450   3.926  0.00  0.00     0.112 C 
BRANCH  24  25
ATOM     25  C   UNL d   1      27.457 -13.441   2.786  0.00  0.00     0.222 C 
ATOM     26  N   UNL d   1      27.869 -13.909   1.536  0.00  0.00    -0.327 N 
ATOM     27  H   UNL d   1      28.113 -14.889   1.442  0.00  0.00     0.169 HD
ATOM     28  O   UNL d   1      27.130 -12.278   3.039  0.00  0.00    -0.273 OA
BRANCH  26  29
ATOM     29  C   UNL d   1      27.976 -13.105   0.349  0.00  0.00     0.041 A 
ATOM     30  C   UNL d   1      29.055 -12.217   0.133  0.00  0.00    -0.035 A 
ATOM     31  C   UNL d   1      29.098 -11.452  -1.060  0.00  0.00     0.009 A 
ATOM     32  C   UNL d   1      30.181 -12.029   1.112  0.00  0.00     0.050 C 
ATOM     33  C   UNL d   1      28.099 -11.551  -2.031  0.00  0.00     0.007 A 
ATOM     34  C   UNL d   1      27.038 -12.419  -1.830  0.00  0.00    -0.060 A 
ATOM     35  C   UNL d   1      25.928 -12.582  -2.824  0.00  0.00     0.048 C 
ATOM     36  C   UNL d   1      26.996 -13.174  -0.653  0.00  0.00     0.037 A 
ENDBRANCH  26  29
ENDBRANCH  24  25
ENDBRANCH  23  24
ENDBRANCH   1  23
TORSDOF 10
ENDMDL
MODEL 9
REMARK VINA RESULT:    -6.344      4.355      7.154
REMARK INTER + INTRA:         -14.088
REMARK INTER:                  -9.327
REMARK INTRA:                  -4.761
REMARK CONF_INDEPENDENT:        2.983
REMARK UNBOUND:                -4.761
REMARK  10 active torsions:
REMARK  status: ('A' for Active; 'I' for Inactive)
REMARK    1  A    between atoms: C_7  and  N_8 
REMARK       I    between atoms: N_8  and  C_9 
REMARK    2  A    between atoms: C_9  and  C_11 
REMARK    3  A    between atoms: C_11  and  C_12 
REMARK    4  A    between atoms: C_12  and  C_13 
REMARK       I    between atoms: C_13  and  N_15 
REMARK    5  A    between atoms: N_15  and  N_16 
REMARK    6  A    between atoms: N_16  and  C_17 
REMARK    7  A    between atoms: C_17  and  N_19 
REMARK       I    between atoms: N_19  and  C_20 
REMARK    8  A    between atoms: C_20  and  C_22 
REMARK    9  A    between atoms: C_22  and  O_23 
REMARK   10  A    between atoms: O_23  and  C_24 
ROOT
ATOM      1  C   UNL d   1      27.929 -14.682  -5.816  0.00  0.00     0.236 C 
ATOM      2  O   UNL d   1      26.883 -15.328  -5.904  0.00  0.00    -0.272 OA
ATOM      3  N   UNL d   1      27.945 -13.374  -5.352  0.00  0.00    -0.268 N 
ATOM      4  H   UNL d   1      28.804 -12.822  -5.273  0.00  0.00     0.190 HD
ENDROOT
BRANCH   3   5
ATOM      5  N   UNL d   1      26.716 -12.684  -4.940  0.00  0.00    -0.273 N 
ATOM      6  H   UNL d   1      26.432 -11.936  -5.569  0.00  0.00     0.189 HD
BRANCH   5   7
ATOM      7  C   UNL d   1      26.061 -13.094  -3.760  0.00  0.00     0.193 C 
ATOM      8  S   UNL d   1      24.691 -14.076  -3.891  0.00  0.00    -0.039 SA
BRANCH   7   9
ATOM      9  N   UNL d   1      26.625 -12.633  -2.534  0.00  0.00    -0.301 N 
ATOM     10  C   UNL d   1      28.000 -12.346  -2.298  0.00  0.00     0.248 C 
ATOM     11  O   UNL d   1      28.860 -12.487  -3.170  0.00  0.00    -0.271 OA
ATOM     12  H   UNL d   1      25.989 -12.492  -1.760  0.00  0.00     0.171 HD
BRANCH  10  13
ATOM     13  C   UNL d   1      28.465 -11.846  -0.891  0.00  0.00     0.278 C 
BRANCH  13  14
ATOM     14  O   UNL d   1      27.365 -12.038   0.036  0.00  0.00    -0.342 OA
BRANCH  14  15
ATOM     15  C   UNL d   1      27.598 -12.575   1.273  0.00  0.00     0.070 A 
ATOM     16  C   UNL d   1      27.764 -13.964   1.338  0.00  0.00     0.038 A 
ATOM     17  C   UNL d   1      27.978 -14.607   2.566  0.00  0.00     0.022 A 
ATOM     18  C   UNL d   1      28.002 -13.867   3.749  0.00  0.00     0.017 A 
ATOM     19 BR   UNL d   1      28.327 -14.826   5.359  0.00  0.00    -0.051 Br
ATOM     20  C   UNL d   1      27.793 -12.481   3.715  0.00  0.00    -0.042 A 
ATOM     21  C   UNL d   1      27.785 -11.612   4.942  0.00  0.00     0.049 C 
ATOM     22  C   UNL d   1      27.581 -11.850   2.463  0.00  0.00     0.044 A 
ENDBRANCH  14  15
ENDBRANCH  13  14
ENDBRANCH  10  13
ENDBRANCH   7   9
ENDBRANCH   5   7
ENDBRANCH   3   5
BRANCH   1  23
ATOM     23  C   UNL d   1      29.290 -15.269  -6.209  0.00  0.00     0.114 C 
BRANCH  23  24
ATOM     24  C   UNL d   1      30.230 -15.528  -4.994  0.00  0.00     0.112 C 
BRANCH  24  25
ATOM     25  C   UNL d   1      29.495 -16.324  -3.923  0.00  0.00     0.222 C 
ATOM     26  N   UNL d   1      28.692 -15.607  -3.032  0.00  0.00    -0.327 N 
ATOM     27  H   UNL d   1      28.634 -14.600  -3.135  0.00  0.00     0.169 HD
ATOM     28  O   UNL d   1      29.654 -17.548  -3.913  0.00  0.00    -0.273 OA
BRANCH  26  29
ATOM     29  C   UNL d   1      27.926 -16.188  -1.963  0.00  0.00     0.041 A 
ATOM     30  C   UNL d   1      28.528 -16.665  -0.776  0.00  0.00    -0.035 A 
ATOM     31  C   UNL d   1      27.713 -17.228   0.238  0.00  0.00     0.009 A 
ATOM     32  C   UNL d   1      30.009 -16.613  -0.520  0.00  0.00     0.050 C 
ATOM     33  C   UNL d   1      26.327 -17.325   0.096  0.00  0.00     0.007 A 
ATOM     34  C   UNL d   1      25.728 -16.859  -1.063  0.00  0.00    -0.060 A 
ATOM     35  C   UNL d   1      24.248 -16.928  -1.291  0.00  0.00     0.048 C 
ATOM     36  C   UNL d   1      26.531 -16.304  -2.063  0.00  0.00     0.037 A 
ENDBRANCH  26  29
ENDBRANCH  24  25
ENDBRANCH  23  24
ENDBRANCH   1  23
TORSDOF 10
ENDMDL
