MODEL 1
REMARK VINA RESULT:    -8.741      0.000      0.000
REMARK INTER + INTRA:         -16.264
REMARK INTER:                 -12.022
REMARK INTRA:                  -4.242
REMARK CONF_INDEPENDENT:        3.281
REMARK UNBOUND:                -4.242
REMARK  11 active torsions:
REMARK  status: ('A' for Active; 'I' for Inactive)
REMARK    1  A    between atoms: O_2  and  C_3 
REMARK    2  A    between atoms: C_6  and  O_7 
REMARK    3  A    between atoms: C_9  and  N_10 
REMARK       I    between atoms: N_10  and  C_11 
REMARK    4  A    between atoms: C_11  and  C_13 
REMARK    5  A    between atoms: C_13  and  O_14 
REMARK    6  A    between atoms: O_14  and  C_15 
REMARK    7  A    between atoms: C_17  and  C_15 
REMARK    8  A    between atoms: C_17  and  N_28 
REMARK    9  A    between atoms: C_17  and  C_18 
REMARK   10  A    between atoms: C_18  and  C_19 
REMARK       I    between atoms: N_28  and  C_29 
REMARK   11  A    between atoms: C_29  and  C_31 
ROOT
ATOM      1  C   UNL d   1      26.313 -12.752  -5.117  0.00  0.00     0.188 C 
ENDROOT
BRANCH   1   2
ATOM      2  N   UNL d   1      25.543 -11.529  -5.009  0.00  0.00    -0.343 N 
ATOM      3  C   UNL d   1      26.068 -10.381  -5.616  0.00  0.00     0.252 C 
ATOM      4  O   UNL d   1      27.064 -10.330  -6.319  0.00  0.00    -0.268 OA
ATOM      5  H   UNL d   1      25.000 -11.378  -4.171  0.00  0.00     0.163 HD
BRANCH   3   6
ATOM      6  C   UNL d   1      25.352  -9.139  -5.319  0.00  0.00     0.032 A 
ATOM      7  C   UNL d   1      25.746  -8.351  -4.232  0.00  0.00     0.020 A 
ATOM      8  C   UNL d   1      25.049  -7.172  -3.968  0.00  0.00     0.043 A 
ATOM      9  C   UNL d   1      24.019  -6.782  -4.819  0.00  0.00     0.116 A 
ATOM     10  F   UNL d   1      23.413  -5.605  -4.624  0.00  0.00    -0.206 F 
ATOM     11  C   UNL d   1      23.614  -7.584  -5.884  0.00  0.00     0.043 A 
ATOM     12  C   UNL d   1      24.270  -8.783  -6.124  0.00  0.00     0.020 A 
ENDBRANCH   3   6
ENDBRANCH   1   2
BRANCH   1  13
ATOM     13  C   UNL d   1      27.876 -12.672  -5.119  0.00  0.00     0.072 C 
BRANCH  13  14
ATOM     14  C   UNL d   1      28.576 -13.938  -5.640  0.00  0.00    -0.048 A 
ATOM     15  C   UNL d   1      28.882 -15.059  -4.957  0.00  0.00    -0.006 A 
ATOM     16  C   UNL d   1      28.686 -15.532  -3.619  0.00  0.00     0.014 C 
ATOM     17  C   UNL d   1      29.613 -15.925  -5.907  0.00  0.00     0.038 A 
ATOM     18  C   UNL d   1      29.289 -16.628  -3.176  0.00  0.00     0.001 C 
ATOM     19  C   UNL d   1      29.976 -17.497  -4.082  0.00  0.00     0.002 C 
ATOM     20  C   UNL d   1      30.147 -17.212  -5.389  0.00  0.00     0.030 C 
ATOM     21  N   UNL d   1      29.678 -15.414  -7.077  0.00  0.00    -0.385 N 
ATOM     22  C   UNL d   1      29.053 -14.060  -7.085  0.00  0.00     0.155 A 
ATOM     23  H   UNL d   1      30.103 -15.909  -7.861  0.00  0.00     0.160 HD
ENDBRANCH  13  14
ENDBRANCH   1  13
BRANCH   1  24
ATOM     24  C   UNL d   1      25.712 -13.947  -4.332  0.00  0.00     0.282 C 
ATOM     25  O   UNL d   1      25.565 -15.084  -4.720  0.00  0.00    -0.263 OA
BRANCH  24  26
ATOM     26  O   UNL d   1      25.289 -13.524  -3.128  0.00  0.00    -0.310 OA
BRANCH  26  27
ATOM     27  C   UNL d   1      26.294 -13.475  -2.110  0.00  0.00     0.281 C 
BRANCH  27  28
ATOM     28  C   UNL d   1      25.909 -14.654  -1.241  0.00  0.00     0.246 C 
ATOM     29  N   UNL d   1      25.018 -15.518  -1.849  0.00  0.00    -0.323 N 
ATOM     30  H   UNL d   1      24.789 -15.280  -2.794  0.00  0.00     0.169 HD
ATOM     31  O   UNL d   1      26.394 -14.764  -0.116  0.00  0.00    -0.271 OA
BRANCH  29  32
ATOM     32  C   UNL d   1      24.467 -16.709  -1.299  0.00  0.00     0.071 A 
ATOM     33  C   UNL d   1      25.227 -17.758  -0.743  0.00  0.00     0.095 A 
ATOM     34  C   UNL d   1      24.542 -18.838  -0.136  0.00  0.00     0.042 A 
ATOM     35  C   UNL d   1      23.142 -18.932  -0.151  0.00  0.00     0.039 A 
ATOM     36  C   UNL d   1      22.399 -17.916  -0.721  0.00  0.00     0.070 A 
ATOM     37  C   UNL d   1      23.071 -16.835  -1.269  0.00  0.00     0.069 A 
BRANCH  33  38
ATOM     38  O   UNL d   1      26.589 -17.922  -0.690  0.00  0.00    -0.354 OA
ATOM     39  C   UNL d   1      27.245 -17.918   0.565  0.00  0.00     0.210 C 
ENDBRANCH  33  38
BRANCH  36  40
ATOM     40  O   UNL d   1      21.034 -17.968  -0.621  0.00  0.00    -0.356 OA
ATOM     41  C   UNL d   1      20.449 -19.263  -0.785  0.00  0.00     0.210 C 
ENDBRANCH  36  40
ENDBRANCH  29  32
ENDBRANCH  27  28
ENDBRANCH  26  27
ENDBRANCH  24  26
ENDBRANCH   1  24
TORSDOF 11
ENDMDL
MODEL 2
REMARK VINA RESULT:    -8.231      2.248      5.790
REMARK INTER + INTRA:         -15.880
REMARK INTER:                 -11.512
REMARK INTRA:                  -4.368
REMARK CONF_INDEPENDENT:        3.281
REMARK UNBOUND:                -4.368
REMARK  11 active torsions:
REMARK  status: ('A' for Active; 'I' for Inactive)
REMARK    1  A    between atoms: O_2  and  C_3 
REMARK    2  A    between atoms: C_6  and  O_7 
REMARK    3  A    between atoms: C_9  and  N_10 
REMARK       I    between atoms: N_10  and  C_11 
REMARK    4  A    between atoms: C_11  and  C_13 
REMARK    5  A    between atoms: C_13  and  O_14 
REMARK    6  A    between atoms: O_14  and  C_15 
REMARK    7  A    between atoms: C_17  and  C_15 
REMARK    8  A    between atoms: C_17  and  N_28 
REMARK    9  A    between atoms: C_17  and  C_18 
REMARK   10  A    between atoms: C_18  and  C_19 
REMARK       I    between atoms: N_28  and  C_29 
REMARK   11  A    between atoms: C_29  and  C_31 
ROOT
ATOM      1  C   UNL d   1      26.038 -13.527  -4.280  0.00  0.00     0.188 C 
ENDROOT
BRANCH   1   2
ATOM      2  N   UNL d   1      25.684 -12.203  -4.752  0.00  0.00    -0.343 N 
ATOM      3  C   UNL d   1      26.211 -11.108  -4.057  0.00  0.00     0.252 C 
ATOM      4  O   UNL d   1      27.026 -11.156  -3.150  0.00  0.00    -0.268 OA
ATOM      5  H   UNL d   1      24.770 -12.070  -5.163  0.00  0.00     0.163 HD
BRANCH   3   6
ATOM      6  C   UNL d   1      25.676  -9.804  -4.454  0.00  0.00     0.032 A 
ATOM      7  C   UNL d   1      25.669  -8.746  -3.538  0.00  0.00     0.020 A 
ATOM      8  C   UNL d   1      25.155  -7.513  -3.939  0.00  0.00     0.043 A 
ATOM      9  C   UNL d   1      24.713  -7.350  -5.249  0.00  0.00     0.116 A 
ATOM     10  F   UNL d   1      24.309  -6.144  -5.663  0.00  0.00    -0.206 F 
ATOM     11  C   UNL d   1      24.698  -8.414  -6.148  0.00  0.00     0.043 A 
ATOM     12  C   UNL d   1      25.163  -9.658  -5.743  0.00  0.00     0.020 A 
ENDBRANCH   3   6
ENDBRANCH   1   2
BRANCH   1  13
ATOM     13  C   UNL d   1      25.076 -14.266  -3.292  0.00  0.00     0.072 C 
BRANCH  13  14
ATOM     14  C   UNL d   1      25.739 -15.390  -2.481  0.00  0.00    -0.048 A 
ATOM     15  C   UNL d   1      25.149 -16.290  -1.668  0.00  0.00    -0.006 A 
ATOM     16  C   UNL d   1      23.805 -16.588  -1.271  0.00  0.00     0.014 C 
ATOM     17  C   UNL d   1      26.247 -17.087  -1.081  0.00  0.00     0.038 A 
ATOM     18  C   UNL d   1      23.546 -17.426  -0.276  0.00  0.00     0.001 C 
ATOM     19  C   UNL d   1      24.587 -18.231   0.286  0.00  0.00     0.002 C 
ATOM     20  C   UNL d   1      25.882 -18.115  -0.071  0.00  0.00     0.030 C 
ATOM     21  N   UNL d   1      27.389 -16.759  -1.551  0.00  0.00    -0.385 N 
ATOM     22  C   UNL d   1      27.251 -15.612  -2.494  0.00  0.00     0.155 A 
ATOM     23  H   UNL d   1      28.244 -17.251  -1.289  0.00  0.00     0.160 HD
ENDBRANCH  13  14
ENDBRANCH   1  13
BRANCH   1  24
ATOM     24  C   UNL d   1      26.700 -14.425  -5.358  0.00  0.00     0.282 C 
ATOM     25  O   UNL d   1      26.436 -15.576  -5.621  0.00  0.00    -0.263 OA
BRANCH  24  26
ATOM     26  O   UNL d   1      27.704 -13.751  -5.947  0.00  0.00    -0.310 OA
BRANCH  26  27
ATOM     27  C   UNL d   1      28.643 -13.148  -5.050  0.00  0.00     0.281 C 
BRANCH  27  28
ATOM     28  C   UNL d   1      29.560 -14.312  -4.739  0.00  0.00     0.246 C 
ATOM     29  N   UNL d   1      29.287 -15.443  -5.484  0.00  0.00    -0.323 N 
ATOM     30  H   UNL d   1      28.560 -15.326  -6.163  0.00  0.00     0.169 HD
ATOM     31  O   UNL d   1      30.446 -14.179  -3.895  0.00  0.00    -0.271 OA
BRANCH  29  32
ATOM     32  C   UNL d   1      29.964 -16.693  -5.426  0.00  0.00     0.071 A 
ATOM     33  C   UNL d   1      30.050 -17.503  -4.277  0.00  0.00     0.095 A 
ATOM     34  C   UNL d   1      30.666 -18.773  -4.390  0.00  0.00     0.042 A 
ATOM     35  C   UNL d   1      31.264 -19.203  -5.584  0.00  0.00     0.039 A 
ATOM     36  C   UNL d   1      31.204 -18.396  -6.704  0.00  0.00     0.070 A 
ATOM     37  C   UNL d   1      30.556 -17.175  -6.603  0.00  0.00     0.069 A 
BRANCH  33  38
ATOM     38  O   UNL d   1      29.618 -17.257  -2.997  0.00  0.00    -0.354 OA
ATOM     39  C   UNL d   1      30.506 -17.449  -1.911  0.00  0.00     0.210 C 
ENDBRANCH  33  38
BRANCH  36  40
ATOM     40  O   UNL d   1      31.688 -18.883  -7.888  0.00  0.00    -0.356 OA
ATOM     41  C   UNL d   1      30.780 -19.688  -8.645  0.00  0.00     0.210 C 
ENDBRANCH  36  40
ENDBRANCH  29  32
ENDBRANCH  27  28
ENDBRANCH  26  27
ENDBRANCH  24  26
ENDBRANCH   1  24
TORSDOF 11
ENDMDL
MODEL 3
REMARK VINA RESULT:    -7.966      3.330      8.751
REMARK INTER + INTRA:         -15.619
REMARK INTER:                 -11.247
REMARK INTRA:                  -4.371
REMARK CONF_INDEPENDENT:        3.281
REMARK UNBOUND:                -4.371
REMARK  11 active torsions:
REMARK  status: ('A' for Active; 'I' for Inactive)
REMARK    1  A    between atoms: O_2  and  C_3 
REMARK    2  A    between atoms: C_6  and  O_7 
REMARK    3  A    between atoms: C_9  and  N_10 
REMARK       I    between atoms: N_10  and  C_11 
REMARK    4  A    between atoms: C_11  and  C_13 
REMARK    5  A    between atoms: C_13  and  O_14 
REMARK    6  A    between atoms: O_14  and  C_15 
REMARK    7  A    between atoms: C_17  and  C_15 
REMARK    8  A    between atoms: C_17  and  N_28 
REMARK    9  A    between atoms: C_17  and  C_18 
REMARK   10  A    between atoms: C_18  and  C_19 
REMARK       I    between atoms: N_28  and  C_29 
REMARK   11  A    between atoms: C_29  and  C_31 
ROOT
ATOM      1  C   UNL d   1      26.957 -15.215  -3.066  0.00  0.00     0.188 C 
ENDROOT
BRANCH   1   2
ATOM      2  N   UNL d   1      28.220 -15.353  -3.763  0.00  0.00    -0.343 N 
ATOM      3  C   UNL d   1      28.177 -15.467  -5.158  0.00  0.00     0.252 C 
ATOM      4  O   UNL d   1      27.184 -15.358  -5.859  0.00  0.00    -0.268 OA
ATOM      5  H   UNL d   1      28.971 -15.846  -3.301  0.00  0.00     0.163 HD
BRANCH   3   6
ATOM      6  C   UNL d   1      29.455 -15.791  -5.795  0.00  0.00     0.032 A 
ATOM      7  C   UNL d   1      30.061 -14.867  -6.653  0.00  0.00     0.020 A 
ATOM      8  C   UNL d   1      31.279 -15.197  -7.247  0.00  0.00     0.043 A 
ATOM      9  C   UNL d   1      31.886 -16.410  -6.932  0.00  0.00     0.116 A 
ATOM     10  F   UNL d   1      33.098 -16.687  -7.425  0.00  0.00    -0.206 F 
ATOM     11  C   UNL d   1      31.265 -17.337  -6.098  0.00  0.00     0.043 A 
ATOM     12  C   UNL d   1      30.030 -17.037  -5.541  0.00  0.00     0.020 A 
ENDBRANCH   3   6
ENDBRANCH   1   2
BRANCH   1  13
ATOM     13  C   UNL d   1      26.944 -15.229  -1.501  0.00  0.00     0.072 C 
BRANCH  13  14
ATOM     14  C   UNL d   1      26.325 -16.492  -0.882  0.00  0.00    -0.048 A 
ATOM     15  C   UNL d   1      25.023 -16.838  -0.824  0.00  0.00    -0.006 A 
ATOM     16  C   UNL d   1      23.790 -16.273  -1.285  0.00  0.00     0.014 C 
ATOM     17  C   UNL d   1      24.973 -18.101  -0.058  0.00  0.00     0.038 A 
ATOM     18  C   UNL d   1      22.618 -16.757  -0.895  0.00  0.00     0.001 C 
ATOM     19  C   UNL d   1      22.543 -17.994  -0.180  0.00  0.00     0.002 C 
ATOM     20  C   UNL d   1      23.633 -18.675   0.230  0.00  0.00     0.030 C 
ATOM     21  N   UNL d   1      26.139 -18.526   0.253  0.00  0.00    -0.385 N 
ATOM     22  C   UNL d   1      27.179 -17.558  -0.198  0.00  0.00     0.155 A 
ATOM     23  H   UNL d   1      26.280 -19.414   0.736  0.00  0.00     0.160 HD
ENDBRANCH  13  14
ENDBRANCH   1  13
BRANCH   1  24
ATOM     24  C   UNL d   1      25.977 -14.212  -3.728  0.00  0.00     0.282 C 
ATOM     25  O   UNL d   1      25.130 -14.449  -4.558  0.00  0.00    -0.263 OA
BRANCH  24  26
ATOM     26  O   UNL d   1      26.249 -12.968  -3.293  0.00  0.00    -0.310 OA
BRANCH  26  27
ATOM     27  C   UNL d   1      27.640 -12.647  -3.191  0.00  0.00     0.281 C 
BRANCH  27  28
ATOM     28  C   UNL d   1      27.868 -11.865  -4.468  0.00  0.00     0.246 C 
ATOM     29  N   UNL d   1      27.304 -12.454  -5.583  0.00  0.00    -0.323 N 
ATOM     30  H   UNL d   1      26.780 -13.286  -5.392  0.00  0.00     0.169 HD
ATOM     31  O   UNL d   1      28.498 -10.809  -4.429  0.00  0.00    -0.271 OA
BRANCH  29  32
ATOM     32  C   UNL d   1      27.342 -11.971  -6.921  0.00  0.00     0.071 A 
ATOM     33  C   UNL d   1      26.436 -11.035  -7.458  0.00  0.00     0.095 A 
ATOM     34  C   UNL d   1      26.655 -10.563  -8.775  0.00  0.00     0.042 A 
ATOM     35  C   UNL d   1      27.690 -11.064  -9.580  0.00  0.00     0.039 A 
ATOM     36  C   UNL d   1      28.561 -12.002  -9.062  0.00  0.00     0.070 A 
ATOM     37  C   UNL d   1      28.374 -12.424  -7.755  0.00  0.00     0.069 A 
BRANCH  33  38
ATOM     38  O   UNL d   1      25.316 -10.476  -6.895  0.00  0.00    -0.354 OA
ATOM     39  C   UNL d   1      25.442  -9.678  -5.732  0.00  0.00     0.210 C 
ENDBRANCH  33  38
BRANCH  36  40
ATOM     40  O   UNL d   1      29.633 -12.389  -9.820  0.00  0.00    -0.356 OA
ATOM     41  C   UNL d   1      30.895 -12.407  -9.147  0.00  0.00     0.210 C 
ENDBRANCH  36  40
ENDBRANCH  29  32
ENDBRANCH  27  28
ENDBRANCH  26  27
ENDBRANCH  24  26
ENDBRANCH   1  24
TORSDOF 11
ENDMDL
MODEL 4
REMARK VINA RESULT:    -7.960      2.178      5.584
REMARK INTER + INTRA:         -15.640
REMARK INTER:                 -11.241
REMARK INTRA:                  -4.399
REMARK CONF_INDEPENDENT:        3.281
REMARK UNBOUND:                -4.399
REMARK  11 active torsions:
REMARK  status: ('A' for Active; 'I' for Inactive)
REMARK    1  A    between atoms: O_2  and  C_3 
REMARK    2  A    between atoms: C_6  and  O_7 
REMARK    3  A    between atoms: C_9  and  N_10 
REMARK       I    between atoms: N_10  and  C_11 
REMARK    4  A    between atoms: C_11  and  C_13 
REMARK    5  A    between atoms: C_13  and  O_14 
REMARK    6  A    between atoms: O_14  and  C_15 
REMARK    7  A    between atoms: C_17  and  C_15 
REMARK    8  A    between atoms: C_17  and  N_28 
REMARK    9  A    between atoms: C_17  and  C_18 
REMARK   10  A    between atoms: C_18  and  C_19 
REMARK       I    between atoms: N_28  and  C_29 
REMARK   11  A    between atoms: C_29  and  C_31 
ROOT
ATOM      1  C   UNL d   1      25.982 -13.666  -4.210  0.00  0.00     0.188 C 
ENDROOT
BRANCH   1   2
ATOM      2  N   UNL d   1      25.585 -12.355  -4.683  0.00  0.00    -0.343 N 
ATOM      3  C   UNL d   1      26.277 -11.249  -4.173  0.00  0.00     0.252 C 
ATOM      4  O   UNL d   1      27.255 -11.286  -3.445  0.00  0.00    -0.268 OA
ATOM      5  H   UNL d   1      24.612 -12.202  -4.911  0.00  0.00     0.163 HD
BRANCH   3   6
ATOM      6  C   UNL d   1      25.716  -9.945  -4.534  0.00  0.00     0.032 A 
ATOM      7  C   UNL d   1      25.205  -9.739  -5.820  0.00  0.00     0.020 A 
ATOM      8  C   UNL d   1      24.675  -8.490  -6.142  0.00  0.00     0.043 A 
ATOM      9  C   UNL d   1      24.620  -7.499  -5.165  0.00  0.00     0.116 A 
ATOM     10  F   UNL d   1      24.026  -6.333  -5.442  0.00  0.00    -0.206 F 
ATOM     11  C   UNL d   1      25.155  -7.702  -3.895  0.00  0.00     0.043 A 
ATOM     12  C   UNL d   1      25.728  -8.927  -3.581  0.00  0.00     0.020 A 
ENDBRANCH   3   6
ENDBRANCH   1   2
BRANCH   1  13
ATOM     13  C   UNL d   1      25.045 -14.437  -3.223  0.00  0.00     0.072 C 
BRANCH  13  14
ATOM     14  C   UNL d   1      25.783 -15.348  -2.228  0.00  0.00    -0.048 A 
ATOM     15  C   UNL d   1      25.302 -16.422  -1.570  0.00  0.00    -0.006 A 
ATOM     16  C   UNL d   1      24.056 -17.129  -1.531  0.00  0.00     0.014 C 
ATOM     17  C   UNL d   1      26.397 -16.882  -0.690  0.00  0.00     0.038 A 
ATOM     18  C   UNL d   1      23.813 -18.055  -0.612  0.00  0.00     0.001 C 
ATOM     19  C   UNL d   1      24.865 -18.537   0.230  0.00  0.00     0.002 C 
ATOM     20  C   UNL d   1      26.111 -18.020   0.222  0.00  0.00     0.030 C 
ATOM     21  N   UNL d   1      27.468 -16.202  -0.854  0.00  0.00    -0.385 N 
ATOM     22  C   UNL d   1      27.239 -15.105  -1.837  0.00  0.00     0.155 A 
ATOM     23  H   UNL d   1      28.332 -16.427  -0.360  0.00  0.00     0.160 HD
ENDBRANCH  13  14
ENDBRANCH   1  13
BRANCH   1  24
ATOM     24  C   UNL d   1      26.672 -14.542  -5.289  0.00  0.00     0.282 C 
ATOM     25  O   UNL d   1      26.266 -15.575  -5.770  0.00  0.00    -0.263 OA
BRANCH  24  26
ATOM     26  O   UNL d   1      27.875 -14.019  -5.588  0.00  0.00    -0.310 OA
BRANCH  26  27
ATOM     27  C   UNL d   1      28.530 -14.602  -6.720  0.00  0.00     0.281 C 
BRANCH  27  28
ATOM     28  C   UNL d   1      29.549 -15.502  -6.053  0.00  0.00     0.246 C 
ATOM     29  N   UNL d   1      29.057 -16.165  -4.945  0.00  0.00    -0.323 N 
ATOM     30  H   UNL d   1      28.085 -16.003  -4.763  0.00  0.00     0.169 HD
ATOM     31  O   UNL d   1      30.684 -15.587  -6.521  0.00  0.00    -0.271 OA
BRANCH  29  32
ATOM     32  C   UNL d   1      29.760 -17.075  -4.107  0.00  0.00     0.071 A 
ATOM     33  C   UNL d   1      30.594 -18.110  -4.574  0.00  0.00     0.095 A 
ATOM     34  C   UNL d   1      31.315 -18.875  -3.626  0.00  0.00     0.042 A 
ATOM     35  C   UNL d   1      31.155 -18.688  -2.245  0.00  0.00     0.039 A 
ATOM     36  C   UNL d   1      30.316 -17.691  -1.787  0.00  0.00     0.070 A 
ATOM     37  C   UNL d   1      29.650 -16.910  -2.718  0.00  0.00     0.069 A 
BRANCH  33  38
ATOM     38  O   UNL d   1      30.837 -18.528  -5.859  0.00  0.00    -0.354 OA
ATOM     39  C   UNL d   1      30.589 -19.876  -6.214  0.00  0.00     0.210 C 
ENDBRANCH  33  38
BRANCH  36  40
ATOM     40  O   UNL d   1      30.264 -17.445  -0.441  0.00  0.00    -0.356 OA
ATOM     41  C   UNL d   1      31.375 -16.727   0.101  0.00  0.00     0.210 C 
ENDBRANCH  36  40
ENDBRANCH  29  32
ENDBRANCH  27  28
ENDBRANCH  26  27
ENDBRANCH  24  26
ENDBRANCH   1  24
TORSDOF 11
ENDMDL
MODEL 5
REMARK VINA RESULT:    -7.821      3.285      8.125
REMARK INTER + INTRA:         -15.606
REMARK INTER:                 -11.102
REMARK INTRA:                  -4.504
REMARK CONF_INDEPENDENT:        3.281
REMARK UNBOUND:                -4.504
REMARK  11 active torsions:
REMARK  status: ('A' for Active; 'I' for Inactive)
REMARK    1  A    between atoms: O_2  and  C_3 
REMARK    2  A    between atoms: C_6  and  O_7 
REMARK    3  A    between atoms: C_9  and  N_10 
REMARK       I    between atoms: N_10  and  C_11 
REMARK    4  A    between atoms: C_11  and  C_13 
REMARK    5  A    between atoms: C_13  and  O_14 
REMARK    6  A    between atoms: O_14  and  C_15 
REMARK    7  A    between atoms: C_17  and  C_15 
REMARK    8  A    between atoms: C_17  and  N_28 
REMARK    9  A    between atoms: C_17  and  C_18 
REMARK   10  A    between atoms: C_18  and  C_19 
REMARK       I    between atoms: N_28  and  C_29 
REMARK   11  A    between atoms: C_29  and  C_31 
ROOT
ATOM      1  C   UNL d   1      28.012 -14.697  -3.156  0.00  0.00     0.188 C 
ENDROOT
BRANCH   1   2
ATOM      2  N   UNL d   1      26.850 -15.110  -2.394  0.00  0.00    -0.343 N 
ATOM      3  C   UNL d   1      26.912 -16.350  -1.744  0.00  0.00     0.252 C 
ATOM      4  O   UNL d   1      27.890 -17.075  -1.671  0.00  0.00    -0.268 OA
ATOM      5  H   UNL d   1      25.937 -14.826  -2.720  0.00  0.00     0.163 HD
BRANCH   3   6
ATOM      6  C   UNL d   1      25.653 -16.802  -1.149  0.00  0.00     0.032 A 
ATOM      7  C   UNL d   1      24.442 -16.244  -1.573  0.00  0.00     0.020 A 
ATOM      8  C   UNL d   1      23.255 -16.691  -0.992  0.00  0.00     0.043 A 
ATOM      9  C   UNL d   1      23.299 -17.713  -0.049  0.00  0.00     0.116 A 
ATOM     10  F   UNL d   1      22.156 -18.209   0.439  0.00  0.00    -0.206 F 
ATOM     11  C   UNL d   1      24.509 -18.247   0.388  0.00  0.00     0.043 A 
ATOM     12  C   UNL d   1      25.699 -17.774  -0.149  0.00  0.00     0.020 A 
ENDBRANCH   3   6
ENDBRANCH   1   2
BRANCH   1  13
ATOM     13  C   UNL d   1      29.292 -14.219  -2.395  0.00  0.00     0.072 C 
BRANCH  13  14
ATOM     14  C   UNL d   1      29.254 -14.453  -0.876  0.00  0.00    -0.048 A 
ATOM     15  C   UNL d   1      28.373 -13.962   0.019  0.00  0.00    -0.006 A 
ATOM     16  C   UNL d   1      27.205 -13.134  -0.038  0.00  0.00     0.014 C 
ATOM     17  C   UNL d   1      28.836 -14.431   1.342  0.00  0.00     0.038 A 
ATOM     18  C   UNL d   1      26.648 -12.646   1.063  0.00  0.00     0.001 C 
ATOM     19  C   UNL d   1      27.058 -13.109   2.353  0.00  0.00     0.002 C 
ATOM     20  C   UNL d   1      28.084 -13.964   2.536  0.00  0.00     0.030 C 
ATOM     21  N   UNL d   1      29.854 -15.200   1.255  0.00  0.00    -0.385 N 
ATOM     22  C   UNL d   1      30.296 -15.313  -0.165  0.00  0.00     0.155 A 
ATOM     23  H   UNL d   1      30.263 -15.652   2.073  0.00  0.00     0.160 HD
ENDBRANCH  13  14
ENDBRANCH   1  13
BRANCH   1  24
ATOM     24  C   UNL d   1      28.274 -15.557  -4.419  0.00  0.00     0.282 C 
ATOM     25  O   UNL d   1      29.142 -16.385  -4.580  0.00  0.00    -0.263 OA
BRANCH  24  26
ATOM     26  O   UNL d   1      27.415 -15.201  -5.390  0.00  0.00    -0.310 OA
BRANCH  26  27
ATOM     27  C   UNL d   1      26.040 -15.505  -5.131  0.00  0.00     0.281 C 
BRANCH  27  28
ATOM     28  C   UNL d   1      25.495 -14.147  -4.739  0.00  0.00     0.246 C 
ATOM     29  N   UNL d   1      26.273 -13.094  -5.178  0.00  0.00    -0.323 N 
ATOM     30  H   UNL d   1      27.059 -13.364  -5.738  0.00  0.00     0.169 HD
ATOM     31  O   UNL d   1      24.447 -14.075  -4.098  0.00  0.00    -0.271 OA
BRANCH  29  32
ATOM     32  C   UNL d   1      26.033 -11.706  -4.974  0.00  0.00     0.071 A 
ATOM     33  C   UNL d   1      25.655 -10.803  -5.987  0.00  0.00     0.095 A 
ATOM     34  C   UNL d   1      25.347  -9.470  -5.622  0.00  0.00     0.042 A 
ATOM     35  C   UNL d   1      25.492  -9.009  -4.304  0.00  0.00     0.039 A 
ATOM     36  C   UNL d   1      25.890  -9.888  -3.316  0.00  0.00     0.070 A 
ATOM     37  C   UNL d   1      26.142 -11.205  -3.668  0.00  0.00     0.069 A 
BRANCH  33  38
ATOM     38  O   UNL d   1      25.530 -11.004  -7.339  0.00  0.00    -0.354 OA
ATOM     39  C   UNL d   1      26.692 -11.074  -8.146  0.00  0.00     0.210 C 
ENDBRANCH  33  38
BRANCH  36  40
ATOM     40  O   UNL d   1      25.911  -9.451  -2.020  0.00  0.00    -0.356 OA
ATOM     41  C   UNL d   1      26.969  -8.548  -1.687  0.00  0.00     0.210 C 
ENDBRANCH  36  40
ENDBRANCH  29  32
ENDBRANCH  27  28
ENDBRANCH  26  27
ENDBRANCH  24  26
ENDBRANCH   1  24
TORSDOF 11
ENDMDL
MODEL 6
REMARK VINA RESULT:    -7.742      4.439      8.215
REMARK INTER + INTRA:         -15.612
REMARK INTER:                 -11.023
REMARK INTRA:                  -4.588
REMARK CONF_INDEPENDENT:        3.281
REMARK UNBOUND:                -4.588
REMARK  11 active torsions:
REMARK  status: ('A' for Active; 'I' for Inactive)
REMARK    1  A    between atoms: O_2  and  C_3 
REMARK    2  A    between atoms: C_6  and  O_7 
REMARK    3  A    between atoms: C_9  and  N_10 
REMARK       I    between atoms: N_10  and  C_11 
REMARK    4  A    between atoms: C_11  and  C_13 
REMARK    5  A    between atoms: C_13  and  O_14 
REMARK    6  A    between atoms: O_14  and  C_15 
REMARK    7  A    between atoms: C_17  and  C_15 
REMARK    8  A    between atoms: C_17  and  N_28 
REMARK    9  A    between atoms: C_17  and  C_18 
REMARK   10  A    between atoms: C_18  and  C_19 
REMARK       I    between atoms: N_28  and  C_29 
REMARK   11  A    between atoms: C_29  and  C_31 
ROOT
ATOM      1  C   UNL d   1      27.576 -16.445   0.322  0.00  0.00     0.188 C 
ENDROOT
BRANCH   1   2
ATOM      2  N   UNL d   1      26.143 -16.625   0.199  0.00  0.00    -0.343 N 
ATOM      3  C   UNL d   1      25.678 -17.915  -0.087  0.00  0.00     0.252 C 
ATOM      4  O   UNL d   1      26.354 -18.928  -0.142  0.00  0.00    -0.268 OA
ATOM      5  H   UNL d   1      25.594 -15.863  -0.174  0.00  0.00     0.163 HD
BRANCH   3   6
ATOM      6  C   UNL d   1      24.247 -18.007  -0.386  0.00  0.00     0.032 A 
ATOM      7  C   UNL d   1      23.643 -19.262  -0.525  0.00  0.00     0.020 A 
ATOM      8  C   UNL d   1      22.279 -19.325  -0.809  0.00  0.00     0.043 A 
ATOM      9  C   UNL d   1      21.544 -18.146  -0.894  0.00  0.00     0.116 A 
ATOM     10  F   UNL d   1      20.219 -18.207  -1.071  0.00  0.00    -0.206 F 
ATOM     11  C   UNL d   1      22.156 -16.899  -0.781  0.00  0.00     0.043 A 
ATOM     12  C   UNL d   1      23.522 -16.826  -0.546  0.00  0.00     0.020 A 
ENDBRANCH   3   6
ENDBRANCH   1   2
BRANCH   1  13
ATOM     13  C   UNL d   1      28.526 -17.199  -0.666  0.00  0.00     0.072 C 
BRANCH  13  14
ATOM     14  C   UNL d   1      28.627 -16.561  -2.061  0.00  0.00    -0.048 A 
ATOM     15  C   UNL d   1      27.665 -15.922  -2.756  0.00  0.00    -0.006 A 
ATOM     16  C   UNL d   1      26.297 -15.564  -2.523  0.00  0.00     0.014 C 
ATOM     17  C   UNL d   1      28.267 -15.578  -4.061  0.00  0.00     0.038 A 
ATOM     18  C   UNL d   1      25.526 -15.100  -3.498  0.00  0.00     0.001 C 
ATOM     19  C   UNL d   1      26.093 -14.731  -4.760  0.00  0.00     0.002 C 
ATOM     20  C   UNL d   1      27.390 -14.928  -5.070  0.00  0.00     0.030 C 
ATOM     21  N   UNL d   1      29.501 -15.905  -4.126  0.00  0.00    -0.385 N 
ATOM     22  C   UNL d   1      29.918 -16.604  -2.877  0.00  0.00     0.155 A 
ATOM     23  H   UNL d   1      30.077 -15.687  -4.940  0.00  0.00     0.160 HD
ENDBRANCH  13  14
ENDBRANCH   1  13
BRANCH   1  24
ATOM     24  C   UNL d   1      28.000 -14.996   0.675  0.00  0.00     0.282 C 
ATOM     25  O   UNL d   1      29.019 -14.639   1.222  0.00  0.00    -0.263 OA
BRANCH  24  26
ATOM     26  O   UNL d   1      27.013 -14.146   0.341  0.00  0.00    -0.310 OA
BRANCH  26  27
ATOM     27  C   UNL d   1      27.382 -13.112  -0.579  0.00  0.00     0.281 C 
BRANCH  27  28
ATOM     28  C   UNL d   1      27.391 -11.892   0.319  0.00  0.00     0.246 C 
ATOM     29  N   UNL d   1      27.479 -12.199   1.664  0.00  0.00    -0.323 N 
ATOM     30  H   UNL d   1      27.577 -13.176   1.860  0.00  0.00     0.169 HD
ATOM     31  O   UNL d   1      27.332 -10.769  -0.180  0.00  0.00    -0.271 OA
BRANCH  29  32
ATOM     32  C   UNL d   1      27.509 -11.284   2.752  0.00  0.00     0.071 A 
ATOM     33  C   UNL d   1      28.025 -11.579   4.030  0.00  0.00     0.095 A 
ATOM     34  C   UNL d   1      28.087 -10.538   4.989  0.00  0.00     0.042 A 
ATOM     35  C   UNL d   1      27.574  -9.258   4.730  0.00  0.00     0.039 A 
ATOM     36  C   UNL d   1      27.043  -8.978   3.486  0.00  0.00     0.070 A 
ATOM     37  C   UNL d   1      27.030  -9.984   2.533  0.00  0.00     0.069 A 
BRANCH  33  38
ATOM     38  O   UNL d   1      28.499 -12.765   4.532  0.00  0.00    -0.354 OA
ATOM     39  C   UNL d   1      27.586 -13.738   5.005  0.00  0.00     0.210 C 
ENDBRANCH  33  38
BRANCH  36  40
ATOM     40  O   UNL d   1      26.657  -7.693   3.213  0.00  0.00    -0.356 OA
ATOM     41  C   UNL d   1      26.310  -7.426   1.852  0.00  0.00     0.210 C 
ENDBRANCH  36  40
ENDBRANCH  29  32
ENDBRANCH  27  28
ENDBRANCH  26  27
ENDBRANCH  24  26
ENDBRANCH   1  24
TORSDOF 11
ENDMDL
MODEL 7
REMARK VINA RESULT:    -7.698      3.816      5.114
REMARK INTER + INTRA:         -16.349
REMARK INTER:                 -10.980
REMARK INTRA:                  -5.369
REMARK CONF_INDEPENDENT:        3.281
REMARK UNBOUND:                -5.369
REMARK  11 active torsions:
REMARK  status: ('A' for Active; 'I' for Inactive)
REMARK    1  A    between atoms: O_2  and  C_3 
REMARK    2  A    between atoms: C_6  and  O_7 
REMARK    3  A    between atoms: C_9  and  N_10 
REMARK       I    between atoms: N_10  and  C_11 
REMARK    4  A    between atoms: C_11  and  C_13 
REMARK    5  A    between atoms: C_13  and  O_14 
REMARK    6  A    between atoms: O_14  and  C_15 
REMARK    7  A    between atoms: C_17  and  C_15 
REMARK    8  A    between atoms: C_17  and  N_28 
REMARK    9  A    between atoms: C_17  and  C_18 
REMARK   10  A    between atoms: C_18  and  C_19 
REMARK       I    between atoms: N_28  and  C_29 
REMARK   11  A    between atoms: C_29  and  C_31 
ROOT
ATOM      1  C   UNL d   1      29.243 -14.682  -4.812  0.00  0.00     0.188 C 
ENDROOT
BRANCH   1   2
ATOM      2  N   UNL d   1      28.749 -14.793  -3.454  0.00  0.00    -0.343 N 
ATOM      3  C   UNL d   1      28.581 -13.605  -2.730  0.00  0.00     0.252 C 
ATOM      4  O   UNL d   1      28.712 -12.473  -3.165  0.00  0.00    -0.268 OA
ATOM      5  H   UNL d   1      29.007 -15.608  -2.915  0.00  0.00     0.163 HD
BRANCH   3   6
ATOM      6  C   UNL d   1      28.263 -13.782  -1.311  0.00  0.00     0.032 A 
ATOM      7  C   UNL d   1      26.957 -13.565  -0.858  0.00  0.00     0.020 A 
ATOM      8  C   UNL d   1      26.677 -13.740   0.497  0.00  0.00     0.043 A 
ATOM      9  C   UNL d   1      27.685 -14.177   1.352  0.00  0.00     0.116 A 
ATOM     10  F   UNL d   1      27.397 -14.438   2.632  0.00  0.00    -0.206 F 
ATOM     11  C   UNL d   1      28.989 -14.367   0.899  0.00  0.00     0.043 A 
ATOM     12  C   UNL d   1      29.288 -14.147  -0.438  0.00  0.00     0.020 A 
ENDBRANCH   3   6
ENDBRANCH   1   2
BRANCH   1  13
ATOM     13  C   UNL d   1      30.618 -15.332  -5.178  0.00  0.00     0.072 C 
BRANCH  13  14
ATOM     14  C   UNL d   1      30.623 -16.869  -5.147  0.00  0.00    -0.048 A 
ATOM     15  C   UNL d   1      30.853 -17.720  -6.167  0.00  0.00    -0.006 A 
ATOM     16  C   UNL d   1      31.188 -17.594  -7.554  0.00  0.00     0.014 C 
ATOM     17  C   UNL d   1      30.662 -19.077  -5.613  0.00  0.00     0.038 A 
ATOM     18  C   UNL d   1      31.155 -18.637  -8.373  0.00  0.00     0.001 C 
ATOM     19  C   UNL d   1      31.002 -19.963  -7.856  0.00  0.00     0.002 C 
ATOM     20  C   UNL d   1      30.777 -20.223  -6.552  0.00  0.00     0.030 C 
ATOM     21  N   UNL d   1      30.416 -19.058  -4.358  0.00  0.00    -0.385 N 
ATOM     22  C   UNL d   1      30.327 -17.652  -3.870  0.00  0.00     0.155 A 
ATOM     23  H   UNL d   1      30.313 -19.915  -3.813  0.00  0.00     0.160 HD
ENDBRANCH  13  14
ENDBRANCH   1  13
BRANCH   1  24
ATOM     24  C   UNL d   1      28.140 -14.808  -5.895  0.00  0.00     0.282 C 
ATOM     25  O   UNL d   1      28.194 -14.442  -7.047  0.00  0.00    -0.263 OA
BRANCH  24  26
ATOM     26  O   UNL d   1      27.033 -15.340  -5.348  0.00  0.00    -0.310 OA
BRANCH  26  27
ATOM     27  C   UNL d   1      26.002 -14.401  -5.020  0.00  0.00     0.281 C 
BRANCH  27  28
ATOM     28  C   UNL d   1      25.519 -14.931  -3.686  0.00  0.00     0.246 C 
ATOM     29  N   UNL d   1      26.303 -15.951  -3.182  0.00  0.00    -0.323 N 
ATOM     30  H   UNL d   1      27.110 -16.166  -3.735  0.00  0.00     0.169 HD
ATOM     31  O   UNL d   1      24.521 -14.439  -3.162  0.00  0.00    -0.271 OA
BRANCH  29  32
ATOM     32  C   UNL d   1      26.115 -16.653  -1.958  0.00  0.00     0.071 A 
ATOM     33  C   UNL d   1      27.153 -17.011  -1.076  0.00  0.00     0.095 A 
ATOM     34  C   UNL d   1      26.811 -17.616   0.158  0.00  0.00     0.042 A 
ATOM     35  C   UNL d   1      25.485 -17.943   0.481  0.00  0.00     0.039 A 
ATOM     36  C   UNL d   1      24.471 -17.617  -0.397  0.00  0.00     0.070 A 
ATOM     37  C   UNL d   1      24.804 -16.979  -1.582  0.00  0.00     0.069 A 
BRANCH  33  38
ATOM     38  O   UNL d   1      28.512 -16.870  -1.215  0.00  0.00    -0.354 OA
ATOM     39  C   UNL d   1      29.381 -17.746  -0.520  0.00  0.00     0.210 C 
ENDBRANCH  33  38
BRANCH  36  40
ATOM     40  O   UNL d   1      23.175 -17.836  -0.013  0.00  0.00    -0.356 OA
ATOM     41  C   UNL d   1      22.488 -18.876  -0.714  0.00  0.00     0.210 C 
ENDBRANCH  36  40
ENDBRANCH  29  32
ENDBRANCH  27  28
ENDBRANCH  26  27
ENDBRANCH  24  26
ENDBRANCH   1  24
TORSDOF 11
ENDMDL
MODEL 8
REMARK VINA RESULT:    -7.150      3.303      7.684
REMARK INTER + INTRA:         -15.903
REMARK INTER:                 -10.432
REMARK INTRA:                  -5.471
REMARK CONF_INDEPENDENT:        3.281
REMARK UNBOUND:                -5.471
REMARK  11 active torsions:
REMARK  status: ('A' for Active; 'I' for Inactive)
REMARK    1  A    between atoms: O_2  and  C_3 
REMARK    2  A    between atoms: C_6  and  O_7 
REMARK    3  A    between atoms: C_9  and  N_10 
REMARK       I    between atoms: N_10  and  C_11 
REMARK    4  A    between atoms: C_11  and  C_13 
REMARK    5  A    between atoms: C_13  and  O_14 
REMARK    6  A    between atoms: O_14  and  C_15 
REMARK    7  A    between atoms: C_17  and  C_15 
REMARK    8  A    between atoms: C_17  and  N_28 
REMARK    9  A    between atoms: C_17  and  C_18 
REMARK   10  A    between atoms: C_18  and  C_19 
REMARK       I    between atoms: N_28  and  C_29 
REMARK   11  A    between atoms: C_29  and  C_31 
ROOT
ATOM      1  C   UNL d   1      28.629 -16.793  -0.114  0.00  0.00     0.188 C 
ENDROOT
BRANCH   1   2
ATOM      2  N   UNL d   1      28.381 -15.840   0.949  0.00  0.00    -0.343 N 
ATOM      3  C   UNL d   1      27.906 -14.574   0.582  0.00  0.00     0.252 C 
ATOM      4  O   UNL d   1      27.581 -14.225  -0.541  0.00  0.00    -0.268 OA
ATOM      5  H   UNL d   1      28.971 -15.871   1.768  0.00  0.00     0.163 HD
BRANCH   3   6
ATOM      6  C   UNL d   1      27.852 -13.592   1.668  0.00  0.00     0.032 A 
ATOM      7  C   UNL d   1      28.566 -13.820   2.849  0.00  0.00     0.020 A 
ATOM      8  C   UNL d   1      28.500 -12.871   3.869  0.00  0.00     0.043 A 
ATOM      9  C   UNL d   1      27.772 -11.702   3.668  0.00  0.00     0.116 A 
ATOM     10  F   UNL d   1      27.786 -10.748   4.606  0.00  0.00    -0.206 F 
ATOM     11  C   UNL d   1      27.042 -11.493   2.500  0.00  0.00     0.043 A 
ATOM     12  C   UNL d   1      27.063 -12.454   1.499  0.00  0.00     0.020 A 
ENDBRANCH   3   6
ENDBRANCH   1   2
BRANCH   1  13
ATOM     13  C   UNL d   1      27.508 -17.813  -0.500  0.00  0.00     0.072 C 
BRANCH  13  14
ATOM     14  C   UNL d   1      26.172 -17.168  -0.903  0.00  0.00    -0.048 A 
ATOM     15  C   UNL d   1      24.937 -17.462  -0.450  0.00  0.00    -0.006 A 
ATOM     16  C   UNL d   1      24.384 -18.368   0.512  0.00  0.00     0.014 C 
ATOM     17  C   UNL d   1      24.009 -16.604  -1.218  0.00  0.00     0.038 A 
ATOM     18  C   UNL d   1      23.077 -18.575   0.598  0.00  0.00     0.001 C 
ATOM     19  C   UNL d   1      22.160 -17.736  -0.111  0.00  0.00     0.002 C 
ATOM     20  C   UNL d   1      22.554 -16.780  -0.976  0.00  0.00     0.030 C 
ATOM     21  N   UNL d   1      24.626 -15.807  -2.005  0.00  0.00    -0.385 N 
ATOM     22  C   UNL d   1      26.095 -16.058  -1.949  0.00  0.00     0.155 A 
ATOM     23  H   UNL d   1      24.134 -15.111  -2.566  0.00  0.00     0.160 HD
ENDBRANCH  13  14
ENDBRANCH   1  13
BRANCH   1  24
ATOM     24  C   UNL d   1      29.436 -16.213  -1.305  0.00  0.00     0.282 C 
ATOM     25  O   UNL d   1      30.281 -15.348  -1.270  0.00  0.00    -0.263 OA
BRANCH  24  26
ATOM     26  O   UNL d   1      29.007 -16.771  -2.451  0.00  0.00    -0.310 OA
BRANCH  26  27
ATOM     27  C   UNL d   1      29.731 -16.387  -3.625  0.00  0.00     0.281 C 
BRANCH  27  28
ATOM     28  C   UNL d   1      28.797 -15.366  -4.240  0.00  0.00     0.246 C 
ATOM     29  N   UNL d   1      28.227 -14.513  -3.315  0.00  0.00    -0.323 N 
ATOM     30  H   UNL d   1      28.546 -14.648  -2.375  0.00  0.00     0.169 HD
ATOM     31  O   UNL d   1      28.622 -15.358  -5.458  0.00  0.00    -0.271 OA
BRANCH  29  32
ATOM     32  C   UNL d   1      27.313 -13.454  -3.573  0.00  0.00     0.071 A 
ATOM     33  C   UNL d   1      25.985 -13.633  -4.007  0.00  0.00     0.095 A 
ATOM     34  C   UNL d   1      25.153 -12.493  -4.124  0.00  0.00     0.042 A 
ATOM     35  C   UNL d   1      25.639 -11.195  -3.903  0.00  0.00     0.039 A 
ATOM     36  C   UNL d   1      26.949 -11.018  -3.504  0.00  0.00     0.070 A 
ATOM     37  C   UNL d   1      27.746 -12.140  -3.342  0.00  0.00     0.069 A 
BRANCH  33  38
ATOM     38  O   UNL d   1      25.325 -14.784  -4.359  0.00  0.00    -0.354 OA
ATOM     39  C   UNL d   1      25.843 -15.598  -5.395  0.00  0.00     0.210 C 
ENDBRANCH  33  38
BRANCH  36  40
ATOM     40  O   UNL d   1      27.370  -9.756  -3.180  0.00  0.00    -0.356 OA
ATOM     41  C   UNL d   1      26.875  -9.236  -1.943  0.00  0.00     0.210 C 
ENDBRANCH  36  40
ENDBRANCH  29  32
ENDBRANCH  27  28
ENDBRANCH  26  27
ENDBRANCH  24  26
ENDBRANCH   1  24
TORSDOF 11
ENDMDL
MODEL 9
REMARK VINA RESULT:    -7.094      3.617      6.431
REMARK INTER + INTRA:         -15.682
REMARK INTER:                 -10.375
REMARK INTRA:                  -5.307
REMARK CONF_INDEPENDENT:        3.281
REMARK UNBOUND:                -5.307
REMARK  11 active torsions:
REMARK  status: ('A' for Active; 'I' for Inactive)
REMARK    1  A    between atoms: O_2  and  C_3 
REMARK    2  A    between atoms: C_6  and  O_7 
REMARK    3  A    between atoms: C_9  and  N_10 
REMARK       I    between atoms: N_10  and  C_11 
REMARK    4  A    between atoms: C_11  and  C_13 
REMARK    5  A    between atoms: C_13  and  O_14 
REMARK    6  A    between atoms: O_14  and  C_15 
REMARK    7  A    between atoms: C_17  and  C_15 
REMARK    8  A    between atoms: C_17  and  N_28 
REMARK    9  A    between atoms: C_17  and  C_18 
REMARK   10  A    between atoms: C_18  and  C_19 
REMARK       I    between atoms: N_28  and  C_29 
REMARK   11  A    between atoms: C_29  and  C_31 
ROOT
ATOM      1  C   UNL d   1      27.534 -12.971  -2.065  0.00  0.00     0.188 C 
ENDROOT
BRANCH   1   2
ATOM      2  N   UNL d   1      28.044 -14.144  -2.745  0.00  0.00    -0.343 N 
ATOM      3  C   UNL d   1      29.152 -13.972  -3.585  0.00  0.00     0.252 C 
ATOM      4  O   UNL d   1      29.797 -12.947  -3.722  0.00  0.00    -0.268 OA
ATOM      5  H   UNL d   1      27.388 -14.862  -3.019  0.00  0.00     0.163 HD
BRANCH   3   6
ATOM      6  C   UNL d   1      29.508 -15.142  -4.390  0.00  0.00     0.032 A 
ATOM      7  C   UNL d   1      29.680 -15.010  -5.773  0.00  0.00     0.020 A 
ATOM      8  C   UNL d   1      30.020 -16.138  -6.519  0.00  0.00     0.043 A 
ATOM      9  C   UNL d   1      30.232 -17.350  -5.868  0.00  0.00     0.116 A 
ATOM     10  F   UNL d   1      30.651 -18.410  -6.568  0.00  0.00    -0.206 F 
ATOM     11  C   UNL d   1      30.034 -17.481  -4.495  0.00  0.00     0.043 A 
ATOM     12  C   UNL d   1      29.648 -16.374  -3.752  0.00  0.00     0.020 A 
ENDBRANCH   3   6
ENDBRANCH   1   2
BRANCH   1  13
ATOM     13  C   UNL d   1      28.410 -12.287  -0.964  0.00  0.00     0.072 C 
BRANCH  13  14
ATOM     14  C   UNL d   1      28.791 -13.207   0.207  0.00  0.00    -0.048 A 
ATOM     15  C   UNL d   1      28.255 -13.245   1.444  0.00  0.00    -0.006 A 
ATOM     16  C   UNL d   1      27.201 -12.557   2.127  0.00  0.00     0.014 C 
ATOM     17  C   UNL d   1      29.036 -14.252   2.194  0.00  0.00     0.038 A 
ATOM     18  C   UNL d   1      27.032 -12.674   3.438  0.00  0.00     0.001 C 
ATOM     19  C   UNL d   1      27.754 -13.662   4.178  0.00  0.00     0.002 C 
ATOM     20  C   UNL d   1      28.708 -14.443   3.630  0.00  0.00     0.030 C 
ATOM     21  N   UNL d   1      29.912 -14.829   1.462  0.00  0.00    -0.385 N 
ATOM     22  C   UNL d   1      29.912 -14.238   0.092  0.00  0.00     0.155 A 
ATOM     23  H   UNL d   1      30.497 -15.587   1.814  0.00  0.00     0.160 HD
ENDBRANCH  13  14
ENDBRANCH   1  13
BRANCH   1  24
ATOM     24  C   UNL d   1      26.748 -12.000  -2.985  0.00  0.00     0.282 C 
ATOM     25  O   UNL d   1      27.133 -10.950  -3.447  0.00  0.00    -0.263 OA
BRANCH  24  26
ATOM     26  O   UNL d   1      25.497 -12.461  -3.157  0.00  0.00    -0.310 OA
BRANCH  26  27
ATOM     27  C   UNL d   1      25.295 -13.254  -4.333  0.00  0.00     0.281 C 
BRANCH  27  28
ATOM     28  C   UNL d   1      25.379 -14.659  -3.772  0.00  0.00     0.246 C 
ATOM     29  N   UNL d   1      24.925 -14.760  -2.471  0.00  0.00    -0.323 N 
ATOM     30  H   UNL d   1      24.555 -13.910  -2.093  0.00  0.00     0.169 HD
ATOM     31  O   UNL d   1      25.813 -15.569  -4.476  0.00  0.00    -0.271 OA
BRANCH  29  32
ATOM     32  C   UNL d   1      24.874 -15.935  -1.669  0.00  0.00     0.071 A 
ATOM     33  C   UNL d   1      26.005 -16.644  -1.219  0.00  0.00     0.095 A 
ATOM     34  C   UNL d   1      25.810 -17.737  -0.340  0.00  0.00     0.042 A 
ATOM     35  C   UNL d   1      24.528 -18.179   0.021  0.00  0.00     0.039 A 
ATOM     36  C   UNL d   1      23.419 -17.500  -0.443  0.00  0.00     0.070 A 
ATOM     37  C   UNL d   1      23.615 -16.400  -1.263  0.00  0.00     0.069 A 
BRANCH  33  38
ATOM     38  O   UNL d   1      27.334 -16.450  -1.505  0.00  0.00    -0.354 OA
ATOM     39  C   UNL d   1      28.320 -17.039  -0.678  0.00  0.00     0.210 C 
ENDBRANCH  33  38
BRANCH  36  40
ATOM     40  O   UNL d   1      22.184 -17.873   0.014  0.00  0.00    -0.356 OA
ATOM     41  C   UNL d   1      21.768 -19.197  -0.332  0.00  0.00     0.210 C 
ENDBRANCH  36  40
ENDBRANCH  29  32
ENDBRANCH  27  28
ENDBRANCH  26  27
ENDBRANCH  24  26
ENDBRANCH   1  24
TORSDOF 11
ENDMDL
