MODEL 1
REMARK VINA RESULT:    -8.958      0.000      0.000
REMARK INTER + INTRA:         -14.160
REMARK INTER:                 -11.046
REMARK INTRA:                  -3.114
REMARK CONF_INDEPENDENT:        2.088
REMARK UNBOUND:                -3.114
REMARK  7 active torsions:
REMARK  status: ('A' for Active; 'I' for Inactive)
REMARK    1  A    between atoms: C_7  and  C_8 
REMARK    2  A    between atoms: C_8  and  C_9 
REMARK    3  A    between atoms: C_8  and  N_16 
REMARK       I    between atoms: C_9  and  N_11 
REMARK    4  A    between atoms: N_11  and  C_12 
REMARK       I    between atoms: N_16  and  C_17 
REMARK    5  A    between atoms: N_16  and  C_28 
REMARK    6  A    between atoms: C_17  and  C_19 
REMARK    7  A    between atoms: C_23  and  N_24 
ROOT
ATOM      1  N   UNL d   1      27.760 -15.769  -1.040  0.00  0.00    -0.296 N 
ATOM      2  C   UNL d   1      29.126 -16.193  -1.107  0.00  0.00     0.259 C 
ATOM      3  O   UNL d   1      29.644 -16.534  -0.026  0.00  0.00    -0.267 OA
ENDROOT
BRANCH   1   4
ATOM      4  C   UNL d   1      26.626 -16.326  -1.873  0.00  0.00     0.219 C 
BRANCH   4   5
ATOM      5  C   UNL d   1      25.374 -16.810  -1.095  0.00  0.00    -0.020 C 
ATOM      6  C   UNL d   1      24.149 -16.141  -1.413  0.00  0.00     0.010 C 
ATOM      7  C   UNL d   1      22.938 -16.528  -0.857  0.00  0.00     0.001 C 
ATOM      8  C   UNL d   1      22.899 -17.672  -0.088  0.00  0.00     0.001 C 
ATOM      9  C   UNL d   1      24.075 -18.328   0.252  0.00  0.00     0.007 C 
ATOM     10  C   UNL d   1      25.339 -17.840  -0.104  0.00  0.00    -0.053 C 
ATOM     11  C   UNL d   1      26.492 -18.534   0.624  0.00  0.00     0.049 C 
ENDBRANCH   4   5
BRANCH   4  12
ATOM     12  C   UNL d   1      26.031 -15.475  -3.021  0.00  0.00     0.246 C 
ATOM     13  O   UNL d   1      25.530 -16.040  -4.023  0.00  0.00    -0.271 OA
ATOM     14  N   UNL d   1      26.139 -14.092  -2.964  0.00  0.00    -0.351 N 
ATOM     15  H   UNL d   1      26.683 -13.631  -2.247  0.00  0.00     0.163 HD
BRANCH  14  16
ATOM     16  C   UNL d   1      25.573 -13.228  -4.001  0.00  0.00     0.022 C 
ATOM     17  C   UNL d   1      26.422 -13.264  -5.282  0.00  0.00     0.037 C 
ATOM     18  C   UNL d   1      24.142 -13.698  -4.270  0.00  0.00     0.037 C 
ATOM     19  C   UNL d   1      25.530 -11.768  -3.518  0.00  0.00     0.037 C 
ENDBRANCH  14  16
ENDBRANCH   4  12
ENDBRANCH   1   4
BRANCH   1  20
ATOM     20  C   UNL d   1      27.519 -14.975   0.159  0.00  0.00     0.040 A 
ATOM     21  C   UNL d   1      27.026 -13.671  -0.071  0.00  0.00     0.030 A 
ATOM     22  C   UNL d   1      26.947 -12.715   0.921  0.00  0.00     0.004 A 
ATOM     23  C   UNL d   1      27.226 -13.086   2.223  0.00  0.00     0.024 A 
ATOM     24  C   UNL d   1      27.691 -14.366   2.494  0.00  0.00     0.036 A 
ATOM     25 CL   UNL d   1      28.154 -14.806   4.094  0.00  0.00    -0.084 Cl
ATOM     26  C   UNL d   1      27.812 -15.310   1.477  0.00  0.00     0.053 A 
ENDBRANCH   1  20
BRANCH   2  27
ATOM     27  C   UNL d   1      29.947 -16.368  -2.510  0.00  0.00     0.035 A 
ATOM     28  C   UNL d   1      31.029 -17.347  -2.750  0.00  0.00     0.017 A 
ATOM     29  C   UNL d   1      31.460 -17.759  -4.033  0.00  0.00     0.003 A 
ATOM     30  C   UNL d   1      30.892 -17.132  -5.127  0.00  0.00     0.036 A 
ATOM     31  C   UNL d   1      29.844 -16.199  -4.920  0.00  0.00     0.103 A 
ATOM     32  C   UNL d   1      29.373 -15.825  -3.646  0.00  0.00     0.053 A 
BRANCH  31  33
ATOM     33  N   UNL d   1      29.187 -15.595  -6.078  0.00  0.00    -0.116 N 
ATOM     34  O   UNL d   1      27.963 -15.575  -6.102  0.00  0.00    -0.532 OA
ATOM     35  O   UNL d   1      29.926 -15.170  -6.997  0.00  0.00    -0.532 OA
ENDBRANCH  31  33
ENDBRANCH   2  27
TORSDOF 7
ENDMDL
MODEL 2
REMARK VINA RESULT:    -8.859      1.537      3.884
REMARK INTER + INTRA:         -13.780
REMARK INTER:                 -10.947
REMARK INTRA:                  -2.833
REMARK CONF_INDEPENDENT:        2.088
REMARK UNBOUND:                -2.833
REMARK  7 active torsions:
REMARK  status: ('A' for Active; 'I' for Inactive)
REMARK    1  A    between atoms: C_7  and  C_8 
REMARK    2  A    between atoms: C_8  and  C_9 
REMARK    3  A    between atoms: C_8  and  N_16 
REMARK       I    between atoms: C_9  and  N_11 
REMARK    4  A    between atoms: N_11  and  C_12 
REMARK       I    between atoms: N_16  and  C_17 
REMARK    5  A    between atoms: N_16  and  C_28 
REMARK    6  A    between atoms: C_17  and  C_19 
REMARK    7  A    between atoms: C_23  and  N_24 
ROOT
ATOM      1  N   UNL d   1      27.358 -14.179   0.180  0.00  0.00    -0.296 N 
ATOM      2  C   UNL d   1      27.475 -13.055  -0.700  0.00  0.00     0.259 C 
ATOM      3  O   UNL d   1      28.321 -12.197  -0.377  0.00  0.00    -0.267 OA
ENDROOT
BRANCH   1   4
ATOM      4  C   UNL d   1      27.454 -15.632  -0.235  0.00  0.00     0.219 C 
BRANCH   4   5
ATOM      5  C   UNL d   1      26.113 -16.403  -0.355  0.00  0.00    -0.020 C 
ATOM      6  C   UNL d   1      25.058 -15.711  -1.031  0.00  0.00     0.010 C 
ATOM      7  C   UNL d   1      23.833 -16.312  -1.285  0.00  0.00     0.001 C 
ATOM      8  C   UNL d   1      23.683 -17.653  -1.000  0.00  0.00     0.001 C 
ATOM      9  C   UNL d   1      24.684 -18.342  -0.326  0.00  0.00     0.007 C 
ATOM     10  C   UNL d   1      25.842 -17.714   0.147  0.00  0.00    -0.053 C 
ATOM     11  C   UNL d   1      26.655 -18.575   1.117  0.00  0.00     0.049 C 
ENDBRANCH   4   5
BRANCH   4  12
ATOM     12  C   UNL d   1      28.204 -16.008  -1.535  0.00  0.00     0.246 C 
ATOM     13  O   UNL d   1      27.631 -16.703  -2.409  0.00  0.00    -0.271 OA
ATOM     14  N   UNL d   1      29.536 -15.643  -1.678  0.00  0.00    -0.351 N 
ATOM     15  H   UNL d   1      30.057 -15.228  -0.917  0.00  0.00     0.163 HD
BRANCH  14  16
ATOM     16  C   UNL d   1      30.295 -15.941  -2.893  0.00  0.00     0.022 C 
ATOM     17  C   UNL d   1      29.649 -15.288  -4.127  0.00  0.00     0.037 C 
ATOM     18  C   UNL d   1      31.725 -15.440  -2.686  0.00  0.00     0.037 C 
ATOM     19  C   UNL d   1      30.334 -17.459  -3.143  0.00  0.00     0.037 C 
ENDBRANCH  14  16
ENDBRANCH   4  12
ENDBRANCH   1   4
BRANCH   1  20
ATOM     20  C   UNL d   1      27.471 -13.765   1.573  0.00  0.00     0.040 A 
ATOM     21  C   UNL d   1      26.928 -12.495   1.870  0.00  0.00     0.030 A 
ATOM     22  C   UNL d   1      27.135 -11.855   3.075  0.00  0.00     0.004 A 
ATOM     23  C   UNL d   1      27.780 -12.541   4.087  0.00  0.00     0.024 A 
ATOM     24  C   UNL d   1      28.308 -13.802   3.842  0.00  0.00     0.036 A 
ATOM     25 CL   UNL d   1      29.216 -14.619   5.057  0.00  0.00    -0.084 Cl
ATOM     26  C   UNL d   1      28.134 -14.420   2.605  0.00  0.00     0.053 A 
ENDBRANCH   1  20
BRANCH   2  27
ATOM     27  C   UNL d   1      26.674 -12.934  -2.119  0.00  0.00     0.035 A 
ATOM     28  C   UNL d   1      26.237 -11.668  -2.749  0.00  0.00     0.017 A 
ATOM     29  C   UNL d   1      25.905 -11.532  -4.117  0.00  0.00     0.003 A 
ATOM     30  C   UNL d   1      25.901 -12.681  -4.888  0.00  0.00     0.036 A 
ATOM     31  C   UNL d   1      26.329 -13.902  -4.308  0.00  0.00     0.103 A 
ATOM     32  C   UNL d   1      26.714 -14.033  -2.959  0.00  0.00     0.053 A 
BRANCH  31  33
ATOM     33  N   UNL d   1      26.404 -15.101  -5.142  0.00  0.00    -0.116 N 
ATOM     34  O   UNL d   1      25.530 -15.949  -5.013  0.00  0.00    -0.532 OA
ATOM     35  O   UNL d   1      27.389 -15.201  -5.911  0.00  0.00    -0.532 OA
ENDBRANCH  31  33
ENDBRANCH   2  27
TORSDOF 7
ENDMDL
MODEL 3
REMARK VINA RESULT:    -8.155      1.951      4.059
REMARK INTER + INTRA:         -13.693
REMARK INTER:                 -10.243
REMARK INTRA:                  -3.449
REMARK CONF_INDEPENDENT:        2.088
REMARK UNBOUND:                -3.449
REMARK  7 active torsions:
REMARK  status: ('A' for Active; 'I' for Inactive)
REMARK    1  A    between atoms: C_7  and  C_8 
REMARK    2  A    between atoms: C_8  and  C_9 
REMARK    3  A    between atoms: C_8  and  N_16 
REMARK       I    between atoms: C_9  and  N_11 
REMARK    4  A    between atoms: N_11  and  C_12 
REMARK       I    between atoms: N_16  and  C_17 
REMARK    5  A    between atoms: N_16  and  C_28 
REMARK    6  A    between atoms: C_17  and  C_19 
REMARK    7  A    between atoms: C_23  and  N_24 
ROOT
ATOM      1  N   UNL d   1      27.957 -14.315   0.150  0.00  0.00    -0.296 N 
ATOM      2  C   UNL d   1      28.616 -13.556  -0.869  0.00  0.00     0.259 C 
ATOM      3  O   UNL d   1      29.406 -12.678  -0.470  0.00  0.00    -0.267 OA
ENDROOT
BRANCH   1   4
ATOM      4  C   UNL d   1      27.941 -15.826   0.249  0.00  0.00     0.219 C 
BRANCH   4   5
ATOM      5  C   UNL d   1      26.590 -16.522  -0.063  0.00  0.00    -0.020 C 
ATOM      6  C   UNL d   1      25.577 -15.683  -0.629  0.00  0.00     0.010 C 
ATOM      7  C   UNL d   1      24.351 -16.190  -1.036  0.00  0.00     0.001 C 
ATOM      8  C   UNL d   1      24.162 -17.556  -1.021  0.00  0.00     0.001 C 
ATOM      9  C   UNL d   1      25.121 -18.389  -0.459  0.00  0.00     0.007 C 
ATOM     10  C   UNL d   1      26.273 -17.897   0.166  0.00  0.00    -0.053 C 
ATOM     11  C   UNL d   1      27.029 -18.950   0.980  0.00  0.00     0.049 C 
ENDBRANCH   4   5
BRANCH   4  12
ATOM     12  C   UNL d   1      28.969 -16.655  -0.558  0.00  0.00     0.246 C 
ATOM     13  O   UNL d   1      28.656 -17.117  -1.682  0.00  0.00    -0.271 OA
ATOM     14  N   UNL d   1      30.199 -16.951   0.015  0.00  0.00    -0.351 N 
ATOM     15  H   UNL d   1      30.402 -16.728   0.980  0.00  0.00     0.163 HD
BRANCH  14  16
ATOM     16  C   UNL d   1      31.227 -17.705  -0.704  0.00  0.00     0.022 C 
ATOM     17  C   UNL d   1      31.486 -17.105  -2.096  0.00  0.00     0.037 C 
ATOM     18  C   UNL d   1      32.496 -17.696   0.149  0.00  0.00     0.037 C 
ATOM     19  C   UNL d   1      30.779 -19.163  -0.908  0.00  0.00     0.037 C 
ENDBRANCH  14  16
ENDBRANCH   4  12
ENDBRANCH   1   4
BRANCH   1  20
ATOM     20  C   UNL d   1      27.584 -13.465   1.274  0.00  0.00     0.040 A 
ATOM     21  C   UNL d   1      27.030 -12.213   0.925  0.00  0.00     0.030 A 
ATOM     22  C   UNL d   1      26.822 -11.204   1.843  0.00  0.00     0.004 A 
ATOM     23  C   UNL d   1      27.030 -11.473   3.182  0.00  0.00     0.024 A 
ATOM     24  C   UNL d   1      27.551 -12.701   3.569  0.00  0.00     0.036 A 
ATOM     25 CL   UNL d   1      27.926 -13.008   5.223  0.00  0.00    -0.084 Cl
ATOM     26  C   UNL d   1      27.802 -13.697   2.628  0.00  0.00     0.053 A 
ENDBRANCH   1  20
BRANCH   2  27
ATOM     27  C   UNL d   1      28.478 -13.880  -2.465  0.00  0.00     0.035 A 
ATOM     28  C   UNL d   1      29.594 -14.250  -3.363  0.00  0.00     0.017 A 
ATOM     29  C   UNL d   1      29.432 -14.894  -4.612  0.00  0.00     0.003 A 
ATOM     30  C   UNL d   1      28.140 -15.102  -5.058  0.00  0.00     0.036 A 
ATOM     31  C   UNL d   1      27.055 -14.767  -4.208  0.00  0.00     0.103 A 
ATOM     32  C   UNL d   1      27.211 -14.175  -2.939  0.00  0.00     0.053 A 
BRANCH  31  33
ATOM     33  N   UNL d   1      25.690 -15.060  -4.643  0.00  0.00    -0.116 N 
ATOM     34  O   UNL d   1      24.771 -14.449  -4.113  0.00  0.00    -0.532 OA
ATOM     35  O   UNL d   1      25.547 -15.956  -5.509  0.00  0.00    -0.532 OA
ENDBRANCH  31  33
ENDBRANCH   2  27
TORSDOF 7
ENDMDL
MODEL 4
REMARK VINA RESULT:    -8.041      3.879      7.034
REMARK INTER + INTRA:         -13.646
REMARK INTER:                 -10.129
REMARK INTRA:                  -3.517
REMARK CONF_INDEPENDENT:        2.088
REMARK UNBOUND:                -3.517
REMARK  7 active torsions:
REMARK  status: ('A' for Active; 'I' for Inactive)
REMARK    1  A    between atoms: C_7  and  C_8 
REMARK    2  A    between atoms: C_8  and  C_9 
REMARK    3  A    between atoms: C_8  and  N_16 
REMARK       I    between atoms: C_9  and  N_11 
REMARK    4  A    between atoms: N_11  and  C_12 
REMARK       I    between atoms: N_16  and  C_17 
REMARK    5  A    between atoms: N_16  and  C_28 
REMARK    6  A    between atoms: C_17  and  C_19 
REMARK    7  A    between atoms: C_23  and  N_24 
ROOT
ATOM      1  N   UNL d   1      26.902 -13.244  -1.341  0.00  0.00    -0.296 N 
ATOM      2  C   UNL d   1      27.123 -11.831  -1.397  0.00  0.00     0.259 C 
ATOM      3  O   UNL d   1      26.651 -11.245  -2.391  0.00  0.00    -0.267 OA
ENDROOT
BRANCH   1   4
ATOM      4  C   UNL d   1      26.282 -13.990  -0.179  0.00  0.00     0.219 C 
BRANCH   4   5
ATOM      5  C   UNL d   1      26.335 -15.539  -0.249  0.00  0.00    -0.020 C 
ATOM      6  C   UNL d   1      27.593 -16.132   0.088  0.00  0.00     0.010 C 
ATOM      7  C   UNL d   1      27.761 -17.508   0.150  0.00  0.00     0.001 C 
ATOM      8  C   UNL d   1      26.650 -18.316   0.020  0.00  0.00     0.001 C 
ATOM      9  C   UNL d   1      25.422 -17.767  -0.327  0.00  0.00     0.007 C 
ATOM     10  C   UNL d   1      25.261 -16.407  -0.619  0.00  0.00    -0.053 C 
ATOM     11  C   UNL d   1      23.917 -16.074  -1.270  0.00  0.00     0.049 C 
ENDBRANCH   4   5
BRANCH   4  12
ATOM     12  C   UNL d   1      26.745 -13.677   1.265  0.00  0.00     0.246 C 
ATOM     13  O   UNL d   1      25.905 -13.325   2.128  0.00  0.00    -0.271 OA
ATOM     14  N   UNL d   1      28.100 -13.707   1.562  0.00  0.00    -0.351 N 
ATOM     15  H   UNL d   1      28.799 -13.827   0.841  0.00  0.00     0.163 HD
BRANCH  14  16
ATOM     16  C   UNL d   1      28.603 -13.451   2.912  0.00  0.00     0.022 C 
ATOM     17  C   UNL d   1      28.017 -14.450   3.923  0.00  0.00     0.037 C 
ATOM     18  C   UNL d   1      30.130 -13.538   2.867  0.00  0.00     0.037 C 
ATOM     19  C   UNL d   1      28.203 -12.039   3.375  0.00  0.00     0.037 C 
ENDBRANCH  14  16
ENDBRANCH   4  12
ENDBRANCH   1   4
BRANCH   1  20
ATOM     20  C   UNL d   1      27.032 -13.845  -2.663  0.00  0.00     0.040 A 
ATOM     21  C   UNL d   1      25.839 -13.905  -3.417  0.00  0.00     0.030 A 
ATOM     22  C   UNL d   1      25.728 -14.627  -4.587  0.00  0.00     0.004 A 
ATOM     23  C   UNL d   1      26.867 -15.200  -5.123  0.00  0.00     0.024 A 
ATOM     24  C   UNL d   1      28.066 -15.142  -4.423  0.00  0.00     0.036 A 
ATOM     25 CL   UNL d   1      29.464 -15.952  -5.020  0.00  0.00    -0.084 Cl
ATOM     26  C   UNL d   1      28.155 -14.449  -3.217  0.00  0.00     0.053 A 
ENDBRANCH   1  20
BRANCH   2  27
ATOM     27  C   UNL d   1      27.821 -10.979  -0.189  0.00  0.00     0.035 A 
ATOM     28  C   UNL d   1      29.257 -10.629  -0.108  0.00  0.00     0.017 A 
ATOM     29  C   UNL d   1      29.780  -9.594   0.701  0.00  0.00     0.003 A 
ATOM     30  C   UNL d   1      28.899  -8.932   1.538  0.00  0.00     0.036 A 
ATOM     31  C   UNL d   1      27.517  -9.243   1.466  0.00  0.00     0.103 A 
ATOM     32  C   UNL d   1      26.982 -10.236   0.622  0.00  0.00     0.053 A 
BRANCH  31  33
ATOM     33  N   UNL d   1      26.572  -8.489   2.291  0.00  0.00    -0.116 N 
ATOM     34  O   UNL d   1      26.831  -8.343   3.479  0.00  0.00    -0.532 OA
ATOM     35  O   UNL d   1      25.530  -8.073   1.730  0.00  0.00    -0.532 OA
ENDBRANCH  31  33
ENDBRANCH   2  27
TORSDOF 7
ENDMDL
MODEL 5
REMARK VINA RESULT:    -7.846      4.278      7.978
REMARK INTER + INTRA:         -12.934
REMARK INTER:                  -9.934
REMARK INTRA:                  -3.000
REMARK CONF_INDEPENDENT:        2.088
REMARK UNBOUND:                -3.000
REMARK  7 active torsions:
REMARK  status: ('A' for Active; 'I' for Inactive)
REMARK    1  A    between atoms: C_7  and  C_8 
REMARK    2  A    between atoms: C_8  and  C_9 
REMARK    3  A    between atoms: C_8  and  N_16 
REMARK       I    between atoms: C_9  and  N_11 
REMARK    4  A    between atoms: N_11  and  C_12 
REMARK       I    between atoms: N_16  and  C_17 
REMARK    5  A    between atoms: N_16  and  C_28 
REMARK    6  A    between atoms: C_17  and  C_19 
REMARK    7  A    between atoms: C_23  and  N_24 
ROOT
ATOM      1  N   UNL d   1      28.531 -13.646   1.073  0.00  0.00    -0.296 N 
ATOM      2  C   UNL d   1      27.387 -12.843   0.760  0.00  0.00     0.259 C 
ATOM      3  O   UNL d   1      26.282 -13.412   0.852  0.00  0.00    -0.267 OA
ENDROOT
BRANCH   1   4
ATOM      4  C   UNL d   1      29.606 -13.288   2.078  0.00  0.00     0.219 C 
BRANCH   4   5
ATOM      5  C   UNL d   1      29.289 -13.597   3.564  0.00  0.00    -0.020 C 
ATOM      6  C   UNL d   1      28.133 -14.409   3.796  0.00  0.00     0.010 C 
ATOM      7  C   UNL d   1      27.780 -14.834   5.069  0.00  0.00     0.001 C 
ATOM      8  C   UNL d   1      28.644 -14.581   6.114  0.00  0.00     0.001 C 
ATOM      9  C   UNL d   1      29.761 -13.779   5.920  0.00  0.00     0.007 C 
ATOM     10  C   UNL d   1      30.030 -13.146   4.700  0.00  0.00    -0.053 C 
ATOM     11  C   UNL d   1      31.122 -12.077   4.791  0.00  0.00     0.049 C 
ENDBRANCH   4   5
BRANCH   4  12
ATOM     12  C   UNL d   1      31.040 -13.840   1.892  0.00  0.00     0.246 C 
ATOM     13  O   UNL d   1      31.960 -13.075   1.514  0.00  0.00    -0.271 OA
ATOM     14  N   UNL d   1      31.269 -15.199   2.060  0.00  0.00    -0.351 N 
ATOM     15  H   UNL d   1      30.509 -15.852   2.202  0.00  0.00     0.163 HD
BRANCH  14  16
ATOM     16  C   UNL d   1      32.605 -15.781   1.929  0.00  0.00     0.022 C 
ATOM     17  C   UNL d   1      33.626 -15.035   2.803  0.00  0.00     0.037 C 
ATOM     18  C   UNL d   1      32.512 -17.257   2.321  0.00  0.00     0.037 C 
ATOM     19  C   UNL d   1      33.091 -15.687   0.472  0.00  0.00     0.037 C 
ENDBRANCH  14  16
ENDBRANCH   4  12
ENDBRANCH   1   4
BRANCH   1  20
ATOM     20  C   UNL d   1      28.371 -15.002   0.565  0.00  0.00     0.040 A 
ATOM     21  C   UNL d   1      29.254 -15.362  -0.477  0.00  0.00     0.030 A 
ATOM     22  C   UNL d   1      29.106 -16.517  -1.219  0.00  0.00     0.004 A 
ATOM     23  C   UNL d   1      28.141 -17.430  -0.838  0.00  0.00     0.024 A 
ATOM     24  C   UNL d   1      27.268 -17.123   0.198  0.00  0.00     0.036 A 
ATOM     25 CL   UNL d   1      25.986 -18.200   0.606  0.00  0.00    -0.084 Cl
ATOM     26  C   UNL d   1      27.397 -15.933   0.910  0.00  0.00     0.053 A 
ENDBRANCH   1  20
BRANCH   2  27
ATOM     27  C   UNL d   1      27.470 -11.244   0.434  0.00  0.00     0.035 A 
ATOM     28  C   UNL d   1      27.728 -10.654  -0.898  0.00  0.00     0.017 A 
ATOM     29  C   UNL d   1      27.421  -9.320  -1.251  0.00  0.00     0.003 A 
ATOM     30  C   UNL d   1      26.936  -8.492  -0.255  0.00  0.00     0.036 A 
ATOM     31  C   UNL d   1      26.668  -9.040   1.026  0.00  0.00     0.103 A 
ATOM     32  C   UNL d   1      26.921 -10.383   1.369  0.00  0.00     0.053 A 
BRANCH  31  33
ATOM     33  N   UNL d   1      26.079  -8.188   2.058  0.00  0.00    -0.116 N 
ATOM     34  O   UNL d   1      26.281  -8.478   3.231  0.00  0.00    -0.532 OA
ATOM     35  O   UNL d   1      25.364  -7.233   1.671  0.00  0.00    -0.532 OA
ENDBRANCH  31  33
ENDBRANCH   2  27
TORSDOF 7
ENDMDL
MODEL 6
REMARK VINA RESULT:    -7.818      3.346      6.357
REMARK INTER + INTRA:         -12.989
REMARK INTER:                  -9.906
REMARK INTRA:                  -3.082
REMARK CONF_INDEPENDENT:        2.088
REMARK UNBOUND:                -3.082
REMARK  7 active torsions:
REMARK  status: ('A' for Active; 'I' for Inactive)
REMARK    1  A    between atoms: C_7  and  C_8 
REMARK    2  A    between atoms: C_8  and  C_9 
REMARK    3  A    between atoms: C_8  and  N_16 
REMARK       I    between atoms: C_9  and  N_11 
REMARK    4  A    between atoms: N_11  and  C_12 
REMARK       I    between atoms: N_16  and  C_17 
REMARK    5  A    between atoms: N_16  and  C_28 
REMARK    6  A    between atoms: C_17  and  C_19 
REMARK    7  A    between atoms: C_23  and  N_24 
ROOT
ATOM      1  N   UNL d   1      27.489 -14.506  -0.269  0.00  0.00    -0.296 N 
ATOM      2  C   UNL d   1      27.505 -13.665   0.890  0.00  0.00     0.259 C 
ATOM      3  O   UNL d   1      27.548 -14.253   1.988  0.00  0.00    -0.267 OA
ENDROOT
BRANCH   1   4
ATOM      4  C   UNL d   1      28.447 -14.409  -1.437  0.00  0.00     0.219 C 
BRANCH   4   5
ATOM      5  C   UNL d   1      29.390 -15.621  -1.655  0.00  0.00    -0.020 C 
ATOM      6  C   UNL d   1      29.148 -16.391  -2.838  0.00  0.00     0.010 C 
ATOM      7  C   UNL d   1      29.967 -17.449  -3.203  0.00  0.00     0.001 C 
ATOM      8  C   UNL d   1      31.120 -17.674  -2.480  0.00  0.00     0.001 C 
ATOM      9  C   UNL d   1      31.368 -16.956  -1.317  0.00  0.00     0.007 C 
ATOM     10  C   UNL d   1      30.454 -16.033  -0.793  0.00  0.00    -0.053 C 
ATOM     11  C   UNL d   1      30.779 -15.591   0.636  0.00  0.00     0.049 C 
ENDBRANCH   4   5
BRANCH   4  12
ATOM     12  C   UNL d   1      27.897 -14.120  -2.854  0.00  0.00     0.246 C 
ATOM     13  O   UNL d   1      28.686 -13.812  -3.780  0.00  0.00    -0.271 OA
ATOM     14  N   UNL d   1      26.524 -14.119  -3.061  0.00  0.00    -0.351 N 
ATOM     15  H   UNL d   1      25.872 -14.202  -2.292  0.00  0.00     0.163 HD
BRANCH  14  16
ATOM     16  C   UNL d   1      25.940 -13.882  -4.381  0.00  0.00     0.022 C 
ATOM     17  C   UNL d   1      26.509 -12.605  -5.022  0.00  0.00     0.037 C 
ATOM     18  C   UNL d   1      26.226 -15.111  -5.246  0.00  0.00     0.037 C 
ATOM     19  C   UNL d   1      24.416 -13.701  -4.270  0.00  0.00     0.037 C 
ENDBRANCH  14  16
ENDBRANCH   4  12
ENDBRANCH   1   4
BRANCH   1  20
ATOM     20  C   UNL d   1      26.660 -15.684  -0.047  0.00  0.00     0.040 A 
ATOM     21  C   UNL d   1      27.321 -16.785   0.542  0.00  0.00     0.030 A 
ATOM     22  C   UNL d   1      26.756 -18.041   0.625  0.00  0.00     0.004 A 
ATOM     23  C   UNL d   1      25.436 -18.200   0.248  0.00  0.00     0.024 A 
ATOM     24  C   UNL d   1      24.742 -17.135  -0.313  0.00  0.00     0.036 A 
ATOM     25 CL   UNL d   1      23.135 -17.350  -0.895  0.00  0.00    -0.084 Cl
ATOM     26  C   UNL d   1      25.339 -15.882  -0.436  0.00  0.00     0.053 A 
ENDBRANCH   1  20
BRANCH   2  27
ATOM     27  C   UNL d   1      27.604 -12.035   0.819  0.00  0.00     0.035 A 
ATOM     28  C   UNL d   1      28.011 -11.253  -0.369  0.00  0.00     0.017 A 
ATOM     29  C   UNL d   1      27.729  -9.880  -0.553  0.00  0.00     0.003 A 
ATOM     30  C   UNL d   1      27.117  -9.209   0.491  0.00  0.00     0.036 A 
ATOM     31  C   UNL d   1      26.706  -9.942   1.633  0.00  0.00     0.103 A 
ATOM     32  C   UNL d   1      26.935 -11.323   1.799  0.00  0.00     0.053 A 
BRANCH  31  33
ATOM     33  N   UNL d   1      25.986  -9.253   2.703  0.00  0.00    -0.116 N 
ATOM     34  O   UNL d   1      24.772  -9.404   2.773  0.00  0.00    -0.532 OA
ATOM     35  O   UNL d   1      26.659  -8.513   3.460  0.00  0.00    -0.532 OA
ENDBRANCH  31  33
ENDBRANCH   2  27
TORSDOF 7
ENDMDL
MODEL 7
REMARK VINA RESULT:    -7.730      2.550      4.821
REMARK INTER + INTRA:         -13.078
REMARK INTER:                  -9.818
REMARK INTRA:                  -3.260
REMARK CONF_INDEPENDENT:        2.088
REMARK UNBOUND:                -3.260
REMARK  7 active torsions:
REMARK  status: ('A' for Active; 'I' for Inactive)
REMARK    1  A    between atoms: C_7  and  C_8 
REMARK    2  A    between atoms: C_8  and  C_9 
REMARK    3  A    between atoms: C_8  and  N_16 
REMARK       I    between atoms: C_9  and  N_11 
REMARK    4  A    between atoms: N_11  and  C_12 
REMARK       I    between atoms: N_16  and  C_17 
REMARK    5  A    between atoms: N_16  and  C_28 
REMARK    6  A    between atoms: C_17  and  C_19 
REMARK    7  A    between atoms: C_23  and  N_24 
ROOT
ATOM      1  N   UNL d   1      29.502 -15.299  -0.746  0.00  0.00    -0.296 N 
ATOM      2  C   UNL d   1      29.802 -15.844  -2.035  0.00  0.00     0.259 C 
ATOM      3  O   UNL d   1      30.459 -16.904  -2.039  0.00  0.00    -0.267 OA
ENDROOT
BRANCH   1   4
ATOM      4  C   UNL d   1      28.120 -14.932  -0.248  0.00  0.00     0.219 C 
BRANCH   4   5
ATOM      5  C   UNL d   1      27.092 -16.089  -0.158  0.00  0.00    -0.020 C 
ATOM      6  C   UNL d   1      27.504 -17.228   0.605  0.00  0.00     0.010 C 
ATOM      7  C   UNL d   1      26.654 -18.299   0.841  0.00  0.00     0.001 C 
ATOM      8  C   UNL d   1      25.337 -18.196   0.446  0.00  0.00     0.001 C 
ATOM      9  C   UNL d   1      24.915 -17.112  -0.313  0.00  0.00     0.007 C 
ATOM     10  C   UNL d   1      25.796 -16.121  -0.762  0.00  0.00    -0.053 C 
ATOM     11  C   UNL d   1      25.194 -15.199  -1.826  0.00  0.00     0.049 C 
ENDBRANCH   4   5
BRANCH   4  12
ATOM     12  C   UNL d   1      27.966 -14.205   1.110  0.00  0.00     0.246 C 
ATOM     13  O   UNL d   1      27.372 -13.100   1.163  0.00  0.00    -0.271 OA
ATOM     14  N   UNL d   1      28.567 -14.744   2.239  0.00  0.00    -0.351 N 
ATOM     15  H   UNL d   1      29.185 -15.542   2.181  0.00  0.00     0.163 HD
BRANCH  14  16
ATOM     16  C   UNL d   1      28.435 -14.123   3.558  0.00  0.00     0.022 C 
ATOM     17  C   UNL d   1      28.829 -15.103   4.676  0.00  0.00     0.037 C 
ATOM     18  C   UNL d   1      29.319 -12.875   3.577  0.00  0.00     0.037 C 
ATOM     19  C   UNL d   1      26.977 -13.700   3.809  0.00  0.00     0.037 C 
ENDBRANCH  14  16
ENDBRANCH   4  12
ENDBRANCH   1   4
BRANCH   1  20
ATOM     20  C   UNL d   1      30.634 -15.449   0.159  0.00  0.00     0.040 A 
ATOM     21  C   UNL d   1      31.338 -14.259   0.447  0.00  0.00     0.030 A 
ATOM     22  C   UNL d   1      32.551 -14.246   1.104  0.00  0.00     0.004 A 
ATOM     23  C   UNL d   1      33.033 -15.430   1.629  0.00  0.00     0.024 A 
ATOM     24  C   UNL d   1      32.358 -16.620   1.388  0.00  0.00     0.036 A 
ATOM     25 CL   UNL d   1      33.008 -18.119   1.935  0.00  0.00    -0.084 Cl
ATOM     26  C   UNL d   1      31.156 -16.627   0.683  0.00  0.00     0.053 A 
ENDBRANCH   1  20
BRANCH   2  27
ATOM     27  C   UNL d   1      29.219 -15.228  -3.433  0.00  0.00     0.035 A 
ATOM     28  C   UNL d   1      30.034 -14.870  -4.615  0.00  0.00     0.017 A 
ATOM     29  C   UNL d   1      29.515 -14.712  -5.921  0.00  0.00     0.003 A 
ATOM     30  C   UNL d   1      28.144 -14.809  -6.078  0.00  0.00     0.036 A 
ATOM     31  C   UNL d   1      27.346 -15.164  -4.961  0.00  0.00     0.103 A 
ATOM     32  C   UNL d   1      27.864 -15.376  -3.668  0.00  0.00     0.053 A 
BRANCH  31  33
ATOM     33  N   UNL d   1      25.906 -15.347  -5.141  0.00  0.00    -0.116 N 
ATOM     34  O   UNL d   1      25.522 -16.325  -5.770  0.00  0.00    -0.532 OA
ATOM     35  O   UNL d   1      25.155 -14.459  -4.672  0.00  0.00    -0.532 OA
ENDBRANCH  31  33
ENDBRANCH   2  27
TORSDOF 7
ENDMDL
MODEL 8
REMARK VINA RESULT:    -7.474      2.351      4.447
REMARK INTER + INTRA:         -12.875
REMARK INTER:                  -9.562
REMARK INTRA:                  -3.313
REMARK CONF_INDEPENDENT:        2.088
REMARK UNBOUND:                -3.313
REMARK  7 active torsions:
REMARK  status: ('A' for Active; 'I' for Inactive)
REMARK    1  A    between atoms: C_7  and  C_8 
REMARK    2  A    between atoms: C_8  and  C_9 
REMARK    3  A    between atoms: C_8  and  N_16 
REMARK       I    between atoms: C_9  and  N_11 
REMARK    4  A    between atoms: N_11  and  C_12 
REMARK       I    between atoms: N_16  and  C_17 
REMARK    5  A    between atoms: N_16  and  C_28 
REMARK    6  A    between atoms: C_17  and  C_19 
REMARK    7  A    between atoms: C_23  and  N_24 
ROOT
ATOM      1  N   UNL d   1      26.085 -15.117  -1.834  0.00  0.00    -0.296 N 
ATOM      2  C   UNL d   1      26.260 -15.385  -3.229  0.00  0.00     0.259 C 
ATOM      3  O   UNL d   1      25.295 -15.926  -3.804  0.00  0.00    -0.267 OA
ENDROOT
BRANCH   1   4
ATOM      4  C   UNL d   1      26.281 -13.772  -1.167  0.00  0.00     0.219 C 
BRANCH   4   5
ATOM      5  C   UNL d   1      27.040 -13.779   0.186  0.00  0.00    -0.020 C 
ATOM      6  C   UNL d   1      26.518 -12.907   1.194  0.00  0.00     0.010 C 
ATOM      7  C   UNL d   1      27.044 -12.873   2.477  0.00  0.00     0.001 C 
ATOM      8  C   UNL d   1      28.002 -13.804   2.824  0.00  0.00     0.001 C 
ATOM      9  C   UNL d   1      28.539 -14.647   1.860  0.00  0.00     0.007 C 
ATOM     10  C   UNL d   1      28.195 -14.559   0.506  0.00  0.00    -0.053 C 
ATOM     11  C   UNL d   1      29.118 -15.358  -0.417  0.00  0.00     0.049 C 
ENDBRANCH   4   5
BRANCH   4  12
ATOM     12  C   UNL d   1      26.953 -12.620  -1.952  0.00  0.00     0.246 C 
ATOM     13  O   UNL d   1      28.134 -12.289  -1.687  0.00  0.00    -0.271 OA
ATOM     14  N   UNL d   1      26.206 -11.909  -2.882  0.00  0.00    -0.351 N 
ATOM     15  H   UNL d   1      25.212 -12.056  -2.988  0.00  0.00     0.163 HD
BRANCH  14  16
ATOM     16  C   UNL d   1      26.789 -10.829  -3.679  0.00  0.00     0.022 C 
ATOM     17  C   UNL d   1      25.918 -10.511  -4.906  0.00  0.00     0.037 C 
ATOM     18  C   UNL d   1      26.936  -9.606  -2.772  0.00  0.00     0.037 C 
ATOM     19  C   UNL d   1      28.181 -11.232  -4.194  0.00  0.00     0.037 C 
ENDBRANCH  14  16
ENDBRANCH   4  12
ENDBRANCH   1   4
BRANCH   1  20
ATOM     20  C   UNL d   1      25.372 -16.207  -1.179  0.00  0.00     0.040 A 
ATOM     21  C   UNL d   1      26.187 -17.131  -0.488  0.00  0.00     0.030 A 
ATOM     22  C   UNL d   1      25.711 -18.330   0.002  0.00  0.00     0.004 A 
ATOM     23  C   UNL d   1      24.352 -18.577  -0.058  0.00  0.00     0.024 A 
ATOM     24  C   UNL d   1      23.513 -17.681  -0.709  0.00  0.00     0.036 A 
ATOM     25 CL   UNL d   1      21.837 -18.033  -0.895  0.00  0.00    -0.084 Cl
ATOM     26  C   UNL d   1      24.013 -16.495  -1.242  0.00  0.00     0.053 A 
ENDBRANCH   1  20
BRANCH   2  27
ATOM     27  C   UNL d   1      27.567 -14.903  -4.084  0.00  0.00     0.035 A 
ATOM     28  C   UNL d   1      28.901 -15.540  -4.039  0.00  0.00     0.017 A 
ATOM     29  C   UNL d   1      29.894 -15.381  -5.033  0.00  0.00     0.003 A 
ATOM     30  C   UNL d   1      29.628 -14.497  -6.063  0.00  0.00     0.036 A 
ATOM     31  C   UNL d   1      28.350 -13.885  -6.133  0.00  0.00     0.103 A 
ATOM     32  C   UNL d   1      27.337 -14.082  -5.174  0.00  0.00     0.053 A 
BRANCH  31  33
ATOM     33  N   UNL d   1      28.037 -13.013  -7.264  0.00  0.00    -0.116 N 
ATOM     34  O   UNL d   1      27.280 -12.069  -7.074  0.00  0.00    -0.532 OA
ATOM     35  O   UNL d   1      28.536 -13.317  -8.375  0.00  0.00    -0.532 OA
ENDBRANCH  31  33
ENDBRANCH   2  27
TORSDOF 7
ENDMDL
MODEL 9
REMARK VINA RESULT:    -7.403      2.867      6.867
REMARK INTER + INTRA:         -12.925
REMARK INTER:                  -9.491
REMARK INTRA:                  -3.434
REMARK CONF_INDEPENDENT:        2.088
REMARK UNBOUND:                -3.434
REMARK  7 active torsions:
REMARK  status: ('A' for Active; 'I' for Inactive)
REMARK    1  A    between atoms: C_7  and  C_8 
REMARK    2  A    between atoms: C_8  and  C_9 
REMARK    3  A    between atoms: C_8  and  N_16 
REMARK       I    between atoms: C_9  and  N_11 
REMARK    4  A    between atoms: N_11  and  C_12 
REMARK       I    between atoms: N_16  and  C_17 
REMARK    5  A    between atoms: N_16  and  C_28 
REMARK    6  A    between atoms: C_17  and  C_19 
REMARK    7  A    between atoms: C_23  and  N_24 
ROOT
ATOM      1  N   UNL d   1      26.453 -14.378  -3.312  0.00  0.00    -0.296 N 
ATOM      2  C   UNL d   1      25.250 -14.964  -2.803  0.00  0.00     0.259 C 
ATOM      3  O   UNL d   1      24.184 -14.472  -3.223  0.00  0.00    -0.267 OA
ENDROOT
BRANCH   1   4
ATOM      4  C   UNL d   1      27.584 -15.134  -3.976  0.00  0.00     0.219 C 
BRANCH   4   5
ATOM      5  C   UNL d   1      28.427 -14.341  -5.010  0.00  0.00    -0.020 C 
ATOM      6  C   UNL d   1      28.279 -14.749  -6.374  0.00  0.00     0.010 C 
ATOM      7  C   UNL d   1      28.906 -14.075  -7.412  0.00  0.00     0.001 C 
ATOM      8  C   UNL d   1      29.574 -12.902  -7.130  0.00  0.00     0.001 C 
ATOM      9  C   UNL d   1      29.750 -12.495  -5.814  0.00  0.00     0.007 C 
ATOM     10  C   UNL d   1      29.326 -13.266  -4.725  0.00  0.00    -0.053 C 
ATOM     11  C   UNL d   1      29.885 -12.793  -3.381  0.00  0.00     0.049 C 
ENDBRANCH   4   5
BRANCH   4  12
ATOM     12  C   UNL d   1      28.652 -15.835  -3.101  0.00  0.00     0.246 C 
ATOM     13  O   UNL d   1      29.281 -16.822  -3.554  0.00  0.00    -0.271 OA
ATOM     14  N   UNL d   1      28.836 -15.414  -1.791  0.00  0.00    -0.351 N 
ATOM     15  H   UNL d   1      28.225 -14.733  -1.361  0.00  0.00     0.163 HD
BRANCH  14  16
ATOM     16  C   UNL d   1      29.848 -16.014  -0.920  0.00  0.00     0.022 C 
ATOM     17  C   UNL d   1      29.611 -17.524  -0.749  0.00  0.00     0.037 C 
ATOM     18  C   UNL d   1      31.220 -15.734  -1.537  0.00  0.00     0.037 C 
ATOM     19  C   UNL d   1      29.796 -15.378   0.480  0.00  0.00     0.037 C 
ENDBRANCH  14  16
ENDBRANCH   4  12
ENDBRANCH   1   4
BRANCH   1  20
ATOM     20  C   UNL d   1      26.320 -12.931  -3.425  0.00  0.00     0.040 A 
ATOM     21  C   UNL d   1      25.880 -12.462  -4.683  0.00  0.00     0.030 A 
ATOM     22  C   UNL d   1      25.905 -11.128  -5.035  0.00  0.00     0.004 A 
ATOM     23  C   UNL d   1      26.239 -10.194  -4.073  0.00  0.00     0.024 A 
ATOM     24  C   UNL d   1      26.655 -10.614  -2.815  0.00  0.00     0.036 A 
ATOM     25 CL   UNL d   1      27.187  -9.468  -1.644  0.00  0.00    -0.084 Cl
ATOM     26  C   UNL d   1      26.671 -11.968  -2.485  0.00  0.00     0.053 A 
ENDBRANCH   1  20
BRANCH   2  27
ATOM     27  C   UNL d   1      25.228 -16.285  -1.840  0.00  0.00     0.035 A 
ATOM     28  C   UNL d   1      26.245 -16.616  -0.818  0.00  0.00     0.017 A 
ATOM     29  C   UNL d   1      26.036 -17.517   0.252  0.00  0.00     0.003 A 
ATOM     30  C   UNL d   1      24.833 -18.200   0.283  0.00  0.00     0.036 A 
ATOM     31  C   UNL d   1      23.839 -17.889  -0.680  0.00  0.00     0.103 A 
ATOM     32  C   UNL d   1      24.022 -16.952  -1.716  0.00  0.00     0.053 A 
BRANCH  31  33
ATOM     33  N   UNL d   1      22.537 -18.550  -0.600  0.00  0.00    -0.116 N 
ATOM     34  O   UNL d   1      22.054 -19.001  -1.632  0.00  0.00    -0.532 OA
ATOM     35  O   UNL d   1      21.976 -18.575   0.521  0.00  0.00    -0.532 OA
ENDBRANCH  31  33
ENDBRANCH   2  27
TORSDOF 7
ENDMDL
