MODEL 1
REMARK VINA RESULT:    -8.045      0.000      0.000
REMARK INTER + INTRA:         -11.928
REMARK INTER:                 -10.431
REMARK INTRA:                  -1.497
REMARK CONF_INDEPENDENT:        2.386
REMARK UNBOUND:                -1.497
REMARK  8 active torsions:
REMARK  status: ('A' for Active; 'I' for Inactive)
REMARK    1  A    between atoms: C_2  and  N_3 
REMARK    2  A    between atoms: N_3  and  C_4 
REMARK    3  A    between atoms: N_3  and  C_6 
REMARK    4  A    between atoms: C_9  and  N_10 
REMARK    5  A    between atoms: C_16  and  N_17 
REMARK       I    between atoms: N_17  and  C_18 
REMARK    6  A    between atoms: C_20  and  C_18 
REMARK    7  A    between atoms: C_20  and  C_23 
REMARK    8  A    between atoms: C_20  and  O_21 
ROOT
ATOM      1  N   UNL d   1      28.263 -13.172   3.668  0.00  0.00    -0.149 N 
ATOM      2  N   UNL d   1      28.118 -14.432   3.392  0.00  0.00    -0.147 NA
ATOM      3  C   UNL d   1      27.982 -14.550   2.112  0.00  0.00     0.110 A 
ATOM      4  C   UNL d   1      27.780 -15.781   1.546  0.00  0.00     0.045 A 
ATOM      5  C   UNL d   1      27.663 -15.847   0.172  0.00  0.00    -0.033 A 
ATOM      6  C   UNL d   1      27.458 -17.271  -0.224  0.00  0.00     0.050 C 
ATOM      7  C   UNL d   1      27.753 -14.691  -0.660  0.00  0.00     0.043 A 
ATOM      8  C   UNL d   1      27.954 -13.343  -0.019  0.00  0.00     0.066 A 
ATOM      9  C   UNL d   1      28.079 -13.287   1.461  0.00  0.00     0.111 A 
ATOM     10  N   UNL d   1      28.268 -12.358   2.504  0.00  0.00    -0.147 NA
ENDROOT
BRANCH   7  11
ATOM     11  N   UNL d   1      27.585 -14.836  -2.118  0.00  0.00    -0.324 N 
ATOM     12  C   UNL d   1      26.483 -15.355  -2.836  0.00  0.00     0.255 C 
ATOM     13  O   UNL d   1      25.556 -16.038  -2.360  0.00  0.00    -0.270 OA
ATOM     14  H   UNL d   1      28.401 -14.576  -2.657  0.00  0.00     0.169 HD
BRANCH  12  15
ATOM     15  C   UNL d   1      26.258 -15.195  -4.348  0.00  0.00     0.246 C 
BRANCH  15  16
ATOM     16  C   UNL d   1      27.413 -14.744  -5.181  0.00  0.00    -0.020 C 
ATOM     17  C   UNL d   1      27.390 -13.475  -5.771  0.00  0.00     0.013 C 
ATOM     18  C   UNL d   1      28.394 -13.121  -6.654  0.00  0.00     0.043 C 
ATOM     19  C   UNL d   1      29.450 -14.000  -6.876  0.00  0.00     0.116 C 
ATOM     20  F   UNL d   1      30.416 -13.656  -7.732  0.00  0.00    -0.206 F 
ATOM     21  C   UNL d   1      29.536 -15.217  -6.221  0.00  0.00     0.043 C 
ATOM     22  C   UNL d   1      28.528 -15.575  -5.351  0.00  0.00     0.013 C 
ENDBRANCH  15  16
BRANCH  15  23
ATOM     23  O   UNL d   1      25.047 -14.455  -4.656  0.00  0.00    -0.377 OA
ATOM     24  C   UNL d   1      24.780 -13.325  -3.825  0.00  0.00     0.203 C 
ENDBRANCH  15  23
ENDBRANCH  12  15
ENDBRANCH   7  11
BRANCH   1  25
ATOM     25  C   UNL d   1      28.385 -12.991   5.144  0.00  0.00     0.085 A 
ATOM     26  C   UNL d   1      28.718 -13.999   6.065  0.00  0.00     0.036 A 
ATOM     27  C   UNL d   1      28.815 -13.725   7.496  0.00  0.00     0.039 A 
ATOM     28  C   UNL d   1      28.597 -12.446   8.050  0.00  0.00     0.135 A 
ATOM     29  C   UNL d   1      28.258 -11.450   7.149  0.00  0.00     0.046 A 
ATOM     30  C   UNL d   1      28.144 -11.674   5.736  0.00  0.00    -0.029 A 
ATOM     31  C   UNL d   1      27.780 -10.356   5.043  0.00  0.00     0.050 C 
BRANCH  28  32
ATOM     32  N   UNL d   1      28.817 -12.006   9.519  0.00  0.00    -0.042 N 
ATOM     33  H   UNL d   1      28.437 -11.051   9.500  0.00  0.00     0.286 HD
BRANCH  32  34
ATOM     34  C   UNL d   1      30.275 -11.698   9.832  0.00  0.00     0.237 C 
ATOM     35  C   UNL d   1      31.151 -12.886  10.195  0.00  0.00     0.035 C 
ENDBRANCH  32  34
BRANCH  32  36
ATOM     36  C   UNL d   1      27.811 -12.679  10.477  0.00  0.00     0.237 C 
ATOM     37  C   UNL d   1      28.040 -14.160  10.747  0.00  0.00     0.035 C 
ENDBRANCH  32  36
ENDBRANCH  28  32
ENDBRANCH   1  25
TORSDOF 8
ENDMDL
MODEL 2
REMARK VINA RESULT:    -7.977      1.817      2.946
REMARK INTER + INTRA:         -11.304
REMARK INTER:                 -10.363
REMARK INTRA:                  -0.941
REMARK CONF_INDEPENDENT:        2.386
REMARK UNBOUND:                -0.941
REMARK  8 active torsions:
REMARK  status: ('A' for Active; 'I' for Inactive)
REMARK    1  A    between atoms: C_2  and  N_3 
REMARK    2  A    between atoms: N_3  and  C_4 
REMARK    3  A    between atoms: N_3  and  C_6 
REMARK    4  A    between atoms: C_9  and  N_10 
REMARK    5  A    between atoms: C_16  and  N_17 
REMARK       I    between atoms: N_17  and  C_18 
REMARK    6  A    between atoms: C_20  and  C_18 
REMARK    7  A    between atoms: C_20  and  C_23 
REMARK    8  A    between atoms: C_20  and  O_21 
ROOT
ATOM      1  N   UNL d   1      28.439 -13.753   5.553  0.00  0.00    -0.149 N 
ATOM      2  N   UNL d   1      28.133 -12.741   4.799  0.00  0.00    -0.147 NA
ATOM      3  C   UNL d   1      27.915 -13.183   3.604  0.00  0.00     0.110 A 
ATOM      4  C   UNL d   1      27.601 -12.315   2.591  0.00  0.00     0.045 A 
ATOM      5  C   UNL d   1      27.357 -12.847   1.340  0.00  0.00    -0.033 A 
ATOM      6  C   UNL d   1      27.029 -11.734   0.401  0.00  0.00     0.050 C 
ATOM      7  C   UNL d   1      27.413 -14.249   1.080  0.00  0.00     0.043 A 
ATOM      8  C   UNL d   1      27.781 -15.186   2.201  0.00  0.00     0.066 A 
ATOM      9  C   UNL d   1      28.041 -14.600   3.541  0.00  0.00     0.111 A 
ATOM     10  N   UNL d   1      28.393 -14.987   4.851  0.00  0.00    -0.147 NA
ENDROOT
BRANCH   7  11
ATOM     11  N   UNL d   1      27.173 -14.741  -0.290  0.00  0.00    -0.324 N 
ATOM     12  C   UNL d   1      26.724 -16.014  -0.709  0.00  0.00     0.255 C 
ATOM     13  O   UNL d   1      26.704 -17.048  -0.014  0.00  0.00    -0.270 OA
ATOM     14  H   UNL d   1      27.425 -14.082  -1.016  0.00  0.00     0.169 HD
BRANCH  12  15
ATOM     15  C   UNL d   1      26.212 -16.351  -2.119  0.00  0.00     0.246 C 
BRANCH  15  16
ATOM     16  C   UNL d   1      26.216 -15.262  -3.140  0.00  0.00    -0.020 C 
ATOM     17  C   UNL d   1      27.343 -15.072  -3.949  0.00  0.00     0.013 C 
ATOM     18  C   UNL d   1      27.395 -13.975  -4.790  0.00  0.00     0.043 C 
ATOM     19  C   UNL d   1      26.294 -13.128  -4.878  0.00  0.00     0.116 C 
ATOM     20  F   UNL d   1      26.350 -12.069  -5.690  0.00  0.00    -0.206 F 
ATOM     21  C   UNL d   1      25.135 -13.363  -4.159  0.00  0.00     0.043 C 
ATOM     22  C   UNL d   1      25.089 -14.448  -3.309  0.00  0.00     0.013 C 
ENDBRANCH  15  16
BRANCH  15  23
ATOM     23  O   UNL d   1      24.949 -17.067  -2.096  0.00  0.00    -0.377 OA
ATOM     24  C   UNL d   1      24.042 -16.698  -1.057  0.00  0.00     0.203 C 
ENDBRANCH  15  23
ENDBRANCH  12  15
ENDBRANCH   7  11
BRANCH   1  25
ATOM     25  C   UNL d   1      28.737 -13.278   6.935  0.00  0.00     0.085 A 
ATOM     26  C   UNL d   1      29.007 -14.102   8.040  0.00  0.00     0.036 A 
ATOM     27  C   UNL d   1      29.289 -13.542   9.359  0.00  0.00     0.039 A 
ATOM     28  C   UNL d   1      29.324 -12.155   9.615  0.00  0.00     0.135 A 
ATOM     29  C   UNL d   1      29.049 -11.338   8.531  0.00  0.00     0.046 A 
ATOM     30  C   UNL d   1      28.759 -11.842   7.220  0.00  0.00    -0.029 A 
ATOM     31  C   UNL d   1      28.529 -10.665   6.265  0.00  0.00     0.050 C 
BRANCH  28  32
ATOM     32  N   UNL d   1      29.757 -11.449  10.924  0.00  0.00    -0.042 N 
ATOM     33  H   UNL d   1      29.023 -10.735  11.016  0.00  0.00     0.286 HD
BRANCH  32  34
ATOM     34  C   UNL d   1      30.972 -10.551  10.738  0.00  0.00     0.237 C 
ATOM     35  C   UNL d   1      30.948  -9.224  11.479  0.00  0.00     0.035 C 
ENDBRANCH  32  34
BRANCH  32  36
ATOM     36  C   UNL d   1      29.454 -12.311  12.168  0.00  0.00     0.237 C 
ATOM     37  C   UNL d   1      28.156 -13.104  12.128  0.00  0.00     0.035 C 
ENDBRANCH  32  36
ENDBRANCH  28  32
ENDBRANCH   1  25
TORSDOF 8
ENDMDL
MODEL 3
REMARK VINA RESULT:    -7.899      0.882      1.662
REMARK INTER + INTRA:         -11.818
REMARK INTER:                 -10.286
REMARK INTRA:                  -1.533
REMARK CONF_INDEPENDENT:        2.386
REMARK UNBOUND:                -1.533
REMARK  8 active torsions:
REMARK  status: ('A' for Active; 'I' for Inactive)
REMARK    1  A    between atoms: C_2  and  N_3 
REMARK    2  A    between atoms: N_3  and  C_4 
REMARK    3  A    between atoms: N_3  and  C_6 
REMARK    4  A    between atoms: C_9  and  N_10 
REMARK    5  A    between atoms: C_16  and  N_17 
REMARK       I    between atoms: N_17  and  C_18 
REMARK    6  A    between atoms: C_20  and  C_18 
REMARK    7  A    between atoms: C_20  and  C_23 
REMARK    8  A    between atoms: C_20  and  O_21 
ROOT
ATOM      1  N   UNL d   1      28.005 -12.860   3.719  0.00  0.00    -0.149 N 
ATOM      2  N   UNL d   1      28.948 -13.648   3.297  0.00  0.00    -0.147 NA
ATOM      3  C   UNL d   1      28.685 -13.968   2.073  0.00  0.00     0.110 A 
ATOM      4  C   UNL d   1      29.508 -14.823   1.388  0.00  0.00     0.045 A 
ATOM      5  C   UNL d   1      29.188 -15.112   0.076  0.00  0.00    -0.033 A 
ATOM      6  C   UNL d   1      30.215 -16.046  -0.473  0.00  0.00     0.050 C 
ATOM      7  C   UNL d   1      28.051 -14.549  -0.576  0.00  0.00     0.043 A 
ATOM      8  C   UNL d   1      27.145 -13.628   0.199  0.00  0.00     0.066 A 
ATOM      9  C   UNL d   1      27.502 -13.326   1.610  0.00  0.00     0.111 A 
ATOM     10  N   UNL d   1      27.042 -12.580   2.714  0.00  0.00    -0.147 NA
ENDROOT
BRANCH   7  11
ATOM     11  N   UNL d   1      27.754 -14.931  -1.970  0.00  0.00    -0.324 N 
ATOM     12  C   UNL d   1      26.498 -15.153  -2.580  0.00  0.00     0.255 C 
ATOM     13  O   UNL d   1      25.418 -15.329  -1.986  0.00  0.00    -0.270 OA
ATOM     14  H   UNL d   1      28.576 -15.111  -2.533  0.00  0.00     0.169 HD
BRANCH  12  15
ATOM     15  C   UNL d   1      26.256 -15.249  -4.095  0.00  0.00     0.246 C 
BRANCH  15  16
ATOM     16  C   UNL d   1      27.433 -15.089  -5.000  0.00  0.00    -0.020 C 
ATOM     17  C   UNL d   1      28.529 -15.949  -4.874  0.00  0.00     0.013 C 
ATOM     18  C   UNL d   1      29.671 -15.705  -5.616  0.00  0.00     0.043 C 
ATOM     19  C   UNL d   1      29.679 -14.659  -6.534  0.00  0.00     0.116 C 
ATOM     20  F   UNL d   1      30.784 -14.424  -7.246  0.00  0.00    -0.206 F 
ATOM     21  C   UNL d   1      28.565 -13.863  -6.741  0.00  0.00     0.043 C 
ATOM     22  C   UNL d   1      27.433 -14.097  -5.990  0.00  0.00     0.013 C 
ENDBRANCH  15  16
BRANCH  15  23
ATOM     23  O   UNL d   1      25.125 -14.450  -4.531  0.00  0.00    -0.377 OA
ATOM     24  C   UNL d   1      25.113 -13.094  -4.085  0.00  0.00     0.203 C 
ENDBRANCH  15  23
ENDBRANCH  12  15
ENDBRANCH   7  11
BRANCH   1  25
ATOM     25  C   UNL d   1      28.254 -12.498   5.145  0.00  0.00     0.085 A 
ATOM     26  C   UNL d   1      28.279 -11.193   5.662  0.00  0.00     0.036 A 
ATOM     27  C   UNL d   1      28.530 -10.936   7.078  0.00  0.00     0.039 A 
ATOM     28  C   UNL d   1      28.749 -11.965   8.019  0.00  0.00     0.135 A 
ATOM     29  C   UNL d   1      28.735 -13.254   7.512  0.00  0.00     0.046 A 
ATOM     30  C   UNL d   1      28.500 -13.554   6.129  0.00  0.00    -0.029 A 
ATOM     31  C   UNL d   1      28.530 -15.073   5.928  0.00  0.00     0.050 C 
BRANCH  28  32
ATOM     32  N   UNL d   1      28.874 -11.825   9.556  0.00  0.00    -0.042 N 
ATOM     33  H   UNL d   1      28.523 -10.870   9.698  0.00  0.00     0.286 HD
BRANCH  32  34
ATOM     34  C   UNL d   1      30.314 -11.645  10.018  0.00  0.00     0.237 C 
ATOM     35  C   UNL d   1      31.263 -12.796   9.731  0.00  0.00     0.035 C 
ENDBRANCH  32  34
BRANCH  32  36
ATOM     36  C   UNL d   1      27.784 -12.628  10.296  0.00  0.00     0.237 C 
ATOM     37  C   UNL d   1      28.164 -14.043  10.709  0.00  0.00     0.035 C 
ENDBRANCH  32  36
ENDBRANCH  28  32
ENDBRANCH   1  25
TORSDOF 8
ENDMDL
MODEL 4
REMARK VINA RESULT:    -7.481      3.466      5.185
REMARK INTER + INTRA:         -11.310
REMARK INTER:                  -9.868
REMARK INTRA:                  -1.443
REMARK CONF_INDEPENDENT:        2.386
REMARK UNBOUND:                -1.443
REMARK  8 active torsions:
REMARK  status: ('A' for Active; 'I' for Inactive)
REMARK    1  A    between atoms: C_2  and  N_3 
REMARK    2  A    between atoms: N_3  and  C_4 
REMARK    3  A    between atoms: N_3  and  C_6 
REMARK    4  A    between atoms: C_9  and  N_10 
REMARK    5  A    between atoms: C_16  and  N_17 
REMARK       I    between atoms: N_17  and  C_18 
REMARK    6  A    between atoms: C_20  and  C_18 
REMARK    7  A    between atoms: C_20  and  C_23 
REMARK    8  A    between atoms: C_20  and  O_21 
ROOT
ATOM      1  N   UNL d   1      28.677 -12.763   6.214  0.00  0.00    -0.149 N 
ATOM      2  N   UNL d   1      28.363 -11.827   5.371  0.00  0.00    -0.147 NA
ATOM      3  C   UNL d   1      28.057 -12.387   4.246  0.00  0.00     0.110 A 
ATOM      4  C   UNL d   1      27.713 -11.624   3.162  0.00  0.00     0.045 A 
ATOM      5  C   UNL d   1      27.376 -12.278   1.994  0.00  0.00    -0.033 A 
ATOM      6  C   UNL d   1      27.032 -11.261   0.957  0.00  0.00     0.050 C 
ATOM      7  C   UNL d   1      27.368 -13.701   1.890  0.00  0.00     0.043 A 
ATOM      8  C   UNL d   1      27.769 -14.525   3.086  0.00  0.00     0.066 A 
ATOM      9  C   UNL d   1      28.129 -13.806   4.336  0.00  0.00     0.111 A 
ATOM     10  N   UNL d   1      28.546 -14.063   5.658  0.00  0.00    -0.147 NA
ENDROOT
BRANCH   7  11
ATOM     11  N   UNL d   1      27.029 -14.329   0.598  0.00  0.00    -0.324 N 
ATOM     12  C   UNL d   1      26.781 -15.692   0.313  0.00  0.00     0.255 C 
ATOM     13  O   UNL d   1      27.068 -16.656   1.047  0.00  0.00    -0.270 OA
ATOM     14  H   UNL d   1      27.036 -13.690  -0.187  0.00  0.00     0.169 HD
BRANCH  12  15
ATOM     15  C   UNL d   1      26.142 -16.222  -0.981  0.00  0.00     0.246 C 
BRANCH  15  16
ATOM     16  C   UNL d   1      24.852 -16.965  -0.868  0.00  0.00    -0.020 C 
ATOM     17  C   UNL d   1      23.646 -16.308  -1.139  0.00  0.00     0.013 C 
ATOM     18  C   UNL d   1      22.450 -16.959  -0.894  0.00  0.00     0.043 C 
ATOM     19  C   UNL d   1      22.469 -18.282  -0.460  0.00  0.00     0.116 C 
ATOM     20  F   UNL d   1      21.312 -18.906  -0.221  0.00  0.00    -0.206 F 
ATOM     21  C   UNL d   1      23.655 -18.975  -0.284  0.00  0.00     0.043 C 
ATOM     22  C   UNL d   1      24.846 -18.321  -0.515  0.00  0.00     0.013 C 
ENDBRANCH  15  16
BRANCH  15  23
ATOM     23  O   UNL d   1      27.095 -16.917  -1.828  0.00  0.00    -0.377 OA
ATOM     24  C   UNL d   1      28.243 -16.165  -2.221  0.00  0.00     0.203 C 
ENDBRANCH  15  23
ENDBRANCH  12  15
ENDBRANCH   7  11
BRANCH   1  25
ATOM     25  C   UNL d   1      29.074 -12.152   7.517  0.00  0.00     0.085 A 
ATOM     26  C   UNL d   1      28.552 -12.500   8.773  0.00  0.00     0.036 A 
ATOM     27  C   UNL d   1      29.006 -11.845   9.997  0.00  0.00     0.039 A 
ATOM     28  C   UNL d   1      29.995 -10.839  10.010  0.00  0.00     0.135 A 
ATOM     29  C   UNL d   1      30.506 -10.484   8.772  0.00  0.00     0.046 A 
ATOM     30  C   UNL d   1      30.086 -11.095   7.543  0.00  0.00    -0.029 A 
ATOM     31  C   UNL d   1      30.872 -10.481   6.379  0.00  0.00     0.050 C 
BRANCH  28  32
ATOM     32  N   UNL d   1      30.658 -10.184  11.247  0.00  0.00    -0.042 N 
ATOM     33  H   UNL d   1      29.840 -10.014  11.845  0.00  0.00     0.286 HD
BRANCH  32  34
ATOM     34  C   UNL d   1      31.097  -8.749  10.993  0.00  0.00     0.237 C 
ATOM     35  C   UNL d   1      30.032  -7.802  10.465  0.00  0.00     0.035 C 
ENDBRANCH  32  34
BRANCH  32  36
ATOM     36  C   UNL d   1      31.413 -11.219  12.108  0.00  0.00     0.237 C 
ATOM     37  C   UNL d   1      32.642 -11.848  11.467  0.00  0.00     0.035 C 
ENDBRANCH  32  36
ENDBRANCH  28  32
ENDBRANCH   1  25
TORSDOF 8
ENDMDL
MODEL 5
REMARK VINA RESULT:    -7.338      1.863      2.726
REMARK INTER + INTRA:         -11.152
REMARK INTER:                  -9.725
REMARK INTRA:                  -1.427
REMARK CONF_INDEPENDENT:        2.386
REMARK UNBOUND:                -1.427
REMARK  8 active torsions:
REMARK  status: ('A' for Active; 'I' for Inactive)
REMARK    1  A    between atoms: C_2  and  N_3 
REMARK    2  A    between atoms: N_3  and  C_4 
REMARK    3  A    between atoms: N_3  and  C_6 
REMARK    4  A    between atoms: C_9  and  N_10 
REMARK    5  A    between atoms: C_16  and  N_17 
REMARK       I    between atoms: N_17  and  C_18 
REMARK    6  A    between atoms: C_20  and  C_18 
REMARK    7  A    between atoms: C_20  and  C_23 
REMARK    8  A    between atoms: C_20  and  O_21 
ROOT
ATOM      1  N   UNL d   1      27.983 -12.983   3.865  0.00  0.00    -0.149 N 
ATOM      2  N   UNL d   1      27.918 -14.111   3.225  0.00  0.00    -0.147 NA
ATOM      3  C   UNL d   1      27.547 -13.864   2.012  0.00  0.00     0.110 A 
ATOM      4  C   UNL d   1      27.366 -14.887   1.119  0.00  0.00     0.045 A 
ATOM      5  C   UNL d   1      26.990 -14.560  -0.169  0.00  0.00    -0.033 A 
ATOM      6  C   UNL d   1      26.860 -15.816  -0.964  0.00  0.00     0.050 C 
ATOM      7  C   UNL d   1      26.795 -13.210  -0.589  0.00  0.00     0.043 A 
ATOM      8  C   UNL d   1      26.977 -12.099   0.411  0.00  0.00     0.066 A 
ATOM      9  C   UNL d   1      27.383 -12.466   1.793  0.00  0.00     0.111 A 
ATOM     10  N   UNL d   1      27.675 -11.871   3.037  0.00  0.00    -0.147 NA
ENDROOT
BRANCH   7  11
ATOM     11  N   UNL d   1      26.360 -12.941  -1.973  0.00  0.00    -0.324 N 
ATOM     12  C   UNL d   1      26.524 -11.764  -2.740  0.00  0.00     0.255 C 
ATOM     13  O   UNL d   1      26.829 -10.640  -2.299  0.00  0.00    -0.270 OA
ATOM     14  H   UNL d   1      25.824 -13.690  -2.391  0.00  0.00     0.169 HD
BRANCH  12  15
ATOM     15  C   UNL d   1      26.317 -11.664  -4.260  0.00  0.00     0.246 C 
BRANCH  15  16
ATOM     16  C   UNL d   1      27.038 -12.643  -5.127  0.00  0.00    -0.020 C 
ATOM     17  C   UNL d   1      26.957 -14.011  -4.847  0.00  0.00     0.013 C 
ATOM     18  C   UNL d   1      27.740 -14.898  -5.565  0.00  0.00     0.043 C 
ATOM     19  C   UNL d   1      28.531 -14.421  -6.607  0.00  0.00     0.116 C 
ATOM     20  F   UNL d   1      29.288 -15.280  -7.296  0.00  0.00    -0.206 F 
ATOM     21  C   UNL d   1      28.543 -13.082  -6.960  0.00  0.00     0.043 C 
ATOM     22  C   UNL d   1      27.773 -12.198  -6.234  0.00  0.00     0.013 C 
ENDBRANCH  15  16
BRANCH  15  23
ATOM     23  O   UNL d   1      26.449 -10.304  -4.752  0.00  0.00    -0.377 OA
ATOM     24  C   UNL d   1      25.229  -9.583  -4.923  0.00  0.00     0.203 C 
ENDBRANCH  15  23
ENDBRANCH  12  15
ENDBRANCH   7  11
BRANCH   1  25
ATOM     25  C   UNL d   1      28.372 -13.232   5.284  0.00  0.00     0.085 A 
ATOM     26  C   UNL d   1      27.784 -12.631   6.408  0.00  0.00     0.036 A 
ATOM     27  C   UNL d   1      28.234 -12.939   7.763  0.00  0.00     0.039 A 
ATOM     28  C   UNL d   1      29.268 -13.859   8.039  0.00  0.00     0.135 A 
ATOM     29  C   UNL d   1      29.859 -14.447   6.933  0.00  0.00     0.046 A 
ATOM     30  C   UNL d   1      29.455 -14.170   5.585  0.00  0.00    -0.029 A 
ATOM     31  C   UNL d   1      30.301 -15.009   4.620  0.00  0.00     0.050 C 
BRANCH  28  32
ATOM     32  N   UNL d   1      29.724 -14.375   9.426  0.00  0.00    -0.042 N 
ATOM     33  H   UNL d   1      29.868 -15.373   9.230  0.00  0.00     0.286 HD
BRANCH  32  34
ATOM     34  C   UNL d   1      28.582 -14.468  10.428  0.00  0.00     0.237 C 
ATOM     35  C   UNL d   1      28.143 -13.164  11.072  0.00  0.00     0.035 C 
ENDBRANCH  32  34
BRANCH  32  36
ATOM     36  C   UNL d   1      31.173 -13.951   9.747  0.00  0.00     0.237 C 
ATOM     37  C   UNL d   1      32.217 -15.059   9.700  0.00  0.00     0.035 C 
ENDBRANCH  32  36
ENDBRANCH  28  32
ENDBRANCH   1  25
TORSDOF 8
ENDMDL
MODEL 6
REMARK VINA RESULT:    -7.328      4.894     12.193
REMARK INTER + INTRA:         -11.225
REMARK INTER:                  -9.714
REMARK INTRA:                  -1.511
REMARK CONF_INDEPENDENT:        2.386
REMARK UNBOUND:                -1.511
REMARK  8 active torsions:
REMARK  status: ('A' for Active; 'I' for Inactive)
REMARK    1  A    between atoms: C_2  and  N_3 
REMARK    2  A    between atoms: N_3  and  C_4 
REMARK    3  A    between atoms: N_3  and  C_6 
REMARK    4  A    between atoms: C_9  and  N_10 
REMARK    5  A    between atoms: C_16  and  N_17 
REMARK       I    between atoms: N_17  and  C_18 
REMARK    6  A    between atoms: C_20  and  C_18 
REMARK    7  A    between atoms: C_20  and  C_23 
REMARK    8  A    between atoms: C_20  and  O_21 
ROOT
ATOM      1  N   UNL d   1      27.388 -14.118   1.404  0.00  0.00    -0.149 N 
ATOM      2  N   UNL d   1      27.387 -13.024   2.105  0.00  0.00    -0.147 NA
ATOM      3  C   UNL d   1      27.724 -13.324   3.316  0.00  0.00     0.110 A 
ATOM      4  C   UNL d   1      27.774 -12.353   4.282  0.00  0.00     0.045 A 
ATOM      5  C   UNL d   1      28.161 -12.729   5.553  0.00  0.00    -0.033 A 
ATOM      6  C   UNL d   1      28.152 -11.523   6.433  0.00  0.00     0.050 C 
ATOM      7  C   UNL d   1      28.511 -14.073   5.880  0.00  0.00     0.043 A 
ATOM      8  C   UNL d   1      28.430 -15.131   4.811  0.00  0.00     0.066 A 
ATOM      9  C   UNL d   1      28.013 -14.712   3.448  0.00  0.00     0.111 A 
ATOM     10  N   UNL d   1      27.788 -15.249   2.164  0.00  0.00    -0.147 NA
ENDROOT
BRANCH   7  11
ATOM     11  N   UNL d   1      28.883 -14.405   7.269  0.00  0.00    -0.324 N 
ATOM     12  C   UNL d   1      29.701 -13.679   8.165  0.00  0.00     0.255 C 
ATOM     13  O   UNL d   1      30.481 -12.757   7.860  0.00  0.00    -0.270 OA
ATOM     14  H   UNL d   1      28.543 -15.304   7.584  0.00  0.00     0.169 HD
BRANCH  12  15
ATOM     15  C   UNL d   1      29.795 -13.931   9.678  0.00  0.00     0.246 C 
BRANCH  15  16
ATOM     16  C   UNL d   1      31.002 -14.644  10.193  0.00  0.00    -0.020 C 
ATOM     17  C   UNL d   1      30.893 -15.473  11.315  0.00  0.00     0.013 C 
ATOM     18  C   UNL d   1      32.039 -16.014  11.871  0.00  0.00     0.043 C 
ATOM     19  C   UNL d   1      33.268 -15.792  11.255  0.00  0.00     0.116 C 
ATOM     20  F   UNL d   1      34.372 -16.314  11.796  0.00  0.00    -0.206 F 
ATOM     21  C   UNL d   1      33.375 -15.057  10.087  0.00  0.00     0.043 C 
ATOM     22  C   UNL d   1      32.235 -14.505   9.542  0.00  0.00     0.013 C 
ENDBRANCH  15  16
BRANCH  15  23
ATOM     23  O   UNL d   1      28.567 -14.477  10.229  0.00  0.00    -0.377 OA
ATOM     24  C   UNL d   1      27.679 -13.533  10.828  0.00  0.00     0.203 C 
ENDBRANCH  15  23
ENDBRANCH  12  15
ENDBRANCH   7  11
BRANCH   1  25
ATOM     25  C   UNL d   1      26.966 -13.819   0.005  0.00  0.00     0.085 A 
ATOM     26  C   UNL d   1      27.166 -12.600  -0.665  0.00  0.00     0.036 A 
ATOM     27  C   UNL d   1      26.718 -12.402  -2.040  0.00  0.00     0.039 A 
ATOM     28  C   UNL d   1      26.070 -13.406  -2.791  0.00  0.00     0.135 A 
ATOM     29  C   UNL d   1      25.861 -14.607  -2.132  0.00  0.00     0.046 A 
ATOM     30  C   UNL d   1      26.277 -14.845  -0.780  0.00  0.00    -0.029 A 
ATOM     31  C   UNL d   1      25.909 -16.279  -0.383  0.00  0.00     0.050 C 
BRANCH  28  32
ATOM     32  N   UNL d   1      25.688 -13.363  -4.291  0.00  0.00    -0.042 N 
ATOM     33  H   UNL d   1      24.664 -13.430  -4.238  0.00  0.00     0.286 HD
BRANCH  32  34
ATOM     34  C   UNL d   1      25.996 -14.664  -5.018  0.00  0.00     0.237 C 
ATOM     35  C   UNL d   1      27.411 -15.200  -4.869  0.00  0.00     0.035 C 
ENDBRANCH  32  34
BRANCH  32  36
ATOM     36  C   UNL d   1      25.836 -11.944  -4.880  0.00  0.00     0.237 C 
ATOM     37  C   UNL d   1      26.969 -11.753  -5.880  0.00  0.00     0.035 C 
ENDBRANCH  32  36
ENDBRANCH  28  32
ENDBRANCH   1  25
TORSDOF 8
ENDMDL
MODEL 7
REMARK VINA RESULT:    -7.259      3.439      5.111
REMARK INTER + INTRA:         -11.073
REMARK INTER:                  -9.645
REMARK INTRA:                  -1.427
REMARK CONF_INDEPENDENT:        2.386
REMARK UNBOUND:                -1.427
REMARK  8 active torsions:
REMARK  status: ('A' for Active; 'I' for Inactive)
REMARK    1  A    between atoms: C_2  and  N_3 
REMARK    2  A    between atoms: N_3  and  C_4 
REMARK    3  A    between atoms: N_3  and  C_6 
REMARK    4  A    between atoms: C_9  and  N_10 
REMARK    5  A    between atoms: C_16  and  N_17 
REMARK       I    between atoms: N_17  and  C_18 
REMARK    6  A    between atoms: C_20  and  C_18 
REMARK    7  A    between atoms: C_20  and  C_23 
REMARK    8  A    between atoms: C_20  and  O_21 
ROOT
ATOM      1  N   UNL d   1      29.215 -13.482   6.231  0.00  0.00    -0.149 N 
ATOM      2  N   UNL d   1      29.995 -13.861   5.264  0.00  0.00    -0.147 NA
ATOM      3  C   UNL d   1      29.276 -13.993   4.198  0.00  0.00     0.110 A 
ATOM      4  C   UNL d   1      29.845 -14.417   3.026  0.00  0.00     0.045 A 
ATOM      5  C   UNL d   1      29.032 -14.519   1.915  0.00  0.00    -0.033 A 
ATOM      6  C   UNL d   1      29.854 -14.986   0.760  0.00  0.00     0.050 C 
ATOM      7  C   UNL d   1      27.643 -14.192   1.951  0.00  0.00     0.043 A 
ATOM      8  C   UNL d   1      27.030 -13.748   3.252  0.00  0.00     0.066 A 
ATOM      9  C   UNL d   1      27.917 -13.643   4.440  0.00  0.00     0.111 A 
ATOM     10  N   UNL d   1      27.873 -13.298   5.806  0.00  0.00    -0.147 NA
ENDROOT
BRANCH   7  11
ATOM     11  N   UNL d   1      26.831 -14.358   0.730  0.00  0.00    -0.324 N 
ATOM     12  C   UNL d   1      26.462 -15.551   0.066  0.00  0.00     0.255 C 
ATOM     13  O   UNL d   1      26.980 -16.671   0.234  0.00  0.00    -0.270 OA
ATOM     14  H   UNL d   1      26.558 -13.487   0.293  0.00  0.00     0.169 HD
BRANCH  12  15
ATOM     15  C   UNL d   1      25.374 -15.661  -1.014  0.00  0.00     0.246 C 
BRANCH  15  16
ATOM     16  C   UNL d   1      24.306 -16.688  -0.824  0.00  0.00    -0.020 C 
ATOM     17  C   UNL d   1      24.658 -18.014  -0.549  0.00  0.00     0.013 C 
ATOM     18  C   UNL d   1      23.672 -18.984  -0.517  0.00  0.00     0.043 C 
ATOM     19  C   UNL d   1      22.340 -18.610  -0.678  0.00  0.00     0.116 C 
ATOM     20  F   UNL d   1      21.392 -19.550  -0.650  0.00  0.00    -0.206 F 
ATOM     21  C   UNL d   1      21.970 -17.287  -0.850  0.00  0.00     0.043 C 
ATOM     22  C   UNL d   1      22.955 -16.323  -0.896  0.00  0.00     0.013 C 
ENDBRANCH  15  16
BRANCH  15  23
ATOM     23  O   UNL d   1      25.922 -15.692  -2.357  0.00  0.00    -0.377 OA
ATOM     24  C   UNL d   1      25.928 -14.447  -3.056  0.00  0.00     0.203 C 
ENDBRANCH  15  23
ENDBRANCH  12  15
ENDBRANCH   7  11
BRANCH   1  25
ATOM     25  C   UNL d   1      30.004 -13.355   7.492  0.00  0.00     0.085 A 
ATOM     26  C   UNL d   1      29.770 -14.073   8.676  0.00  0.00     0.036 A 
ATOM     27  C   UNL d   1      30.599 -13.881   9.862  0.00  0.00     0.039 A 
ATOM     28  C   UNL d   1      31.687 -12.983   9.903  0.00  0.00     0.135 A 
ATOM     29  C   UNL d   1      31.916 -12.265   8.742  0.00  0.00     0.046 A 
ATOM     30  C   UNL d   1      31.124 -12.415   7.555  0.00  0.00    -0.029 A 
ATOM     31  C   UNL d   1      31.670 -11.488   6.462  0.00  0.00     0.050 C 
BRANCH  28  32
ATOM     32  N   UNL d   1      32.720 -12.806  11.043  0.00  0.00    -0.042 N 
ATOM     33  H   UNL d   1      33.518 -12.412  10.530  0.00  0.00     0.286 HD
BRANCH  32  34
ATOM     34  C   UNL d   1      33.329 -14.125  11.499  0.00  0.00     0.237 C 
ATOM     35  C   UNL d   1      33.649 -15.132  10.407  0.00  0.00     0.035 C 
ENDBRANCH  32  34
BRANCH  32  36
ATOM     36  C   UNL d   1      32.368 -11.612  11.956  0.00  0.00     0.237 C 
ATOM     37  C   UNL d   1      30.932 -11.114  11.877  0.00  0.00     0.035 C 
ENDBRANCH  32  36
ENDBRANCH  28  32
ENDBRANCH   1  25
TORSDOF 8
ENDMDL
MODEL 8
REMARK VINA RESULT:    -7.218      2.881      3.822
REMARK INTER + INTRA:         -11.254
REMARK INTER:                  -9.604
REMARK INTRA:                  -1.650
REMARK CONF_INDEPENDENT:        2.386
REMARK UNBOUND:                -1.650
REMARK  8 active torsions:
REMARK  status: ('A' for Active; 'I' for Inactive)
REMARK    1  A    between atoms: C_2  and  N_3 
REMARK    2  A    between atoms: N_3  and  C_4 
REMARK    3  A    between atoms: N_3  and  C_6 
REMARK    4  A    between atoms: C_9  and  N_10 
REMARK    5  A    between atoms: C_16  and  N_17 
REMARK       I    between atoms: N_17  and  C_18 
REMARK    6  A    between atoms: C_20  and  C_18 
REMARK    7  A    between atoms: C_20  and  C_23 
REMARK    8  A    between atoms: C_20  and  O_21 
ROOT
ATOM      1  N   UNL d   1      28.005 -12.951   3.625  0.00  0.00    -0.149 N 
ATOM      2  N   UNL d   1      27.764 -14.076   3.022  0.00  0.00    -0.147 NA
ATOM      3  C   UNL d   1      27.396 -13.811   1.811  0.00  0.00     0.110 A 
ATOM      4  C   UNL d   1      27.048 -14.822   0.956  0.00  0.00     0.045 A 
ATOM      5  C   UNL d   1      26.684 -14.480  -0.332  0.00  0.00    -0.033 A 
ATOM      6  C   UNL d   1      26.356 -15.727  -1.085  0.00  0.00     0.050 C 
ATOM      7  C   UNL d   1      26.668 -13.128  -0.788  0.00  0.00     0.043 A 
ATOM      8  C   UNL d   1      27.033 -12.028   0.173  0.00  0.00     0.066 A 
ATOM      9  C   UNL d   1      27.423 -12.411   1.554  0.00  0.00     0.111 A 
ATOM     10  N   UNL d   1      27.833 -11.829   2.772  0.00  0.00    -0.147 NA
ENDROOT
BRANCH   7  11
ATOM     11  N   UNL d   1      26.235 -12.837  -2.168  0.00  0.00    -0.324 N 
ATOM     12  C   UNL d   1      26.664 -11.804  -3.033  0.00  0.00     0.255 C 
ATOM     13  O   UNL d   1      27.293 -10.783  -2.696  0.00  0.00    -0.270 OA
ATOM     14  H   UNL d   1      25.488 -13.433  -2.502  0.00  0.00     0.169 HD
BRANCH  12  15
ATOM     15  C   UNL d   1      26.395 -11.748  -4.545  0.00  0.00     0.246 C 
BRANCH  15  16
ATOM     16  C   UNL d   1      25.905 -10.459  -5.118  0.00  0.00    -0.020 C 
ATOM     17  C   UNL d   1      26.174 -10.145  -6.455  0.00  0.00     0.013 C 
ATOM     18  C   UNL d   1      25.843  -8.891  -6.937  0.00  0.00     0.043 C 
ATOM     19  C   UNL d   1      25.175  -7.995  -6.108  0.00  0.00     0.116 C 
ATOM     20  F   UNL d   1      24.859  -6.785  -6.576  0.00  0.00    -0.206 F 
ATOM     21  C   UNL d   1      24.811  -8.331  -4.814  0.00  0.00     0.043 C 
ATOM     22  C   UNL d   1      25.155  -9.575  -4.330  0.00  0.00     0.013 C 
ENDBRANCH  15  16
BRANCH  15  23
ATOM     23  O   UNL d   1      25.616 -12.880  -5.015  0.00  0.00    -0.377 OA
ATOM     24  C   UNL d   1      26.281 -14.144  -4.993  0.00  0.00     0.203 C 
ENDBRANCH  15  23
ENDBRANCH  12  15
ENDBRANCH   7  11
BRANCH   1  25
ATOM     25  C   UNL d   1      28.397 -13.214   5.041  0.00  0.00     0.085 A 
ATOM     26  C   UNL d   1      27.777 -12.664   6.174  0.00  0.00     0.036 A 
ATOM     27  C   UNL d   1      28.232 -12.983   7.525  0.00  0.00     0.039 A 
ATOM     28  C   UNL d   1      29.304 -13.863   7.787  0.00  0.00     0.135 A 
ATOM     29  C   UNL d   1      29.926 -14.401   6.672  0.00  0.00     0.046 A 
ATOM     30  C   UNL d   1      29.518 -14.111   5.328  0.00  0.00    -0.029 A 
ATOM     31  C   UNL d   1      30.405 -14.892   4.351  0.00  0.00     0.050 C 
BRANCH  28  32
ATOM     32  N   UNL d   1      29.775 -14.389   9.165  0.00  0.00    -0.042 N 
ATOM     33  H   UNL d   1      29.857 -15.396   8.977  0.00  0.00     0.286 HD
BRANCH  32  34
ATOM     34  C   UNL d   1      28.661 -14.410  10.203  0.00  0.00     0.237 C 
ATOM     35  C   UNL d   1      28.712 -13.326  11.268  0.00  0.00     0.035 C 
ENDBRANCH  32  34
BRANCH  32  36
ATOM     36  C   UNL d   1      31.254 -14.042   9.437  0.00  0.00     0.237 C 
ATOM     37  C   UNL d   1      32.137 -15.199   9.885  0.00  0.00     0.035 C 
ENDBRANCH  32  36
ENDBRANCH  28  32
ENDBRANCH   1  25
TORSDOF 8
ENDMDL
MODEL 9
REMARK VINA RESULT:    -7.185      3.735      5.476
REMARK INTER + INTRA:         -11.233
REMARK INTER:                  -9.571
REMARK INTRA:                  -1.661
REMARK CONF_INDEPENDENT:        2.386
REMARK UNBOUND:                -1.661
REMARK  8 active torsions:
REMARK  status: ('A' for Active; 'I' for Inactive)
REMARK    1  A    between atoms: C_2  and  N_3 
REMARK    2  A    between atoms: N_3  and  C_4 
REMARK    3  A    between atoms: N_3  and  C_6 
REMARK    4  A    between atoms: C_9  and  N_10 
REMARK    5  A    between atoms: C_16  and  N_17 
REMARK       I    between atoms: N_17  and  C_18 
REMARK    6  A    between atoms: C_20  and  C_18 
REMARK    7  A    between atoms: C_20  and  C_23 
REMARK    8  A    between atoms: C_20  and  O_21 
ROOT
ATOM      1  N   UNL d   1      28.994 -11.857   6.655  0.00  0.00    -0.149 N 
ATOM      2  N   UNL d   1      29.997 -12.131   5.878  0.00  0.00    -0.147 NA
ATOM      3  C   UNL d   1      29.564 -12.866   4.907  0.00  0.00     0.110 A 
ATOM      4  C   UNL d   1      30.426 -13.328   3.948  0.00  0.00     0.045 A 
ATOM      5  C   UNL d   1      29.901 -14.091   2.924  0.00  0.00    -0.033 A 
ATOM      6  C   UNL d   1      31.007 -14.477   1.998  0.00  0.00     0.050 C 
ATOM      7  C   UNL d   1      28.511 -14.398   2.834  0.00  0.00     0.043 A 
ATOM      8  C   UNL d   1      27.580 -13.899   3.908  0.00  0.00     0.066 A 
ATOM      9  C   UNL d   1      28.159 -13.079   5.004  0.00  0.00     0.111 A 
ATOM     10  N   UNL d   1      27.773 -12.402   6.178  0.00  0.00    -0.147 NA
ENDROOT
BRANCH   7  11
ATOM     11  N   UNL d   1      28.029 -15.247   1.727  0.00  0.00    -0.324 N 
ATOM     12  C   UNL d   1      27.118 -14.925   0.695  0.00  0.00     0.255 C 
ATOM     13  O   UNL d   1      26.345 -13.949   0.680  0.00  0.00    -0.270 OA
ATOM     14  H   UNL d   1      28.362 -16.202   1.764  0.00  0.00     0.169 HD
BRANCH  12  15
ATOM     15  C   UNL d   1      26.900 -15.754  -0.582  0.00  0.00     0.246 C 
BRANCH  15  16
ATOM     16  C   UNL d   1      25.652 -16.567  -0.681  0.00  0.00    -0.020 C 
ATOM     17  C   UNL d   1      24.522 -16.031  -1.309  0.00  0.00     0.013 C 
ATOM     18  C   UNL d   1      23.329 -16.731  -1.270  0.00  0.00     0.043 C 
ATOM     19  C   UNL d   1      23.295 -17.991  -0.679  0.00  0.00     0.116 C 
ATOM     20  F   UNL d   1      22.141 -18.663  -0.641  0.00  0.00    -0.206 F 
ATOM     21  C   UNL d   1      24.431 -18.576  -0.144  0.00  0.00     0.043 C 
ATOM     22  C   UNL d   1      25.615 -17.871  -0.170  0.00  0.00     0.013 C 
ENDBRANCH  15  16
BRANCH  15  23
ATOM     23  O   UNL d   1      28.076 -16.520  -0.956  0.00  0.00    -0.377 OA
ATOM     24  C   UNL d   1      29.309 -15.799  -0.972  0.00  0.00     0.203 C 
ENDBRANCH  15  23
ENDBRANCH  12  15
ENDBRANCH   7  11
BRANCH   1  25
ATOM     25  C   UNL d   1      29.464 -11.040   7.812  0.00  0.00     0.085 A 
ATOM     26  C   UNL d   1      29.546  -9.638   7.841  0.00  0.00     0.036 A 
ATOM     27  C   UNL d   1      30.018  -8.924   9.024  0.00  0.00     0.039 A 
ATOM     28  C   UNL d   1      30.409  -9.578  10.211  0.00  0.00     0.135 A 
ATOM     29  C   UNL d   1      30.340 -10.961  10.186  0.00  0.00     0.046 A 
ATOM     30  C   UNL d   1      29.890 -11.705   9.045  0.00  0.00    -0.029 A 
ATOM     31  C   UNL d   1      29.919 -13.202   9.374  0.00  0.00     0.050 C 
BRANCH  28  32
ATOM     32  N   UNL d   1      30.780  -8.927  11.567  0.00  0.00    -0.042 N 
ATOM     33  H   UNL d   1      30.031  -9.287  12.172  0.00  0.00     0.286 HD
BRANCH  32  34
ATOM     34  C   UNL d   1      30.461  -7.439  11.616  0.00  0.00     0.237 C 
ATOM     35  C   UNL d   1      31.443  -6.516  10.914  0.00  0.00     0.035 C 
ENDBRANCH  32  34
BRANCH  32  36
ATOM     36  C   UNL d   1      32.004  -9.608  12.215  0.00  0.00     0.237 C 
ATOM     37  C   UNL d   1      33.287  -9.589  11.396  0.00  0.00     0.035 C 
ENDBRANCH  32  36
ENDBRANCH  28  32
ENDBRANCH   1  25
TORSDOF 8
ENDMDL
