MODEL 1
REMARK VINA RESULT:    -9.953      0.000      0.000
REMARK INTER + INTRA:         -16.499
REMARK INTER:                 -13.533
REMARK INTRA:                  -2.966
REMARK CONF_INDEPENDENT:        3.580
REMARK UNBOUND:                -2.966
REMARK  12 active torsions:
REMARK  status: ('A' for Active; 'I' for Inactive)
REMARK    1  A    between atoms: S_2  and  C_3 
REMARK    2  A    between atoms: C_3  and  C_4 
REMARK    3  A    between atoms: C_5  and  C_4 
REMARK    4  A    between atoms: C_5  and  C_19 
REMARK    5  A    between atoms: C_5  and  N_6 
REMARK       I    between atoms: N_6  and  C_7 
REMARK    6  A    between atoms: C_7  and  C_9 
REMARK    7  A    between atoms: C_12  and  C_13 
REMARK    8  A    between atoms: C_19  and  O_21 
REMARK    9  A    between atoms: O_21  and  C_22 
REMARK   10  A    between atoms: C_22  and  C_23 
REMARK       I    between atoms: C_23  and  N_25 
REMARK   11  A    between atoms: N_25  and  N_26 
REMARK       I    between atoms: N_26  and  C_27 
REMARK   12  A    between atoms: C_27  and  C_29 
ROOT
ATOM      1  C   UNL d   1      27.720 -15.843  -0.159  0.00  0.00     0.185 C 
ENDROOT
BRANCH   1   2
ATOM      2  C   UNL d   1      26.648 -16.968  -0.103  0.00  0.00     0.282 C 
ATOM      3  O   UNL d   1      26.547 -17.798   0.798  0.00  0.00    -0.263 OA
BRANCH   2   4
ATOM      4  O   UNL d   1      25.845 -16.973  -1.207  0.00  0.00    -0.310 OA
BRANCH   4   5
ATOM      5  C   UNL d   1      24.743 -16.045  -1.133  0.00  0.00     0.283 C 
BRANCH   5   6
ATOM      6  C   UNL d   1      23.459 -16.729  -0.621  0.00  0.00     0.260 C 
ATOM      7  O   UNL d   1      22.333 -16.273  -0.839  0.00  0.00    -0.269 OA
ATOM      8  N   UNL d   1      23.632 -17.910   0.095  0.00  0.00    -0.265 N 
ATOM      9  H   UNL d   1      24.531 -18.345   0.300  0.00  0.00     0.190 HD
BRANCH   8  10
ATOM     10  N   UNL d   1      22.476 -18.577   0.591  0.00  0.00    -0.263 N 
ATOM     11  C   UNL d   1      21.514 -19.078  -0.274  0.00  0.00     0.270 C 
ATOM     12  O   UNL d   1      21.590 -18.978  -1.503  0.00  0.00    -0.266 OA
ATOM     13  H   UNL d   1      22.454 -18.738   1.599  0.00  0.00     0.190 HD
BRANCH  11  14
ATOM     14  C   UNL d   1      20.332 -19.745   0.361  0.00  0.00     0.033 A 
ATOM     15  C   UNL d   1      19.276 -20.266  -0.407  0.00  0.00     0.017 A 
ATOM     16  C   UNL d   1      18.148 -20.819   0.223  0.00  0.00     0.001 A 
ATOM     17  C   UNL d   1      18.089 -20.897   1.614  0.00  0.00     0.000 A 
ATOM     18  C   UNL d   1      19.125 -20.367   2.379  0.00  0.00     0.001 A 
ATOM     19  C   UNL d   1      20.234 -19.781   1.758  0.00  0.00     0.017 A 
ENDBRANCH  11  14
ENDBRANCH   8  10
ENDBRANCH   5   6
ENDBRANCH   4   5
ENDBRANCH   2   4
ENDBRANCH   1   2
BRANCH   1  20
ATOM     20  N   UNL d   1      28.228 -15.579   1.212  0.00  0.00    -0.343 N 
ATOM     21  C   UNL d   1      27.987 -14.361   1.815  0.00  0.00     0.252 C 
ATOM     22  O   UNL d   1      27.486 -13.404   1.228  0.00  0.00    -0.268 OA
ATOM     23  H   UNL d   1      28.811 -16.261   1.682  0.00  0.00     0.163 HD
BRANCH  21  24
ATOM     24  C   UNL d   1      28.310 -14.222   3.248  0.00  0.00     0.032 A 
ATOM     25  C   UNL d   1      27.325 -13.728   4.111  0.00  0.00     0.017 A 
ATOM     26  C   UNL d   1      27.663 -13.339   5.409  0.00  0.00     0.009 A 
ATOM     27  C   UNL d   1      28.967 -13.522   5.898  0.00  0.00    -0.051 A 
ATOM     28  C   UNL d   1      29.932 -14.041   5.012  0.00  0.00     0.009 A 
ATOM     29  C   UNL d   1      29.612 -14.398   3.701  0.00  0.00     0.017 A 
BRANCH  27  30
ATOM     30  C   UNL d   1      29.290 -13.216   7.368  0.00  0.00    -0.024 C 
ATOM     31  C   UNL d   1      28.501 -11.990   7.864  0.00  0.00     0.019 C 
ATOM     32  C   UNL d   1      28.908 -14.440   8.230  0.00  0.00     0.019 C 
ATOM     33  C   UNL d   1      30.792 -12.941   7.588  0.00  0.00     0.019 C 
ENDBRANCH  27  30
ENDBRANCH  21  24
ENDBRANCH   1  20
BRANCH   1  34
ATOM     34  C   UNL d   1      28.907 -16.159  -1.102  0.00  0.00     0.045 C 
BRANCH  34  35
ATOM     35  C   UNL d   1      28.700 -16.085  -2.627  0.00  0.00     0.076 C 
BRANCH  35  36
ATOM     36  S   UNL d   1      27.826 -14.497  -2.952  0.00  0.00    -0.173 SA
ATOM     37  C   UNL d   1      26.272 -15.061  -3.691  0.00  0.00     0.089 C 
ENDBRANCH  35  36
ENDBRANCH  34  35
ENDBRANCH   1  34
TORSDOF 12
ENDMDL
MODEL 2
REMARK VINA RESULT:    -9.480      1.416      2.123
REMARK INTER + INTRA:         -15.979
REMARK INTER:                 -13.060
REMARK INTRA:                  -2.919
REMARK CONF_INDEPENDENT:        3.580
REMARK UNBOUND:                -2.919
REMARK  12 active torsions:
REMARK  status: ('A' for Active; 'I' for Inactive)
REMARK    1  A    between atoms: S_2  and  C_3 
REMARK    2  A    between atoms: C_3  and  C_4 
REMARK    3  A    between atoms: C_5  and  C_4 
REMARK    4  A    between atoms: C_5  and  C_19 
REMARK    5  A    between atoms: C_5  and  N_6 
REMARK       I    between atoms: N_6  and  C_7 
REMARK    6  A    between atoms: C_7  and  C_9 
REMARK    7  A    between atoms: C_12  and  C_13 
REMARK    8  A    between atoms: C_19  and  O_21 
REMARK    9  A    between atoms: O_21  and  C_22 
REMARK   10  A    between atoms: C_22  and  C_23 
REMARK       I    between atoms: C_23  and  N_25 
REMARK   11  A    between atoms: N_25  and  N_26 
REMARK       I    between atoms: N_26  and  C_27 
REMARK   12  A    between atoms: C_27  and  C_29 
ROOT
ATOM      1  C   UNL d   1      28.019 -16.290  -0.486  0.00  0.00     0.185 C 
ENDROOT
BRANCH   1   2
ATOM      2  C   UNL d   1      26.688 -17.065  -0.268  0.00  0.00     0.282 C 
ATOM      3  O   UNL d   1      26.382 -17.662   0.762  0.00  0.00    -0.263 OA
BRANCH   2   4
ATOM      4  O   UNL d   1      25.897 -17.058  -1.382  0.00  0.00    -0.310 OA
BRANCH   4   5
ATOM      5  C   UNL d   1      24.819 -16.100  -1.327  0.00  0.00     0.283 C 
BRANCH   5   6
ATOM      6  C   UNL d   1      23.540 -16.722  -0.731  0.00  0.00     0.260 C 
ATOM      7  O   UNL d   1      22.444 -16.154  -0.775  0.00  0.00    -0.269 OA
ATOM      8  N   UNL d   1      23.678 -17.978  -0.147  0.00  0.00    -0.265 N 
ATOM      9  H   UNL d   1      24.549 -18.505  -0.088  0.00  0.00     0.190 HD
BRANCH   8  10
ATOM     10  N   UNL d   1      22.525 -18.591   0.421  0.00  0.00    -0.263 N 
ATOM     11  C   UNL d   1      21.492 -19.052  -0.383  0.00  0.00     0.270 C 
ATOM     12  O   UNL d   1      21.500 -18.959  -1.615  0.00  0.00    -0.266 OA
ATOM     13  H   UNL d   1      22.555 -18.748   1.429  0.00  0.00     0.190 HD
BRANCH  11  14
ATOM     14  C   UNL d   1      20.321 -19.664   0.324  0.00  0.00     0.033 A 
ATOM     15  C   UNL d   1      20.280 -19.778   1.724  0.00  0.00     0.017 A 
ATOM     16  C   UNL d   1      19.200 -20.424   2.350  0.00  0.00     0.001 A 
ATOM     17  C   UNL d   1      18.139 -20.916   1.589  0.00  0.00     0.000 A 
ATOM     18  C   UNL d   1      18.184 -20.818   0.201  0.00  0.00     0.001 A 
ATOM     19  C   UNL d   1      19.274 -20.210  -0.431  0.00  0.00     0.017 A 
ENDBRANCH  11  14
ENDBRANCH   8  10
ENDBRANCH   5   6
ENDBRANCH   4   5
ENDBRANCH   2   4
ENDBRANCH   1   2
BRANCH   1  20
ATOM     20  N   UNL d   1      28.534 -15.822   0.827  0.00  0.00    -0.343 N 
ATOM     21  C   UNL d   1      27.976 -14.713   1.432  0.00  0.00     0.252 C 
ATOM     22  O   UNL d   1      27.152 -13.986   0.882  0.00  0.00    -0.268 OA
ATOM     23  H   UNL d   1      29.340 -16.267   1.249  0.00  0.00     0.163 HD
BRANCH  21  24
ATOM     24  C   UNL d   1      28.361 -14.418   2.826  0.00  0.00     0.032 A 
ATOM     25  C   UNL d   1      27.361 -14.048   3.732  0.00  0.00     0.017 A 
ATOM     26  C   UNL d   1      27.705 -13.515   4.975  0.00  0.00     0.009 A 
ATOM     27  C   UNL d   1      29.050 -13.426   5.372  0.00  0.00    -0.051 A 
ATOM     28  C   UNL d   1      30.034 -13.825   4.446  0.00  0.00     0.009 A 
ATOM     29  C   UNL d   1      29.700 -14.325   3.186  0.00  0.00     0.017 A 
BRANCH  27  30
ATOM     30  C   UNL d   1      29.407 -12.964   6.793  0.00  0.00    -0.024 C 
ATOM     31  C   UNL d   1      30.156 -14.070   7.561  0.00  0.00     0.019 C 
ATOM     32  C   UNL d   1      30.312 -11.715   6.703  0.00  0.00     0.019 C 
ATOM     33  C   UNL d   1      28.157 -12.576   7.610  0.00  0.00     0.019 C 
ENDBRANCH  27  30
ENDBRANCH  21  24
ENDBRANCH   1  20
BRANCH   1  34
ATOM     34  C   UNL d   1      29.110 -17.116  -1.209  0.00  0.00     0.045 C 
BRANCH  34  35
ATOM     35  C   UNL d   1      30.577 -16.989  -0.756  0.00  0.00     0.076 C 
BRANCH  35  36
ATOM     36  S   UNL d   1      31.244 -18.704  -0.685  0.00  0.00    -0.173 SA
ATOM     37  C   UNL d   1      32.642 -18.618  -1.833  0.00  0.00     0.089 C 
ENDBRANCH  35  36
ENDBRANCH  34  35
ENDBRANCH   1  34
TORSDOF 12
ENDMDL
MODEL 3
REMARK VINA RESULT:    -9.453      3.417      7.937
REMARK INTER + INTRA:         -15.755
REMARK INTER:                 -13.033
REMARK INTRA:                  -2.722
REMARK CONF_INDEPENDENT:        3.580
REMARK UNBOUND:                -2.722
REMARK  12 active torsions:
REMARK  status: ('A' for Active; 'I' for Inactive)
REMARK    1  A    between atoms: S_2  and  C_3 
REMARK    2  A    between atoms: C_3  and  C_4 
REMARK    3  A    between atoms: C_5  and  C_4 
REMARK    4  A    between atoms: C_5  and  C_19 
REMARK    5  A    between atoms: C_5  and  N_6 
REMARK       I    between atoms: N_6  and  C_7 
REMARK    6  A    between atoms: C_7  and  C_9 
REMARK    7  A    between atoms: C_12  and  C_13 
REMARK    8  A    between atoms: C_19  and  O_21 
REMARK    9  A    between atoms: O_21  and  C_22 
REMARK   10  A    between atoms: C_22  and  C_23 
REMARK       I    between atoms: C_23  and  N_25 
REMARK   11  A    between atoms: N_25  and  N_26 
REMARK       I    between atoms: N_26  and  C_27 
REMARK   12  A    between atoms: C_27  and  C_29 
ROOT
ATOM      1  C   UNL d   1      26.847 -15.142  -2.453  0.00  0.00     0.185 C 
ENDROOT
BRANCH   1   2
ATOM      2  C   UNL d   1      25.484 -15.474  -3.125  0.00  0.00     0.282 C 
ATOM      3  O   UNL d   1      24.960 -14.809  -4.017  0.00  0.00    -0.263 OA
BRANCH   2   4
ATOM      4  O   UNL d   1      24.892 -16.576  -2.578  0.00  0.00    -0.310 OA
BRANCH   4   5
ATOM      5  C   UNL d   1      25.512 -17.027  -1.356  0.00  0.00     0.283 C 
BRANCH   5   6
ATOM      6  C   UNL d   1      24.545 -17.884  -0.513  0.00  0.00     0.260 C 
ATOM      7  O   UNL d   1      24.840 -18.309   0.608  0.00  0.00    -0.269 OA
ATOM      8  N   UNL d   1      23.299 -18.145  -1.078  0.00  0.00    -0.265 N 
ATOM      9  H   UNL d   1      22.989 -17.815  -1.991  0.00  0.00     0.190 HD
BRANCH   8  10
ATOM     10  N   UNL d   1      22.373 -18.935  -0.339  0.00  0.00    -0.263 N 
ATOM     11  C   UNL d   1      21.005 -18.768  -0.499  0.00  0.00     0.270 C 
ATOM     12  O   UNL d   1      20.510 -17.941  -1.270  0.00  0.00    -0.266 OA
ATOM     13  H   UNL d   1      22.779 -19.677   0.232  0.00  0.00     0.190 HD
BRANCH  11  14
ATOM     14  C   UNL d   1      20.126 -19.642   0.343  0.00  0.00     0.033 A 
ATOM     15  C   UNL d   1      19.096 -20.416  -0.219  0.00  0.00     0.017 A 
ATOM     16  C   UNL d   1      18.243 -21.167   0.607  0.00  0.00     0.001 A 
ATOM     17  C   UNL d   1      18.441 -21.187   1.988  0.00  0.00     0.000 A 
ATOM     18  C   UNL d   1      19.450 -20.408   2.550  0.00  0.00     0.001 A 
ATOM     19  C   UNL d   1      20.279 -19.629   1.736  0.00  0.00     0.017 A 
ENDBRANCH  11  14
ENDBRANCH   8  10
ENDBRANCH   5   6
ENDBRANCH   4   5
ENDBRANCH   2   4
ENDBRANCH   1   2
BRANCH   1  20
ATOM     20  N   UNL d   1      27.944 -15.784  -3.223  0.00  0.00    -0.343 N 
ATOM     21  C   UNL d   1      28.048 -15.573  -4.583  0.00  0.00     0.252 C 
ATOM     22  O   UNL d   1      27.193 -14.987  -5.243  0.00  0.00    -0.268 OA
ATOM     23  H   UNL d   1      28.576 -16.432  -2.770  0.00  0.00     0.163 HD
BRANCH  21  24
ATOM     24  C   UNL d   1      29.270 -16.041  -5.265  0.00  0.00     0.032 A 
ATOM     25  C   UNL d   1      29.642 -15.428  -6.467  0.00  0.00     0.017 A 
ATOM     26  C   UNL d   1      30.629 -16.003  -7.269  0.00  0.00     0.009 A 
ATOM     27  C   UNL d   1      31.327 -17.146  -6.844  0.00  0.00    -0.051 A 
ATOM     28  C   UNL d   1      30.944 -17.728  -5.619  0.00  0.00     0.009 A 
ATOM     29  C   UNL d   1      29.932 -17.182  -4.828  0.00  0.00     0.017 A 
BRANCH  27  30
ATOM     30  C   UNL d   1      32.502 -17.686  -7.673  0.00  0.00    -0.024 C 
ATOM     31  C   UNL d   1      32.035 -18.797  -8.633  0.00  0.00     0.019 C 
ATOM     32  C   UNL d   1      33.106 -16.529  -8.500  0.00  0.00     0.019 C 
ATOM     33  C   UNL d   1      33.624 -18.260  -6.784  0.00  0.00     0.019 C 
ENDBRANCH  27  30
ENDBRANCH  21  24
ENDBRANCH   1  20
BRANCH   1  34
ATOM     34  C   UNL d   1      27.123 -13.625  -2.320  0.00  0.00     0.045 C 
BRANCH  34  35
ATOM     35  C   UNL d   1      27.498 -13.043  -0.944  0.00  0.00     0.076 C 
BRANCH  35  36
ATOM     36  S   UNL d   1      28.709 -14.216  -0.203  0.00  0.00    -0.173 SA
ATOM     37  C   UNL d   1      27.847 -14.758   1.295  0.00  0.00     0.089 C 
ENDBRANCH  35  36
ENDBRANCH  34  35
ENDBRANCH   1  34
TORSDOF 12
ENDMDL
MODEL 4
REMARK VINA RESULT:    -9.363      1.578      2.446
REMARK INTER + INTRA:         -16.513
REMARK INTER:                 -12.942
REMARK INTRA:                  -3.570
REMARK CONF_INDEPENDENT:        3.580
REMARK UNBOUND:                -3.570
REMARK  12 active torsions:
REMARK  status: ('A' for Active; 'I' for Inactive)
REMARK    1  A    between atoms: S_2  and  C_3 
REMARK    2  A    between atoms: C_3  and  C_4 
REMARK    3  A    between atoms: C_5  and  C_4 
REMARK    4  A    between atoms: C_5  and  C_19 
REMARK    5  A    between atoms: C_5  and  N_6 
REMARK       I    between atoms: N_6  and  C_7 
REMARK    6  A    between atoms: C_7  and  C_9 
REMARK    7  A    between atoms: C_12  and  C_13 
REMARK    8  A    between atoms: C_19  and  O_21 
REMARK    9  A    between atoms: O_21  and  C_22 
REMARK   10  A    between atoms: C_22  and  C_23 
REMARK       I    between atoms: C_23  and  N_25 
REMARK   11  A    between atoms: N_25  and  N_26 
REMARK       I    between atoms: N_26  and  C_27 
REMARK   12  A    between atoms: C_27  and  C_29 
ROOT
ATOM      1  C   UNL d   1      25.748 -14.156  -1.920  0.00  0.00     0.185 C 
ENDROOT
BRANCH   1   2
ATOM      2  C   UNL d   1      24.894 -15.450  -2.042  0.00  0.00     0.282 C 
ATOM      3  O   UNL d   1      23.666 -15.489  -1.992  0.00  0.00    -0.263 OA
BRANCH   2   4
ATOM      4  O   UNL d   1      25.666 -16.569  -2.164  0.00  0.00    -0.310 OA
BRANCH   4   5
ATOM      5  C   UNL d   1      26.143 -17.090  -0.906  0.00  0.00     0.283 C 
BRANCH   5   6
ATOM      6  C   UNL d   1      25.065 -17.935  -0.197  0.00  0.00     0.260 C 
ATOM      7  O   UNL d   1      25.296 -18.574   0.835  0.00  0.00    -0.269 OA
ATOM      8  N   UNL d   1      23.799 -17.932  -0.775  0.00  0.00    -0.265 N 
ATOM      9  H   UNL d   1      23.540 -17.419  -1.617  0.00  0.00     0.190 HD
BRANCH   8  10
ATOM     10  N   UNL d   1      22.771 -18.700  -0.158  0.00  0.00    -0.263 N 
ATOM     11  C   UNL d   1      21.435 -18.484  -0.465  0.00  0.00     0.270 C 
ATOM     12  O   UNL d   1      21.056 -17.628  -1.270  0.00  0.00    -0.266 OA
ATOM     13  H   UNL d   1      23.086 -19.466   0.440  0.00  0.00     0.190 HD
BRANCH  11  14
ATOM     14  C   UNL d   1      20.440 -19.340   0.258  0.00  0.00     0.033 A 
ATOM     15  C   UNL d   1      19.460 -20.077  -0.430  0.00  0.00     0.017 A 
ATOM     16  C   UNL d   1      18.496 -20.811   0.281  0.00  0.00     0.001 A 
ATOM     17  C   UNL d   1      18.533 -20.851   1.675  0.00  0.00     0.000 A 
ATOM     18  C   UNL d   1      19.492 -20.110   2.361  0.00  0.00     0.001 A 
ATOM     19  C   UNL d   1      20.431 -19.347   1.659  0.00  0.00     0.017 A 
ENDBRANCH  11  14
ENDBRANCH   8  10
ENDBRANCH   5   6
ENDBRANCH   4   5
ENDBRANCH   2   4
ENDBRANCH   1   2
BRANCH   1  20
ATOM     20  N   UNL d   1      26.530 -14.201  -0.657  0.00  0.00    -0.343 N 
ATOM     21  C   UNL d   1      27.070 -13.041  -0.138  0.00  0.00     0.252 C 
ATOM     22  O   UNL d   1      27.066 -11.967  -0.736  0.00  0.00    -0.268 OA
ATOM     23  H   UNL d   1      26.729 -15.087  -0.210  0.00  0.00     0.163 HD
BRANCH  21  24
ATOM     24  C   UNL d   1      27.642 -13.092   1.222  0.00  0.00     0.032 A 
ATOM     25  C   UNL d   1      27.801 -14.340   1.835  0.00  0.00     0.017 A 
ATOM     26  C   UNL d   1      28.089 -14.418   3.198  0.00  0.00     0.009 A 
ATOM     27  C   UNL d   1      28.316 -13.256   3.953  0.00  0.00    -0.051 A 
ATOM     28  C   UNL d   1      28.170 -12.014   3.303  0.00  0.00     0.009 A 
ATOM     29  C   UNL d   1      27.844 -11.925   1.949  0.00  0.00     0.017 A 
BRANCH  27  30
ATOM     30  C   UNL d   1      28.766 -13.361   5.418  0.00  0.00    -0.024 C 
ATOM     31  C   UNL d   1      30.105 -12.632   5.638  0.00  0.00     0.019 C 
ATOM     32  C   UNL d   1      27.691 -12.718   6.321  0.00  0.00     0.019 C 
ATOM     33  C   UNL d   1      28.939 -14.827   5.869  0.00  0.00     0.019 C 
ENDBRANCH  27  30
ENDBRANCH  21  24
ENDBRANCH   1  20
BRANCH   1  34
ATOM     34  C   UNL d   1      26.703 -13.924  -3.115  0.00  0.00     0.045 C 
BRANCH  34  35
ATOM     35  C   UNL d   1      27.461 -15.121  -3.721  0.00  0.00     0.076 C 
BRANCH  35  36
ATOM     36  S   UNL d   1      26.966 -15.200  -5.493  0.00  0.00    -0.173 SA
ATOM     37  C   UNL d   1      28.504 -14.756  -6.338  0.00  0.00     0.089 C 
ENDBRANCH  35  36
ENDBRANCH  34  35
ENDBRANCH   1  34
TORSDOF 12
ENDMDL
MODEL 5
REMARK VINA RESULT:    -9.358      4.918      7.280
REMARK INTER + INTRA:         -15.745
REMARK INTER:                 -12.938
REMARK INTRA:                  -2.807
REMARK CONF_INDEPENDENT:        3.580
REMARK UNBOUND:                -2.807
REMARK  12 active torsions:
REMARK  status: ('A' for Active; 'I' for Inactive)
REMARK    1  A    between atoms: S_2  and  C_3 
REMARK    2  A    between atoms: C_3  and  C_4 
REMARK    3  A    between atoms: C_5  and  C_4 
REMARK    4  A    between atoms: C_5  and  C_19 
REMARK    5  A    between atoms: C_5  and  N_6 
REMARK       I    between atoms: N_6  and  C_7 
REMARK    6  A    between atoms: C_7  and  C_9 
REMARK    7  A    between atoms: C_12  and  C_13 
REMARK    8  A    between atoms: C_19  and  O_21 
REMARK    9  A    between atoms: O_21  and  C_22 
REMARK   10  A    between atoms: C_22  and  C_23 
REMARK       I    between atoms: C_23  and  N_25 
REMARK   11  A    between atoms: N_25  and  N_26 
REMARK       I    between atoms: N_26  and  C_27 
REMARK   12  A    between atoms: C_27  and  C_29 
ROOT
ATOM      1  C   UNL d   1      26.862 -15.403  -3.432  0.00  0.00     0.185 C 
ENDROOT
BRANCH   1   2
ATOM      2  C   UNL d   1      25.573 -15.633  -2.593  0.00  0.00     0.282 C 
ATOM      3  O   UNL d   1      24.771 -14.755  -2.282  0.00  0.00    -0.263 OA
BRANCH   2   4
ATOM      4  O   UNL d   1      25.445 -16.930  -2.186  0.00  0.00    -0.310 OA
BRANCH   4   5
ATOM      5  C   UNL d   1      25.791 -17.146  -0.801  0.00  0.00     0.283 C 
BRANCH   5   6
ATOM      6  C   UNL d   1      24.712 -17.969  -0.070  0.00  0.00     0.260 C 
ATOM      7  O   UNL d   1      24.941 -18.577   0.981  0.00  0.00    -0.269 OA
ATOM      8  N   UNL d   1      23.446 -17.982  -0.648  0.00  0.00    -0.265 N 
ATOM      9  H   UNL d   1      23.189 -17.493  -1.506  0.00  0.00     0.190 HD
BRANCH   8  10
ATOM     10  N   UNL d   1      22.418 -18.731  -0.011  0.00  0.00    -0.263 N 
ATOM     11  C   UNL d   1      21.090 -18.584  -0.385  0.00  0.00     0.270 C 
ATOM     12  O   UNL d   1      20.718 -17.808  -1.271  0.00  0.00    -0.266 OA
ATOM     13  H   UNL d   1      22.731 -19.435   0.659  0.00  0.00     0.190 HD
BRANCH  11  14
ATOM     14  C   UNL d   1      20.091 -19.411   0.367  0.00  0.00     0.033 A 
ATOM     15  C   UNL d   1      20.190 -19.610   1.754  0.00  0.00     0.017 A 
ATOM     16  C   UNL d   1      19.280 -20.451   2.417  0.00  0.00     0.001 A 
ATOM     17  C   UNL d   1      18.243 -21.059   1.708  0.00  0.00     0.000 A 
ATOM     18  C   UNL d   1      18.152 -20.878   0.330  0.00  0.00     0.001 A 
ATOM     19  C   UNL d   1      19.077 -20.071  -0.340  0.00  0.00     0.017 A 
ENDBRANCH  11  14
ENDBRANCH   8  10
ENDBRANCH   5   6
ENDBRANCH   4   5
ENDBRANCH   2   4
ENDBRANCH   1   2
BRANCH   1  20
ATOM     20  N   UNL d   1      26.917 -13.984  -3.869  0.00  0.00    -0.343 N 
ATOM     21  C   UNL d   1      25.828 -13.413  -4.496  0.00  0.00     0.252 C 
ATOM     22  O   UNL d   1      24.840 -14.052  -4.850  0.00  0.00    -0.268 OA
ATOM     23  H   UNL d   1      27.773 -13.452  -3.774  0.00  0.00     0.163 HD
BRANCH  21  24
ATOM     24  C   UNL d   1      25.840 -11.952  -4.710  0.00  0.00     0.032 A 
ATOM     25  C   UNL d   1      25.773 -11.112  -3.593  0.00  0.00     0.017 A 
ATOM     26  C   UNL d   1      25.522  -9.749  -3.756  0.00  0.00     0.009 A 
ATOM     27  C   UNL d   1      25.425  -9.184  -5.039  0.00  0.00    -0.051 A 
ATOM     28  C   UNL d   1      25.518 -10.053  -6.145  0.00  0.00     0.009 A 
ATOM     29  C   UNL d   1      25.732 -11.423  -5.990  0.00  0.00     0.017 A 
BRANCH  27  30
ATOM     30  C   UNL d   1      25.286  -7.664  -5.205  0.00  0.00    -0.024 C 
ATOM     31  C   UNL d   1      23.886  -7.292  -5.730  0.00  0.00     0.019 C 
ATOM     32  C   UNL d   1      25.502  -6.987  -3.833  0.00  0.00     0.019 C 
ATOM     33  C   UNL d   1      26.333  -7.087  -6.181  0.00  0.00     0.019 C 
ENDBRANCH  27  30
ENDBRANCH  21  24
ENDBRANCH   1  20
BRANCH   1  34
ATOM     34  C   UNL d   1      28.167 -15.767  -2.682  0.00  0.00     0.045 C 
BRANCH  34  35
ATOM     35  C   UNL d   1      29.467 -15.969  -3.482  0.00  0.00     0.076 C 
BRANCH  35  36
ATOM     36  S   UNL d   1      28.987 -15.938  -5.260  0.00  0.00    -0.173 SA
ATOM     37  C   UNL d   1      29.285 -14.209  -5.706  0.00  0.00     0.089 C 
ENDBRANCH  35  36
ENDBRANCH  34  35
ENDBRANCH   1  34
TORSDOF 12
ENDMDL
MODEL 6
REMARK VINA RESULT:    -9.242      3.719      8.345
REMARK INTER + INTRA:         -15.520
REMARK INTER:                 -12.821
REMARK INTRA:                  -2.699
REMARK CONF_INDEPENDENT:        3.580
REMARK UNBOUND:                -2.699
REMARK  12 active torsions:
REMARK  status: ('A' for Active; 'I' for Inactive)
REMARK    1  A    between atoms: S_2  and  C_3 
REMARK    2  A    between atoms: C_3  and  C_4 
REMARK    3  A    between atoms: C_5  and  C_4 
REMARK    4  A    between atoms: C_5  and  C_19 
REMARK    5  A    between atoms: C_5  and  N_6 
REMARK       I    between atoms: N_6  and  C_7 
REMARK    6  A    between atoms: C_7  and  C_9 
REMARK    7  A    between atoms: C_12  and  C_13 
REMARK    8  A    between atoms: C_19  and  O_21 
REMARK    9  A    between atoms: O_21  and  C_22 
REMARK   10  A    between atoms: C_22  and  C_23 
REMARK       I    between atoms: C_23  and  N_25 
REMARK   11  A    between atoms: N_25  and  N_26 
REMARK       I    between atoms: N_26  and  C_27 
REMARK   12  A    between atoms: C_27  and  C_29 
ROOT
ATOM      1  C   UNL d   1      26.712 -14.917  -2.451  0.00  0.00     0.185 C 
ENDROOT
BRANCH   1   2
ATOM      2  C   UNL d   1      25.287 -15.484  -2.708  0.00  0.00     0.282 C 
ATOM      3  O   UNL d   1      24.307 -14.809  -3.016  0.00  0.00    -0.263 OA
BRANCH   2   4
ATOM      4  O   UNL d   1      25.222 -16.832  -2.502  0.00  0.00    -0.310 OA
BRANCH   4   5
ATOM      5  C   UNL d   1      25.725 -17.254  -1.217  0.00  0.00     0.283 C 
BRANCH   5   6
ATOM      6  C   UNL d   1      24.666 -18.051  -0.429  0.00  0.00     0.260 C 
ATOM      7  O   UNL d   1      24.904 -18.562   0.670  0.00  0.00    -0.269 OA
ATOM      8  N   UNL d   1      23.408 -18.154  -1.014  0.00  0.00    -0.265 N 
ATOM      9  H   UNL d   1      23.143 -17.747  -1.911  0.00  0.00     0.190 HD
BRANCH   8  10
ATOM     10  N   UNL d   1      22.398 -18.884  -0.325  0.00  0.00    -0.263 N 
ATOM     11  C   UNL d   1      21.054 -18.596  -0.514  0.00  0.00     0.270 C 
ATOM     12  O   UNL d   1      20.652 -17.706  -1.270  0.00  0.00    -0.266 OA
ATOM     13  H   UNL d   1      22.723 -19.676   0.231  0.00  0.00     0.190 HD
BRANCH  11  14
ATOM     14  C   UNL d   1      20.081 -19.417   0.276  0.00  0.00     0.033 A 
ATOM     15  C   UNL d   1      20.229 -19.611   1.660  0.00  0.00     0.017 A 
ATOM     16  C   UNL d   1      19.341 -20.447   2.358  0.00  0.00     0.001 A 
ATOM     17  C   UNL d   1      18.277 -21.053   1.690  0.00  0.00     0.000 A 
ATOM     18  C   UNL d   1      18.135 -20.876   0.316  0.00  0.00     0.001 A 
ATOM     19  C   UNL d   1      19.039 -20.075  -0.391  0.00  0.00     0.017 A 
ENDBRANCH  11  14
ENDBRANCH   8  10
ENDBRANCH   5   6
ENDBRANCH   4   5
ENDBRANCH   2   4
ENDBRANCH   1   2
BRANCH   1  20
ATOM     20  N   UNL d   1      27.107 -14.046  -3.588  0.00  0.00    -0.343 N 
ATOM     21  C   UNL d   1      27.525 -14.610  -4.777  0.00  0.00     0.252 C 
ATOM     22  O   UNL d   1      27.731 -15.814  -4.919  0.00  0.00    -0.268 OA
ATOM     23  H   UNL d   1      27.139 -13.040  -3.476  0.00  0.00     0.163 HD
BRANCH  21  24
ATOM     24  C   UNL d   1      27.691 -13.722  -5.944  0.00  0.00     0.032 A 
ATOM     25  C   UNL d   1      28.531 -14.135  -6.985  0.00  0.00     0.017 A 
ATOM     26  C   UNL d   1      28.918 -13.229  -7.974  0.00  0.00     0.009 A 
ATOM     27  C   UNL d   1      28.401 -11.922  -7.994  0.00  0.00    -0.051 A 
ATOM     28  C   UNL d   1      27.541 -11.542  -6.944  0.00  0.00     0.009 A 
ATOM     29  C   UNL d   1      27.178 -12.430  -5.930  0.00  0.00     0.017 A 
BRANCH  27  30
ATOM     30  C   UNL d   1      28.728 -10.980  -9.162  0.00  0.00    -0.024 C 
ATOM     31  C   UNL d   1      29.337  -9.660  -8.653  0.00  0.00     0.019 C 
ATOM     32  C   UNL d   1      29.746 -11.674 -10.096  0.00  0.00     0.019 C 
ATOM     33  C   UNL d   1      27.480 -10.641 -10.003  0.00  0.00     0.019 C 
ENDBRANCH  27  30
ENDBRANCH  21  24
ENDBRANCH   1  20
BRANCH   1  34
ATOM     34  C   UNL d   1      26.840 -14.130  -1.124  0.00  0.00     0.045 C 
BRANCH  34  35
ATOM     35  C   UNL d   1      27.406 -14.837   0.122  0.00  0.00     0.076 C 
BRANCH  35  36
ATOM     36  S   UNL d   1      27.800 -13.507   1.333  0.00  0.00    -0.173 SA
ATOM     37  C   UNL d   1      28.469 -14.448   2.729  0.00  0.00     0.089 C 
ENDBRANCH  35  36
ENDBRANCH  34  35
ENDBRANCH   1  34
TORSDOF 12
ENDMDL
MODEL 7
REMARK VINA RESULT:    -9.182      4.851      7.753
REMARK INTER + INTRA:         -16.509
REMARK INTER:                 -12.762
REMARK INTRA:                  -3.747
REMARK CONF_INDEPENDENT:        3.580
REMARK UNBOUND:                -3.747
REMARK  12 active torsions:
REMARK  status: ('A' for Active; 'I' for Inactive)
REMARK    1  A    between atoms: S_2  and  C_3 
REMARK    2  A    between atoms: C_3  and  C_4 
REMARK    3  A    between atoms: C_5  and  C_4 
REMARK    4  A    between atoms: C_5  and  C_19 
REMARK    5  A    between atoms: C_5  and  N_6 
REMARK       I    between atoms: N_6  and  C_7 
REMARK    6  A    between atoms: C_7  and  C_9 
REMARK    7  A    between atoms: C_12  and  C_13 
REMARK    8  A    between atoms: C_19  and  O_21 
REMARK    9  A    between atoms: O_21  and  C_22 
REMARK   10  A    between atoms: C_22  and  C_23 
REMARK       I    between atoms: C_23  and  N_25 
REMARK   11  A    between atoms: N_25  and  N_26 
REMARK       I    between atoms: N_26  and  C_27 
REMARK   12  A    between atoms: C_27  and  C_29 
ROOT
ATOM      1  C   UNL d   1      26.177 -14.282  -2.686  0.00  0.00     0.185 C 
ENDROOT
BRANCH   1   2
ATOM      2  C   UNL d   1      25.205 -15.462  -2.402  0.00  0.00     0.282 C 
ATOM      3  O   UNL d   1      23.987 -15.354  -2.272  0.00  0.00    -0.263 OA
BRANCH   2   4
ATOM      4  O   UNL d   1      25.863 -16.650  -2.257  0.00  0.00    -0.310 OA
BRANCH   4   5
ATOM      5  C   UNL d   1      26.240 -16.948  -0.897  0.00  0.00     0.283 C 
BRANCH   5   6
ATOM      6  C   UNL d   1      25.191 -17.838  -0.201  0.00  0.00     0.260 C 
ATOM      7  O   UNL d   1      25.471 -18.573   0.752  0.00  0.00    -0.269 OA
ATOM      8  N   UNL d   1      23.891 -17.762  -0.693  0.00  0.00    -0.265 N 
ATOM      9  H   UNL d   1      23.591 -17.169  -1.466  0.00  0.00     0.190 HD
BRANCH   8  10
ATOM     10  N   UNL d   1      22.887 -18.567  -0.084  0.00  0.00    -0.263 N 
ATOM     11  C   UNL d   1      21.551 -18.430  -0.433  0.00  0.00     0.270 C 
ATOM     12  O   UNL d   1      21.151 -17.615  -1.270  0.00  0.00    -0.266 OA
ATOM     13  H   UNL d   1      23.225 -19.300   0.542  0.00  0.00     0.190 HD
BRANCH  11  14
ATOM     14  C   UNL d   1      20.582 -19.319   0.285  0.00  0.00     0.033 A 
ATOM     15  C   UNL d   1      19.607 -20.060  -0.405  0.00  0.00     0.017 A 
ATOM     16  C   UNL d   1      18.666 -20.826   0.304  0.00  0.00     0.001 A 
ATOM     17  C   UNL d   1      18.721 -20.893   1.696  0.00  0.00     0.000 A 
ATOM     18  C   UNL d   1      19.675 -20.147   2.384  0.00  0.00     0.001 A 
ATOM     19  C   UNL d   1      20.591 -19.353   1.686  0.00  0.00     0.017 A 
ENDBRANCH  11  14
ENDBRANCH   8  10
ENDBRANCH   5   6
ENDBRANCH   4   5
ENDBRANCH   2   4
ENDBRANCH   1   2
BRANCH   1  20
ATOM     20  N   UNL d   1      27.441 -14.812  -3.257  0.00  0.00    -0.343 N 
ATOM     21  C   UNL d   1      27.472 -15.270  -4.559  0.00  0.00     0.252 C 
ATOM     22  O   UNL d   1      26.465 -15.401  -5.254  0.00  0.00    -0.268 OA
ATOM     23  H   UNL d   1      28.266 -14.907  -2.677  0.00  0.00     0.163 HD
BRANCH  21  24
ATOM     24  C   UNL d   1      28.787 -15.577  -5.155  0.00  0.00     0.032 A 
ATOM     25  C   UNL d   1      29.178 -14.882  -6.305  0.00  0.00     0.017 A 
ATOM     26  C   UNL d   1      30.281 -15.315  -7.043  0.00  0.00     0.009 A 
ATOM     27  C   UNL d   1      31.067 -16.391  -6.598  0.00  0.00    -0.051 A 
ATOM     28  C   UNL d   1      30.659 -17.058  -5.425  0.00  0.00     0.009 A 
ATOM     29  C   UNL d   1      29.536 -16.655  -4.701  0.00  0.00     0.017 A 
BRANCH  27  30
ATOM     30  C   UNL d   1      32.354 -16.769  -7.346  0.00  0.00    -0.024 C 
ATOM     31  C   UNL d   1      32.273 -18.207  -7.893  0.00  0.00     0.019 C 
ATOM     32  C   UNL d   1      32.553 -15.793  -8.528  0.00  0.00     0.019 C 
ATOM     33  C   UNL d   1      33.602 -16.668  -6.444  0.00  0.00     0.019 C 
ENDBRANCH  27  30
ENDBRANCH  21  24
ENDBRANCH   1  20
BRANCH   1  34
ATOM     34  C   UNL d   1      25.590 -13.205  -3.631  0.00  0.00     0.045 C 
BRANCH  34  35
ATOM     35  C   UNL d   1      26.386 -11.911  -3.888  0.00  0.00     0.076 C 
BRANCH  35  36
ATOM     36  S   UNL d   1      27.040 -12.042  -5.604  0.00  0.00    -0.173 SA
ATOM     37  C   UNL d   1      26.048 -10.811  -6.486  0.00  0.00     0.089 C 
ENDBRANCH  35  36
ENDBRANCH  34  35
ENDBRANCH   1  34
TORSDOF 12
ENDMDL
MODEL 8
REMARK VINA RESULT:    -8.012      2.890      9.264
REMARK INTER + INTRA:         -15.582
REMARK INTER:                 -11.592
REMARK INTRA:                  -3.991
REMARK CONF_INDEPENDENT:        3.580
REMARK UNBOUND:                -3.991
REMARK  12 active torsions:
REMARK  status: ('A' for Active; 'I' for Inactive)
REMARK    1  A    between atoms: S_2  and  C_3 
REMARK    2  A    between atoms: C_3  and  C_4 
REMARK    3  A    between atoms: C_5  and  C_4 
REMARK    4  A    between atoms: C_5  and  C_19 
REMARK    5  A    between atoms: C_5  and  N_6 
REMARK       I    between atoms: N_6  and  C_7 
REMARK    6  A    between atoms: C_7  and  C_9 
REMARK    7  A    between atoms: C_12  and  C_13 
REMARK    8  A    between atoms: C_19  and  O_21 
REMARK    9  A    between atoms: O_21  and  C_22 
REMARK   10  A    between atoms: C_22  and  C_23 
REMARK       I    between atoms: C_23  and  N_25 
REMARK   11  A    between atoms: N_25  and  N_26 
REMARK       I    between atoms: N_26  and  C_27 
REMARK   12  A    between atoms: C_27  and  C_29 
ROOT
ATOM      1  C   UNL d   1      24.954 -17.243  -0.430  0.00  0.00     0.185 C 
ENDROOT
BRANCH   1   2
ATOM      2  C   UNL d   1      26.089 -18.083   0.222  0.00  0.00     0.282 C 
ATOM      3  O   UNL d   1      26.047 -18.564   1.352  0.00  0.00    -0.263 OA
BRANCH   2   4
ATOM      4  O   UNL d   1      27.184 -18.190  -0.588  0.00  0.00    -0.310 OA
BRANCH   4   5
ATOM      5  C   UNL d   1      28.319 -17.419  -0.143  0.00  0.00     0.283 C 
BRANCH   5   6
ATOM      6  C   UNL d   1      27.950 -15.936   0.063  0.00  0.00     0.260 C 
ATOM      7  O   UNL d   1      27.530 -15.224  -0.855  0.00  0.00    -0.269 OA
ATOM      8  N   UNL d   1      28.100 -15.434   1.353  0.00  0.00    -0.265 N 
ATOM      9  H   UNL d   1      28.430 -15.970   2.155  0.00  0.00     0.190 HD
BRANCH   8  10
ATOM     10  N   UNL d   1      27.775 -14.069   1.590  0.00  0.00    -0.263 N 
ATOM     11  C   UNL d   1      27.727 -13.560   2.881  0.00  0.00     0.270 C 
ATOM     12  O   UNL d   1      27.951 -14.242   3.886  0.00  0.00    -0.266 OA
ATOM     13  H   UNL d   1      27.676 -13.484   0.759  0.00  0.00     0.190 HD
BRANCH  11  14
ATOM     14  C   UNL d   1      27.358 -12.114   3.012  0.00  0.00     0.033 A 
ATOM     15  C   UNL d   1      26.659 -11.434   2.000  0.00  0.00     0.017 A 
ATOM     16  C   UNL d   1      26.394 -10.059   2.122  0.00  0.00     0.001 A 
ATOM     17  C   UNL d   1      26.782  -9.369   3.271  0.00  0.00     0.000 A 
ATOM     18  C   UNL d   1      27.488 -10.036   4.269  0.00  0.00     0.001 A 
ATOM     19  C   UNL d   1      27.788 -11.396   4.136  0.00  0.00     0.017 A 
ENDBRANCH  11  14
ENDBRANCH   8  10
ENDBRANCH   5   6
ENDBRANCH   4   5
ENDBRANCH   2   4
ENDBRANCH   1   2
BRANCH   1  20
ATOM     20  N   UNL d   1      25.496 -16.511  -1.604  0.00  0.00    -0.343 N 
ATOM     21  C   UNL d   1      24.712 -15.584  -2.261  0.00  0.00     0.252 C 
ATOM     22  O   UNL d   1      23.518 -15.417  -2.021  0.00  0.00    -0.268 OA
ATOM     23  H   UNL d   1      26.412 -16.738  -1.970  0.00  0.00     0.163 HD
BRANCH  21  24
ATOM     24  C   UNL d   1      25.357 -14.724  -3.272  0.00  0.00     0.032 A 
ATOM     25  C   UNL d   1      26.195 -15.321  -4.222  0.00  0.00     0.017 A 
ATOM     26  C   UNL d   1      27.020 -14.530  -5.023  0.00  0.00     0.009 A 
ATOM     27  C   UNL d   1      26.957 -13.128  -4.957  0.00  0.00    -0.051 A 
ATOM     28  C   UNL d   1      26.088 -12.556  -4.006  0.00  0.00     0.009 A 
ATOM     29  C   UNL d   1      25.287 -13.340  -3.174  0.00  0.00     0.017 A 
BRANCH  27  30
ATOM     30  C   UNL d   1      27.769 -12.271  -5.939  0.00  0.00    -0.024 C 
ATOM     31  C   UNL d   1      26.857 -11.291  -6.701  0.00  0.00     0.019 C 
ATOM     32  C   UNL d   1      28.823 -11.465  -5.148  0.00  0.00     0.019 C 
ATOM     33  C   UNL d   1      28.522 -13.131  -6.976  0.00  0.00     0.019 C 
ENDBRANCH  27  30
ENDBRANCH  21  24
ENDBRANCH   1  20
BRANCH   1  34
ATOM     34  C   UNL d   1      23.727 -18.083  -0.861  0.00  0.00     0.045 C 
BRANCH  34  35
ATOM     35  C   UNL d   1      22.519 -18.199   0.087  0.00  0.00     0.076 C 
BRANCH  35  36
ATOM     36  S   UNL d   1      21.165 -18.968  -0.895  0.00  0.00    -0.173 SA
ATOM     37  C   UNL d   1      20.076 -19.618   0.398  0.00  0.00     0.089 C 
ENDBRANCH  35  36
ENDBRANCH  34  35
ENDBRANCH   1  34
TORSDOF 12
ENDMDL
MODEL 9
REMARK VINA RESULT:    -7.532      4.766      9.677
REMARK INTER + INTRA:         -16.392
REMARK INTER:                 -11.112
REMARK INTRA:                  -5.280
REMARK CONF_INDEPENDENT:        3.580
REMARK UNBOUND:                -5.280
REMARK  12 active torsions:
REMARK  status: ('A' for Active; 'I' for Inactive)
REMARK    1  A    between atoms: S_2  and  C_3 
REMARK    2  A    between atoms: C_3  and  C_4 
REMARK    3  A    between atoms: C_5  and  C_4 
REMARK    4  A    between atoms: C_5  and  C_19 
REMARK    5  A    between atoms: C_5  and  N_6 
REMARK       I    between atoms: N_6  and  C_7 
REMARK    6  A    between atoms: C_7  and  C_9 
REMARK    7  A    between atoms: C_12  and  C_13 
REMARK    8  A    between atoms: C_19  and  O_21 
REMARK    9  A    between atoms: O_21  and  C_22 
REMARK   10  A    between atoms: C_22  and  C_23 
REMARK       I    between atoms: C_23  and  N_25 
REMARK   11  A    between atoms: N_25  and  N_26 
REMARK       I    between atoms: N_26  and  C_27 
REMARK   12  A    between atoms: C_27  and  C_29 
ROOT
ATOM      1  C   UNL d   1      24.999 -17.109  -0.106  0.00  0.00     0.185 C 
ENDROOT
BRANCH   1   2
ATOM      2  C   UNL d   1      26.264 -18.012  -0.044  0.00  0.00     0.282 C 
ATOM      3  O   UNL d   1      26.459 -18.892   0.793  0.00  0.00    -0.263 OA
BRANCH   2   4
ATOM      4  O   UNL d   1      27.179 -17.687  -1.003  0.00  0.00    -0.310 OA
BRANCH   4   5
ATOM      5  C   UNL d   1      28.312 -16.946  -0.504  0.00  0.00     0.283 C 
BRANCH   5   6
ATOM      6  C   UNL d   1      28.947 -16.073  -1.605  0.00  0.00     0.260 C 
ATOM      7  O   UNL d   1      29.966 -15.402  -1.415  0.00  0.00    -0.269 OA
ATOM      8  N   UNL d   1      28.316 -16.088  -2.846  0.00  0.00    -0.265 N 
ATOM      9  H   UNL d   1      27.481 -16.627  -3.073  0.00  0.00     0.190 HD
BRANCH   8  10
ATOM     10  N   UNL d   1      28.864 -15.294  -3.894  0.00  0.00    -0.263 N 
ATOM     11  C   UNL d   1      28.165 -15.089  -5.075  0.00  0.00     0.270 C 
ATOM     12  O   UNL d   1      27.051 -15.575  -5.295  0.00  0.00    -0.266 OA
ATOM     13  H   UNL d   1      29.743 -14.821  -3.680  0.00  0.00     0.190 HD
BRANCH  11  14
ATOM     14  C   UNL d   1      28.846 -14.251  -6.114  0.00  0.00     0.033 A 
ATOM     15  C   UNL d   1      28.152 -13.273  -6.846  0.00  0.00     0.017 A 
ATOM     16  C   UNL d   1      28.802 -12.555  -7.864  0.00  0.00     0.001 A 
ATOM     17  C   UNL d   1      30.155 -12.777  -8.124  0.00  0.00     0.000 A 
ATOM     18  C   UNL d   1      30.842 -13.756  -7.411  0.00  0.00     0.001 A 
ATOM     19  C   UNL d   1      30.190 -14.500  -6.422  0.00  0.00     0.017 A 
ENDBRANCH  11  14
ENDBRANCH   8  10
ENDBRANCH   5   6
ENDBRANCH   4   5
ENDBRANCH   2   4
ENDBRANCH   1   2
BRANCH   1  20
ATOM     20  N   UNL d   1      25.350 -15.815  -0.745  0.00  0.00    -0.343 N 
ATOM     21  C   UNL d   1      25.417 -15.721  -2.121  0.00  0.00     0.252 C 
ATOM     22  O   UNL d   1      25.340 -16.692  -2.870  0.00  0.00    -0.268 OA
ATOM     23  H   UNL d   1      25.610 -15.017  -0.179  0.00  0.00     0.163 HD
BRANCH  21  24
ATOM     24  C   UNL d   1      25.546 -14.377  -2.718  0.00  0.00     0.032 A 
ATOM     25  C   UNL d   1      24.861 -14.104  -3.907  0.00  0.00     0.017 A 
ATOM     26  C   UNL d   1      25.155 -12.951  -4.636  0.00  0.00     0.009 A 
ATOM     27  C   UNL d   1      26.071 -12.004  -4.146  0.00  0.00    -0.051 A 
ATOM     28  C   UNL d   1      26.729 -12.297  -2.935  0.00  0.00     0.009 A 
ATOM     29  C   UNL d   1      26.469 -13.466  -2.218  0.00  0.00     0.017 A 
BRANCH  27  30
ATOM     30  C   UNL d   1      26.283 -10.677  -4.890  0.00  0.00    -0.024 C 
ATOM     31  C   UNL d   1      27.778 -10.310  -4.948  0.00  0.00     0.019 C 
ATOM     32  C   UNL d   1      25.745 -10.819  -6.332  0.00  0.00     0.019 C 
ATOM     33  C   UNL d   1      25.527  -9.510  -4.223  0.00  0.00     0.019 C 
ENDBRANCH  27  30
ENDBRANCH  21  24
ENDBRANCH   1  20
BRANCH   1  34
ATOM     34  C   UNL d   1      23.809 -17.755  -0.857  0.00  0.00     0.045 C 
BRANCH  34  35
ATOM     35  C   UNL d   1      22.444 -17.870  -0.152  0.00  0.00     0.076 C 
BRANCH  35  36
ATOM     36  S   UNL d   1      21.403 -18.950  -1.221  0.00  0.00    -0.173 SA
ATOM     37  C   UNL d   1      20.295 -19.724  -0.017  0.00  0.00     0.089 C 
ENDBRANCH  35  36
ENDBRANCH  34  35
ENDBRANCH   1  34
TORSDOF 12
ENDMDL
