MODEL 1
REMARK VINA RESULT:    -9.628      0.000      0.000
REMARK INTER + INTRA:         -13.774
REMARK INTER:                 -12.312
REMARK INTRA:                  -1.462
REMARK CONF_INDEPENDENT:        2.685
REMARK UNBOUND:                -1.462
REMARK  9 active torsions:
REMARK  status: ('A' for Active; 'I' for Inactive)
REMARK    1  A    between atoms: O_2  and  C_3 
REMARK    2  A    between atoms: C_3  and  C_5 
REMARK    3  A    between atoms: C_8  and  N_9 
REMARK    4  A    between atoms: N_9  and  C_10 
REMARK    5  A    between atoms: C_10  and  C_11 
REMARK       I    between atoms: C_11  and  N_13 
REMARK    6  A    between atoms: N_13  and  C_14 
REMARK    7  A    between atoms: C_18  and  C_19 
REMARK       I    between atoms: C_19  and  N_21 
REMARK    8  A    between atoms: N_21  and  C_22 
REMARK    9  A    between atoms: C_22  and  C_24 
ROOT
ATOM      1  C   UNL d   1      28.213 -14.261   2.613  0.00  0.00     0.035 A 
ATOM      2  C   UNL d   1      28.223 -12.909   2.260  0.00  0.00     0.029 A 
ATOM      3  C   UNL d   1      28.520 -11.939   3.226  0.00  0.00     0.003 A 
ATOM      4  C   UNL d   1      28.796 -12.318   4.543  0.00  0.00     0.017 A 
ATOM      5  C   UNL d   1      28.822 -13.674   4.898  0.00  0.00     0.034 A 
ATOM      6  C   UNL d   1      28.512 -14.629   3.928  0.00  0.00     0.046 A 
ENDROOT
BRANCH   1   7
ATOM      7  N   UNL d   1      27.966 -15.269   1.648  0.00  0.00    -0.326 N 
ATOM      8  C   UNL d   1      26.982 -15.135   0.666  0.00  0.00     0.239 C 
ATOM      9  O   UNL d   1      26.299 -14.117   0.511  0.00  0.00    -0.271 OA
ATOM     10  H   UNL d   1      28.613 -16.048   1.617  0.00  0.00     0.169 HD
BRANCH   8  11
ATOM     11  C   UNL d   1      26.795 -16.348  -0.264  0.00  0.00     0.223 C 
BRANCH  11  12
ATOM     12  N   UNL d   1      25.577 -16.189  -1.075  0.00  0.00    -0.381 N 
ATOM     13  H   UNL d   1      25.488 -15.275  -1.522  0.00  0.00     0.160 HD
BRANCH  12  14
ATOM     14  C   UNL d   1      24.431 -16.947  -0.893  0.00  0.00     0.028 A 
ATOM     15  C   UNL d   1      23.162 -16.362  -1.019  0.00  0.00     0.030 A 
ATOM     16  C   UNL d   1      21.984 -17.113  -0.835  0.00  0.00     0.020 A 
ATOM     17  C   UNL d   1      22.051 -18.491  -0.601  0.00  0.00     0.039 A 
ATOM     18  C   UNL d   1      23.305 -19.096  -0.518  0.00  0.00     0.020 A 
ATOM     19  C   UNL d   1      24.472 -18.329  -0.671  0.00  0.00     0.030 A 
BRANCH  17  20
ATOM     20  C   UNL d   1      20.807 -19.302  -0.601  0.00  0.00     0.292 C 
ATOM     21  O   UNL d   1      20.281 -19.702  -1.638  0.00  0.00    -0.259 OA
BRANCH  20  22
ATOM     22  O   UNL d   1      20.350 -19.532   0.655  0.00  0.00    -0.323 OA
ATOM     23  C   UNL d   1      19.164 -20.339   0.709  0.00  0.00     0.213 C 
ENDBRANCH  20  22
ENDBRANCH  17  20
ENDBRANCH  12  14
ENDBRANCH  11  12
ENDBRANCH   8  11
ENDBRANCH   1   7
BRANCH   5  24
ATOM     24  C   UNL d   1      29.239 -14.053   6.280  0.00  0.00     0.252 C 
ATOM     25  O   UNL d   1      28.531 -14.826   6.919  0.00  0.00    -0.268 OA
ATOM     26  N   UNL d   1      30.403 -13.504   6.789  0.00  0.00    -0.349 N 
ATOM     27  H   UNL d   1      30.958 -12.851   6.259  0.00  0.00     0.163 HD
BRANCH  26  28
ATOM     28  C   UNL d   1      30.911 -13.844   8.113  0.00  0.00     0.114 C 
ATOM     29  C   UNL d   1      32.123 -12.975   8.468  0.00  0.00     0.037 C 
BRANCH  28  30
ATOM     30  C   UNL d   1      29.796 -13.682   9.145  0.00  0.00    -0.036 A 
ATOM     31  C   UNL d   1      29.118 -12.463   9.299  0.00  0.00     0.009 A 
ATOM     32  C   UNL d   1      28.188 -12.295  10.332  0.00  0.00     0.001 A 
ATOM     33  C   UNL d   1      27.863 -13.360  11.171  0.00  0.00     0.000 A 
ATOM     34  C   UNL d   1      28.497 -14.584  11.008  0.00  0.00     0.001 A 
ATOM     35  C   UNL d   1      29.465 -14.734  10.019  0.00  0.00     0.009 A 
ENDBRANCH  28  30
ENDBRANCH  26  28
ENDBRANCH   5  24
TORSDOF 9
ENDMDL
MODEL 2
REMARK VINA RESULT:    -9.220      6.867     10.683
REMARK INTER + INTRA:         -13.267
REMARK INTER:                 -11.905
REMARK INTRA:                  -1.362
REMARK CONF_INDEPENDENT:        2.685
REMARK UNBOUND:                -1.362
REMARK  9 active torsions:
REMARK  status: ('A' for Active; 'I' for Inactive)
REMARK    1  A    between atoms: O_2  and  C_3 
REMARK    2  A    between atoms: C_3  and  C_5 
REMARK    3  A    between atoms: C_8  and  N_9 
REMARK    4  A    between atoms: N_9  and  C_10 
REMARK    5  A    between atoms: C_10  and  C_11 
REMARK       I    between atoms: C_11  and  N_13 
REMARK    6  A    between atoms: N_13  and  C_14 
REMARK    7  A    between atoms: C_18  and  C_19 
REMARK       I    between atoms: C_19  and  N_21 
REMARK    8  A    between atoms: N_21  and  C_22 
REMARK    9  A    between atoms: C_22  and  C_24 
ROOT
ATOM      1  C   UNL d   1      26.805 -15.159  -3.515  0.00  0.00     0.035 A 
ATOM      2  C   UNL d   1      25.994 -14.062  -3.819  0.00  0.00     0.029 A 
ATOM      3  C   UNL d   1      26.271 -13.281  -4.949  0.00  0.00     0.003 A 
ATOM      4  C   UNL d   1      27.361 -13.590  -5.768  0.00  0.00     0.017 A 
ATOM      5  C   UNL d   1      28.159 -14.709  -5.490  0.00  0.00     0.034 A 
ATOM      6  C   UNL d   1      27.878 -15.470  -4.355  0.00  0.00     0.046 A 
ENDROOT
BRANCH   1   7
ATOM      7  N   UNL d   1      26.521 -15.997  -2.409  0.00  0.00    -0.326 N 
ATOM      8  C   UNL d   1      27.526 -16.508  -1.584  0.00  0.00     0.239 C 
ATOM      9  O   UNL d   1      28.722 -16.224  -1.701  0.00  0.00    -0.271 OA
ATOM     10  H   UNL d   1      25.546 -16.119  -2.159  0.00  0.00     0.169 HD
BRANCH   8  11
ATOM     11  C   UNL d   1      27.055 -17.456  -0.466  0.00  0.00     0.223 C 
BRANCH  11  12
ATOM     12  N   UNL d   1      25.793 -16.974   0.118  0.00  0.00    -0.381 N 
ATOM     13  H   UNL d   1      25.899 -16.520   1.027  0.00  0.00     0.160 HD
BRANCH  12  14
ATOM     14  C   UNL d   1      24.548 -17.476  -0.226  0.00  0.00     0.028 A 
ATOM     15  C   UNL d   1      24.296 -18.856  -0.171  0.00  0.00     0.030 A 
ATOM     16  C   UNL d   1      23.040 -19.389  -0.520  0.00  0.00     0.020 A 
ATOM     17  C   UNL d   1      21.978 -18.541  -0.854  0.00  0.00     0.039 A 
ATOM     18  C   UNL d   1      22.200 -17.164  -0.869  0.00  0.00     0.020 A 
ATOM     19  C   UNL d   1      23.468 -16.648  -0.551  0.00  0.00     0.030 A 
BRANCH  17  20
ATOM     20  C   UNL d   1      20.613 -19.099  -1.031  0.00  0.00     0.292 C 
ATOM     21  O   UNL d   1      20.275 -19.703  -2.049  0.00  0.00    -0.259 OA
BRANCH  20  22
ATOM     22  O   UNL d   1      19.822 -18.860   0.044  0.00  0.00    -0.323 OA
ATOM     23  C   UNL d   1      20.100 -19.700   1.175  0.00  0.00     0.213 C 
ENDBRANCH  20  22
ENDBRANCH  17  20
ENDBRANCH  12  14
ENDBRANCH  11  12
ENDBRANCH   8  11
ENDBRANCH   1   7
BRANCH   5  24
ATOM     24  C   UNL d   1      29.239 -15.083  -6.450  0.00  0.00     0.252 C 
ATOM     25  O   UNL d   1      29.527 -14.299  -7.349  0.00  0.00    -0.268 OA
ATOM     26  N   UNL d   1      29.862 -16.310  -6.295  0.00  0.00    -0.349 N 
ATOM     27  H   UNL d   1      29.593 -16.953  -5.566  0.00  0.00     0.163 HD
BRANCH  26  28
ATOM     28  C   UNL d   1      30.951 -16.745  -7.159  0.00  0.00     0.114 C 
ATOM     29  C   UNL d   1      32.289 -16.174  -6.675  0.00  0.00     0.037 C 
BRANCH  28  30
ATOM     30  C   UNL d   1      30.989 -18.271  -7.205  0.00  0.00    -0.036 A 
ATOM     31  C   UNL d   1      30.676 -19.042  -6.074  0.00  0.00     0.009 A 
ATOM     32  C   UNL d   1      30.837 -20.433  -6.097  0.00  0.00     0.001 A 
ATOM     33  C   UNL d   1      31.231 -21.080  -7.269  0.00  0.00     0.000 A 
ATOM     34  C   UNL d   1      31.508 -20.335  -8.407  0.00  0.00     0.001 A 
ATOM     35  C   UNL d   1      31.406 -18.948  -8.367  0.00  0.00     0.009 A 
ENDBRANCH  28  30
ENDBRANCH  26  28
ENDBRANCH   5  24
TORSDOF 9
ENDMDL
MODEL 3
REMARK VINA RESULT:    -8.938      1.001      1.559
REMARK INTER + INTRA:         -13.039
REMARK INTER:                 -11.623
REMARK INTRA:                  -1.417
REMARK CONF_INDEPENDENT:        2.685
REMARK UNBOUND:                -1.417
REMARK  9 active torsions:
REMARK  status: ('A' for Active; 'I' for Inactive)
REMARK    1  A    between atoms: O_2  and  C_3 
REMARK    2  A    between atoms: C_3  and  C_5 
REMARK    3  A    between atoms: C_8  and  N_9 
REMARK    4  A    between atoms: N_9  and  C_10 
REMARK    5  A    between atoms: C_10  and  C_11 
REMARK       I    between atoms: C_11  and  N_13 
REMARK    6  A    between atoms: N_13  and  C_14 
REMARK    7  A    between atoms: C_18  and  C_19 
REMARK       I    between atoms: C_19  and  N_21 
REMARK    8  A    between atoms: N_21  and  C_22 
REMARK    9  A    between atoms: C_22  and  C_24 
ROOT
ATOM      1  C   UNL d   1      28.223 -13.682   2.938  0.00  0.00     0.035 A 
ATOM      2  C   UNL d   1      28.306 -12.557   2.114  0.00  0.00     0.029 A 
ATOM      3  C   UNL d   1      28.672 -11.319   2.657  0.00  0.00     0.003 A 
ATOM      4  C   UNL d   1      28.947 -11.204   4.023  0.00  0.00     0.017 A 
ATOM      5  C   UNL d   1      28.899 -12.334   4.852  0.00  0.00     0.034 A 
ATOM      6  C   UNL d   1      28.521 -13.558   4.298  0.00  0.00     0.046 A 
ENDROOT
BRANCH   1   7
ATOM      7  N   UNL d   1      27.904 -14.957   2.409  0.00  0.00    -0.326 N 
ATOM      8  C   UNL d   1      27.402 -15.123   1.116  0.00  0.00     0.239 C 
ATOM      9  O   UNL d   1      27.260 -14.198   0.310  0.00  0.00    -0.271 OA
ATOM     10  H   UNL d   1      28.167 -15.766   2.960  0.00  0.00     0.169 HD
BRANCH   8  11
ATOM     11  C   UNL d   1      27.044 -16.567   0.717  0.00  0.00     0.223 C 
BRANCH  11  12
ATOM     12  N   UNL d   1      26.225 -16.572  -0.506  0.00  0.00    -0.381 N 
ATOM     13  H   UNL d   1      26.433 -15.809  -1.152  0.00  0.00     0.160 HD
BRANCH  12  14
ATOM     14  C   UNL d   1      24.991 -17.196  -0.599  0.00  0.00     0.028 A 
ATOM     15  C   UNL d   1      24.871 -18.575  -0.368  0.00  0.00     0.030 A 
ATOM     16  C   UNL d   1      23.628 -19.231  -0.461  0.00  0.00     0.020 A 
ATOM     17  C   UNL d   1      22.459 -18.502  -0.708  0.00  0.00     0.039 A 
ATOM     18  C   UNL d   1      22.556 -17.123  -0.895  0.00  0.00     0.020 A 
ATOM     19  C   UNL d   1      23.807 -16.487  -0.831  0.00  0.00     0.030 A 
BRANCH  17  20
ATOM     20  C   UNL d   1      21.136 -19.172  -0.612  0.00  0.00     0.292 C 
ATOM     21  O   UNL d   1      20.547 -19.611  -1.599  0.00  0.00    -0.259 OA
BRANCH  20  22
ATOM     22  O   UNL d   1      20.686 -19.229   0.666  0.00  0.00    -0.323 OA
ATOM     23  C   UNL d   1      19.661 -20.212   0.883  0.00  0.00     0.213 C 
ENDBRANCH  20  22
ENDBRANCH  17  20
ENDBRANCH  12  14
ENDBRANCH  11  12
ENDBRANCH   8  11
ENDBRANCH   1   7
BRANCH   5  24
ATOM     24  C   UNL d   1      29.315 -12.203   6.279  0.00  0.00     0.252 C 
ATOM     25  O   UNL d   1      28.531 -11.702   7.079  0.00  0.00    -0.268 OA
ATOM     26  N   UNL d   1      30.578 -12.641   6.639  0.00  0.00    -0.349 N 
ATOM     27  H   UNL d   1      31.219 -13.026   5.964  0.00  0.00     0.163 HD
BRANCH  26  28
ATOM     28  C   UNL d   1      31.058 -12.589   8.015  0.00  0.00     0.114 C 
ATOM     29  C   UNL d   1      31.494 -11.166   8.383  0.00  0.00     0.037 C 
BRANCH  28  30
ATOM     30  C   UNL d   1      29.966 -13.091   8.957  0.00  0.00    -0.036 A 
ATOM     31  C   UNL d   1      29.616 -14.449   9.007  0.00  0.00     0.009 A 
ATOM     32  C   UNL d   1      28.529 -14.872   9.783  0.00  0.00     0.001 A 
ATOM     33  C   UNL d   1      27.831 -13.964  10.578  0.00  0.00     0.000 A 
ATOM     34  C   UNL d   1      28.189 -12.623  10.569  0.00  0.00     0.001 A 
ATOM     35  C   UNL d   1      29.231 -12.192   9.753  0.00  0.00     0.009 A 
ENDBRANCH  28  30
ENDBRANCH  26  28
ENDBRANCH   5  24
TORSDOF 9
ENDMDL
MODEL 4
REMARK VINA RESULT:    -8.691      0.927      2.096
REMARK INTER + INTRA:         -12.770
REMARK INTER:                 -11.375
REMARK INTRA:                  -1.395
REMARK CONF_INDEPENDENT:        2.685
REMARK UNBOUND:                -1.395
REMARK  9 active torsions:
REMARK  status: ('A' for Active; 'I' for Inactive)
REMARK    1  A    between atoms: O_2  and  C_3 
REMARK    2  A    between atoms: C_3  and  C_5 
REMARK    3  A    between atoms: C_8  and  N_9 
REMARK    4  A    between atoms: N_9  and  C_10 
REMARK    5  A    between atoms: C_10  and  C_11 
REMARK       I    between atoms: C_11  and  N_13 
REMARK    6  A    between atoms: N_13  and  C_14 
REMARK    7  A    between atoms: C_18  and  C_19 
REMARK       I    between atoms: C_19  and  N_21 
REMARK    8  A    between atoms: N_21  and  C_22 
REMARK    9  A    between atoms: C_22  and  C_24 
ROOT
ATOM      1  C   UNL d   1      27.838 -13.950   3.030  0.00  0.00     0.035 A 
ATOM      2  C   UNL d   1      27.619 -12.636   2.610  0.00  0.00     0.029 A 
ATOM      3  C   UNL d   1      27.684 -11.587   3.537  0.00  0.00     0.003 A 
ATOM      4  C   UNL d   1      27.957 -11.853   4.882  0.00  0.00     0.017 A 
ATOM      5  C   UNL d   1      28.211 -13.165   5.306  0.00  0.00     0.034 A 
ATOM      6  C   UNL d   1      28.132 -14.200   4.374  0.00  0.00     0.046 A 
ENDROOT
BRANCH   1   7
ATOM      7  N   UNL d   1      27.829 -15.026   2.108  0.00  0.00    -0.326 N 
ATOM      8  C   UNL d   1      27.030 -15.018   0.961  0.00  0.00     0.239 C 
ATOM      9  O   UNL d   1      26.327 -14.062   0.620  0.00  0.00    -0.271 OA
ATOM     10  H   UNL d   1      28.517 -15.758   2.244  0.00  0.00     0.169 HD
BRANCH   8  11
ATOM     11  C   UNL d   1      27.087 -16.292   0.098  0.00  0.00     0.223 C 
BRANCH  11  12
ATOM     12  N   UNL d   1      26.010 -16.278  -0.906  0.00  0.00    -0.381 N 
ATOM     13  H   UNL d   1      26.028 -15.467  -1.527  0.00  0.00     0.160 HD
BRANCH  12  14
ATOM     14  C   UNL d   1      24.820 -16.972  -0.762  0.00  0.00     0.028 A 
ATOM     15  C   UNL d   1      23.590 -16.325  -0.955  0.00  0.00     0.030 A 
ATOM     16  C   UNL d   1      22.367 -17.010  -0.810  0.00  0.00     0.020 A 
ATOM     17  C   UNL d   1      22.352 -18.384  -0.550  0.00  0.00     0.039 A 
ATOM     18  C   UNL d   1      23.567 -19.052  -0.401  0.00  0.00     0.020 A 
ATOM     19  C   UNL d   1      24.779 -18.350  -0.515  0.00  0.00     0.030 A 
BRANCH  17  20
ATOM     20  C   UNL d   1      21.068 -19.130  -0.591  0.00  0.00     0.292 C 
ATOM     21  O   UNL d   1      20.567 -19.523  -1.644  0.00  0.00    -0.259 OA
BRANCH  20  22
ATOM     22  O   UNL d   1      20.545 -19.312   0.647  0.00  0.00    -0.323 OA
ATOM     23  C   UNL d   1      19.609 -20.398   0.735  0.00  0.00     0.213 C 
ENDBRANCH  20  22
ENDBRANCH  17  20
ENDBRANCH  12  14
ENDBRANCH  11  12
ENDBRANCH   8  11
ENDBRANCH   1   7
BRANCH   5  24
ATOM     24  C   UNL d   1      28.620 -13.402   6.722  0.00  0.00     0.252 C 
ATOM     25  O   UNL d   1      28.957 -14.533   7.057  0.00  0.00    -0.268 OA
ATOM     26  N   UNL d   1      28.587 -12.335   7.603  0.00  0.00    -0.349 N 
ATOM     27  H   UNL d   1      28.282 -11.418   7.316  0.00  0.00     0.163 HD
BRANCH  26  28
ATOM     28  C   UNL d   1      29.004 -12.461   8.994  0.00  0.00     0.114 C 
ATOM     29  C   UNL d   1      28.155 -13.509   9.723  0.00  0.00     0.037 C 
BRANCH  28  30
ATOM     30  C   UNL d   1      30.488 -12.817   9.053  0.00  0.00    -0.036 A 
ATOM     31  C   UNL d   1      30.979 -13.739   9.991  0.00  0.00     0.009 A 
ATOM     32  C   UNL d   1      32.356 -13.959  10.114  0.00  0.00     0.001 A 
ATOM     33  C   UNL d   1      33.253 -13.328   9.253  0.00  0.00     0.000 A 
ATOM     34  C   UNL d   1      32.781 -12.442   8.295  0.00  0.00     0.001 A 
ATOM     35  C   UNL d   1      31.417 -12.177   8.211  0.00  0.00     0.009 A 
ENDBRANCH  28  30
ENDBRANCH  26  28
ENDBRANCH   5  24
TORSDOF 9
ENDMDL
MODEL 5
REMARK VINA RESULT:    -8.637      3.918     11.555
REMARK INTER + INTRA:         -12.520
REMARK INTER:                 -11.322
REMARK INTRA:                  -1.199
REMARK CONF_INDEPENDENT:        2.685
REMARK UNBOUND:                -1.199
REMARK  9 active torsions:
REMARK  status: ('A' for Active; 'I' for Inactive)
REMARK    1  A    between atoms: O_2  and  C_3 
REMARK    2  A    between atoms: C_3  and  C_5 
REMARK    3  A    between atoms: C_8  and  N_9 
REMARK    4  A    between atoms: N_9  and  C_10 
REMARK    5  A    between atoms: C_10  and  C_11 
REMARK       I    between atoms: C_11  and  N_13 
REMARK    6  A    between atoms: N_13  and  C_14 
REMARK    7  A    between atoms: C_18  and  C_19 
REMARK       I    between atoms: C_19  and  N_21 
REMARK    8  A    between atoms: N_21  and  C_22 
REMARK    9  A    between atoms: C_22  and  C_24 
ROOT
ATOM      1  C   UNL d   1      27.041 -16.075   0.148  0.00  0.00     0.035 A 
ATOM      2  C   UNL d   1      26.338 -17.273   0.297  0.00  0.00     0.029 A 
ATOM      3  C   UNL d   1      25.393 -17.652  -0.666  0.00  0.00     0.003 A 
ATOM      4  C   UNL d   1      25.145 -16.830  -1.769  0.00  0.00     0.017 A 
ATOM      5  C   UNL d   1      25.870 -15.643  -1.944  0.00  0.00     0.034 A 
ATOM      6  C   UNL d   1      26.798 -15.273  -0.971  0.00  0.00     0.046 A 
ENDROOT
BRANCH   1   7
ATOM      7  N   UNL d   1      28.038 -15.689   1.078  0.00  0.00    -0.326 N 
ATOM      8  C   UNL d   1      27.974 -14.484   1.782  0.00  0.00     0.239 C 
ATOM      9  O   UNL d   1      27.027 -13.695   1.709  0.00  0.00    -0.271 OA
ATOM     10  H   UNL d   1      28.746 -16.376   1.309  0.00  0.00     0.169 HD
BRANCH   8  11
ATOM     11  C   UNL d   1      29.170 -14.184   2.704  0.00  0.00     0.223 C 
BRANCH  11  12
ATOM     12  N   UNL d   1      28.986 -14.835   4.011  0.00  0.00    -0.381 N 
ATOM     13  H   UNL d   1      28.623 -15.788   3.956  0.00  0.00     0.160 HD
BRANCH  12  14
ATOM     14  C   UNL d   1      28.829 -14.138   5.199  0.00  0.00     0.028 A 
ATOM     15  C   UNL d   1      29.665 -14.400   6.295  0.00  0.00     0.030 A 
ATOM     16  C   UNL d   1      29.520 -13.707   7.513  0.00  0.00     0.020 A 
ATOM     17  C   UNL d   1      28.586 -12.672   7.633  0.00  0.00     0.039 A 
ATOM     18  C   UNL d   1      27.778 -12.368   6.537  0.00  0.00     0.020 A 
ATOM     19  C   UNL d   1      27.911 -13.090   5.339  0.00  0.00     0.030 A 
BRANCH  17  20
ATOM     20  C   UNL d   1      28.576 -11.823   8.851  0.00  0.00     0.292 C 
ATOM     21  O   UNL d   1      29.223 -10.780   8.934  0.00  0.00    -0.259 OA
BRANCH  20  22
ATOM     22  O   UNL d   1      27.783 -12.338   9.824  0.00  0.00    -0.323 OA
ATOM     23  C   UNL d   1      28.482 -13.139  10.789  0.00  0.00     0.213 C 
ENDBRANCH  20  22
ENDBRANCH  17  20
ENDBRANCH  12  14
ENDBRANCH  11  12
ENDBRANCH   8  11
ENDBRANCH   1   7
BRANCH   5  24
ATOM     24  C   UNL d   1      25.669 -14.850  -3.193  0.00  0.00     0.252 C 
ATOM     25  O   UNL d   1      25.154 -15.398  -4.163  0.00  0.00    -0.268 OA
ATOM     26  N   UNL d   1      26.088 -13.530  -3.209  0.00  0.00    -0.349 N 
ATOM     27  H   UNL d   1      26.533 -13.105  -2.411  0.00  0.00     0.163 HD
BRANCH  26  28
ATOM     28  C   UNL d   1      25.900 -12.668  -4.369  0.00  0.00     0.114 C 
ATOM     29  C   UNL d   1      25.892 -11.192  -3.951  0.00  0.00     0.037 C 
BRANCH  28  30
ATOM     30  C   UNL d   1      26.996 -12.944  -5.395  0.00  0.00    -0.036 A 
ATOM     31  C   UNL d   1      27.410 -11.956  -6.302  0.00  0.00     0.009 A 
ATOM     32  C   UNL d   1      28.326 -12.263  -7.316  0.00  0.00     0.001 A 
ATOM     33  C   UNL d   1      28.901 -13.532  -7.388  0.00  0.00     0.000 A 
ATOM     34  C   UNL d   1      28.531 -14.509  -6.475  0.00  0.00     0.001 A 
ATOM     35  C   UNL d   1      27.576 -14.222  -5.504  0.00  0.00     0.009 A 
ENDBRANCH  28  30
ENDBRANCH  26  28
ENDBRANCH   5  24
TORSDOF 9
ENDMDL
MODEL 6
REMARK VINA RESULT:    -8.557      3.082      5.444
REMARK INTER + INTRA:         -12.410
REMARK INTER:                 -11.242
REMARK INTRA:                  -1.168
REMARK CONF_INDEPENDENT:        2.685
REMARK UNBOUND:                -1.168
REMARK  9 active torsions:
REMARK  status: ('A' for Active; 'I' for Inactive)
REMARK    1  A    between atoms: O_2  and  C_3 
REMARK    2  A    between atoms: C_3  and  C_5 
REMARK    3  A    between atoms: C_8  and  N_9 
REMARK    4  A    between atoms: N_9  and  C_10 
REMARK    5  A    between atoms: C_10  and  C_11 
REMARK       I    between atoms: C_11  and  N_13 
REMARK    6  A    between atoms: N_13  and  C_14 
REMARK    7  A    between atoms: C_18  and  C_19 
REMARK       I    between atoms: C_19  and  N_21 
REMARK    8  A    between atoms: N_21  and  C_22 
REMARK    9  A    between atoms: C_22  and  C_24 
ROOT
ATOM      1  C   UNL d   1      28.136 -14.163   3.091  0.00  0.00     0.035 A 
ATOM      2  C   UNL d   1      27.755 -14.681   4.332  0.00  0.00     0.029 A 
ATOM      3  C   UNL d   1      27.674 -13.836   5.446  0.00  0.00     0.003 A 
ATOM      4  C   UNL d   1      27.983 -12.478   5.322  0.00  0.00     0.017 A 
ATOM      5  C   UNL d   1      28.333 -11.943   4.074  0.00  0.00     0.034 A 
ATOM      6  C   UNL d   1      28.420 -12.799   2.976  0.00  0.00     0.046 A 
ENDROOT
BRANCH   1   7
ATOM      7  N   UNL d   1      28.177 -14.983   1.936  0.00  0.00    -0.326 N 
ATOM      8  C   UNL d   1      27.397 -14.720   0.808  0.00  0.00     0.239 C 
ATOM      9  O   UNL d   1      26.667 -13.730   0.692  0.00  0.00    -0.271 OA
ATOM     10  H   UNL d   1      28.887 -15.706   1.907  0.00  0.00     0.169 HD
BRANCH   8  11
ATOM     11  C   UNL d   1      27.509 -15.744  -0.337  0.00  0.00     0.223 C 
BRANCH  11  12
ATOM     12  N   UNL d   1      26.886 -17.019   0.054  0.00  0.00    -0.381 N 
ATOM     13  H   UNL d   1      27.543 -17.797   0.138  0.00  0.00     0.160 HD
BRANCH  12  14
ATOM     14  C   UNL d   1      25.545 -17.308  -0.140  0.00  0.00     0.028 A 
ATOM     15  C   UNL d   1      24.676 -16.340  -0.666  0.00  0.00     0.030 A 
ATOM     16  C   UNL d   1      23.308 -16.610  -0.867  0.00  0.00     0.020 A 
ATOM     17  C   UNL d   1      22.795 -17.888  -0.623  0.00  0.00     0.039 A 
ATOM     18  C   UNL d   1      23.656 -18.875  -0.142  0.00  0.00     0.020 A 
ATOM     19  C   UNL d   1      25.011 -18.582   0.086  0.00  0.00     0.030 A 
BRANCH  17  20
ATOM     20  C   UNL d   1      21.402 -18.214  -1.020  0.00  0.00     0.292 C 
ATOM     21  O   UNL d   1      20.567 -17.345  -1.270  0.00  0.00    -0.259 OA
BRANCH  20  22
ATOM     22  O   UNL d   1      21.185 -19.552  -1.067  0.00  0.00    -0.323 OA
ATOM     23  C   UNL d   1      20.330 -20.045  -0.024  0.00  0.00     0.213 C 
ENDBRANCH  20  22
ENDBRANCH  17  20
ENDBRANCH  12  14
ENDBRANCH  11  12
ENDBRANCH   8  11
ENDBRANCH   1   7
BRANCH   5  24
ATOM     24  C   UNL d   1      28.537 -10.469   3.950  0.00  0.00     0.252 C 
ATOM     25  O   UNL d   1      29.495 -10.059   3.302  0.00  0.00    -0.268 OA
ATOM     26  N   UNL d   1      27.642  -9.625   4.584  0.00  0.00    -0.349 N 
ATOM     27  H   UNL d   1      26.876  -9.980   5.134  0.00  0.00     0.163 HD
BRANCH  26  28
ATOM     28  C   UNL d   1      27.738  -8.174   4.488  0.00  0.00     0.114 C 
ATOM     29  C   UNL d   1      29.204  -7.726   4.486  0.00  0.00     0.037 C 
BRANCH  28  30
ATOM     30  C   UNL d   1      27.015  -7.696   3.231  0.00  0.00    -0.036 A 
ATOM     31  C   UNL d   1      26.440  -8.607   2.331  0.00  0.00     0.009 A 
ATOM     32  C   UNL d   1      25.892  -8.158   1.122  0.00  0.00     0.001 A 
ATOM     33  C   UNL d   1      25.837  -6.795   0.833  0.00  0.00     0.000 A 
ATOM     34  C   UNL d   1      26.367  -5.878   1.730  0.00  0.00     0.001 A 
ATOM     35  C   UNL d   1      26.965  -6.327   2.904  0.00  0.00     0.009 A 
ENDBRANCH  28  30
ENDBRANCH  26  28
ENDBRANCH   5  24
TORSDOF 9
ENDMDL
MODEL 7
REMARK VINA RESULT:    -8.523      7.351     10.599
REMARK INTER + INTRA:         -12.487
REMARK INTER:                 -11.208
REMARK INTRA:                  -1.279
REMARK CONF_INDEPENDENT:        2.685
REMARK UNBOUND:                -1.279
REMARK  9 active torsions:
REMARK  status: ('A' for Active; 'I' for Inactive)
REMARK    1  A    between atoms: O_2  and  C_3 
REMARK    2  A    between atoms: C_3  and  C_5 
REMARK    3  A    between atoms: C_8  and  N_9 
REMARK    4  A    between atoms: N_9  and  C_10 
REMARK    5  A    between atoms: C_10  and  C_11 
REMARK       I    between atoms: C_11  and  N_13 
REMARK    6  A    between atoms: N_13  and  C_14 
REMARK    7  A    between atoms: C_18  and  C_19 
REMARK       I    between atoms: C_19  and  N_21 
REMARK    8  A    between atoms: N_21  and  C_22 
REMARK    9  A    between atoms: C_22  and  C_24 
ROOT
ATOM      1  C   UNL d   1      28.338 -15.212  -4.333  0.00  0.00     0.035 A 
ATOM      2  C   UNL d   1      27.987 -14.323  -5.352  0.00  0.00     0.029 A 
ATOM      3  C   UNL d   1      28.614 -14.410  -6.601  0.00  0.00     0.003 A 
ATOM      4  C   UNL d   1      29.597 -15.378  -6.829  0.00  0.00     0.017 A 
ATOM      5  C   UNL d   1      29.932 -16.297  -5.823  0.00  0.00     0.034 A 
ATOM      6  C   UNL d   1      29.307 -16.190  -4.581  0.00  0.00     0.046 A 
ENDROOT
BRANCH   1   7
ATOM      7  N   UNL d   1      27.686 -15.182  -3.076  0.00  0.00    -0.326 N 
ATOM      8  C   UNL d   1      26.294 -15.184  -2.958  0.00  0.00     0.239 C 
ATOM      9  O   UNL d   1      25.524 -15.282  -3.918  0.00  0.00    -0.271 OA
ATOM     10  H   UNL d   1      28.267 -15.280  -2.250  0.00  0.00     0.169 HD
BRANCH   8  11
ATOM     11  C   UNL d   1      25.744 -15.080  -1.524  0.00  0.00     0.223 C 
BRANCH  11  12
ATOM     12  N   UNL d   1      25.704 -16.410  -0.893  0.00  0.00    -0.381 N 
ATOM     13  H   UNL d   1      26.594 -16.912  -0.919  0.00  0.00     0.160 HD
BRANCH  12  14
ATOM     14  C   UNL d   1      24.540 -17.140  -0.718  0.00  0.00     0.028 A 
ATOM     15  C   UNL d   1      23.291 -16.501  -0.713  0.00  0.00     0.030 A 
ATOM     16  C   UNL d   1      22.095 -17.223  -0.533  0.00  0.00     0.020 A 
ATOM     17  C   UNL d   1      22.118 -18.619  -0.437  0.00  0.00     0.039 A 
ATOM     18  C   UNL d   1      23.348 -19.274  -0.485  0.00  0.00     0.020 A 
ATOM     19  C   UNL d   1      24.536 -18.538  -0.632  0.00  0.00     0.030 A 
BRANCH  17  20
ATOM     20  C   UNL d   1      20.843 -19.381  -0.442  0.00  0.00     0.292 C 
ATOM     21  O   UNL d   1      20.270 -19.699  -1.483  0.00  0.00    -0.259 OA
BRANCH  20  22
ATOM     22  O   UNL d   1      20.417 -19.668   0.813  0.00  0.00    -0.323 OA
ATOM     23  C   UNL d   1      19.023 -20.003   0.897  0.00  0.00     0.213 C 
ENDBRANCH  20  22
ENDBRANCH  17  20
ENDBRANCH  12  14
ENDBRANCH  11  12
ENDBRANCH   8  11
ENDBRANCH   1   7
BRANCH   5  24
ATOM     24  C   UNL d   1      30.894 -17.393  -6.136  0.00  0.00     0.252 C 
ATOM     25  O   UNL d   1      31.973 -17.416  -5.551  0.00  0.00    -0.268 OA
ATOM     26  N   UNL d   1      30.536 -18.333  -7.087  0.00  0.00    -0.349 N 
ATOM     27  H   UNL d   1      29.656 -18.283  -7.577  0.00  0.00     0.163 HD
BRANCH  26  28
ATOM     28  C   UNL d   1      31.393 -19.460  -7.431  0.00  0.00     0.114 C 
ATOM     29  C   UNL d   1      32.787 -18.975  -7.846  0.00  0.00     0.037 C 
BRANCH  28  30
ATOM     30  C   UNL d   1      31.475 -20.421  -6.247  0.00  0.00    -0.036 A 
ATOM     31  C   UNL d   1      32.577 -21.273  -6.076  0.00  0.00     0.009 A 
ATOM     32  C   UNL d   1      32.577 -22.234  -5.057  0.00  0.00     0.001 A 
ATOM     33  C   UNL d   1      31.521 -22.303  -4.149  0.00  0.00     0.000 A 
ATOM     34  C   UNL d   1      30.441 -21.442  -4.282  0.00  0.00     0.001 A 
ATOM     35  C   UNL d   1      30.412 -20.527  -5.330  0.00  0.00     0.009 A 
ENDBRANCH  28  30
ENDBRANCH  26  28
ENDBRANCH   5  24
TORSDOF 9
ENDMDL
MODEL 8
REMARK VINA RESULT:    -8.441      7.479     11.460
REMARK INTER + INTRA:         -12.418
REMARK INTER:                 -11.125
REMARK INTRA:                  -1.292
REMARK CONF_INDEPENDENT:        2.685
REMARK UNBOUND:                -1.292
REMARK  9 active torsions:
REMARK  status: ('A' for Active; 'I' for Inactive)
REMARK    1  A    between atoms: O_2  and  C_3 
REMARK    2  A    between atoms: C_3  and  C_5 
REMARK    3  A    between atoms: C_8  and  N_9 
REMARK    4  A    between atoms: N_9  and  C_10 
REMARK    5  A    between atoms: C_10  and  C_11 
REMARK       I    between atoms: C_11  and  N_13 
REMARK    6  A    between atoms: N_13  and  C_14 
REMARK    7  A    between atoms: C_18  and  C_19 
REMARK       I    between atoms: C_19  and  N_21 
REMARK    8  A    between atoms: N_21  and  C_22 
REMARK    9  A    between atoms: C_22  and  C_24 
ROOT
ATOM      1  C   UNL d   1      28.331 -15.233  -4.373  0.00  0.00     0.035 A 
ATOM      2  C   UNL d   1      28.066 -14.379  -5.447  0.00  0.00     0.029 A 
ATOM      3  C   UNL d   1      28.755 -14.545  -6.656  0.00  0.00     0.003 A 
ATOM      4  C   UNL d   1      29.712 -15.555  -6.788  0.00  0.00     0.017 A 
ATOM      5  C   UNL d   1      29.959 -16.438  -5.727  0.00  0.00     0.034 A 
ATOM      6  C   UNL d   1      29.275 -16.253  -4.525  0.00  0.00     0.046 A 
ENDROOT
BRANCH   1   7
ATOM      7  N   UNL d   1      27.615 -15.123  -3.156  0.00  0.00    -0.326 N 
ATOM      8  C   UNL d   1      26.219 -15.097  -3.112  0.00  0.00     0.239 C 
ATOM      9  O   UNL d   1      25.498 -15.235  -4.104  0.00  0.00    -0.271 OA
ATOM     10  H   UNL d   1      28.150 -15.185  -2.297  0.00  0.00     0.169 HD
BRANCH   8  11
ATOM     11  C   UNL d   1      25.597 -14.906  -1.716  0.00  0.00     0.223 C 
BRANCH  11  12
ATOM     12  N   UNL d   1      25.554 -16.188  -0.994  0.00  0.00    -0.381 N 
ATOM     13  H   UNL d   1      26.459 -16.656  -0.918  0.00  0.00     0.160 HD
BRANCH  12  14
ATOM     14  C   UNL d   1      24.405 -16.950  -0.854  0.00  0.00     0.028 A 
ATOM     15  C   UNL d   1      23.139 -16.368  -1.023  0.00  0.00     0.030 A 
ATOM     16  C   UNL d   1      21.958 -17.123  -0.880  0.00  0.00     0.020 A 
ATOM     17  C   UNL d   1      22.021 -18.501  -0.647  0.00  0.00     0.039 A 
ATOM     18  C   UNL d   1      23.273 -19.103  -0.522  0.00  0.00     0.020 A 
ATOM     19  C   UNL d   1      24.443 -18.332  -0.633  0.00  0.00     0.030 A 
BRANCH  17  20
ATOM     20  C   UNL d   1      20.780 -19.316  -0.691  0.00  0.00     0.292 C 
ATOM     21  O   UNL d   1      20.281 -19.699  -1.749  0.00  0.00    -0.259 OA
BRANCH  20  22
ATOM     22  O   UNL d   1      20.293 -19.570   0.549  0.00  0.00    -0.323 OA
ATOM     23  C   UNL d   1      18.929 -20.016   0.564  0.00  0.00     0.213 C 
ENDBRANCH  20  22
ENDBRANCH  17  20
ENDBRANCH  12  14
ENDBRANCH  11  12
ENDBRANCH   8  11
ENDBRANCH   1   7
BRANCH   5  24
ATOM     24  C   UNL d   1      30.896 -17.580  -5.939  0.00  0.00     0.252 C 
ATOM     25  O   UNL d   1      30.581 -18.688  -5.516  0.00  0.00    -0.268 OA
ATOM     26  N   UNL d   1      32.092 -17.338  -6.594  0.00  0.00    -0.349 N 
ATOM     27  H   UNL d   1      32.345 -16.416  -6.911  0.00  0.00     0.163 HD
BRANCH  26  28
ATOM     28  C   UNL d   1      33.052 -18.397  -6.880  0.00  0.00     0.114 C 
ATOM     29  C   UNL d   1      33.418 -19.158  -5.601  0.00  0.00     0.037 C 
BRANCH  28  30
ATOM     30  C   UNL d   1      32.475 -19.339  -7.935  0.00  0.00    -0.036 A 
ATOM     31  C   UNL d   1      32.888 -20.678  -8.019  0.00  0.00     0.009 A 
ATOM     32  C   UNL d   1      32.443 -21.491  -9.069  0.00  0.00     0.001 A 
ATOM     33  C   UNL d   1      31.521 -21.008  -9.997  0.00  0.00     0.000 A 
ATOM     34  C   UNL d   1      31.073 -19.698  -9.904  0.00  0.00     0.001 A 
ATOM     35  C   UNL d   1      31.560 -18.870  -8.897  0.00  0.00     0.009 A 
ENDBRANCH  28  30
ENDBRANCH  26  28
ENDBRANCH   5  24
TORSDOF 9
ENDMDL
MODEL 9
REMARK VINA RESULT:    -6.840      5.460      8.772
REMARK INTER + INTRA:         -12.505
REMARK INTER:                  -9.525
REMARK INTRA:                  -2.980
REMARK CONF_INDEPENDENT:        2.685
REMARK UNBOUND:                -2.980
REMARK  9 active torsions:
REMARK  status: ('A' for Active; 'I' for Inactive)
REMARK    1  A    between atoms: O_2  and  C_3 
REMARK    2  A    between atoms: C_3  and  C_5 
REMARK    3  A    between atoms: C_8  and  N_9 
REMARK    4  A    between atoms: N_9  and  C_10 
REMARK    5  A    between atoms: C_10  and  C_11 
REMARK       I    between atoms: C_11  and  N_13 
REMARK    6  A    between atoms: N_13  and  C_14 
REMARK    7  A    between atoms: C_18  and  C_19 
REMARK       I    between atoms: C_19  and  N_21 
REMARK    8  A    between atoms: N_21  and  C_22 
REMARK    9  A    between atoms: C_22  and  C_24 
ROOT
ATOM      1  C   UNL d   1      27.405 -11.011  -0.574  0.00  0.00     0.035 A 
ATOM      2  C   UNL d   1      27.410 -10.526   0.736  0.00  0.00     0.029 A 
ATOM      3  C   UNL d   1      27.197 -11.404   1.807  0.00  0.00     0.003 A 
ATOM      4  C   UNL d   1      26.970 -12.762   1.568  0.00  0.00     0.017 A 
ATOM      5  C   UNL d   1      26.997 -13.264   0.259  0.00  0.00     0.034 A 
ATOM      6  C   UNL d   1      27.198 -12.376  -0.798  0.00  0.00     0.046 A 
ENDROOT
BRANCH   1   7
ATOM      7  N   UNL d   1      27.668 -10.158  -1.673  0.00  0.00    -0.326 N 
ATOM      8  C   UNL d   1      26.871  -9.047  -1.961  0.00  0.00     0.239 C 
ATOM      9  O   UNL d   1      25.927  -8.677  -1.256  0.00  0.00    -0.271 OA
ATOM     10  H   UNL d   1      28.531 -10.310  -2.182  0.00  0.00     0.169 HD
BRANCH   8  11
ATOM     11  C   UNL d   1      27.251  -8.261  -3.230  0.00  0.00     0.223 C 
BRANCH  11  12
ATOM     12  N   UNL d   1      26.745  -8.948  -4.429  0.00  0.00    -0.381 N 
ATOM     13  H   UNL d   1      26.187  -8.355  -5.046  0.00  0.00     0.160 HD
BRANCH  12  14
ATOM     14  C   UNL d   1      26.587 -10.322  -4.516  0.00  0.00     0.028 A 
ATOM     15  C   UNL d   1      27.550 -11.110  -5.164  0.00  0.00     0.030 A 
ATOM     16  C   UNL d   1      27.409 -12.508  -5.268  0.00  0.00     0.020 A 
ATOM     17  C   UNL d   1      26.336 -13.159  -4.650  0.00  0.00     0.039 A 
ATOM     18  C   UNL d   1      25.394 -12.394  -3.962  0.00  0.00     0.020 A 
ATOM     19  C   UNL d   1      25.530 -10.997  -3.895  0.00  0.00     0.030 A 
BRANCH  17  20
ATOM     20  C   UNL d   1      26.301 -14.643  -4.601  0.00  0.00     0.292 C 
ATOM     21  O   UNL d   1      25.530 -15.261  -3.868  0.00  0.00    -0.259 OA
BRANCH  20  22
ATOM     22  O   UNL d   1      27.204 -15.202  -5.446  0.00  0.00    -0.323 OA
ATOM     23  C   UNL d   1      28.443 -15.571  -4.820  0.00  0.00     0.213 C 
ENDBRANCH  20  22
ENDBRANCH  17  20
ENDBRANCH  12  14
ENDBRANCH  11  12
ENDBRANCH   8  11
ENDBRANCH   1   7
BRANCH   5  24
ATOM     24  C   UNL d   1      26.873 -14.736   0.046  0.00  0.00     0.252 C 
ATOM     25  O   UNL d   1      27.030 -15.487   1.005  0.00  0.00    -0.268 OA
ATOM     26  N   UNL d   1      26.600 -15.196  -1.231  0.00  0.00    -0.349 N 
ATOM     27  H   UNL d   1      26.499 -14.566  -2.011  0.00  0.00     0.163 HD
BRANCH  26  28
ATOM     28  C   UNL d   1      26.423 -16.612  -1.528  0.00  0.00     0.114 C 
ATOM     29  C   UNL d   1      27.505 -17.450  -0.836  0.00  0.00     0.037 C 
BRANCH  28  30
ATOM     30  C   UNL d   1      25.026 -17.055  -1.100  0.00  0.00    -0.036 A 
ATOM     31  C   UNL d   1      23.913 -16.217  -1.270  0.00  0.00     0.009 A 
ATOM     32  C   UNL d   1      22.663 -16.587  -0.758  0.00  0.00     0.001 A 
ATOM     33  C   UNL d   1      22.488 -17.827  -0.145  0.00  0.00     0.000 A 
ATOM     34  C   UNL d   1      23.571 -18.684  -0.003  0.00  0.00     0.001 A 
ATOM     35  C   UNL d   1      24.827 -18.291  -0.457  0.00  0.00     0.009 A 
ENDBRANCH  28  30
ENDBRANCH  26  28
ENDBRANCH   5  24
TORSDOF 9
ENDMDL
