MODEL 1
REMARK VINA RESULT:   -28.750      0.000      0.000
REMARK INTER + INTRA:         -31.381
REMARK INTER:                 -30.242
REMARK INTRA:                  -1.140
REMARK CONF_INDEPENDENT:        1.492
REMARK UNBOUND:                -1.140
REMARK  5 active torsions:
REMARK  status: ('A' for Active; 'I' for Inactive)
REMARK    1  A    between atoms: N_1  and  N_2 
REMARK       I    between atoms: N_2  and  C_3 
REMARK    2  A    between atoms: C_3  and  C_5 
REMARK    3  A    between atoms: C_5  and  C_6 
REMARK    4  A    between atoms: C_6  and  N_7 
REMARK    5  A    between atoms: N_7  and  C_8 
ROOT
ATOM      1  N   UNL d   1      24.300 -16.899  -0.308  0.00  0.00    -0.389 N 
ATOM      2  H   UNL d   1      23.630 -16.202  -0.006  0.00  0.00     0.159 HD
ENDROOT
BRANCH   1   3
ATOM      3  C   UNL d   1      24.236 -18.268   0.207  0.00  0.00     0.129 C 
BRANCH   3   4
ATOM      4  C   UNL d   1      23.246 -19.149  -0.559  0.00  0.00     0.123 C 
BRANCH   4   5
ATOM      5  C   UNL d   1      21.939 -18.391  -0.753  0.00  0.00     0.233 C 
ATOM      6  N   UNL d   1      20.803 -19.197  -0.803  0.00  0.00    -0.294 N 
ATOM      7  H   UNL d   1      20.866 -20.198  -0.627  0.00  0.00     0.183 HD
ATOM      8  O   UNL d   1      21.898 -17.164  -0.884  0.00  0.00    -0.272 OA
BRANCH   6   9
ATOM      9  N   UNL d   1      19.534 -18.583  -0.895  0.00  0.00    -0.247 NA
ATOM     10  H   UNL d   1      18.938 -19.058  -1.573  0.00  0.00     0.143 HD
ATOM     11  H   UNL d   1      19.667 -17.625  -1.237  0.00  0.00     0.143 HD
ENDBRANCH   6   9
ENDBRANCH   4   5
ENDBRANCH   3   4
ENDBRANCH   1   3
BRANCH   1  12
ATOM     12  C   UNL d   1      25.373 -16.506  -1.099  0.00  0.00     0.029 A 
ATOM     13  C   UNL d   1      26.680 -16.529  -0.598  0.00  0.00     0.031 A 
ATOM     14  C   UNL d   1      27.768 -16.096  -1.360  0.00  0.00     0.028 A 
ATOM     15  C   UNL d   1      27.565 -15.598  -2.643  0.00  0.00     0.055 A 
ATOM     16 CL   UNL d   1      28.955 -15.082  -3.531  0.00  0.00    -0.083 Cl
ATOM     17  C   UNL d   1      26.267 -15.537  -3.158  0.00  0.00     0.058 A 
ATOM     18 CL   UNL d   1      25.938 -14.876  -4.724  0.00  0.00    -0.082 Cl
ATOM     19  C   UNL d   1      25.181 -16.002  -2.392  0.00  0.00     0.054 A 
ENDBRANCH   1  12
TORSDOF 5
ENDMDL
MODEL 2
REMARK VINA RESULT:   -28.514      1.569      1.573
REMARK INTER + INTRA:         -31.202
REMARK INTER:                 -30.006
REMARK INTRA:                  -1.196
REMARK CONF_INDEPENDENT:        1.492
REMARK UNBOUND:                -1.196
REMARK  5 active torsions:
REMARK  status: ('A' for Active; 'I' for Inactive)
REMARK    1  A    between atoms: N_1  and  N_2 
REMARK       I    between atoms: N_2  and  C_3 
REMARK    2  A    between atoms: C_3  and  C_5 
REMARK    3  A    between atoms: C_5  and  C_6 
REMARK    4  A    between atoms: C_6  and  N_7 
REMARK    5  A    between atoms: N_7  and  C_8 
ROOT
ATOM      1  N   UNL d   1      24.251 -17.512  -1.617  0.00  0.00    -0.389 N 
ATOM      2  H   UNL d   1      23.577 -17.663  -2.358  0.00  0.00     0.159 HD
ENDROOT
BRANCH   1   3
ATOM      3  C   UNL d   1      24.276 -18.385  -0.442  0.00  0.00     0.129 C 
BRANCH   3   4
ATOM      4  C   UNL d   1      22.905 -18.533   0.221  0.00  0.00     0.123 C 
BRANCH   4   5
ATOM      5  C   UNL d   1      21.878 -18.947  -0.824  0.00  0.00     0.233 C 
ATOM      6  N   UNL d   1      20.568 -19.022  -0.353  0.00  0.00    -0.294 N 
ATOM      7  H   UNL d   1      20.337 -18.728   0.593  0.00  0.00     0.183 HD
ATOM      8  O   UNL d   1      22.190 -19.220  -1.987  0.00  0.00    -0.272 OA
BRANCH   6   9
ATOM      9  N   UNL d   1      19.530 -19.315  -1.266  0.00  0.00    -0.247 NA
ATOM     10  H   UNL d   1      19.891 -19.748  -2.116  0.00  0.00     0.143 HD
ATOM     11  H   UNL d   1      19.093 -18.430  -1.547  0.00  0.00     0.143 HD
ENDBRANCH   6   9
ENDBRANCH   4   5
ENDBRANCH   3   4
ENDBRANCH   1   3
BRANCH   1  12
ATOM     12  C   UNL d   1      25.052 -16.377  -1.654  0.00  0.00     0.029 A 
ATOM     13  C   UNL d   1      25.908 -16.067  -0.591  0.00  0.00     0.031 A 
ATOM     14  C   UNL d   1      26.689 -14.909  -0.587  0.00  0.00     0.028 A 
ATOM     15  C   UNL d   1      26.605 -14.010  -1.645  0.00  0.00     0.055 A 
ATOM     16 CL   UNL d   1      27.599 -12.598  -1.578  0.00  0.00    -0.083 Cl
ATOM     17  C   UNL d   1      25.738 -14.280  -2.708  0.00  0.00     0.058 A 
ATOM     18 CL   UNL d   1      25.543 -13.177  -4.028  0.00  0.00    -0.082 Cl
ATOM     19  C   UNL d   1      24.977 -15.464  -2.714  0.00  0.00     0.054 A 
ENDBRANCH   1  12
TORSDOF 5
ENDMDL
MODEL 3
REMARK VINA RESULT:   -28.287      1.924      2.417
REMARK INTER + INTRA:         -31.014
REMARK INTER:                 -29.779
REMARK INTRA:                  -1.235
REMARK CONF_INDEPENDENT:        1.492
REMARK UNBOUND:                -1.235
REMARK  5 active torsions:
REMARK  status: ('A' for Active; 'I' for Inactive)
REMARK    1  A    between atoms: N_1  and  N_2 
REMARK       I    between atoms: N_2  and  C_3 
REMARK    2  A    between atoms: C_3  and  C_5 
REMARK    3  A    between atoms: C_5  and  C_6 
REMARK    4  A    between atoms: C_6  and  N_7 
REMARK    5  A    between atoms: N_7  and  C_8 
ROOT
ATOM      1  N   UNL d   1      24.496 -17.816  -1.532  0.00  0.00    -0.389 N 
ATOM      2  H   UNL d   1      24.087 -18.182  -2.383  0.00  0.00     0.159 HD
ENDROOT
BRANCH   1   3
ATOM      3  C   UNL d   1      24.282 -18.490  -0.250  0.00  0.00     0.129 C 
BRANCH   3   4
ATOM      4  C   UNL d   1      22.851 -18.340   0.272  0.00  0.00     0.123 C 
BRANCH   4   5
ATOM      5  C   UNL d   1      21.874 -18.870  -0.769  0.00  0.00     0.233 C 
ATOM      6  N   UNL d   1      20.548 -18.928  -0.344  0.00  0.00    -0.294 N 
ATOM      7  H   UNL d   1      20.274 -18.550   0.561  0.00  0.00     0.183 HD
ATOM      8  O   UNL d   1      22.238 -19.245  -1.888  0.00  0.00    -0.272 OA
BRANCH   6   9
ATOM      9  N   UNL d   1      19.552 -19.325  -1.265  0.00  0.00    -0.247 NA
ATOM     10  H   UNL d   1      19.963 -19.713  -2.114  0.00  0.00     0.143 HD
ATOM     11  H   UNL d   1      19.026 -18.490  -1.545  0.00  0.00     0.143 HD
ENDBRANCH   6   9
ENDBRANCH   4   5
ENDBRANCH   3   4
ENDBRANCH   1   3
BRANCH   1  12
ATOM     12  C   UNL d   1      25.136 -16.582  -1.567  0.00  0.00     0.029 A 
ATOM     13  C   UNL d   1      25.264 -15.874  -2.767  0.00  0.00     0.031 A 
ATOM     14  C   UNL d   1      25.942 -14.654  -2.835  0.00  0.00     0.028 A 
ATOM     15  C   UNL d   1      26.538 -14.126  -1.693  0.00  0.00     0.055 A 
ATOM     16 CL   UNL d   1      27.358 -12.612  -1.845  0.00  0.00    -0.083 Cl
ATOM     17  C   UNL d   1      26.449 -14.825  -0.487  0.00  0.00     0.058 A 
ATOM     18 CL   UNL d   1      27.215 -14.253   0.957  0.00  0.00    -0.082 Cl
ATOM     19  C   UNL d   1      25.740 -16.040  -0.425  0.00  0.00     0.054 A 
ENDBRANCH   1  12
TORSDOF 5
ENDMDL
MODEL 4
REMARK VINA RESULT:   -28.270      1.234      2.089
REMARK INTER + INTRA:         -31.000
REMARK INTER:                 -29.762
REMARK INTRA:                  -1.238
REMARK CONF_INDEPENDENT:        1.492
REMARK UNBOUND:                -1.238
REMARK  5 active torsions:
REMARK  status: ('A' for Active; 'I' for Inactive)
REMARK    1  A    between atoms: N_1  and  N_2 
REMARK       I    between atoms: N_2  and  C_3 
REMARK    2  A    between atoms: C_3  and  C_5 
REMARK    3  A    between atoms: C_5  and  C_6 
REMARK    4  A    between atoms: C_6  and  N_7 
REMARK    5  A    between atoms: N_7  and  C_8 
ROOT
ATOM      1  N   UNL d   1      23.896 -16.366  -1.225  0.00  0.00    -0.389 N 
ATOM      2  H   UNL d   1      23.203 -15.905  -0.648  0.00  0.00     0.159 HD
ENDROOT
BRANCH   1   3
ATOM      3  C   UNL d   1      24.175 -17.794  -1.058  0.00  0.00     0.129 C 
BRANCH   3   4
ATOM      4  C   UNL d   1      23.157 -18.500  -0.160  0.00  0.00     0.123 C 
BRANCH   4   5
ATOM      5  C   UNL d   1      21.750 -18.225  -0.673  0.00  0.00     0.233 C 
ATOM      6  N   UNL d   1      20.965 -19.362  -0.851  0.00  0.00    -0.294 N 
ATOM      7  H   UNL d   1      21.301 -20.279  -0.563  0.00  0.00     0.183 HD
ATOM      8  O   UNL d   1      21.353 -17.087  -0.937  0.00  0.00    -0.272 OA
BRANCH   6   9
ATOM      9  N   UNL d   1      19.616 -19.206  -1.243  0.00  0.00    -0.247 NA
ATOM     10  H   UNL d   1      19.482 -19.448  -2.224  0.00  0.00     0.143 HD
ATOM     11  H   UNL d   1      19.368 -18.216  -1.145  0.00  0.00     0.143 HD
ENDBRANCH   6   9
ENDBRANCH   4   5
ENDBRANCH   3   4
ENDBRANCH   1   3
BRANCH   1  12
ATOM     12  C   UNL d   1      24.688 -15.600  -2.072  0.00  0.00     0.029 A 
ATOM     13  C   UNL d   1      24.147 -14.520  -2.779  0.00  0.00     0.031 A 
ATOM     14  C   UNL d   1      24.913 -13.764  -3.669  0.00  0.00     0.028 A 
ATOM     15  C   UNL d   1      26.246 -14.095  -3.895  0.00  0.00     0.055 A 
ATOM     16 CL   UNL d   1      27.137 -13.118  -5.006  0.00  0.00    -0.083 Cl
ATOM     17  C   UNL d   1      26.804 -15.186  -3.223  0.00  0.00     0.058 A 
ATOM     18 CL   UNL d   1      28.438 -15.688  -3.501  0.00  0.00    -0.082 Cl
ATOM     19  C   UNL d   1      26.030 -15.924  -2.308  0.00  0.00     0.054 A 
ENDBRANCH   1  12
TORSDOF 5
ENDMDL
MODEL 5
REMARK VINA RESULT:   -28.092      1.063      1.955
REMARK INTER + INTRA:         -30.882
REMARK INTER:                 -29.584
REMARK INTRA:                  -1.299
REMARK CONF_INDEPENDENT:        1.492
REMARK UNBOUND:                -1.299
REMARK  5 active torsions:
REMARK  status: ('A' for Active; 'I' for Inactive)
REMARK    1  A    between atoms: N_1  and  N_2 
REMARK       I    between atoms: N_2  and  C_3 
REMARK    2  A    between atoms: C_3  and  C_5 
REMARK    3  A    between atoms: C_5  and  C_6 
REMARK    4  A    between atoms: C_6  and  N_7 
REMARK    5  A    between atoms: N_7  and  C_8 
ROOT
ATOM      1  N   UNL d   1      24.127 -16.783  -0.906  0.00  0.00    -0.389 N 
ATOM      2  H   UNL d   1      23.312 -16.238  -1.160  0.00  0.00     0.159 HD
ENDROOT
BRANCH   1   3
ATOM      3  C   UNL d   1      24.037 -17.830   0.115  0.00  0.00     0.129 C 
BRANCH   3   4
ATOM      4  C   UNL d   1      23.179 -19.019  -0.324  0.00  0.00     0.123 C 
BRANCH   4   5
ATOM      5  C   UNL d   1      21.796 -18.525  -0.729  0.00  0.00     0.233 C 
ATOM      6  N   UNL d   1      20.866 -19.535  -0.966  0.00  0.00    -0.294 N 
ATOM      7  H   UNL d   1      21.097 -20.510  -0.784  0.00  0.00     0.183 HD
ATOM      8  O   UNL d   1      21.535 -17.326  -0.862  0.00  0.00    -0.272 OA
BRANCH   6   9
ATOM      9  N   UNL d   1      19.532 -19.179  -1.264  0.00  0.00    -0.247 NA
ATOM     10  H   UNL d   1      19.276 -19.450  -2.213  0.00  0.00     0.143 HD
ATOM     11  H   UNL d   1      19.457 -18.156  -1.217  0.00  0.00     0.143 HD
ENDBRANCH   6   9
ENDBRANCH   4   5
ENDBRANCH   3   4
ENDBRANCH   1   3
BRANCH   1  12
ATOM     12  C   UNL d   1      25.366 -16.426  -1.425  0.00  0.00     0.029 A 
ATOM     13  C   UNL d   1      25.461 -15.639  -2.578  0.00  0.00     0.031 A 
ATOM     14  C   UNL d   1      26.695 -15.306  -3.143  0.00  0.00     0.028 A 
ATOM     15  C   UNL d   1      27.872 -15.783  -2.574  0.00  0.00     0.055 A 
ATOM     16 CL   UNL d   1      29.363 -15.332  -3.321  0.00  0.00    -0.083 Cl
ATOM     17  C   UNL d   1      27.805 -16.595  -1.438  0.00  0.00     0.058 A 
ATOM     18 CL   UNL d   1      29.226 -17.269  -0.715  0.00  0.00    -0.082 Cl
ATOM     19  C   UNL d   1      26.557 -16.901  -0.862  0.00  0.00     0.054 A 
ENDBRANCH   1  12
TORSDOF 5
ENDMDL
MODEL 6
REMARK VINA RESULT:   -27.463      1.402      1.604
REMARK INTER + INTRA:         -29.432
REMARK INTER:                 -28.954
REMARK INTRA:                  -0.477
REMARK CONF_INDEPENDENT:        1.492
REMARK UNBOUND:                -0.477
REMARK  5 active torsions:
REMARK  status: ('A' for Active; 'I' for Inactive)
REMARK    1  A    between atoms: N_1  and  N_2 
REMARK       I    between atoms: N_2  and  C_3 
REMARK    2  A    between atoms: C_3  and  C_5 
REMARK    3  A    between atoms: C_5  and  C_6 
REMARK    4  A    between atoms: C_6  and  N_7 
REMARK    5  A    between atoms: N_7  and  C_8 
ROOT
ATOM      1  N   UNL d   1      24.359 -15.888  -2.019  0.00  0.00    -0.389 N 
ATOM      2  H   UNL d   1      23.706 -15.280  -2.498  0.00  0.00     0.159 HD
ENDROOT
BRANCH   1   3
ATOM      3  C   UNL d   1      23.935 -16.669  -0.855  0.00  0.00     0.129 C 
BRANCH   3   4
ATOM      4  C   UNL d   1      22.428 -16.591  -0.601  0.00  0.00     0.123 C 
BRANCH   4   5
ATOM      5  C   UNL d   1      21.834 -17.993  -0.641  0.00  0.00     0.233 C 
ATOM      6  N   UNL d   1      20.517 -18.052  -1.094  0.00  0.00    -0.294 N 
ATOM      7  H   UNL d   1      20.051 -17.221  -1.452  0.00  0.00     0.183 HD
ATOM      8  O   UNL d   1      22.463 -18.989  -0.271  0.00  0.00    -0.272 OA
BRANCH   6   9
ATOM      9  N   UNL d   1      19.905 -19.316  -1.249  0.00  0.00    -0.247 NA
ATOM     10  H   UNL d   1      20.594 -20.046  -1.428  0.00  0.00     0.143 HD
ATOM     11  H   UNL d   1      19.295 -19.276  -2.073  0.00  0.00     0.143 HD
ENDBRANCH   6   9
ENDBRANCH   4   5
ENDBRANCH   3   4
ENDBRANCH   1   3
BRANCH   1  12
ATOM     12  C   UNL d   1      25.701 -15.858  -2.382  0.00  0.00     0.029 A 
ATOM     13  C   UNL d   1      26.658 -16.574  -1.654  0.00  0.00     0.031 A 
ATOM     14  C   UNL d   1      28.016 -16.523  -1.973  0.00  0.00     0.028 A 
ATOM     15  C   UNL d   1      28.455 -15.721  -3.023  0.00  0.00     0.055 A 
ATOM     16 CL   UNL d   1      30.148 -15.706  -3.366  0.00  0.00    -0.083 Cl
ATOM     17  C   UNL d   1      27.524 -14.974  -3.750  0.00  0.00     0.058 A 
ATOM     18 CL   UNL d   1      28.008 -13.913  -5.030  0.00  0.00    -0.082 Cl
ATOM     19  C   UNL d   1      26.154 -15.054  -3.437  0.00  0.00     0.054 A 
ENDBRANCH   1  12
TORSDOF 5
ENDMDL
MODEL 7
REMARK VINA RESULT:   -27.326      2.246      2.362
REMARK INTER + INTRA:         -30.044
REMARK INTER:                 -28.818
REMARK INTRA:                  -1.227
REMARK CONF_INDEPENDENT:        1.492
REMARK UNBOUND:                -1.227
REMARK  5 active torsions:
REMARK  status: ('A' for Active; 'I' for Inactive)
REMARK    1  A    between atoms: N_1  and  N_2 
REMARK       I    between atoms: N_2  and  C_3 
REMARK    2  A    between atoms: C_3  and  C_5 
REMARK    3  A    between atoms: C_5  and  C_6 
REMARK    4  A    between atoms: C_6  and  N_7 
REMARK    5  A    between atoms: N_7  and  C_8 
ROOT
ATOM      1  N   UNL d   1      24.506 -16.894  -0.785  0.00  0.00    -0.389 N 
ATOM      2  H   UNL d   1      23.726 -16.258  -0.892  0.00  0.00     0.159 HD
ENDROOT
BRANCH   1   3
ATOM      3  C   UNL d   1      24.289 -18.342  -0.740  0.00  0.00     0.129 C 
BRANCH   3   4
ATOM      4  C   UNL d   1      23.101 -18.740   0.140  0.00  0.00     0.123 C 
BRANCH   4   5
ATOM      5  C   UNL d   1      21.813 -18.208  -0.475  0.00  0.00     0.233 C 
ATOM      6  N   UNL d   1      20.793 -19.150  -0.589  0.00  0.00    -0.294 N 
ATOM      7  H   UNL d   1      20.899 -20.084  -0.197  0.00  0.00     0.183 HD
ATOM      8  O   UNL d   1      21.699 -17.043  -0.867  0.00  0.00    -0.272 OA
BRANCH   6   9
ATOM      9  N   UNL d   1      19.530 -18.734  -1.069  0.00  0.00    -0.247 NA
ATOM     10  H   UNL d   1      19.586 -17.826  -1.528  0.00  0.00     0.143 HD
ATOM     11  H   UNL d   1      18.904 -18.621  -0.263  0.00  0.00     0.143 HD
ENDBRANCH   6   9
ENDBRANCH   4   5
ENDBRANCH   3   4
ENDBRANCH   1   3
BRANCH   1  12
ATOM     12  C   UNL d   1      25.769 -16.375  -0.526  0.00  0.00     0.029 A 
ATOM     13  C   UNL d   1      26.896 -17.205  -0.508  0.00  0.00     0.031 A 
ATOM     14  C   UNL d   1      28.169 -16.713  -0.207  0.00  0.00     0.028 A 
ATOM     15  C   UNL d   1      28.337 -15.370   0.115  0.00  0.00     0.055 A 
ATOM     16 CL   UNL d   1      29.937 -14.827   0.476  0.00  0.00    -0.083 Cl
ATOM     17  C   UNL d   1      27.224 -14.524   0.132  0.00  0.00     0.058 A 
ATOM     18 CL   UNL d   1      27.354 -12.857   0.580  0.00  0.00    -0.082 Cl
ATOM     19  C   UNL d   1      25.951 -15.025  -0.200  0.00  0.00     0.054 A 
ENDBRANCH   1  12
TORSDOF 5
ENDMDL
