MODEL 1
REMARK VINA RESULT:    -8.196      0.000      0.000
REMARK INTER + INTRA:         -10.446
REMARK INTER:                  -9.389
REMARK INTRA:                  -1.057
REMARK CONF_INDEPENDENT:        1.193
REMARK UNBOUND:                -1.057
REMARK  4 active torsions:
REMARK  status: ('A' for Active; 'I' for Inactive)
REMARK       I    between atoms: C_2  and  N_3 
REMARK    1  A    between atoms: C_2  and  C_11 
REMARK    2  A    between atoms: N_3  and  C_4 
REMARK    3  A    between atoms: C_7  and  O_8 
REMARK       I    between atoms: C_11  and  N_13 
REMARK    4  A    between atoms: N_13  and  C_14 
ROOT
ATOM      1  O   UNL d   1      22.405 -19.161  -1.645  0.00  0.00    -0.262 OA
ATOM      2  C   UNL d   1      22.581 -18.383  -0.707  0.00  0.00     0.313 C 
ATOM      3  N   UNL d   1      21.777 -18.348   0.428  0.00  0.00    -0.319 N 
ATOM      4  H   UNL d   1      21.756 -17.504   0.979  0.00  0.00     0.169 HD
ENDROOT
BRANCH   2   5
ATOM      5  C   UNL d   1      23.709 -17.354  -0.866  0.00  0.00     0.310 C 
ATOM      6  O   UNL d   1      23.612 -16.363  -0.145  0.00  0.00    -0.262 OA
ATOM      7  N   UNL d   1      24.762 -17.573  -1.751  0.00  0.00    -0.348 N 
ATOM      8  H   UNL d   1      24.686 -18.328  -2.415  0.00  0.00     0.163 HD
BRANCH   7   9
ATOM      9  C   UNL d   1      25.851 -16.597  -2.027  0.00  0.00     0.084 C 
ATOM     10  C   UNL d   1      25.659 -15.677  -3.249  0.00  0.00     0.025 C 
ATOM     11  C   UNL d   1      24.789 -14.450  -2.979  0.00  0.00     0.002 C 
ATOM     12  C   UNL d   1      25.655 -13.245  -2.627  0.00  0.00     0.000 C 
ATOM     13  C   UNL d   1      26.303 -13.292  -1.246  0.00  0.00     0.000 C 
ATOM     14  C   UNL d   1      27.047 -14.586  -0.906  0.00  0.00     0.002 C 
ATOM     15  C   UNL d   1      26.117 -15.792  -0.734  0.00  0.00     0.025 C 
ENDBRANCH   7   9
ENDBRANCH   2   5
BRANCH   3  16
ATOM     16  C   UNL d   1      20.654 -19.210   0.512  0.00  0.00     0.035 A 
ATOM     17  C   UNL d   1      19.889 -19.530  -0.620  0.00  0.00     0.032 A 
ATOM     18  C   UNL d   1      18.757 -20.347  -0.515  0.00  0.00     0.039 A 
ATOM     19  C   UNL d   1      18.382 -20.825   0.735  0.00  0.00     0.065 A 
ATOM     20  C   UNL d   1      19.127 -20.507   1.865  0.00  0.00     0.039 A 
ATOM     21  C   UNL d   1      20.280 -19.722   1.754  0.00  0.00     0.032 A 
BRANCH  19  22
ATOM     22  O   UNL d   1      17.285 -21.614   0.908  0.00  0.00    -0.361 OA
ATOM     23  H   UNL d   1      17.288 -22.320   0.240  0.00  0.00     0.217 HD
ENDBRANCH  19  22
ENDBRANCH   3  16
TORSDOF 4
ENDMDL
MODEL 2
REMARK VINA RESULT:    -8.111      0.707      1.341
REMARK INTER + INTRA:         -10.389
REMARK INTER:                  -9.305
REMARK INTRA:                  -1.084
REMARK CONF_INDEPENDENT:        1.193
REMARK UNBOUND:                -1.084
REMARK  4 active torsions:
REMARK  status: ('A' for Active; 'I' for Inactive)
REMARK       I    between atoms: C_2  and  N_3 
REMARK    1  A    between atoms: C_2  and  C_11 
REMARK    2  A    between atoms: N_3  and  C_4 
REMARK    3  A    between atoms: C_7  and  O_8 
REMARK       I    between atoms: C_11  and  N_13 
REMARK    4  A    between atoms: N_13  and  C_14 
ROOT
ATOM      1  O   UNL d   1      22.557 -19.326  -1.346  0.00  0.00    -0.262 OA
ATOM      2  C   UNL d   1      22.681 -18.519  -0.425  0.00  0.00     0.313 C 
ATOM      3  N   UNL d   1      21.786 -18.414   0.635  0.00  0.00    -0.319 N 
ATOM      4  H   UNL d   1      21.749 -17.549   1.152  0.00  0.00     0.169 HD
ENDROOT
BRANCH   2   5
ATOM      5  C   UNL d   1      23.856 -17.535  -0.522  0.00  0.00     0.310 C 
ATOM      6  O   UNL d   1      23.583 -16.372  -0.233  0.00  0.00    -0.262 OA
ATOM      7  N   UNL d   1      25.127 -17.968  -0.890  0.00  0.00    -0.348 N 
ATOM      8  H   UNL d   1      25.232 -18.899  -1.263  0.00  0.00     0.163 HD
BRANCH   7   9
ATOM      9  C   UNL d   1      26.300 -17.074  -1.088  0.00  0.00     0.084 C 
ATOM     10  C   UNL d   1      26.237 -16.109  -2.289  0.00  0.00     0.025 C 
ATOM     11  C   UNL d   1      25.454 -14.825  -2.020  0.00  0.00     0.002 C 
ATOM     12  C   UNL d   1      26.393 -13.702  -1.594  0.00  0.00     0.000 C 
ATOM     13  C   UNL d   1      26.971 -13.837  -0.188  0.00  0.00     0.000 C 
ATOM     14  C   UNL d   1      27.596 -15.195   0.146  0.00  0.00     0.002 C 
ATOM     15  C   UNL d   1      26.568 -16.327   0.239  0.00  0.00     0.025 C 
ENDBRANCH   7   9
ENDBRANCH   2   5
BRANCH   3  16
ATOM     16  C   UNL d   1      20.630 -19.235   0.653  0.00  0.00     0.035 A 
ATOM     17  C   UNL d   1      20.279 -19.981   1.788  0.00  0.00     0.032 A 
ATOM     18  C   UNL d   1      19.159 -20.822   1.777  0.00  0.00     0.039 A 
ATOM     19  C   UNL d   1      18.405 -20.928   0.615  0.00  0.00     0.065 A 
ATOM     20  C   UNL d   1      18.749 -20.200  -0.519  0.00  0.00     0.039 A 
ATOM     21  C   UNL d   1      19.846 -19.331  -0.496  0.00  0.00     0.032 A 
BRANCH  19  22
ATOM     22  O   UNL d   1      17.312 -21.737   0.534  0.00  0.00    -0.361 OA
ATOM     23  H   UNL d   1      17.595 -22.639   0.311  0.00  0.00     0.217 HD
ENDBRANCH  19  22
ENDBRANCH   3  16
TORSDOF 4
ENDMDL
MODEL 3
REMARK VINA RESULT:    -7.654      1.387      2.391
REMARK INTER + INTRA:         -10.117
REMARK INTER:                  -8.847
REMARK INTRA:                  -1.270
REMARK CONF_INDEPENDENT:        1.193
REMARK UNBOUND:                -1.270
REMARK  4 active torsions:
REMARK  status: ('A' for Active; 'I' for Inactive)
REMARK       I    between atoms: C_2  and  N_3 
REMARK    1  A    between atoms: C_2  and  C_11 
REMARK    2  A    between atoms: N_3  and  C_4 
REMARK    3  A    between atoms: C_7  and  O_8 
REMARK       I    between atoms: C_11  and  N_13 
REMARK    4  A    between atoms: N_13  and  C_14 
ROOT
ATOM      1  O   UNL d   1      21.067 -17.533  -0.896  0.00  0.00    -0.262 OA
ATOM      2  C   UNL d   1      22.036 -18.181  -0.500  0.00  0.00     0.313 C 
ATOM      3  N   UNL d   1      21.930 -19.374   0.209  0.00  0.00    -0.319 N 
ATOM      4  H   UNL d   1      22.707 -19.667   0.780  0.00  0.00     0.169 HD
ENDROOT
BRANCH   2   5
ATOM      5  C   UNL d   1      23.423 -17.572  -0.749  0.00  0.00     0.310 C 
ATOM      6  O   UNL d   1      24.368 -18.310  -0.483  0.00  0.00    -0.262 OA
ATOM      7  N   UNL d   1      23.561 -16.285  -1.262  0.00  0.00    -0.348 N 
ATOM      8  H   UNL d   1      22.746 -15.690  -1.303  0.00  0.00     0.163 HD
BRANCH   7   9
ATOM      9  C   UNL d   1      24.860 -15.587  -1.458  0.00  0.00     0.084 C 
ATOM     10  C   UNL d   1      25.754 -15.431  -0.211  0.00  0.00     0.025 C 
ATOM     11  C   UNL d   1      26.598 -16.663   0.112  0.00  0.00     0.002 C 
ATOM     12  C   UNL d   1      27.992 -16.532  -0.492  0.00  0.00     0.000 C 
ATOM     13  C   UNL d   1      28.059 -16.683  -2.009  0.00  0.00     0.000 C 
ATOM     14  C   UNL d   1      27.064 -15.834  -2.805  0.00  0.00     0.002 C 
ATOM     15  C   UNL d   1      25.608 -16.277  -2.622  0.00  0.00     0.025 C 
ENDBRANCH   7   9
ENDBRANCH   2   5
BRANCH   3  16
ATOM     16  C   UNL d   1      20.645 -19.866   0.553  0.00  0.00     0.035 A 
ATOM     17  C   UNL d   1      20.273 -20.074   1.891  0.00  0.00     0.032 A 
ATOM     18  C   UNL d   1      19.018 -20.602   2.214  0.00  0.00     0.039 A 
ATOM     19  C   UNL d   1      18.144 -20.943   1.189  0.00  0.00     0.065 A 
ATOM     20  C   UNL d   1      18.504 -20.750  -0.141  0.00  0.00     0.039 A 
ATOM     21  C   UNL d   1      19.744 -20.187  -0.462  0.00  0.00     0.032 A 
BRANCH  19  22
ATOM     22  O   UNL d   1      16.912 -21.472   1.435  0.00  0.00    -0.361 OA
ATOM     23  H   UNL d   1      16.943 -22.434   1.299  0.00  0.00     0.217 HD
ENDBRANCH  19  22
ENDBRANCH   3  16
TORSDOF 4
ENDMDL
MODEL 4
REMARK VINA RESULT:    -6.881      5.049      9.959
REMARK INTER + INTRA:          -8.753
REMARK INTER:                  -8.074
REMARK INTRA:                  -0.679
REMARK CONF_INDEPENDENT:        1.193
REMARK UNBOUND:                -0.679
REMARK  4 active torsions:
REMARK  status: ('A' for Active; 'I' for Inactive)
REMARK       I    between atoms: C_2  and  N_3 
REMARK    1  A    between atoms: C_2  and  C_11 
REMARK    2  A    between atoms: N_3  and  C_4 
REMARK    3  A    between atoms: C_7  and  O_8 
REMARK       I    between atoms: C_11  and  N_13 
REMARK    4  A    between atoms: N_13  and  C_14 
ROOT
ATOM      1  O   UNL d   1      26.991 -15.436  -5.842  0.00  0.00    -0.262 OA
ATOM      2  C   UNL d   1      26.816 -14.500  -5.063  0.00  0.00     0.313 C 
ATOM      3  N   UNL d   1      27.355 -13.230  -5.248  0.00  0.00    -0.319 N 
ATOM      4  H   UNL d   1      27.461 -12.629  -4.446  0.00  0.00     0.169 HD
ENDROOT
BRANCH   2   5
ATOM      5  C   UNL d   1      26.020 -14.803  -3.786  0.00  0.00     0.310 C 
ATOM      6  O   UNL d   1      24.842 -14.453  -3.815  0.00  0.00    -0.262 OA
ATOM      7  N   UNL d   1      26.614 -15.450  -2.705  0.00  0.00    -0.348 N 
ATOM      8  H   UNL d   1      27.617 -15.561  -2.699  0.00  0.00     0.163 HD
BRANCH   7   9
ATOM      9  C   UNL d   1      25.943 -15.712  -1.403  0.00  0.00     0.084 C 
ATOM     10  C   UNL d   1      24.422 -15.959  -1.449  0.00  0.00     0.025 C 
ATOM     11  C   UNL d   1      24.031 -17.393  -1.804  0.00  0.00     0.002 C 
ATOM     12  C   UNL d   1      23.789 -18.212  -0.540  0.00  0.00     0.000 C 
ATOM     13  C   UNL d   1      25.044 -18.575   0.248  0.00  0.00     0.000 C 
ATOM     14  C   UNL d   1      25.997 -17.416   0.552  0.00  0.00     0.002 C 
ATOM     15  C   UNL d   1      26.694 -16.862  -0.695  0.00  0.00     0.025 C 
ENDBRANCH   7   9
ENDBRANCH   2   5
BRANCH   3  16
ATOM     16  C   UNL d   1      28.200 -12.989  -6.361  0.00  0.00     0.035 A 
ATOM     17  C   UNL d   1      27.781 -12.196  -7.441  0.00  0.00     0.032 A 
ATOM     18  C   UNL d   1      28.608 -12.002  -8.554  0.00  0.00     0.039 A 
ATOM     19  C   UNL d   1      29.849 -12.626  -8.590  0.00  0.00     0.065 A 
ATOM     20  C   UNL d   1      30.271 -13.423  -7.530  0.00  0.00     0.039 A 
ATOM     21  C   UNL d   1      29.460 -13.585  -6.402  0.00  0.00     0.032 A 
BRANCH  19  22
ATOM     22  O   UNL d   1      30.697 -12.489  -9.648  0.00  0.00    -0.361 OA
ATOM     23  H   UNL d   1      30.732 -13.325 -10.142  0.00  0.00     0.217 HD
ENDBRANCH  19  22
ENDBRANCH   3  16
TORSDOF 4
ENDMDL
MODEL 5
REMARK VINA RESULT:    -6.626      1.436      2.007
REMARK INTER + INTRA:          -8.469
REMARK INTER:                  -7.819
REMARK INTRA:                  -0.650
REMARK CONF_INDEPENDENT:        1.193
REMARK UNBOUND:                -0.650
REMARK  4 active torsions:
REMARK  status: ('A' for Active; 'I' for Inactive)
REMARK       I    between atoms: C_2  and  N_3 
REMARK    1  A    between atoms: C_2  and  C_11 
REMARK    2  A    between atoms: N_3  and  C_4 
REMARK    3  A    between atoms: C_7  and  O_8 
REMARK       I    between atoms: C_11  and  N_13 
REMARK    4  A    between atoms: N_13  and  C_14 
ROOT
ATOM      1  O   UNL d   1      24.105 -19.307  -0.126  0.00  0.00    -0.262 OA
ATOM      2  C   UNL d   1      23.848 -18.221  -0.644  0.00  0.00     0.313 C 
ATOM      3  N   UNL d   1      22.558 -17.715  -0.776  0.00  0.00    -0.319 N 
ATOM      4  H   UNL d   1      22.383 -17.016  -1.482  0.00  0.00     0.169 HD
ENDROOT
BRANCH   2   5
ATOM      5  C   UNL d   1      25.029 -17.442  -1.238  0.00  0.00     0.310 C 
ATOM      6  O   UNL d   1      26.132 -17.949  -1.047  0.00  0.00    -0.262 OA
ATOM      7  N   UNL d   1      24.827 -16.265  -1.954  0.00  0.00    -0.348 N 
ATOM      8  H   UNL d   1      23.915 -15.834  -1.930  0.00  0.00     0.163 HD
BRANCH   7   9
ATOM      9  C   UNL d   1      25.915 -15.406  -2.494  0.00  0.00     0.084 C 
ATOM     10  C   UNL d   1      25.924 -15.180  -4.019  0.00  0.00     0.025 C 
ATOM     11  C   UNL d   1      24.978 -14.078  -4.495  0.00  0.00     0.002 C 
ATOM     12  C   UNL d   1      25.722 -12.754  -4.631  0.00  0.00     0.000 C 
ATOM     13  C   UNL d   1      26.104 -12.085  -3.314  0.00  0.00     0.000 C 
ATOM     14  C   UNL d   1      26.814 -12.980  -2.295  0.00  0.00     0.002 C 
ATOM     15  C   UNL d   1      25.910 -14.071  -1.713  0.00  0.00     0.025 C 
ENDBRANCH   7   9
ENDBRANCH   2   5
BRANCH   3  16
ATOM     16  C   UNL d   1      21.457 -18.497  -0.345  0.00  0.00     0.035 A 
ATOM     17  C   UNL d   1      21.353 -18.950   0.979  0.00  0.00     0.032 A 
ATOM     18  C   UNL d   1      20.283 -19.759   1.380  0.00  0.00     0.039 A 
ATOM     19  C   UNL d   1      19.328 -20.131   0.441  0.00  0.00     0.065 A 
ATOM     20  C   UNL d   1      19.425 -19.695  -0.876  0.00  0.00     0.039 A 
ATOM     21  C   UNL d   1      20.474 -18.856  -1.268  0.00  0.00     0.032 A 
BRANCH  19  22
ATOM     22  O   UNL d   1      18.268 -20.926   0.763  0.00  0.00    -0.361 OA
ATOM     23  H   UNL d   1      18.553 -21.595   1.406  0.00  0.00     0.217 HD
ENDBRANCH  19  22
ENDBRANCH   3  16
TORSDOF 4
ENDMDL
MODEL 6
REMARK VINA RESULT:    -6.457      1.662      2.485
REMARK INTER + INTRA:          -8.522
REMARK INTER:                  -7.650
REMARK INTRA:                  -0.872
REMARK CONF_INDEPENDENT:        1.193
REMARK UNBOUND:                -0.872
REMARK  4 active torsions:
REMARK  status: ('A' for Active; 'I' for Inactive)
REMARK       I    between atoms: C_2  and  N_3 
REMARK    1  A    between atoms: C_2  and  C_11 
REMARK    2  A    between atoms: N_3  and  C_4 
REMARK    3  A    between atoms: C_7  and  O_8 
REMARK       I    between atoms: C_11  and  N_13 
REMARK    4  A    between atoms: N_13  and  C_14 
ROOT
ATOM      1  O   UNL d   1      22.142 -16.180  -0.493  0.00  0.00    -0.262 OA
ATOM      2  C   UNL d   1      22.942 -16.985  -0.971  0.00  0.00     0.313 C 
ATOM      3  N   UNL d   1      22.717 -18.357  -1.026  0.00  0.00    -0.319 N 
ATOM      4  H   UNL d   1      23.511 -18.973  -1.107  0.00  0.00     0.169 HD
ENDROOT
BRANCH   2   5
ATOM      5  C   UNL d   1      24.287 -16.420  -1.451  0.00  0.00     0.310 C 
ATOM      6  O   UNL d   1      25.270 -17.089  -1.141  0.00  0.00    -0.262 OA
ATOM      7  N   UNL d   1      24.347 -15.248  -2.201  0.00  0.00    -0.348 N 
ATOM      8  H   UNL d   1      23.517 -14.679  -2.276  0.00  0.00     0.163 HD
BRANCH   7   9
ATOM      9  C   UNL d   1      25.606 -14.588  -2.638  0.00  0.00     0.084 C 
ATOM     10  C   UNL d   1      26.874 -14.913  -1.823  0.00  0.00     0.025 C 
ATOM     11  C   UNL d   1      27.559 -16.219  -2.223  0.00  0.00     0.002 C 
ATOM     12  C   UNL d   1      28.676 -15.953  -3.226  0.00  0.00     0.000 C 
ATOM     13  C   UNL d   1      28.213 -15.575  -4.629  0.00  0.00     0.000 C 
ATOM     14  C   UNL d   1      27.168 -14.459  -4.706  0.00  0.00     0.002 C 
ATOM     15  C   UNL d   1      25.802 -14.869  -4.145  0.00  0.00     0.025 C 
ENDBRANCH   7   9
ENDBRANCH   2   5
BRANCH   3  16
ATOM     16  C   UNL d   1      21.531 -18.890  -0.461  0.00  0.00     0.035 A 
ATOM     17  C   UNL d   1      20.467 -19.324  -1.266  0.00  0.00     0.032 A 
ATOM     18  C   UNL d   1      19.283 -19.807  -0.693  0.00  0.00     0.039 A 
ATOM     19  C   UNL d   1      19.164 -19.833   0.691  0.00  0.00     0.065 A 
ATOM     20  C   UNL d   1      20.209 -19.397   1.499  0.00  0.00     0.039 A 
ATOM     21  C   UNL d   1      21.405 -18.950   0.927  0.00  0.00     0.032 A 
BRANCH  19  22
ATOM     22  O   UNL d   1      18.036 -20.280   1.311  0.00  0.00    -0.361 OA
ATOM     23  H   UNL d   1      18.281 -20.750   2.125  0.00  0.00     0.217 HD
ENDBRANCH  19  22
ENDBRANCH   3  16
TORSDOF 4
ENDMDL
MODEL 7
REMARK VINA RESULT:    -6.361      3.706      5.928
REMARK INTER + INTRA:          -8.781
REMARK INTER:                  -7.554
REMARK INTRA:                  -1.227
REMARK CONF_INDEPENDENT:        1.193
REMARK UNBOUND:                -1.227
REMARK  4 active torsions:
REMARK  status: ('A' for Active; 'I' for Inactive)
REMARK       I    between atoms: C_2  and  N_3 
REMARK    1  A    between atoms: C_2  and  C_11 
REMARK    2  A    between atoms: N_3  and  C_4 
REMARK    3  A    between atoms: C_7  and  O_8 
REMARK       I    between atoms: C_11  and  N_13 
REMARK    4  A    between atoms: N_13  and  C_14 
ROOT
ATOM      1  O   UNL d   1      24.366 -14.478  -3.526  0.00  0.00    -0.262 OA
ATOM      2  C   UNL d   1      25.238 -14.155  -2.720  0.00  0.00     0.313 C 
ATOM      3  N   UNL d   1      25.532 -14.879  -1.569  0.00  0.00    -0.319 N 
ATOM      4  H   UNL d   1      25.993 -14.408  -0.806  0.00  0.00     0.169 HD
ENDROOT
BRANCH   2   5
ATOM      5  C   UNL d   1      25.970 -12.832  -2.988  0.00  0.00     0.310 C 
ATOM      6  O   UNL d   1      26.873 -12.571  -2.196  0.00  0.00    -0.262 OA
ATOM      7  N   UNL d   1      25.626 -12.026  -4.070  0.00  0.00    -0.348 N 
ATOM      8  H   UNL d   1      24.777 -12.231  -4.575  0.00  0.00     0.163 HD
BRANCH   7   9
ATOM      9  C   UNL d   1      26.225 -10.695  -4.357  0.00  0.00     0.084 C 
ATOM     10  C   UNL d   1      26.117 -10.189  -5.810  0.00  0.00     0.025 C 
ATOM     11  C   UNL d   1      24.780  -9.529  -6.145  0.00  0.00     0.002 C 
ATOM     12  C   UNL d   1      24.872  -8.016  -5.978  0.00  0.00     0.000 C 
ATOM     13  C   UNL d   1      24.939  -7.525  -4.534  0.00  0.00     0.000 C 
ATOM     14  C   UNL d   1      25.981  -8.212  -3.647  0.00  0.00     0.002 C 
ATOM     15  C   UNL d   1      25.648  -9.677  -3.347  0.00  0.00     0.025 C 
ENDBRANCH   7   9
ENDBRANCH   2   5
BRANCH   3  16
ATOM     16  C   UNL d   1      24.763 -16.029  -1.256  0.00  0.00     0.035 A 
ATOM     17  C   UNL d   1      23.360 -15.993  -1.249  0.00  0.00     0.032 A 
ATOM     18  C   UNL d   1      22.614 -17.124  -0.895  0.00  0.00     0.039 A 
ATOM     19  C   UNL d   1      23.282 -18.286  -0.526  0.00  0.00     0.065 A 
ATOM     20  C   UNL d   1      24.672 -18.330  -0.520  0.00  0.00     0.039 A 
ATOM     21  C   UNL d   1      25.417 -17.211  -0.911  0.00  0.00     0.032 A 
BRANCH  19  22
ATOM     22  O   UNL d   1      22.616 -19.417  -0.159  0.00  0.00    -0.361 OA
ATOM     23  H   UNL d   1      23.184 -19.950   0.422  0.00  0.00     0.217 HD
ENDBRANCH  19  22
ENDBRANCH   3  16
TORSDOF 4
ENDMDL
MODEL 8
REMARK VINA RESULT:    -6.286      4.658      9.687
REMARK INTER + INTRA:          -8.654
REMARK INTER:                  -7.479
REMARK INTRA:                  -1.176
REMARK CONF_INDEPENDENT:        1.193
REMARK UNBOUND:                -1.176
REMARK  4 active torsions:
REMARK  status: ('A' for Active; 'I' for Inactive)
REMARK       I    between atoms: C_2  and  N_3 
REMARK    1  A    between atoms: C_2  and  C_11 
REMARK    2  A    between atoms: N_3  and  C_4 
REMARK    3  A    between atoms: C_7  and  O_8 
REMARK       I    between atoms: C_11  and  N_13 
REMARK    4  A    between atoms: N_13  and  C_14 
ROOT
ATOM      1  O   UNL d   1      26.588 -12.052  -2.376  0.00  0.00    -0.262 OA
ATOM      2  C   UNL d   1      26.000 -12.516  -3.354  0.00  0.00     0.313 C 
ATOM      3  N   UNL d   1      25.529 -11.742  -4.410  0.00  0.00    -0.319 N 
ATOM      4  H   UNL d   1      24.789 -12.112  -4.987  0.00  0.00     0.169 HD
ENDROOT
BRANCH   2   5
ATOM      5  C   UNL d   1      25.719 -14.025  -3.338  0.00  0.00     0.310 C 
ATOM      6  O   UNL d   1      25.116 -14.449  -4.322  0.00  0.00    -0.262 OA
ATOM      7  N   UNL d   1      26.151 -14.826  -2.285  0.00  0.00    -0.348 N 
ATOM      8  H   UNL d   1      26.496 -14.380  -1.448  0.00  0.00     0.163 HD
BRANCH   7   9
ATOM      9  C   UNL d   1      25.853 -16.277  -2.149  0.00  0.00     0.084 C 
ATOM     10  C   UNL d   1      26.829 -17.103  -1.286  0.00  0.00     0.025 C 
ATOM     11  C   UNL d   1      26.556 -17.027   0.215  0.00  0.00     0.002 C 
ATOM     12  C   UNL d   1      25.692 -18.200   0.664  0.00  0.00     0.000 C 
ATOM     13  C   UNL d   1      24.230 -18.134   0.229  0.00  0.00     0.000 C 
ATOM     14  C   UNL d   1      23.991 -17.848  -1.256  0.00  0.00     0.002 C 
ATOM     15  C   UNL d   1      24.391 -16.428  -1.671  0.00  0.00     0.025 C 
ENDBRANCH   7   9
ENDBRANCH   2   5
BRANCH   3  16
ATOM     16  C   UNL d   1      25.673 -10.332  -4.358  0.00  0.00     0.035 A 
ATOM     17  C   UNL d   1      25.530  -9.625  -3.154  0.00  0.00     0.032 A 
ATOM     18  C   UNL d   1      25.631  -8.229  -3.125  0.00  0.00     0.039 A 
ATOM     19  C   UNL d   1      25.855  -7.542  -4.312  0.00  0.00     0.065 A 
ATOM     20  C   UNL d   1      25.990  -8.232  -5.512  0.00  0.00     0.039 A 
ATOM     21  C   UNL d   1      25.926  -9.630  -5.535  0.00  0.00     0.032 A 
BRANCH  19  22
ATOM     22  O   UNL d   1      25.952  -6.184  -4.355  0.00  0.00    -0.361 OA
ATOM     23  H   UNL d   1      25.474  -5.803  -3.599  0.00  0.00     0.217 HD
ENDBRANCH  19  22
ENDBRANCH   3  16
TORSDOF 4
ENDMDL
MODEL 9
REMARK VINA RESULT:    -6.156      3.823      5.960
REMARK INTER + INTRA:          -8.497
REMARK INTER:                  -7.349
REMARK INTRA:                  -1.148
REMARK CONF_INDEPENDENT:        1.193
REMARK UNBOUND:                -1.148
REMARK  4 active torsions:
REMARK  status: ('A' for Active; 'I' for Inactive)
REMARK       I    between atoms: C_2  and  N_3 
REMARK    1  A    between atoms: C_2  and  C_11 
REMARK    2  A    between atoms: N_3  and  C_4 
REMARK    3  A    between atoms: C_7  and  O_8 
REMARK       I    between atoms: C_11  and  N_13 
REMARK    4  A    between atoms: N_13  and  C_14 
ROOT
ATOM      1  O   UNL d   1      23.964 -14.450  -3.449  0.00  0.00    -0.262 OA
ATOM      2  C   UNL d   1      25.144 -14.518  -3.107  0.00  0.00     0.313 C 
ATOM      3  N   UNL d   1      25.628 -15.439  -2.184  0.00  0.00    -0.319 N 
ATOM      4  H   UNL d   1      26.492 -15.236  -1.706  0.00  0.00     0.169 HD
ENDROOT
BRANCH   2   5
ATOM      5  C   UNL d   1      26.094 -13.463  -3.691  0.00  0.00     0.310 C 
ATOM      6  O   UNL d   1      27.248 -13.517  -3.271  0.00  0.00    -0.262 OA
ATOM      7  N   UNL d   1      25.654 -12.545  -4.640  0.00  0.00    -0.348 N 
ATOM      8  H   UNL d   1      24.662 -12.465  -4.812  0.00  0.00     0.163 HD
BRANCH   7   9
ATOM      9  C   UNL d   1      26.481 -11.442  -5.198  0.00  0.00     0.084 C 
ATOM     10  C   UNL d   1      27.885 -11.823  -5.708  0.00  0.00     0.025 C 
ATOM     11  C   UNL d   1      27.903 -12.394  -7.125  0.00  0.00     0.002 C 
ATOM     12  C   UNL d   1      28.197 -11.296  -8.142  0.00  0.00     0.000 C 
ATOM     13  C   UNL d   1      27.058 -10.308  -8.379  0.00  0.00     0.000 C 
ATOM     14  C   UNL d   1      26.434  -9.700  -7.120  0.00  0.00     0.002 C 
ATOM     15  C   UNL d   1      25.651 -10.715  -6.281  0.00  0.00     0.025 C 
ENDBRANCH   7   9
ENDBRANCH   2   5
BRANCH   3  16
ATOM     16  C   UNL d   1      24.723 -16.327  -1.547  0.00  0.00     0.035 A 
ATOM     17  C   UNL d   1      23.400 -15.950  -1.270  0.00  0.00     0.032 A 
ATOM     18  C   UNL d   1      22.530 -16.819  -0.601  0.00  0.00     0.039 A 
ATOM     19  C   UNL d   1      23.000 -18.061  -0.190  0.00  0.00     0.065 A 
ATOM     20  C   UNL d   1      24.312 -18.442  -0.450  0.00  0.00     0.039 A 
ATOM     21  C   UNL d   1      25.170 -17.588  -1.153  0.00  0.00     0.032 A 
BRANCH  19  22
ATOM     22  O   UNL d   1      22.209 -18.949   0.476  0.00  0.00    -0.361 OA
ATOM     23  H   UNL d   1      22.654 -19.812   0.511  0.00  0.00     0.217 HD
ENDBRANCH  19  22
ENDBRANCH   3  16
TORSDOF 4
ENDMDL
