MODEL 1
REMARK VINA RESULT:    -7.683      0.000      0.000
REMARK INTER + INTRA:          -9.642
REMARK INTER:                  -8.578
REMARK INTRA:                  -1.064
REMARK CONF_INDEPENDENT:        0.895
REMARK UNBOUND:                -1.064
REMARK  3 active torsions:
REMARK  status: ('A' for Active; 'I' for Inactive)
REMARK       I    between atoms: C_2  and  N_3 
REMARK    1  A    between atoms: C_2  and  C_21 
REMARK    2  A    between atoms: N_3  and  C_4 
REMARK    3  A    between atoms: C_9  and  C_10 
ROOT
ATOM      1  C   UNL d   1      27.791 -12.822  -5.872  0.00  0.00     0.049 A 
ATOM      2  C   UNL d   1      28.634 -12.504  -6.946  0.00  0.00     0.030 A 
ATOM      3  C   UNL d   1      29.376 -13.507  -7.587  0.00  0.00     0.002 A 
ATOM      4  C   UNL d   1      29.308 -14.827  -7.147  0.00  0.00     0.001 A 
ATOM      5  C   UNL d   1      28.461 -15.158  -6.093  0.00  0.00     0.017 A 
ATOM      6  C   UNL d   1      27.694 -14.168  -5.457  0.00  0.00     0.038 A 
ENDROOT
BRANCH   6   7
ATOM      7  C   UNL d   1      26.769 -14.567  -4.408  0.00  0.00     0.158 A 
ATOM      8  N   UNL d   1      26.883 -15.574  -3.568  0.00  0.00    -0.207 NA
ATOM      9  C   UNL d   1      25.638 -15.657  -2.995  0.00  0.00     0.181 A 
ATOM     10  C   UNL d   1      25.319 -16.615  -1.959  0.00  0.00     0.013 A 
ATOM     11  N   UNL d   1      24.784 -14.697  -3.381  0.00  0.00    -0.152 NA
ATOM     12  C   UNL d   1      24.149 -17.380  -2.019  0.00  0.00     0.015 A 
ATOM     13  C   UNL d   1      26.135 -16.681  -0.825  0.00  0.00     0.015 A 
ATOM     14  C   UNL d   1      23.746 -18.122  -0.907  0.00  0.00     0.001 A 
ATOM     15  C   UNL d   1      24.552 -18.163   0.232  0.00  0.00     0.000 A 
ATOM     16  C   UNL d   1      25.750 -17.451   0.270  0.00  0.00     0.001 A 
ATOM     17  N   UNL d   1      25.519 -14.032  -4.283  0.00  0.00    -0.258 N 
ATOM     18  H   UNL d   1      25.095 -13.301  -4.840  0.00  0.00     0.191 HD
ENDBRANCH   6   7
BRANCH   1  19
ATOM     19  N   UNL d   1      27.053 -11.783  -5.243  0.00  0.00    -0.321 N 
ATOM     20  C   UNL d   1      26.227 -10.918  -5.950  0.00  0.00     0.276 C 
ATOM     21  O   UNL d   1      25.944 -11.075  -7.144  0.00  0.00    -0.266 OA
ATOM     22  H   UNL d   1      26.976 -11.763  -4.233  0.00  0.00     0.169 HD
BRANCH  20  23
ATOM     23  C   UNL d   1      25.532  -9.885  -5.166  0.00  0.00     0.146 A 
ATOM     24  C   UNL d   1      24.778  -8.826  -5.745  0.00  0.00     0.058 A 
ATOM     25  C   UNL d   1      24.270  -8.111  -4.693  0.00  0.00     0.112 A 
ATOM     26  N   UNL d   1      24.780  -8.695  -3.573  0.00  0.00    -0.289 N 
ATOM     27  N   UNL d   1      25.489  -9.820  -3.821  0.00  0.00    -0.170 NA
ATOM     28  H   UNL d   1      24.652  -8.399  -2.610  0.00  0.00     0.188 HD
ENDBRANCH  20  23
ENDBRANCH   1  19
TORSDOF 3
ENDMDL
MODEL 2
REMARK VINA RESULT:    -7.261      2.226      5.104
REMARK INTER + INTRA:          -9.603
REMARK INTER:                  -8.156
REMARK INTRA:                  -1.447
REMARK CONF_INDEPENDENT:        0.895
REMARK UNBOUND:                -1.447
REMARK  3 active torsions:
REMARK  status: ('A' for Active; 'I' for Inactive)
REMARK       I    between atoms: C_2  and  N_3 
REMARK    1  A    between atoms: C_2  and  C_21 
REMARK    2  A    between atoms: N_3  and  C_4 
REMARK    3  A    between atoms: C_9  and  C_10 
ROOT
ATOM      1  C   UNL d   1      27.877 -13.495  -5.815  0.00  0.00     0.049 A 
ATOM      2  C   UNL d   1      28.533 -12.735  -6.792  0.00  0.00     0.030 A 
ATOM      3  C   UNL d   1      27.977 -11.529  -7.246  0.00  0.00     0.002 A 
ATOM      4  C   UNL d   1      26.752 -11.087  -6.753  0.00  0.00     0.001 A 
ATOM      5  C   UNL d   1      26.099 -11.825  -5.769  0.00  0.00     0.017 A 
ATOM      6  C   UNL d   1      26.655 -13.021  -5.289  0.00  0.00     0.038 A 
ENDROOT
BRANCH   6   7
ATOM      7  C   UNL d   1      25.978 -13.724  -4.211  0.00  0.00     0.158 A 
ATOM      8  N   UNL d   1      26.426 -14.734  -3.496  0.00  0.00    -0.207 NA
ATOM      9  C   UNL d   1      25.311 -15.176  -2.828  0.00  0.00     0.181 A 
ATOM     10  C   UNL d   1      25.352 -16.264  -1.875  0.00  0.00     0.013 A 
ATOM     11  N   UNL d   1      24.211 -14.436  -3.035  0.00  0.00    -0.152 NA
ATOM     12  C   UNL d   1      24.405 -17.293  -1.914  0.00  0.00     0.015 A 
ATOM     13  C   UNL d   1      26.280 -16.212  -0.830  0.00  0.00     0.015 A 
ATOM     14  C   UNL d   1      24.321 -18.200  -0.856  0.00  0.00     0.001 A 
ATOM     15  C   UNL d   1      25.234 -18.127   0.198  0.00  0.00     0.000 A 
ATOM     16  C   UNL d   1      26.219 -17.141   0.206  0.00  0.00     0.001 A 
ATOM     17  N   UNL d   1      24.656 -13.535  -3.921  0.00  0.00    -0.258 N 
ATOM     18  H   UNL d   1      24.007 -12.894  -4.359  0.00  0.00     0.191 HD
ENDBRANCH   6   7
BRANCH   1  19
ATOM     19  N   UNL d   1      28.465 -14.713  -5.378  0.00  0.00    -0.321 N 
ATOM     20  C   UNL d   1      29.322 -15.460  -6.177  0.00  0.00     0.276 C 
ATOM     21  O   UNL d   1      29.765 -15.055  -7.259  0.00  0.00    -0.266 OA
ATOM     22  H   UNL d   1      28.411 -14.973  -4.400  0.00  0.00     0.169 HD
BRANCH  20  23
ATOM     23  C   UNL d   1      29.848 -16.703  -5.594  0.00  0.00     0.146 A 
ATOM     24  C   UNL d   1      30.588 -17.670  -6.330  0.00  0.00     0.058 A 
ATOM     25  C   UNL d   1      30.921 -18.649  -5.431  0.00  0.00     0.112 A 
ATOM     26  N   UNL d   1      30.328 -18.286  -4.259  0.00  0.00    -0.289 N 
ATOM     27  N   UNL d   1      29.733 -17.073  -4.303  0.00  0.00    -0.170 NA
ATOM     28  H   UNL d   1      30.324 -18.802  -3.384  0.00  0.00     0.188 HD
ENDBRANCH  20  23
ENDBRANCH   1  19
TORSDOF 3
ENDMDL
MODEL 3
REMARK VINA RESULT:    -7.144      5.680      7.597
REMARK INTER + INTRA:          -9.070
REMARK INTER:                  -8.039
REMARK INTRA:                  -1.031
REMARK CONF_INDEPENDENT:        0.895
REMARK UNBOUND:                -1.031
REMARK  3 active torsions:
REMARK  status: ('A' for Active; 'I' for Inactive)
REMARK       I    between atoms: C_2  and  N_3 
REMARK    1  A    between atoms: C_2  and  C_21 
REMARK    2  A    between atoms: N_3  and  C_4 
REMARK    3  A    between atoms: C_9  and  C_10 
ROOT
ATOM      1  C   UNL d   1      27.522 -11.381   3.583  0.00  0.00     0.049 A 
ATOM      2  C   UNL d   1      27.725 -10.665   4.770  0.00  0.00     0.030 A 
ATOM      3  C   UNL d   1      28.149 -11.324   5.934  0.00  0.00     0.002 A 
ATOM      4  C   UNL d   1      28.344 -12.703   5.933  0.00  0.00     0.001 A 
ATOM      5  C   UNL d   1      28.162 -13.423   4.755  0.00  0.00     0.017 A 
ATOM      6  C   UNL d   1      27.761 -12.773   3.577  0.00  0.00     0.038 A 
ENDROOT
BRANCH   6   7
ATOM      7  C   UNL d   1      27.651 -13.549   2.353  0.00  0.00     0.158 A 
ATOM      8  N   UNL d   1      26.958 -13.261   1.271  0.00  0.00    -0.207 NA
ATOM      9  C   UNL d   1      26.984 -14.430   0.551  0.00  0.00     0.181 A 
ATOM     10  C   UNL d   1      26.373 -14.556  -0.754  0.00  0.00     0.013 A 
ATOM     11  N   UNL d   1      27.728 -15.403   1.099  0.00  0.00    -0.152 NA
ATOM     12  C   UNL d   1      25.560 -15.651  -1.068  0.00  0.00     0.015 A 
ATOM     13  C   UNL d   1      26.705 -13.630  -1.748  0.00  0.00     0.015 A 
ATOM     14  C   UNL d   1      25.173 -15.873  -2.391  0.00  0.00     0.001 A 
ATOM     15  C   UNL d   1      25.530 -14.958  -3.383  0.00  0.00     0.000 A 
ATOM     16  C   UNL d   1      26.286 -13.832  -3.060  0.00  0.00     0.001 A 
ATOM     17  N   UNL d   1      28.126 -14.825   2.241  0.00  0.00    -0.258 N 
ATOM     18  H   UNL d   1      28.625 -15.367   2.934  0.00  0.00     0.191 HD
ENDBRANCH   6   7
BRANCH   1  19
ATOM     19  N   UNL d   1      27.091 -10.684   2.422  0.00  0.00    -0.321 N 
ATOM     20  C   UNL d   1      26.606  -9.383   2.466  0.00  0.00     0.276 C 
ATOM     21  O   UNL d   1      26.655  -8.676   3.480  0.00  0.00    -0.266 OA
ATOM     22  H   UNL d   1      27.297 -11.062   1.504  0.00  0.00     0.169 HD
BRANCH  20  23
ATOM     23  C   UNL d   1      26.188  -8.792   1.186  0.00  0.00     0.146 A 
ATOM     24  C   UNL d   1      26.924  -8.926  -0.024  0.00  0.00     0.058 A 
ATOM     25  C   UNL d   1      26.193  -8.271  -0.981  0.00  0.00     0.112 A 
ATOM     26  N   UNL d   1      25.133  -7.727  -0.321  0.00  0.00    -0.289 N 
ATOM     27  N   UNL d   1      25.058  -8.086   0.980  0.00  0.00    -0.170 NA
ATOM     28  H   UNL d   1      24.405  -7.133  -0.707  0.00  0.00     0.188 HD
ENDBRANCH  20  23
ENDBRANCH   1  19
TORSDOF 3
ENDMDL
MODEL 4
REMARK VINA RESULT:    -6.700      3.616      6.745
REMARK INTER + INTRA:          -8.716
REMARK INTER:                  -7.595
REMARK INTRA:                  -1.121
REMARK CONF_INDEPENDENT:        0.895
REMARK UNBOUND:                -1.121
REMARK  3 active torsions:
REMARK  status: ('A' for Active; 'I' for Inactive)
REMARK       I    between atoms: C_2  and  N_3 
REMARK    1  A    between atoms: C_2  and  C_21 
REMARK    2  A    between atoms: N_3  and  C_4 
REMARK    3  A    between atoms: C_9  and  C_10 
ROOT
ATOM      1  C   UNL d   1      26.339 -16.048  -2.270  0.00  0.00     0.049 A 
ATOM      2  C   UNL d   1      24.967 -15.800  -2.123  0.00  0.00     0.030 A 
ATOM      3  C   UNL d   1      24.256 -16.358  -1.050  0.00  0.00     0.002 A 
ATOM      4  C   UNL d   1      24.896 -17.189  -0.134  0.00  0.00     0.001 A 
ATOM      5  C   UNL d   1      26.263 -17.429  -0.260  0.00  0.00     0.017 A 
ATOM      6  C   UNL d   1      26.992 -16.858  -1.315  0.00  0.00     0.038 A 
ENDROOT
BRANCH   6   7
ATOM      7  C   UNL d   1      28.429 -17.074  -1.369  0.00  0.00     0.158 A 
ATOM      8  N   UNL d   1      29.273 -16.674  -2.297  0.00  0.00    -0.207 NA
ATOM      9  C   UNL d   1      30.423 -17.366  -2.006  0.00  0.00     0.181 A 
ATOM     10  C   UNL d   1      31.647 -17.195  -2.757  0.00  0.00     0.013 A 
ATOM     11  N   UNL d   1      30.354 -18.114  -0.894  0.00  0.00    -0.152 NA
ATOM     12  C   UNL d   1      32.385 -18.300  -3.195  0.00  0.00     0.015 A 
ATOM     13  C   UNL d   1      32.156 -15.904  -2.935  0.00  0.00     0.015 A 
ATOM     14  C   UNL d   1      33.670 -18.117  -3.710  0.00  0.00     0.001 A 
ATOM     15  C   UNL d   1      34.183 -16.828  -3.861  0.00  0.00     0.000 A 
ATOM     16  C   UNL d   1      33.423 -15.722  -3.484  0.00  0.00     0.001 A 
ATOM     17  N   UNL d   1      29.081 -17.922  -0.520  0.00  0.00    -0.258 N 
ATOM     18  H   UNL d   1      28.693 -18.459   0.245  0.00  0.00     0.191 HD
ENDBRANCH   6   7
BRANCH   1  19
ATOM     19  N   UNL d   1      27.031 -15.469  -3.368  0.00  0.00    -0.321 N 
ATOM     20  C   UNL d   1      26.386 -15.071  -4.533  0.00  0.00     0.276 C 
ATOM     21  O   UNL d   1      25.155 -15.041  -4.650  0.00  0.00    -0.266 OA
ATOM     22  H   UNL d   1      27.991 -15.169  -3.254  0.00  0.00     0.169 HD
BRANCH  20  23
ATOM     23  C   UNL d   1      27.232 -14.496  -5.590  0.00  0.00     0.146 A 
ATOM     24  C   UNL d   1      27.438 -13.100  -5.766  0.00  0.00     0.058 A 
ATOM     25  C   UNL d   1      28.305 -12.980  -6.820  0.00  0.00     0.112 A 
ATOM     26  N   UNL d   1      28.516 -14.250  -7.266  0.00  0.00    -0.289 N 
ATOM     27  N   UNL d   1      27.940 -15.200  -6.496  0.00  0.00    -0.170 NA
ATOM     28  H   UNL d   1      29.071 -14.538  -8.066  0.00  0.00     0.188 HD
ENDBRANCH  20  23
ENDBRANCH   1  19
TORSDOF 3
ENDMDL
MODEL 5
REMARK VINA RESULT:    -6.695      3.118      5.886
REMARK INTER + INTRA:          -8.800
REMARK INTER:                  -7.590
REMARK INTRA:                  -1.210
REMARK CONF_INDEPENDENT:        0.895
REMARK UNBOUND:                -1.210
REMARK  3 active torsions:
REMARK  status: ('A' for Active; 'I' for Inactive)
REMARK       I    between atoms: C_2  and  N_3 
REMARK    1  A    between atoms: C_2  and  C_21 
REMARK    2  A    between atoms: N_3  and  C_4 
REMARK    3  A    between atoms: C_9  and  C_10 
ROOT
ATOM      1  C   UNL d   1      29.082 -15.162  -4.905  0.00  0.00     0.049 A 
ATOM      2  C   UNL d   1      30.024 -14.765  -5.863  0.00  0.00     0.030 A 
ATOM      3  C   UNL d   1      29.670 -13.864  -6.878  0.00  0.00     0.002 A 
ATOM      4  C   UNL d   1      28.369 -13.374  -6.964  0.00  0.00     0.001 A 
ATOM      5  C   UNL d   1      27.428 -13.747  -6.007  0.00  0.00     0.017 A 
ATOM      6  C   UNL d   1      27.776 -14.629  -4.972  0.00  0.00     0.038 A 
ENDROOT
BRANCH   6   7
ATOM      7  C   UNL d   1      26.785 -14.937  -3.953  0.00  0.00     0.158 A 
ATOM      8  N   UNL d   1      26.751 -15.977  -3.145  0.00  0.00    -0.207 NA
ATOM      9  C   UNL d   1      25.494 -15.916  -2.596  0.00  0.00     0.181 A 
ATOM     10  C   UNL d   1      25.032 -16.856  -1.599  0.00  0.00     0.013 A 
ATOM     11  N   UNL d   1      24.778 -14.842  -2.965  0.00  0.00    -0.152 NA
ATOM     12  C   UNL d   1      23.775 -17.462  -1.704  0.00  0.00     0.015 A 
ATOM     13  C   UNL d   1      25.809 -17.062  -0.454  0.00  0.00     0.015 A 
ATOM     14  C   UNL d   1      23.257 -18.179  -0.625  0.00  0.00     0.001 A 
ATOM     15  C   UNL d   1      24.026 -18.359   0.526  0.00  0.00     0.000 A 
ATOM     16  C   UNL d   1      25.305 -17.810   0.607  0.00  0.00     0.001 A 
ATOM     17  N   UNL d   1      25.612 -14.249  -3.831  0.00  0.00    -0.258 N 
ATOM     18  H   UNL d   1      25.297 -13.453  -4.370  0.00  0.00     0.191 HD
ENDBRANCH   6   7
BRANCH   1  19
ATOM     19  N   UNL d   1      29.473 -16.077  -3.890  0.00  0.00    -0.321 N 
ATOM     20  C   UNL d   1      30.322 -17.150  -4.136  0.00  0.00     0.276 C 
ATOM     21  O   UNL d   1      30.926 -17.305  -5.204  0.00  0.00    -0.266 OA
ATOM     22  H   UNL d   1      29.281 -15.862  -2.919  0.00  0.00     0.169 HD
BRANCH  20  23
ATOM     23  C   UNL d   1      30.632 -18.019  -2.991  0.00  0.00     0.146 A 
ATOM     24  C   UNL d   1      31.419 -19.200  -3.085  0.00  0.00     0.058 A 
ATOM     25  C   UNL d   1      31.501 -19.697  -1.811  0.00  0.00     0.112 A 
ATOM     26  N   UNL d   1      30.728 -18.875  -1.047  0.00  0.00    -0.289 N 
ATOM     27  N   UNL d   1      30.247 -17.804  -1.717  0.00  0.00    -0.170 NA
ATOM     28  H   UNL d   1      30.521 -18.967  -0.058  0.00  0.00     0.188 HD
ENDBRANCH  20  23
ENDBRANCH   1  19
TORSDOF 3
ENDMDL
MODEL 6
REMARK VINA RESULT:    -6.637      5.229      6.645
REMARK INTER + INTRA:          -9.006
REMARK INTER:                  -7.532
REMARK INTRA:                  -1.474
REMARK CONF_INDEPENDENT:        0.895
REMARK UNBOUND:                -1.474
REMARK  3 active torsions:
REMARK  status: ('A' for Active; 'I' for Inactive)
REMARK       I    between atoms: C_2  and  N_3 
REMARK    1  A    between atoms: C_2  and  C_21 
REMARK    2  A    between atoms: N_3  and  C_4 
REMARK    3  A    between atoms: C_9  and  C_10 
ROOT
ATOM      1  C   UNL d   1      30.216 -15.832  -0.749  0.00  0.00     0.049 A 
ATOM      2  C   UNL d   1      31.471 -15.661  -1.348  0.00  0.00     0.030 A 
ATOM      3  C   UNL d   1      31.624 -15.816  -2.734  0.00  0.00     0.002 A 
ATOM      4  C   UNL d   1      30.537 -16.171  -3.528  0.00  0.00     0.001 A 
ATOM      5  C   UNL d   1      29.281 -16.328  -2.947  0.00  0.00     0.017 A 
ATOM      6  C   UNL d   1      29.109 -16.152  -1.565  0.00  0.00     0.038 A 
ENDROOT
BRANCH   6   7
ATOM      7  C   UNL d   1      27.769 -16.254  -1.008  0.00  0.00     0.158 A 
ATOM      8  N   UNL d   1      26.806 -17.079  -1.362  0.00  0.00    -0.207 NA
ATOM      9  C   UNL d   1      25.700 -16.575  -0.723  0.00  0.00     0.181 A 
ATOM     10  C   UNL d   1      24.402 -17.209  -0.796  0.00  0.00     0.013 A 
ATOM     11  N   UNL d   1      25.950 -15.525   0.074  0.00  0.00    -0.152 NA
ATOM     12  C   UNL d   1      23.248 -16.461  -1.058  0.00  0.00     0.015 A 
ATOM     13  C   UNL d   1      24.293 -18.566  -0.477  0.00  0.00     0.015 A 
ATOM     14  C   UNL d   1      21.990 -17.045  -0.895  0.00  0.00     0.001 A 
ATOM     15  C   UNL d   1      21.888 -18.394  -0.551  0.00  0.00     0.000 A 
ATOM     16  C   UNL d   1      23.038 -19.157  -0.352  0.00  0.00     0.001 A 
ATOM     17  N   UNL d   1      27.260 -15.335  -0.136  0.00  0.00    -0.258 N 
ATOM     18  H   UNL d   1      27.721 -14.524   0.256  0.00  0.00     0.191 HD
ENDBRANCH   6   7
BRANCH   1  19
ATOM     19  N   UNL d   1      30.095 -15.669   0.658  0.00  0.00    -0.321 N 
ATOM     20  C   UNL d   1      29.828 -14.440   1.249  0.00  0.00     0.276 C 
ATOM     21  O   UNL d   1      29.521 -13.430   0.603  0.00  0.00    -0.266 OA
ATOM     22  H   UNL d   1      30.024 -16.486   1.254  0.00  0.00     0.169 HD
BRANCH  20  23
ATOM     23  C   UNL d   1      29.739 -14.421   2.717  0.00  0.00     0.146 A 
ATOM     24  C   UNL d   1      28.511 -14.424   3.435  0.00  0.00     0.058 A 
ATOM     25  C   UNL d   1      28.854 -14.438   4.761  0.00  0.00     0.112 A 
ATOM     26  N   UNL d   1      30.214 -14.367   4.788  0.00  0.00    -0.289 N 
ATOM     27  N   UNL d   1      30.786 -14.432   3.565  0.00  0.00    -0.170 NA
ATOM     28  H   UNL d   1      30.812 -14.311   5.606  0.00  0.00     0.188 HD
ENDBRANCH  20  23
ENDBRANCH   1  19
TORSDOF 3
ENDMDL
MODEL 7
REMARK VINA RESULT:    -6.400      3.115      7.868
REMARK INTER + INTRA:          -8.817
REMARK INTER:                  -7.295
REMARK INTRA:                  -1.522
REMARK CONF_INDEPENDENT:        0.895
REMARK UNBOUND:                -1.522
REMARK  3 active torsions:
REMARK  status: ('A' for Active; 'I' for Inactive)
REMARK       I    between atoms: C_2  and  N_3 
REMARK    1  A    between atoms: C_2  and  C_21 
REMARK    2  A    between atoms: N_3  and  C_4 
REMARK    3  A    between atoms: C_9  and  C_10 
ROOT
ATOM      1  C   UNL d   1      25.880 -16.943  -0.645  0.00  0.00     0.049 A 
ATOM      2  C   UNL d   1      25.548 -17.814   0.401  0.00  0.00     0.030 A 
ATOM      3  C   UNL d   1      24.216 -18.205   0.604  0.00  0.00     0.002 A 
ATOM      4  C   UNL d   1      23.202 -17.710  -0.214  0.00  0.00     0.001 A 
ATOM      5  C   UNL d   1      23.522 -16.857  -1.268  0.00  0.00     0.017 A 
ATOM      6  C   UNL d   1      24.854 -16.477  -1.497  0.00  0.00     0.038 A 
ENDROOT
BRANCH   6   7
ATOM      7  C   UNL d   1      25.155 -15.643  -2.650  0.00  0.00     0.158 A 
ATOM      8  N   UNL d   1      26.310 -15.499  -3.265  0.00  0.00    -0.207 NA
ATOM      9  C   UNL d   1      26.104 -14.418  -4.087  0.00  0.00     0.181 A 
ATOM     10  C   UNL d   1      27.115 -13.928  -4.997  0.00  0.00     0.013 A 
ATOM     11  N   UNL d   1      24.852 -13.937  -4.067  0.00  0.00    -0.152 NA
ATOM     12  C   UNL d   1      27.408 -12.562  -5.082  0.00  0.00     0.015 A 
ATOM     13  C   UNL d   1      27.714 -14.823  -5.889  0.00  0.00     0.015 A 
ATOM     14  C   UNL d   1      28.212 -12.087  -6.120  0.00  0.00     0.001 A 
ATOM     15  C   UNL d   1      28.786 -12.983  -7.023  0.00  0.00     0.000 A 
ATOM     16  C   UNL d   1      28.546 -14.351  -6.901  0.00  0.00     0.001 A 
ATOM     17  N   UNL d   1      24.278 -14.719  -3.143  0.00  0.00    -0.258 N 
ATOM     18  H   UNL d   1      23.339 -14.519  -2.824  0.00  0.00     0.191 HD
ENDBRANCH   6   7
BRANCH   1  19
ATOM     19  N   UNL d   1      27.239 -16.565  -0.823  0.00  0.00    -0.321 N 
ATOM     20  C   UNL d   1      28.298 -17.395  -0.477  0.00  0.00     0.276 C 
ATOM     21  O   UNL d   1      28.151 -18.576  -0.139  0.00  0.00    -0.266 OA
ATOM     22  H   UNL d   1      27.463 -15.746  -1.376  0.00  0.00     0.169 HD
BRANCH  20  23
ATOM     23  C   UNL d   1      29.651 -16.867  -0.710  0.00  0.00     0.146 A 
ATOM     24  C   UNL d   1      30.838 -17.634  -0.551  0.00  0.00     0.058 A 
ATOM     25  C   UNL d   1      31.871 -16.800  -0.892  0.00  0.00     0.112 A 
ATOM     26  N   UNL d   1      31.294 -15.594  -1.157  0.00  0.00    -0.289 N 
ATOM     27  N   UNL d   1      29.943 -15.619  -1.129  0.00  0.00    -0.170 NA
ATOM     28  H   UNL d   1      31.763 -14.727  -1.399  0.00  0.00     0.188 HD
ENDBRANCH  20  23
ENDBRANCH   1  19
TORSDOF 3
ENDMDL
MODEL 8
REMARK VINA RESULT:    -6.346      3.072      6.227
REMARK INTER + INTRA:          -8.844
REMARK INTER:                  -7.241
REMARK INTRA:                  -1.602
REMARK CONF_INDEPENDENT:        0.895
REMARK UNBOUND:                -1.602
REMARK  3 active torsions:
REMARK  status: ('A' for Active; 'I' for Inactive)
REMARK       I    between atoms: C_2  and  N_3 
REMARK    1  A    between atoms: C_2  and  C_21 
REMARK    2  A    between atoms: N_3  and  C_4 
REMARK    3  A    between atoms: C_9  and  C_10 
ROOT
ATOM      1  C   UNL d   1      26.804 -13.350  -4.782  0.00  0.00     0.049 A 
ATOM      2  C   UNL d   1      25.932 -12.259  -4.664  0.00  0.00     0.030 A 
ATOM      3  C   UNL d   1      25.983 -11.206  -5.589  0.00  0.00     0.002 A 
ATOM      4  C   UNL d   1      26.920 -11.217  -6.620  0.00  0.00     0.001 A 
ATOM      5  C   UNL d   1      27.780 -12.303  -6.758  0.00  0.00     0.017 A 
ATOM      6  C   UNL d   1      27.724 -13.376  -5.854  0.00  0.00     0.038 A 
ENDROOT
BRANCH   6   7
ATOM      7  C   UNL d   1      28.589 -14.523  -6.075  0.00  0.00     0.158 A 
ATOM      8  N   UNL d   1      29.067 -15.361  -5.179  0.00  0.00    -0.207 NA
ATOM      9  C   UNL d   1      30.020 -16.065  -5.873  0.00  0.00     0.181 A 
ATOM     10  C   UNL d   1      30.780 -17.143  -5.278  0.00  0.00     0.013 A 
ATOM     11  N   UNL d   1      30.097 -15.758  -7.177  0.00  0.00    -0.152 NA
ATOM     12  C   UNL d   1      32.168 -17.219  -5.436  0.00  0.00     0.015 A 
ATOM     13  C   UNL d   1      30.094 -18.184  -4.645  0.00  0.00     0.015 A 
ATOM     14  C   UNL d   1      32.848 -18.378  -5.057  0.00  0.00     0.001 A 
ATOM     15  C   UNL d   1      32.153 -19.426  -4.449  0.00  0.00     0.000 A 
ATOM     16  C   UNL d   1      30.779 -19.324  -4.234  0.00  0.00     0.001 A 
ATOM     17  N   UNL d   1      29.193 -14.773  -7.274  0.00  0.00    -0.258 N 
ATOM     18  H   UNL d   1      29.102 -14.254  -8.138  0.00  0.00     0.191 HD
ENDBRANCH   6   7
BRANCH   1  19
ATOM     19  N   UNL d   1      26.728 -14.401  -3.828  0.00  0.00    -0.321 N 
ATOM     20  C   UNL d   1      25.525 -14.831  -3.281  0.00  0.00     0.276 C 
ATOM     21  O   UNL d   1      24.421 -14.450  -3.690  0.00  0.00    -0.266 OA
ATOM     22  H   UNL d   1      27.539 -14.983  -3.657  0.00  0.00     0.169 HD
BRANCH  20  23
ATOM     23  C   UNL d   1      25.601 -15.922  -2.298  0.00  0.00     0.146 A 
ATOM     24  C   UNL d   1      24.471 -16.452  -1.615  0.00  0.00     0.058 A 
ATOM     25  C   UNL d   1      24.952 -17.462  -0.825  0.00  0.00     0.112 A 
ATOM     26  N   UNL d   1      26.304 -17.449  -0.998  0.00  0.00    -0.289 N 
ATOM     27  N   UNL d   1      26.723 -16.578  -1.942  0.00  0.00    -0.170 NA
ATOM     28  H   UNL d   1      26.990 -18.034  -0.531  0.00  0.00     0.188 HD
ENDBRANCH  20  23
ENDBRANCH   1  19
TORSDOF 3
ENDMDL
MODEL 9
REMARK VINA RESULT:    -5.995      6.097      8.023
REMARK INTER + INTRA:          -8.650
REMARK INTER:                  -6.890
REMARK INTRA:                  -1.760
REMARK CONF_INDEPENDENT:        0.895
REMARK UNBOUND:                -1.760
REMARK  3 active torsions:
REMARK  status: ('A' for Active; 'I' for Inactive)
REMARK       I    between atoms: C_2  and  N_3 
REMARK    1  A    between atoms: C_2  and  C_21 
REMARK    2  A    between atoms: N_3  and  C_4 
REMARK    3  A    between atoms: C_9  and  C_10 
ROOT
ATOM      1  C   UNL d   1      31.372 -14.991   1.752  0.00  0.00     0.049 A 
ATOM      2  C   UNL d   1      32.754 -14.781   1.649  0.00  0.00     0.030 A 
ATOM      3  C   UNL d   1      33.391 -14.842   0.401  0.00  0.00     0.002 A 
ATOM      4  C   UNL d   1      32.664 -15.141  -0.749  0.00  0.00     0.001 A 
ATOM      5  C   UNL d   1      31.287 -15.334  -0.662  0.00  0.00     0.017 A 
ATOM      6  C   UNL d   1      30.633 -15.252   0.577  0.00  0.00     0.038 A 
ENDROOT
BRANCH   6   7
ATOM      7  C   UNL d   1      29.186 -15.390   0.615  0.00  0.00     0.158 A 
ATOM      8  N   UNL d   1      28.448 -16.335   0.071  0.00  0.00    -0.207 NA
ATOM      9  C   UNL d   1      27.170 -15.844   0.172  0.00  0.00     0.181 A 
ATOM     10  C   UNL d   1      26.011 -16.589  -0.267  0.00  0.00     0.013 A 
ATOM     11  N   UNL d   1      27.075 -14.675   0.825  0.00  0.00    -0.152 NA
ATOM     12  C   UNL d   1      25.019 -15.987  -1.049  0.00  0.00     0.015 A 
ATOM     13  C   UNL d   1      25.828 -17.894   0.204  0.00  0.00     0.015 A 
ATOM     14  C   UNL d   1      23.808 -16.648  -1.265  0.00  0.00     0.001 A 
ATOM     15  C   UNL d   1      23.621 -17.939  -0.770  0.00  0.00     0.000 A 
ATOM     16  C   UNL d   1      24.634 -18.566  -0.045  0.00  0.00     0.001 A 
ATOM     17  N   UNL d   1      28.362 -14.405   1.081  0.00  0.00    -0.258 N 
ATOM     18  H   UNL d   1      28.621 -13.512   1.479  0.00  0.00     0.191 HD
ENDBRANCH   6   7
BRANCH   1  19
ATOM     19  N   UNL d   1      30.757 -14.924   3.032  0.00  0.00    -0.321 N 
ATOM     20  C   UNL d   1      30.178 -13.760   3.524  0.00  0.00     0.276 C 
ATOM     21  O   UNL d   1      30.011 -12.744   2.838  0.00  0.00    -0.266 OA
ATOM     22  H   UNL d   1      30.569 -15.778   3.544  0.00  0.00     0.169 HD
BRANCH  20  23
ATOM     23  C   UNL d   1      29.587 -13.837   4.868  0.00  0.00     0.146 A 
ATOM     24  C   UNL d   1      29.145 -12.703   5.604  0.00  0.00     0.058 A 
ATOM     25  C   UNL d   1      28.633 -13.194   6.776  0.00  0.00     0.112 A 
ATOM     26  N   UNL d   1      28.849 -14.539   6.734  0.00  0.00    -0.289 N 
ATOM     27  N   UNL d   1      29.357 -14.972   5.559  0.00  0.00    -0.170 NA
ATOM     28  H   UNL d   1      28.639 -15.220   7.457  0.00  0.00     0.188 HD
ENDBRANCH  20  23
ENDBRANCH   1  19
TORSDOF 3
ENDMDL
