MODEL 1
REMARK VINA RESULT:   -11.064      0.000      0.000
REMARK INTER + INTRA:         -14.460
REMARK INTER:                 -13.450
REMARK INTRA:                  -1.010
REMARK CONF_INDEPENDENT:        2.386
REMARK UNBOUND:                -1.010
REMARK  8 active torsions:
REMARK  status: ('A' for Active; 'I' for Inactive)
REMARK    1  A    between atoms: C_2  and  S_3 
REMARK    2  A    between atoms: C_2  and  C_18 
REMARK    3  A    between atoms: C_4  and  S_3 
REMARK    4  A    between atoms: C_7  and  C_8 
REMARK       I    between atoms: C_18  and  N_20 
REMARK    5  A    between atoms: N_20  and  C_21 
REMARK    6  A    between atoms: C_24  and  O_25 
REMARK    7  A    between atoms: O_25  and  C_26 
REMARK    8  A    between atoms: C_26  and  C_27 
ROOT
ATOM      1  C   UNL d   1      28.438 -13.365  -0.157  0.00  0.00     0.031 C 
ATOM      2  C   UNL d   1      27.712 -14.253   0.865  0.00  0.00     0.140 C 
ENDROOT
BRANCH   2   3
ATOM      3  S   UNL d   1      27.011 -13.284   2.275  0.00  0.00    -0.101 SA
BRANCH   3   4
ATOM      4  C   UNL d   1      27.588 -14.197   3.754  0.00  0.00     0.311 A 
ATOM      5  N   UNL d   1      29.022 -14.327   3.707  0.00  0.00    -0.273 N 
ATOM      6  N   UNL d   1      29.631 -13.789   4.767  0.00  0.00    -0.150 NA
ATOM      7  H   UNL d   1      29.493 -14.930   3.040  0.00  0.00     0.186 HD
ATOM      8  C   UNL d   1      28.649 -13.303   5.448  0.00  0.00     0.195 A 
ATOM      9  O   UNL d   1      27.378 -13.463   4.966  0.00  0.00    -0.296 OA
BRANCH   8  10
ATOM     10  C   UNL d   1      28.733 -12.556   6.687  0.00  0.00     0.026 A 
ATOM     11  C   UNL d   1      28.826 -13.112   7.897  0.00  0.00     0.003 A 
ATOM     12  C   UNL d   1      28.905 -14.449   8.367  0.00  0.00     0.014 A 
ATOM     13  C   UNL d   1      28.846 -11.963   8.826  0.00  0.00     0.039 A 
ATOM     14  C   UNL d   1      28.953 -14.658   9.692  0.00  0.00     0.001 A 
ATOM     15  C   UNL d   1      28.928 -13.554  10.640  0.00  0.00     0.002 A 
ATOM     16  C   UNL d   1      28.883 -12.257  10.276  0.00  0.00     0.030 A 
ATOM     17  N   UNL d   1      28.808 -10.846   8.216  0.00  0.00    -0.385 N 
ATOM     18  C   UNL d   1      28.771 -11.067   6.745  0.00  0.00     0.164 A 
ATOM     19  H   UNL d   1      28.796  -9.941   8.692  0.00  0.00     0.160 HD
ENDBRANCH   8  10
ENDBRANCH   3   4
ENDBRANCH   2   3
BRANCH   2  20
ATOM     20  C   UNL d   1      26.570 -15.001   0.117  0.00  0.00     0.235 C 
ATOM     21  O   UNL d   1      25.948 -14.432  -0.784  0.00  0.00    -0.272 OA
ATOM     22  N   UNL d   1      26.313 -16.320   0.499  0.00  0.00    -0.326 N 
ATOM     23  H   UNL d   1      26.606 -16.591   1.430  0.00  0.00     0.169 HD
BRANCH  22  24
ATOM     24  C   UNL d   1      25.252 -17.061  -0.099  0.00  0.00     0.034 C 
ATOM     25  C   UNL d   1      24.184 -16.414  -0.727  0.00  0.00     0.032 C 
ATOM     26  C   UNL d   1      23.049 -17.126  -1.135  0.00  0.00     0.039 C 
ATOM     27  C   UNL d   1      22.998 -18.512  -1.007  0.00  0.00     0.069 C 
ATOM     28  C   UNL d   1      24.124 -19.179  -0.522  0.00  0.00     0.039 C 
ATOM     29  C   UNL d   1      25.234 -18.458  -0.039  0.00  0.00     0.032 C 
BRANCH  27  30
ATOM     30  O   UNL d   1      21.808 -19.085  -1.375  0.00  0.00    -0.347 OA
BRANCH  30  31
ATOM     31  C   UNL d   1      20.616 -18.420  -0.955  0.00  0.00     0.214 C 
BRANCH  31  32
ATOM     32  C   UNL d   1      19.808 -19.293  -0.022  0.00  0.00    -0.034 A 
ATOM     33  C   UNL d   1      20.136 -19.382   1.341  0.00  0.00     0.009 A 
ATOM     34  C   UNL d   1      19.526 -20.341   2.154  0.00  0.00     0.001 A 
ATOM     35  C   UNL d   1      18.511 -21.146   1.643  0.00  0.00     0.000 A 
ATOM     36  C   UNL d   1      18.099 -20.986   0.323  0.00  0.00     0.001 A 
ATOM     37  C   UNL d   1      18.778 -20.103  -0.519  0.00  0.00     0.009 A 
ENDBRANCH  31  32
ENDBRANCH  30  31
ENDBRANCH  27  30
ENDBRANCH  22  24
ENDBRANCH   2  20
TORSDOF 8
ENDMDL
MODEL 2
REMARK VINA RESULT:   -10.793      6.747      9.179
REMARK INTER + INTRA:         -14.539
REMARK INTER:                 -13.180
REMARK INTRA:                  -1.359
REMARK CONF_INDEPENDENT:        2.386
REMARK UNBOUND:                -1.359
REMARK  8 active torsions:
REMARK  status: ('A' for Active; 'I' for Inactive)
REMARK    1  A    between atoms: C_2  and  S_3 
REMARK    2  A    between atoms: C_2  and  C_18 
REMARK    3  A    between atoms: C_4  and  S_3 
REMARK    4  A    between atoms: C_7  and  C_8 
REMARK       I    between atoms: C_18  and  N_20 
REMARK    5  A    between atoms: N_20  and  C_21 
REMARK    6  A    between atoms: C_24  and  O_25 
REMARK    7  A    between atoms: O_25  and  C_26 
REMARK    8  A    between atoms: C_26  and  C_27 
ROOT
ATOM      1  C   UNL d   1      28.913 -14.268  -3.267  0.00  0.00     0.031 C 
ATOM      2  C   UNL d   1      27.549 -13.666  -3.641  0.00  0.00     0.140 C 
ENDROOT
BRANCH   2   3
ATOM      3  S   UNL d   1      27.448 -13.193  -5.426  0.00  0.00    -0.101 SA
BRANCH   3   4
ATOM      4  C   UNL d   1      27.811 -14.758  -6.307  0.00  0.00     0.311 A 
ATOM      5  N   UNL d   1      29.023 -14.607  -7.072  0.00  0.00    -0.273 N 
ATOM      6  N   UNL d   1      29.966 -15.490  -6.735  0.00  0.00    -0.150 NA
ATOM      7  H   UNL d   1      29.075 -14.023  -7.900  0.00  0.00     0.186 HD
ATOM      8  C   UNL d   1      29.412 -16.154  -5.778  0.00  0.00     0.195 A 
ATOM      9  O   UNL d   1      28.135 -15.826  -5.410  0.00  0.00    -0.296 OA
BRANCH   8  10
ATOM     10  C   UNL d   1      30.008 -17.221  -4.999  0.00  0.00     0.026 A 
ATOM     11  C   UNL d   1      30.390 -18.397  -5.501  0.00  0.00     0.003 A 
ATOM     12  C   UNL d   1      30.395 -18.962  -6.803  0.00  0.00     0.014 A 
ATOM     13  C   UNL d   1      30.892 -19.147  -4.330  0.00  0.00     0.039 A 
ATOM     14  C   UNL d   1      30.828 -20.224  -6.949  0.00  0.00     0.001 A 
ATOM     15  C   UNL d   1      31.287 -21.011  -5.814  0.00  0.00     0.002 A 
ATOM     16  C   UNL d   1      31.341 -20.540  -4.552  0.00  0.00     0.030 A 
ATOM     17  N   UNL d   1      30.845 -18.461  -3.259  0.00  0.00    -0.385 N 
ATOM     18  C   UNL d   1      30.306 -17.104  -3.543  0.00  0.00     0.164 A 
ATOM     19  H   UNL d   1      31.133 -18.818  -2.344  0.00  0.00     0.160 HD
ENDBRANCH   8  10
ENDBRANCH   3   4
ENDBRANCH   2   3
BRANCH   2  20
ATOM     20  C   UNL d   1      26.456 -14.724  -3.310  0.00  0.00     0.235 C 
ATOM     21  O   UNL d   1      25.676 -15.099  -4.190  0.00  0.00    -0.272 OA
ATOM     22  N   UNL d   1      26.424 -15.223  -2.006  0.00  0.00    -0.326 N 
ATOM     23  H   UNL d   1      26.840 -14.646  -1.286  0.00  0.00     0.169 HD
BRANCH  22  24
ATOM     24  C   UNL d   1      25.424 -16.158  -1.605  0.00  0.00     0.034 C 
ATOM     25  C   UNL d   1      24.068 -15.823  -1.642  0.00  0.00     0.032 C 
ATOM     26  C   UNL d   1      23.103 -16.657  -1.063  0.00  0.00     0.039 C 
ATOM     27  C   UNL d   1      23.465 -17.887  -0.519  0.00  0.00     0.069 C 
ATOM     28  C   UNL d   1      24.797 -18.294  -0.617  0.00  0.00     0.039 C 
ATOM     29  C   UNL d   1      25.780 -17.422  -1.128  0.00  0.00     0.032 C 
BRANCH  27  30
ATOM     30  O   UNL d   1      22.445 -18.580   0.080  0.00  0.00    -0.347 OA
BRANCH  30  31
ATOM     31  C   UNL d   1      21.188 -18.590  -0.599  0.00  0.00     0.214 C 
BRANCH  31  32
ATOM     32  C   UNL d   1      20.151 -19.354   0.194  0.00  0.00    -0.034 A 
ATOM     33  C   UNL d   1      20.171 -19.345   1.598  0.00  0.00     0.009 A 
ATOM     34  C   UNL d   1      19.349 -20.211   2.324  0.00  0.00     0.001 A 
ATOM     35  C   UNL d   1      18.425 -21.015   1.660  0.00  0.00     0.000 A 
ATOM     36  C   UNL d   1      18.318 -20.946   0.273  0.00  0.00     0.001 A 
ATOM     37  C   UNL d   1      19.209 -20.161  -0.459  0.00  0.00     0.009 A 
ENDBRANCH  31  32
ENDBRANCH  30  31
ENDBRANCH  27  30
ENDBRANCH  22  24
ENDBRANCH   2  20
TORSDOF 8
ENDMDL
MODEL 3
REMARK VINA RESULT:   -10.631      1.524      2.027
REMARK INTER + INTRA:         -14.184
REMARK INTER:                 -13.018
REMARK INTRA:                  -1.167
REMARK CONF_INDEPENDENT:        2.386
REMARK UNBOUND:                -1.167
REMARK  8 active torsions:
REMARK  status: ('A' for Active; 'I' for Inactive)
REMARK    1  A    between atoms: C_2  and  S_3 
REMARK    2  A    between atoms: C_2  and  C_18 
REMARK    3  A    between atoms: C_4  and  S_3 
REMARK    4  A    between atoms: C_7  and  C_8 
REMARK       I    between atoms: C_18  and  N_20 
REMARK    5  A    between atoms: N_20  and  C_21 
REMARK    6  A    between atoms: C_24  and  O_25 
REMARK    7  A    between atoms: O_25  and  C_26 
REMARK    8  A    between atoms: C_26  and  C_27 
ROOT
ATOM      1  C   UNL d   1      30.050 -12.420   1.063  0.00  0.00     0.031 C 
ATOM      2  C   UNL d   1      30.113 -13.946   1.230  0.00  0.00     0.140 C 
ENDROOT
BRANCH   2   3
ATOM      3  S   UNL d   1      30.402 -14.455   2.985  0.00  0.00    -0.101 SA
BRANCH   3   4
ATOM      4  C   UNL d   1      28.818 -14.059   3.814  0.00  0.00     0.311 A 
ATOM      5  N   UNL d   1      28.381 -15.197   4.582  0.00  0.00    -0.273 N 
ATOM      6  N   UNL d   1      28.227 -14.923   5.880  0.00  0.00    -0.150 NA
ATOM      7  H   UNL d   1      28.044 -16.050   4.148  0.00  0.00     0.186 HD
ATOM      8  C   UNL d   1      28.581 -13.685   5.958  0.00  0.00     0.195 A 
ATOM      9  O   UNL d   1      28.963 -13.042   4.811  0.00  0.00    -0.296 OA
BRANCH   8  10
ATOM     10  C   UNL d   1      28.654 -12.873   7.156  0.00  0.00     0.026 A 
ATOM     11  C   UNL d   1      29.207 -13.272   8.304  0.00  0.00     0.003 A 
ATOM     12  C   UNL d   1      29.870 -14.454   8.723  0.00  0.00     0.014 A 
ATOM     13  C   UNL d   1      29.006 -12.131   9.222  0.00  0.00     0.039 A 
ATOM     14  C   UNL d   1      30.279 -14.538   9.999  0.00  0.00     0.001 A 
ATOM     15  C   UNL d   1      30.060 -13.454  10.944  0.00  0.00     0.002 A 
ATOM     16  C   UNL d   1      29.464 -12.289  10.620  0.00  0.00     0.030 A 
ATOM     17  N   UNL d   1      28.430 -11.148   8.653  0.00  0.00    -0.385 N 
ATOM     18  C   UNL d   1      28.156 -11.470   7.227  0.00  0.00     0.164 A 
ATOM     19  H   UNL d   1      28.191 -10.276   9.133  0.00  0.00     0.160 HD
ENDBRANCH   8  10
ENDBRANCH   3   4
ENDBRANCH   2   3
BRANCH   2  20
ATOM     20  C   UNL d   1      28.765 -14.536   0.722  0.00  0.00     0.235 C 
ATOM     21  O   UNL d   1      27.835 -13.781   0.426  0.00  0.00    -0.272 OA
ATOM     22  N   UNL d   1      28.680 -15.925   0.605  0.00  0.00    -0.326 N 
ATOM     23  H   UNL d   1      29.321 -16.471   1.168  0.00  0.00     0.169 HD
BRANCH  22  24
ATOM     24  C   UNL d   1      27.466 -16.552   0.196  0.00  0.00     0.034 C 
ATOM     25  C   UNL d   1      26.497 -15.847  -0.525  0.00  0.00     0.032 C 
ATOM     26  C   UNL d   1      25.228 -16.394  -0.752  0.00  0.00     0.039 C 
ATOM     27  C   UNL d   1      24.933 -17.693  -0.344  0.00  0.00     0.069 C 
ATOM     28  C   UNL d   1      25.946 -18.455   0.239  0.00  0.00     0.039 C 
ATOM     29  C   UNL d   1      27.197 -17.880   0.539  0.00  0.00     0.032 C 
BRANCH  27  30
ATOM     30  O   UNL d   1      23.638 -18.088  -0.559  0.00  0.00    -0.347 OA
BRANCH  30  31
ATOM     31  C   UNL d   1      22.779 -18.127   0.582  0.00  0.00     0.214 C 
BRANCH  31  32
ATOM     32  C   UNL d   1      21.521 -18.912   0.286  0.00  0.00    -0.034 A 
ATOM     33  C   UNL d   1      21.125 -19.161  -1.039  0.00  0.00     0.009 A 
ATOM     34  C   UNL d   1      19.866 -19.700  -1.312  0.00  0.00     0.001 A 
ATOM     35  C   UNL d   1      19.034 -20.093  -0.267  0.00  0.00     0.000 A 
ATOM     36  C   UNL d   1      19.465 -19.956   1.050  0.00  0.00     0.001 A 
ATOM     37  C   UNL d   1      20.677 -19.322   1.327  0.00  0.00     0.009 A 
ENDBRANCH  31  32
ENDBRANCH  30  31
ENDBRANCH  27  30
ENDBRANCH  22  24
ENDBRANCH   2  20
TORSDOF 8
ENDMDL
MODEL 4
REMARK VINA RESULT:   -10.239      5.970     10.043
REMARK INTER + INTRA:         -14.511
REMARK INTER:                 -12.625
REMARK INTRA:                  -1.886
REMARK CONF_INDEPENDENT:        2.386
REMARK UNBOUND:                -1.886
REMARK  8 active torsions:
REMARK  status: ('A' for Active; 'I' for Inactive)
REMARK    1  A    between atoms: C_2  and  S_3 
REMARK    2  A    between atoms: C_2  and  C_18 
REMARK    3  A    between atoms: C_4  and  S_3 
REMARK    4  A    between atoms: C_7  and  C_8 
REMARK       I    between atoms: C_18  and  N_20 
REMARK    5  A    between atoms: N_20  and  C_21 
REMARK    6  A    between atoms: C_24  and  O_25 
REMARK    7  A    between atoms: O_25  and  C_26 
REMARK    8  A    between atoms: C_26  and  C_27 
ROOT
ATOM      1  C   UNL d   1      29.380 -17.315  -0.420  0.00  0.00     0.031 C 
ATOM      2  C   UNL d   1      28.771 -15.986  -0.893  0.00  0.00     0.140 C 
ENDROOT
BRANCH   2   3
ATOM      3  S   UNL d   1      29.676 -15.265  -2.336  0.00  0.00    -0.101 SA
BRANCH   3   4
ATOM      4  C   UNL d   1      29.327 -16.442  -3.695  0.00  0.00     0.311 A 
ATOM      5  N   UNL d   1      28.381 -15.854  -4.608  0.00  0.00    -0.273 N 
ATOM      6  N   UNL d   1      28.847 -15.764  -5.856  0.00  0.00    -0.150 NA
ATOM      7  H   UNL d   1      27.407 -15.707  -4.364  0.00  0.00     0.186 HD
ATOM      8  C   UNL d   1      30.043 -16.233  -5.753  0.00  0.00     0.195 A 
ATOM      9  O   UNL d   1      30.470 -16.669  -4.527  0.00  0.00    -0.296 OA
BRANCH   8  10
ATOM     10  C   UNL d   1      31.035 -16.332  -6.805  0.00  0.00     0.026 A 
ATOM     11  C   UNL d   1      31.306 -17.449  -7.483  0.00  0.00     0.003 A 
ATOM     12  C   UNL d   1      30.781 -18.767  -7.467  0.00  0.00     0.014 A 
ATOM     13  C   UNL d   1      32.395 -17.062  -8.405  0.00  0.00     0.039 A 
ATOM     14  C   UNL d   1      31.329 -19.682  -8.281  0.00  0.00     0.001 A 
ATOM     15  C   UNL d   1      32.433 -19.351  -9.170  0.00  0.00     0.002 A 
ATOM     16  C   UNL d   1      32.969 -18.118  -9.267  0.00  0.00     0.030 A 
ATOM     17  N   UNL d   1      32.701 -15.830  -8.302  0.00  0.00    -0.385 N 
ATOM     18  C   UNL d   1      31.840 -15.172  -7.283  0.00  0.00     0.164 A 
ATOM     19  H   UNL d   1      33.444 -15.383  -8.845  0.00  0.00     0.160 HD
ENDBRANCH   8  10
ENDBRANCH   3   4
ENDBRANCH   2   3
BRANCH   2  20
ATOM     20  C   UNL d   1      27.287 -16.254  -1.279  0.00  0.00     0.235 C 
ATOM     21  O   UNL d   1      26.828 -15.785  -2.324  0.00  0.00    -0.272 OA
ATOM     22  N   UNL d   1      26.535 -17.049  -0.411  0.00  0.00    -0.326 N 
ATOM     23  H   UNL d   1      26.853 -17.104   0.549  0.00  0.00     0.169 HD
BRANCH  22  24
ATOM     24  C   UNL d   1      25.154 -17.304  -0.662  0.00  0.00     0.034 C 
ATOM     25  C   UNL d   1      24.298 -16.284  -1.087  0.00  0.00     0.032 C 
ATOM     26  C   UNL d   1      22.913 -16.481  -1.140  0.00  0.00     0.039 C 
ATOM     27  C   UNL d   1      22.363 -17.729  -0.860  0.00  0.00     0.069 C 
ATOM     28  C   UNL d   1      23.227 -18.791  -0.584  0.00  0.00     0.039 C 
ATOM     29  C   UNL d   1      24.613 -18.576  -0.454  0.00  0.00     0.032 C 
BRANCH  27  30
ATOM     30  O   UNL d   1      20.993 -17.778  -0.876  0.00  0.00    -0.347 OA
BRANCH  30  31
ATOM     31  C   UNL d   1      20.397 -19.035  -1.197  0.00  0.00     0.214 C 
BRANCH  31  32
ATOM     32  C   UNL d   1      19.892 -19.729   0.048  0.00  0.00    -0.034 A 
ATOM     33  C   UNL d   1      18.735 -20.525   0.007  0.00  0.00     0.009 A 
ATOM     34  C   UNL d   1      18.155 -20.992   1.189  0.00  0.00     0.001 A 
ATOM     35  C   UNL d   1      18.781 -20.761   2.411  0.00  0.00     0.000 A 
ATOM     36  C   UNL d   1      19.990 -20.071   2.451  0.00  0.00     0.001 A 
ATOM     37  C   UNL d   1      20.516 -19.514   1.284  0.00  0.00     0.009 A 
ENDBRANCH  31  32
ENDBRANCH  30  31
ENDBRANCH  27  30
ENDBRANCH  22  24
ENDBRANCH   2  20
TORSDOF 8
ENDMDL
MODEL 5
REMARK VINA RESULT:   -10.022      1.838      2.549
REMARK INTER + INTRA:         -14.000
REMARK INTER:                 -12.409
REMARK INTRA:                  -1.591
REMARK CONF_INDEPENDENT:        2.386
REMARK UNBOUND:                -1.591
REMARK  8 active torsions:
REMARK  status: ('A' for Active; 'I' for Inactive)
REMARK    1  A    between atoms: C_2  and  S_3 
REMARK    2  A    between atoms: C_2  and  C_18 
REMARK    3  A    between atoms: C_4  and  S_3 
REMARK    4  A    between atoms: C_7  and  C_8 
REMARK       I    between atoms: C_18  and  N_20 
REMARK    5  A    between atoms: N_20  and  C_21 
REMARK    6  A    between atoms: C_24  and  O_25 
REMARK    7  A    between atoms: O_25  and  C_26 
REMARK    8  A    between atoms: C_26  and  C_27 
ROOT
ATOM      1  C   UNL d   1      29.190 -13.835  -1.769  0.00  0.00     0.031 C 
ATOM      2  C   UNL d   1      29.255 -15.329  -1.418  0.00  0.00     0.140 C 
ENDROOT
BRANCH   2   3
ATOM      3  S   UNL d   1      29.801 -15.625   0.324  0.00  0.00    -0.101 SA
BRANCH   3   4
ATOM      4  C   UNL d   1      29.352 -14.072   1.185  0.00  0.00     0.311 A 
ATOM      5  N   UNL d   1      27.918 -13.967   1.267  0.00  0.00    -0.273 N 
ATOM      6  N   UNL d   1      27.472 -13.872   2.522  0.00  0.00    -0.150 NA
ATOM      7  H   UNL d   1      27.337 -13.790   0.454  0.00  0.00     0.186 HD
ATOM      8  C   UNL d   1      28.554 -13.949   3.220  0.00  0.00     0.195 A 
ATOM      9  O   UNL d   1      29.747 -14.076   2.562  0.00  0.00    -0.296 OA
BRANCH   8  10
ATOM     10  C   UNL d   1      28.661 -13.947   4.665  0.00  0.00     0.026 A 
ATOM     11  C   UNL d   1      28.658 -12.845   5.419  0.00  0.00     0.003 A 
ATOM     12  C   UNL d   1      28.529 -11.459   5.144  0.00  0.00     0.014 A 
ATOM     13  C   UNL d   1      28.826 -13.347   6.799  0.00  0.00     0.039 A 
ATOM     14  C   UNL d   1      28.610 -10.595   6.168  0.00  0.00     0.001 A 
ATOM     15  C   UNL d   1      28.821 -11.048   7.535  0.00  0.00     0.002 A 
ATOM     16  C   UNL d   1      28.924 -12.345   7.884  0.00  0.00     0.030 A 
ATOM     17  N   UNL d   1      28.882 -14.618   6.849  0.00  0.00    -0.385 N 
ATOM     18  C   UNL d   1      28.742 -15.190   5.483  0.00  0.00     0.164 A 
ATOM     19  H   UNL d   1      29.014 -15.147   7.715  0.00  0.00     0.160 HD
ENDBRANCH   8  10
ENDBRANCH   3   4
ENDBRANCH   2   3
BRANCH   2  20
ATOM     20  C   UNL d   1      27.836 -15.931  -1.638  0.00  0.00     0.235 C 
ATOM     21  O   UNL d   1      27.443 -16.179  -2.781  0.00  0.00    -0.272 OA
ATOM     22  N   UNL d   1      27.067 -16.184  -0.500  0.00  0.00    -0.326 N 
ATOM     23  H   UNL d   1      27.298 -15.658   0.334  0.00  0.00     0.169 HD
BRANCH  22  24
ATOM     24  C   UNL d   1      25.737 -16.687  -0.613  0.00  0.00     0.034 C 
ATOM     25  C   UNL d   1      24.714 -15.907  -1.161  0.00  0.00     0.032 C 
ATOM     26  C   UNL d   1      23.378 -16.318  -1.090  0.00  0.00     0.039 C 
ATOM     27  C   UNL d   1      23.045 -17.560  -0.553  0.00  0.00     0.069 C 
ATOM     28  C   UNL d   1      24.077 -18.407  -0.145  0.00  0.00     0.039 C 
ATOM     29  C   UNL d   1      25.414 -17.964  -0.143  0.00  0.00     0.032 C 
BRANCH  27  30
ATOM     30  O   UNL d   1      21.701 -17.817  -0.473  0.00  0.00    -0.347 OA
BRANCH  30  31
ATOM     31  C   UNL d   1      21.268 -19.114  -0.887  0.00  0.00     0.214 C 
BRANCH  31  32
ATOM     32  C   UNL d   1      20.191 -19.644   0.032  0.00  0.00    -0.034 A 
ATOM     33  C   UNL d   1      20.368 -19.634   1.425  0.00  0.00     0.009 A 
ATOM     34  C   UNL d   1      19.472 -20.309   2.258  0.00  0.00     0.001 A 
ATOM     35  C   UNL d   1      18.335 -20.908   1.719  0.00  0.00     0.000 A 
ATOM     36  C   UNL d   1      18.091 -20.824   0.351  0.00  0.00     0.001 A 
ATOM     37  C   UNL d   1      19.038 -20.242  -0.494  0.00  0.00     0.009 A 
ENDBRANCH  31  32
ENDBRANCH  30  31
ENDBRANCH  27  30
ENDBRANCH  22  24
ENDBRANCH   2  20
TORSDOF 8
ENDMDL
MODEL 6
REMARK VINA RESULT:    -8.912      5.455      8.368
REMARK INTER + INTRA:         -14.033
REMARK INTER:                 -11.298
REMARK INTRA:                  -2.734
REMARK CONF_INDEPENDENT:        2.386
REMARK UNBOUND:                -2.734
REMARK  8 active torsions:
REMARK  status: ('A' for Active; 'I' for Inactive)
REMARK    1  A    between atoms: C_2  and  S_3 
REMARK    2  A    between atoms: C_2  and  C_18 
REMARK    3  A    between atoms: C_4  and  S_3 
REMARK    4  A    between atoms: C_7  and  C_8 
REMARK       I    between atoms: C_18  and  N_20 
REMARK    5  A    between atoms: N_20  and  C_21 
REMARK    6  A    between atoms: C_24  and  O_25 
REMARK    7  A    between atoms: O_25  and  C_26 
REMARK    8  A    between atoms: C_26  and  C_27 
ROOT
ATOM      1  C   UNL d   1      30.344 -13.566  -0.235  0.00  0.00     0.031 C 
ATOM      2  C   UNL d   1      30.184 -15.070  -0.504  0.00  0.00     0.140 C 
ENDROOT
BRANCH   2   3
ATOM      3  S   UNL d   1      31.221 -16.107   0.624  0.00  0.00    -0.101 SA
BRANCH   3   4
ATOM      4  C   UNL d   1      31.825 -17.452  -0.462  0.00  0.00     0.311 A 
ATOM      5  N   UNL d   1      30.898 -18.554  -0.421  0.00  0.00    -0.273 N 
ATOM      6  N   UNL d   1      30.405 -18.867  -1.621  0.00  0.00    -0.150 NA
ATOM      7  H   UNL d   1      30.789 -19.142   0.399  0.00  0.00     0.186 HD
ATOM      8  C   UNL d   1      30.952 -17.993  -2.396  0.00  0.00     0.195 A 
ATOM      9  O   UNL d   1      31.815 -17.083  -1.846  0.00  0.00    -0.296 OA
BRANCH   8  10
ATOM     10  C   UNL d   1      30.735 -17.832  -3.819  0.00  0.00     0.026 A 
ATOM     11  C   UNL d   1      30.509 -16.662  -4.420  0.00  0.00     0.003 A 
ATOM     12  C   UNL d   1      30.440 -15.318  -3.971  0.00  0.00     0.014 A 
ATOM     13  C   UNL d   1      30.315 -17.013  -5.843  0.00  0.00     0.039 A 
ATOM     14  C   UNL d   1      30.147 -14.360  -4.865  0.00  0.00     0.001 A 
ATOM     15  C   UNL d   1      29.905 -14.672  -6.266  0.00  0.00     0.002 A 
ATOM     16  C   UNL d   1      29.979 -15.916  -6.778  0.00  0.00     0.030 A 
ATOM     17  N   UNL d   1      30.455 -18.260  -6.057  0.00  0.00    -0.385 N 
ATOM     18  C   UNL d   1      30.786 -18.964  -4.789  0.00  0.00     0.164 A 
ATOM     19  H   UNL d   1      30.341 -18.694  -6.977  0.00  0.00     0.160 HD
ENDBRANCH   8  10
ENDBRANCH   3   4
ENDBRANCH   2   3
BRANCH   2  20
ATOM     20  C   UNL d   1      28.680 -15.429  -0.319  0.00  0.00     0.235 C 
ATOM     21  O   UNL d   1      27.962 -14.721   0.392  0.00  0.00    -0.272 OA
ATOM     22  N   UNL d   1      28.203 -16.551  -1.000  0.00  0.00    -0.326 N 
ATOM     23  H   UNL d   1      28.887 -17.249  -1.267  0.00  0.00     0.169 HD
BRANCH  22  24
ATOM     24  C   UNL d   1      26.851 -16.979  -0.847  0.00  0.00     0.034 C 
ATOM     25  C   UNL d   1      25.841 -16.493  -1.681  0.00  0.00     0.032 C 
ATOM     26  C   UNL d   1      24.492 -16.754  -1.408  0.00  0.00     0.039 C 
ATOM     27  C   UNL d   1      24.131 -17.583  -0.349  0.00  0.00     0.069 C 
ATOM     28  C   UNL d   1      25.143 -18.195   0.394  0.00  0.00     0.039 C 
ATOM     29  C   UNL d   1      26.496 -17.871   0.169  0.00  0.00     0.032 C 
BRANCH  27  30
ATOM     30  O   UNL d   1      22.782 -17.704  -0.139  0.00  0.00    -0.347 OA
BRANCH  30  31
ATOM     31  C   UNL d   1      22.093 -18.676  -0.927  0.00  0.00     0.214 C 
BRANCH  31  32
ATOM     32  C   UNL d   1      20.887 -19.214  -0.189  0.00  0.00    -0.034 A 
ATOM     33  C   UNL d   1      20.893 -19.325   1.211  0.00  0.00     0.009 A 
ATOM     34  C   UNL d   1      19.870 -20.010   1.871  0.00  0.00     0.001 A 
ATOM     35  C   UNL d   1      18.780 -20.496   1.153  0.00  0.00     0.000 A 
ATOM     36  C   UNL d   1      18.709 -20.290  -0.222  0.00  0.00     0.001 A 
ATOM     37  C   UNL d   1      19.779 -19.700  -0.897  0.00  0.00     0.009 A 
ENDBRANCH  31  32
ENDBRANCH  30  31
ENDBRANCH  27  30
ENDBRANCH  22  24
ENDBRANCH   2  20
TORSDOF 8
ENDMDL
MODEL 7
REMARK VINA RESULT:    -8.872      5.251      8.274
REMARK INTER + INTRA:         -14.263
REMARK INTER:                 -11.259
REMARK INTRA:                  -3.004
REMARK CONF_INDEPENDENT:        2.386
REMARK UNBOUND:                -3.004
REMARK  8 active torsions:
REMARK  status: ('A' for Active; 'I' for Inactive)
REMARK    1  A    between atoms: C_2  and  S_3 
REMARK    2  A    between atoms: C_2  and  C_18 
REMARK    3  A    between atoms: C_4  and  S_3 
REMARK    4  A    between atoms: C_7  and  C_8 
REMARK       I    between atoms: C_18  and  N_20 
REMARK    5  A    between atoms: N_20  and  C_21 
REMARK    6  A    between atoms: C_24  and  O_25 
REMARK    7  A    between atoms: O_25  and  C_26 
REMARK    8  A    between atoms: C_26  and  C_27 
ROOT
ATOM      1  C   UNL d   1      30.166 -13.390   0.205  0.00  0.00     0.031 C 
ATOM      2  C   UNL d   1      29.865 -14.597  -0.696  0.00  0.00     0.140 C 
ENDROOT
BRANCH   2   3
ATOM      3  S   UNL d   1      31.046 -15.995  -0.427  0.00  0.00    -0.101 SA
BRANCH   3   4
ATOM      4  C   UNL d   1      31.301 -16.672  -2.110  0.00  0.00     0.311 A 
ATOM      5  N   UNL d   1      30.327 -17.702  -2.364  0.00  0.00    -0.273 N 
ATOM      6  N   UNL d   1      29.565 -17.448  -3.431  0.00  0.00    -0.150 NA
ATOM      7  H   UNL d   1      30.354 -18.603  -1.899  0.00  0.00     0.186 HD
ATOM      8  C   UNL d   1      29.994 -16.298  -3.825  0.00  0.00     0.195 A 
ATOM      9  O   UNL d   1      31.019 -15.711  -3.133  0.00  0.00    -0.296 OA
BRANCH   8  10
ATOM     10  C   UNL d   1      29.487 -15.511  -4.932  0.00  0.00     0.026 A 
ATOM     11  C   UNL d   1      28.627 -14.499  -4.805  0.00  0.00     0.003 A 
ATOM     12  C   UNL d   1      27.996 -13.870  -3.700  0.00  0.00     0.014 A 
ATOM     13  C   UNL d   1      28.387 -14.047  -6.192  0.00  0.00     0.039 A 
ATOM     14  C   UNL d   1      27.131 -12.873  -3.941  0.00  0.00     0.001 A 
ATOM     15  C   UNL d   1      26.834 -12.430  -5.296  0.00  0.00     0.002 A 
ATOM     16  C   UNL d   1      27.410 -12.954  -6.396  0.00  0.00     0.030 A 
ATOM     17  N   UNL d   1      29.072 -14.705  -7.040  0.00  0.00    -0.385 N 
ATOM     18  C   UNL d   1      29.912 -15.717  -6.346  0.00  0.00     0.164 A 
ATOM     19  H   UNL d   1      29.026 -14.547  -8.050  0.00  0.00     0.160 HD
ENDBRANCH   8  10
ENDBRANCH   3   4
ENDBRANCH   2   3
BRANCH   2  20
ATOM     20  C   UNL d   1      28.411 -15.065  -0.393  0.00  0.00     0.235 C 
ATOM     21  O   UNL d   1      27.763 -14.519   0.504  0.00  0.00    -0.272 OA
ATOM     22  N   UNL d   1      27.894 -16.094  -1.183  0.00  0.00    -0.326 N 
ATOM     23  H   UNL d   1      28.564 -16.701  -1.639  0.00  0.00     0.169 HD
BRANCH  22  24
ATOM     24  C   UNL d   1      26.590 -16.618  -0.940  0.00  0.00     0.034 C 
ATOM     25  C   UNL d   1      25.451 -15.977  -1.435  0.00  0.00     0.032 C 
ATOM     26  C   UNL d   1      24.169 -16.372  -1.033  0.00  0.00     0.039 C 
ATOM     27  C   UNL d   1      23.996 -17.475  -0.200  0.00  0.00     0.069 C 
ATOM     28  C   UNL d   1      25.122 -18.212   0.173  0.00  0.00     0.039 C 
ATOM     29  C   UNL d   1      26.416 -17.769  -0.166  0.00  0.00     0.032 C 
BRANCH  27  30
ATOM     30  O   UNL d   1      22.702 -17.719   0.180  0.00  0.00    -0.347 OA
BRANCH  30  31
ATOM     31  C   UNL d   1      21.843 -18.306  -0.798  0.00  0.00     0.214 C 
BRANCH  31  32
ATOM     32  C   UNL d   1      20.775 -19.152  -0.142  0.00  0.00    -0.034 A 
ATOM     33  C   UNL d   1      19.727 -19.701  -0.901  0.00  0.00     0.009 A 
ATOM     34  C   UNL d   1      18.635 -20.302  -0.269  0.00  0.00     0.001 A 
ATOM     35  C   UNL d   1      18.628 -20.456   1.115  0.00  0.00     0.000 A 
ATOM     36  C   UNL d   1      19.716 -20.018   1.866  0.00  0.00     0.001 A 
ATOM     37  C   UNL d   1      20.758 -19.324   1.249  0.00  0.00     0.009 A 
ENDBRANCH  31  32
ENDBRANCH  30  31
ENDBRANCH  27  30
ENDBRANCH  22  24
ENDBRANCH   2  20
TORSDOF 8
ENDMDL
MODEL 8
REMARK VINA RESULT:    -8.871      3.631      9.769
REMARK INTER + INTRA:         -14.172
REMARK INTER:                 -11.257
REMARK INTRA:                  -2.915
REMARK CONF_INDEPENDENT:        2.386
REMARK UNBOUND:                -2.915
REMARK  8 active torsions:
REMARK  status: ('A' for Active; 'I' for Inactive)
REMARK    1  A    between atoms: C_2  and  S_3 
REMARK    2  A    between atoms: C_2  and  C_18 
REMARK    3  A    between atoms: C_4  and  S_3 
REMARK    4  A    between atoms: C_7  and  C_8 
REMARK       I    between atoms: C_18  and  N_20 
REMARK    5  A    between atoms: N_20  and  C_21 
REMARK    6  A    between atoms: C_24  and  O_25 
REMARK    7  A    between atoms: O_25  and  C_26 
REMARK    8  A    between atoms: C_26  and  C_27 
ROOT
ATOM      1  C   UNL d   1      28.037 -13.808  -4.565  0.00  0.00     0.031 C 
ATOM      2  C   UNL d   1      28.104 -12.545  -3.693  0.00  0.00     0.140 C 
ENDROOT
BRANCH   2   3
ATOM      3  S   UNL d   1      26.604 -11.477  -3.875  0.00  0.00    -0.101 SA
BRANCH   3   4
ATOM      4  C   UNL d   1      25.221 -12.605  -3.465  0.00  0.00     0.311 A 
ATOM      5  N   UNL d   1      25.010 -13.521  -4.557  0.00  0.00    -0.273 N 
ATOM      6  N   UNL d   1      25.129 -14.801  -4.195  0.00  0.00    -0.150 NA
ATOM      7  H   UNL d   1      24.624 -13.226  -5.448  0.00  0.00     0.186 HD
ATOM      8  C   UNL d   1      25.437 -14.721  -2.946  0.00  0.00     0.195 A 
ATOM      9  O   UNL d   1      25.534 -13.480  -2.375  0.00  0.00    -0.296 OA
BRANCH   8  10
ATOM     10  C   UNL d   1      25.732 -15.820  -2.048  0.00  0.00     0.026 A 
ATOM     11  C   UNL d   1      24.812 -16.495  -1.356  0.00  0.00     0.003 A 
ATOM     12  C   UNL d   1      23.397 -16.434  -1.270  0.00  0.00     0.014 A 
ATOM     13  C   UNL d   1      25.593 -17.475  -0.571  0.00  0.00     0.039 A 
ATOM     14  C   UNL d   1      22.773 -17.262  -0.419  0.00  0.00     0.001 A 
ATOM     15  C   UNL d   1      23.510 -18.209   0.404  0.00  0.00     0.002 A 
ATOM     16  C   UNL d   1      24.850 -18.350   0.362  0.00  0.00     0.030 A 
ATOM     17  N   UNL d   1      26.841 -17.405  -0.813  0.00  0.00    -0.385 N 
ATOM     18  C   UNL d   1      27.107 -16.354  -1.832  0.00  0.00     0.164 A 
ATOM     19  H   UNL d   1      27.541 -17.992  -0.352  0.00  0.00     0.160 HD
ENDBRANCH   8  10
ENDBRANCH   3   4
ENDBRANCH   2   3
BRANCH   2  20
ATOM     20  C   UNL d   1      28.255 -12.998  -2.212  0.00  0.00     0.235 C 
ATOM     21  O   UNL d   1      29.047 -13.899  -1.921  0.00  0.00    -0.272 OA
ATOM     22  N   UNL d   1      27.480 -12.333  -1.259  0.00  0.00    -0.326 N 
ATOM     23  H   UNL d   1      26.641 -11.874  -1.591  0.00  0.00     0.169 HD
BRANCH  22  24
ATOM     24  C   UNL d   1      27.519 -12.719   0.114  0.00  0.00     0.034 C 
ATOM     25  C   UNL d   1      27.573 -14.065   0.484  0.00  0.00     0.032 C 
ATOM     26  C   UNL d   1      27.409 -14.453   1.820  0.00  0.00     0.039 C 
ATOM     27  C   UNL d   1      27.281 -13.497   2.825  0.00  0.00     0.069 C 
ATOM     28  C   UNL d   1      27.381 -12.148   2.478  0.00  0.00     0.039 C 
ATOM     29  C   UNL d   1      27.467 -11.757   1.127  0.00  0.00     0.032 C 
BRANCH  27  30
ATOM     30  O   UNL d   1      27.055 -14.000   4.080  0.00  0.00    -0.347 OA
BRANCH  30  31
ATOM     31  C   UNL d   1      28.175 -14.577   4.754  0.00  0.00     0.214 C 
BRANCH  31  32
ATOM     32  C   UNL d   1      28.578 -13.740   5.947  0.00  0.00    -0.034 A 
ATOM     33  C   UNL d   1      29.612 -14.158   6.801  0.00  0.00     0.009 A 
ATOM     34  C   UNL d   1      29.842 -13.498   8.010  0.00  0.00     0.001 A 
ATOM     35  C   UNL d   1      29.116 -12.353   8.329  0.00  0.00     0.000 A 
ATOM     36  C   UNL d   1      28.167 -11.863   7.435  0.00  0.00     0.001 A 
ATOM     37  C   UNL d   1      27.862 -12.581   6.277  0.00  0.00     0.009 A 
ENDBRANCH  31  32
ENDBRANCH  30  31
ENDBRANCH  27  30
ENDBRANCH  22  24
ENDBRANCH   2  20
TORSDOF 8
ENDMDL
MODEL 9
REMARK VINA RESULT:    -8.364      4.582      7.453
REMARK INTER + INTRA:         -14.286
REMARK INTER:                 -10.751
REMARK INTRA:                  -3.536
REMARK CONF_INDEPENDENT:        2.386
REMARK UNBOUND:                -3.536
REMARK  8 active torsions:
REMARK  status: ('A' for Active; 'I' for Inactive)
REMARK    1  A    between atoms: C_2  and  S_3 
REMARK    2  A    between atoms: C_2  and  C_18 
REMARK    3  A    between atoms: C_4  and  S_3 
REMARK    4  A    between atoms: C_7  and  C_8 
REMARK       I    between atoms: C_18  and  N_20 
REMARK    5  A    between atoms: N_20  and  C_21 
REMARK    6  A    between atoms: C_24  and  O_25 
REMARK    7  A    between atoms: O_25  and  C_26 
REMARK    8  A    between atoms: C_26  and  C_27 
ROOT
ATOM      1  C   UNL d   1      30.323 -13.651   1.614  0.00  0.00     0.031 C 
ATOM      2  C   UNL d   1      30.027 -14.459   0.342  0.00  0.00     0.140 C 
ENDROOT
BRANCH   2   3
ATOM      3  S   UNL d   1      31.260 -15.807   0.054  0.00  0.00    -0.101 SA
BRANCH   3   4
ATOM      4  C   UNL d   1      31.278 -15.991  -1.768  0.00  0.00     0.311 A 
ATOM      5  N   UNL d   1      30.724 -17.272  -2.125  0.00  0.00    -0.273 N 
ATOM      6  N   UNL d   1      29.662 -17.176  -2.929  0.00  0.00    -0.150 NA
ATOM      7  H   UNL d   1      31.208 -18.145  -1.941  0.00  0.00     0.186 HD
ATOM      8  C   UNL d   1      29.511 -15.902  -3.057  0.00  0.00     0.195 A 
ATOM      9  O   UNL d   1      30.394 -15.072  -2.419  0.00  0.00    -0.296 OA
BRANCH   8  10
ATOM     10  C   UNL d   1      28.469 -15.217  -3.795  0.00  0.00     0.026 A 
ATOM     11  C   UNL d   1      27.774 -14.177  -3.329  0.00  0.00     0.003 A 
ATOM     12  C   UNL d   1      27.807 -13.426  -2.126  0.00  0.00     0.014 A 
ATOM     13  C   UNL d   1      26.820 -13.860  -4.413  0.00  0.00     0.039 A 
ATOM     14  C   UNL d   1      26.914 -12.437  -1.966  0.00  0.00     0.001 A 
ATOM     15  C   UNL d   1      25.929 -12.125  -2.991  0.00  0.00     0.002 A 
ATOM     16  C   UNL d   1      25.849 -12.770  -4.171  0.00  0.00     0.030 A 
ATOM     17  N   UNL d   1      26.970 -14.616  -5.427  0.00  0.00    -0.385 N 
ATOM     18  C   UNL d   1      28.083 -15.574  -5.190  0.00  0.00     0.164 A 
ATOM     19  H   UNL d   1      26.390 -14.559  -6.267  0.00  0.00     0.160 HD
ENDBRANCH   8  10
ENDBRANCH   3   4
ENDBRANCH   2   3
BRANCH   2  20
ATOM     20  C   UNL d   1      28.601 -15.067   0.486  0.00  0.00     0.235 C 
ATOM     21  O   UNL d   1      27.900 -14.769   1.457  0.00  0.00    -0.272 OA
ATOM     22  N   UNL d   1      28.169 -15.928  -0.525  0.00  0.00    -0.326 N 
ATOM     23  H   UNL d   1      28.887 -16.381  -1.078  0.00  0.00     0.169 HD
BRANCH  22  24
ATOM     24  C   UNL d   1      26.897 -16.569  -0.446  0.00  0.00     0.034 C 
ATOM     25  C   UNL d   1      26.598 -17.454   0.593  0.00  0.00     0.032 C 
ATOM     26  C   UNL d   1      25.435 -18.233   0.564  0.00  0.00     0.039 C 
ATOM     27  C   UNL d   1      24.501 -18.076  -0.457  0.00  0.00     0.069 C 
ATOM     28  C   UNL d   1      24.722 -17.084  -1.415  0.00  0.00     0.039 C 
ATOM     29  C   UNL d   1      25.928 -16.355  -1.431  0.00  0.00     0.032 C 
BRANCH  27  30
ATOM     30  O   UNL d   1      23.441 -18.944  -0.414  0.00  0.00    -0.347 OA
BRANCH  30  31
ATOM     31  C   UNL d   1      22.254 -18.546  -1.103  0.00  0.00     0.214 C 
BRANCH  31  32
ATOM     32  C   UNL d   1      21.021 -19.078  -0.408  0.00  0.00    -0.034 A 
ATOM     33  C   UNL d   1      21.027 -19.325   0.975  0.00  0.00     0.009 A 
ATOM     34  C   UNL d   1      19.966 -20.007   1.577  0.00  0.00     0.001 A 
ATOM     35  C   UNL d   1      18.845 -20.353   0.827  0.00  0.00     0.000 A 
ATOM     36  C   UNL d   1      18.780 -20.010  -0.521  0.00  0.00     0.001 A 
ATOM     37  C   UNL d   1      19.882 -19.424  -1.147  0.00  0.00     0.009 A 
ENDBRANCH  31  32
ENDBRANCH  30  31
ENDBRANCH  27  30
ENDBRANCH  22  24
ENDBRANCH   2  20
TORSDOF 8
ENDMDL
