MODEL 1
REMARK VINA RESULT:    -6.681      0.000      0.000
REMARK INTER + INTRA:         -11.468
REMARK INTER:                  -8.470
REMARK INTRA:                  -2.998
REMARK CONF_INDEPENDENT:        1.790
REMARK UNBOUND:                -2.998
REMARK  6 active torsions:
REMARK  status: ('A' for Active; 'I' for Inactive)
REMARK    1  A    between atoms: C_4  and  O_5 
REMARK    2  A    between atoms: C_6  and  C_7 
REMARK    3  A    between atoms: C_12  and  C_13 
REMARK    4  A    between atoms: N_20  and  C_21 
REMARK    5  A    between atoms: C_21  and  C_22 
REMARK    6  A    between atoms: C_22  and  O_23 
ROOT
ATOM      1  C   UNL d   1      25.374 -14.799  -3.537  0.00  0.00     0.074 A 
ATOM      2  N   UNL d   1      24.200 -14.085  -3.649  0.00  0.00    -0.276 N 
ATOM      3  N   UNL d   1      23.238 -14.451  -2.749  0.00  0.00    -0.168 NA
ATOM      4  C   UNL d   1      23.860 -15.384  -2.025  0.00  0.00     0.155 A 
ATOM      5  C   UNL d   1      25.165 -15.604  -2.452  0.00  0.00     0.035 A 
ATOM      6  C   UNL d   1      25.811 -16.657  -1.658  0.00  0.00     0.162 C 
ATOM      7  N   UNL d   1      24.654 -17.206  -0.936  0.00  0.00    -0.331 N 
ATOM      8  C   UNL d   1      23.543 -16.332  -0.963  0.00  0.00     0.275 C 
ATOM      9  O   UNL d   1      22.547 -16.369  -0.249  0.00  0.00    -0.266 OA
ATOM     10  H   UNL d   1      23.993 -13.367  -4.337  0.00  0.00     0.189 HD
ENDROOT
BRANCH   1  11
ATOM     11  C   UNL d   1      26.551 -14.636  -4.369  0.00  0.00     0.028 C 
ATOM     12  C   UNL d   1      26.729 -13.501  -5.164  0.00  0.00     0.078 C 
ATOM     13  C   UNL d   1      27.948 -13.269  -5.801  0.00  0.00     0.045 C 
ATOM     14  C   UNL d   1      29.042 -14.121  -5.557  0.00  0.00    -0.038 C 
ATOM     15  C   UNL d   1      30.409 -13.759  -6.066  0.00  0.00     0.050 C 
ATOM     16  C   UNL d   1      28.843 -15.279  -4.792  0.00  0.00     0.041 C 
ATOM     17  C   UNL d   1      27.590 -15.566  -4.258  0.00  0.00     0.041 C 
ATOM     18 CL   UNL d   1      30.139 -16.361  -4.423  0.00  0.00    -0.084 Cl
BRANCH  12  19
ATOM     19  O   UNL d   1      25.698 -12.607  -5.272  0.00  0.00    -0.360 OA
ATOM     20  H   UNL d   1      24.905 -13.050  -5.614  0.00  0.00     0.217 HD
ENDBRANCH  12  19
ENDBRANCH   1  11
BRANCH   6  21
ATOM     21  C   UNL d   1      26.799 -15.978  -0.740  0.00  0.00     0.008 C 
ATOM     22  C   UNL d   1      26.486 -14.924   0.143  0.00  0.00     0.012 C 
ATOM     23  C   UNL d   1      27.504 -14.225   0.800  0.00  0.00     0.001 C 
ATOM     24  C   UNL d   1      28.823 -14.662   0.706  0.00  0.00     0.003 C 
ATOM     25  C   UNL d   1      29.119 -15.808  -0.024  0.00  0.00     0.043 C 
ATOM     26  C   UNL d   1      28.123 -16.416  -0.779  0.00  0.00     0.125 C 
ATOM     27  F   UNL d   1      28.452 -17.451  -1.564  0.00  0.00    -0.205 F 
ENDBRANCH   6  21
BRANCH   7  28
ATOM     28  C   UNL d   1      24.647 -18.573  -0.411  0.00  0.00     0.153 C 
BRANCH  28  29
ATOM     29  C   UNL d   1      23.289 -19.299  -0.489  0.00  0.00     0.184 C 
BRANCH  29  30
ATOM     30  O   UNL d   1      22.564 -18.971  -1.665  0.00  0.00    -0.399 OA
ATOM     31  H   UNL d   1      22.337 -18.027  -1.627  0.00  0.00     0.209 HD
ENDBRANCH  29  30
ENDBRANCH  28  29
ENDBRANCH   7  28
TORSDOF 6
ENDMDL
MODEL 2
REMARK VINA RESULT:    -6.652      1.274      1.515
REMARK INTER + INTRA:         -11.421
REMARK INTER:                  -8.442
REMARK INTRA:                  -2.979
REMARK CONF_INDEPENDENT:        1.790
REMARK UNBOUND:                -2.979
REMARK  6 active torsions:
REMARK  status: ('A' for Active; 'I' for Inactive)
REMARK    1  A    between atoms: C_4  and  O_5 
REMARK    2  A    between atoms: C_6  and  C_7 
REMARK    3  A    between atoms: C_12  and  C_13 
REMARK    4  A    between atoms: N_20  and  C_21 
REMARK    5  A    between atoms: C_21  and  C_22 
REMARK    6  A    between atoms: C_22  and  O_23 
ROOT
ATOM      1  C   UNL d   1      26.717 -15.432  -3.625  0.00  0.00     0.074 A 
ATOM      2  N   UNL d   1      25.724 -14.653  -4.181  0.00  0.00    -0.276 N 
ATOM      3  N   UNL d   1      24.531 -14.714  -3.516  0.00  0.00    -0.168 NA
ATOM      4  C   UNL d   1      24.814 -15.517  -2.488  0.00  0.00     0.155 A 
ATOM      5  C   UNL d   1      26.136 -15.950  -2.502  0.00  0.00     0.035 A 
ATOM      6  C   UNL d   1      26.407 -16.855  -1.378  0.00  0.00     0.162 C 
ATOM      7  N   UNL d   1      25.042 -17.116  -0.898  0.00  0.00    -0.331 N 
ATOM      8  C   UNL d   1      24.114 -16.168  -1.387  0.00  0.00     0.275 C 
ATOM      9  O   UNL d   1      22.982 -15.950  -0.971  0.00  0.00    -0.266 OA
ATOM     10  H   UNL d   1      25.798 -14.090  -5.023  0.00  0.00     0.189 HD
ENDROOT
BRANCH   1  11
ATOM     11  C   UNL d   1      28.069 -15.572  -4.129  0.00  0.00     0.028 C 
ATOM     12  C   UNL d   1      28.404 -15.192  -5.432  0.00  0.00     0.078 C 
ATOM     13  C   UNL d   1      29.739 -15.147  -5.833  0.00  0.00     0.045 C 
ATOM     14  C   UNL d   1      30.764 -15.380  -4.895  0.00  0.00    -0.038 C 
ATOM     15  C   UNL d   1      32.198 -15.126  -5.266  0.00  0.00     0.050 C 
ATOM     16  C   UNL d   1      30.419 -15.802  -3.603  0.00  0.00     0.041 C 
ATOM     17  C   UNL d   1      29.082 -15.959  -3.246  0.00  0.00     0.041 C 
ATOM     18 CL   UNL d   1      31.613 -16.081  -2.386  0.00  0.00    -0.084 Cl
BRANCH  12  19
ATOM     19  O   UNL d   1      27.401 -14.827  -6.288  0.00  0.00    -0.360 OA
ATOM     20  H   UNL d   1      27.687 -14.083  -6.842  0.00  0.00     0.217 HD
ENDBRANCH  12  19
ENDBRANCH   1  11
BRANCH   6  21
ATOM     21  C   UNL d   1      27.237 -16.085  -0.378  0.00  0.00     0.008 C 
ATOM     22  C   UNL d   1      26.760 -15.020   0.413  0.00  0.00     0.012 C 
ATOM     23  C   UNL d   1      27.650 -14.238   1.158  0.00  0.00     0.001 C 
ATOM     24  C   UNL d   1      28.992 -14.599   1.243  0.00  0.00     0.003 C 
ATOM     25  C   UNL d   1      29.438 -15.751   0.605  0.00  0.00     0.043 C 
ATOM     26  C   UNL d   1      28.577 -16.445  -0.238  0.00  0.00     0.125 C 
ATOM     27  F   UNL d   1      29.056 -17.486  -0.931  0.00  0.00    -0.205 F 
ENDBRANCH   6  21
BRANCH   7  28
ATOM     28  C   UNL d   1      24.706 -18.324  -0.142  0.00  0.00     0.153 C 
BRANCH  28  29
ATOM     29  C   UNL d   1      23.227 -18.755  -0.218  0.00  0.00     0.184 C 
BRANCH  29  30
ATOM     30  O   UNL d   1      22.740 -18.794  -1.552  0.00  0.00    -0.399 OA
ATOM     31  H   UNL d   1      22.466 -17.895  -1.800  0.00  0.00     0.209 HD
ENDBRANCH  29  30
ENDBRANCH  28  29
ENDBRANCH   7  28
TORSDOF 6
ENDMDL
MODEL 3
REMARK VINA RESULT:    -6.649      2.915      4.989
REMARK INTER + INTRA:         -11.351
REMARK INTER:                  -8.439
REMARK INTRA:                  -2.911
REMARK CONF_INDEPENDENT:        1.790
REMARK UNBOUND:                -2.911
REMARK  6 active torsions:
REMARK  status: ('A' for Active; 'I' for Inactive)
REMARK    1  A    between atoms: C_4  and  O_5 
REMARK    2  A    between atoms: C_6  and  C_7 
REMARK    3  A    between atoms: C_12  and  C_13 
REMARK    4  A    between atoms: N_20  and  C_21 
REMARK    5  A    between atoms: C_21  and  C_22 
REMARK    6  A    between atoms: C_22  and  O_23 
ROOT
ATOM      1  C   UNL d   1      27.683 -16.221   0.219  0.00  0.00     0.074 A 
ATOM      2  N   UNL d   1      28.124 -17.510   0.431  0.00  0.00    -0.276 N 
ATOM      3  N   UNL d   1      27.186 -18.470   0.166  0.00  0.00    -0.168 NA
ATOM      4  C   UNL d   1      26.153 -17.750  -0.275  0.00  0.00     0.155 A 
ATOM      5  C   UNL d   1      26.423 -16.386  -0.285  0.00  0.00     0.035 A 
ATOM      6  C   UNL d   1      25.256 -15.619  -0.743  0.00  0.00     0.162 C 
ATOM      7  N   UNL d   1      24.216 -16.657  -0.715  0.00  0.00    -0.331 N 
ATOM      8  C   UNL d   1      24.763 -17.960  -0.662  0.00  0.00     0.275 C 
ATOM      9  O   UNL d   1      24.190 -19.019  -0.895  0.00  0.00    -0.266 OA
ATOM     10  H   UNL d   1      29.035 -17.786   0.784  0.00  0.00     0.189 HD
ENDROOT
BRANCH   1  11
ATOM     11  C   UNL d   1      28.454 -15.013   0.435  0.00  0.00     0.028 C 
ATOM     12  C   UNL d   1      29.852 -15.033   0.448  0.00  0.00     0.078 C 
ATOM     13  C   UNL d   1      30.576 -13.841   0.460  0.00  0.00     0.045 C 
ATOM     14  C   UNL d   1      29.903 -12.609   0.346  0.00  0.00    -0.038 C 
ATOM     15  C   UNL d   1      30.682 -11.340   0.143  0.00  0.00     0.050 C 
ATOM     16  C   UNL d   1      28.501 -12.595   0.376  0.00  0.00     0.041 C 
ATOM     17  C   UNL d   1      27.786 -13.785   0.486  0.00  0.00     0.041 C 
ATOM     18 CL   UNL d   1      27.600 -11.130   0.214  0.00  0.00    -0.084 Cl
BRANCH  12  19
ATOM     19  O   UNL d   1      30.491 -16.243   0.410  0.00  0.00    -0.360 OA
ATOM     20  H   UNL d   1      30.403 -16.695   1.265  0.00  0.00     0.217 HD
ENDBRANCH  12  19
ENDBRANCH   1  11
BRANCH   6  21
ATOM     21  C   UNL d   1      25.562 -15.141  -2.143  0.00  0.00     0.008 C 
ATOM     22  C   UNL d   1      25.530 -15.953  -3.296  0.00  0.00     0.012 C 
ATOM     23  C   UNL d   1      26.025 -15.472  -4.513  0.00  0.00     0.001 C 
ATOM     24  C   UNL d   1      26.411 -14.140  -4.632  0.00  0.00     0.003 C 
ATOM     25  C   UNL d   1      26.281 -13.284  -3.543  0.00  0.00     0.043 C 
ATOM     26  C   UNL d   1      25.915 -13.801  -2.305  0.00  0.00     0.125 C 
ATOM     27  F   UNL d   1      25.905 -12.984  -1.244  0.00  0.00    -0.205 F 
ENDBRANCH   6  21
BRANCH   7  28
ATOM     28  C   UNL d   1      22.795 -16.325  -0.587  0.00  0.00     0.153 C 
BRANCH  28  29
ATOM     29  C   UNL d   1      21.824 -17.503  -0.807  0.00  0.00     0.184 C 
BRANCH  29  30
ATOM     30  O   UNL d   1      21.781 -18.386   0.305  0.00  0.00    -0.399 OA
ATOM     31  H   UNL d   1      22.382 -19.128   0.124  0.00  0.00     0.209 HD
ENDBRANCH  29  30
ENDBRANCH  28  29
ENDBRANCH   7  28
TORSDOF 6
ENDMDL
MODEL 4
REMARK VINA RESULT:    -6.437      2.432      2.802
REMARK INTER + INTRA:         -10.668
REMARK INTER:                  -8.227
REMARK INTRA:                  -2.441
REMARK CONF_INDEPENDENT:        1.790
REMARK UNBOUND:                -2.441
REMARK  6 active torsions:
REMARK  status: ('A' for Active; 'I' for Inactive)
REMARK    1  A    between atoms: C_4  and  O_5 
REMARK    2  A    between atoms: C_6  and  C_7 
REMARK    3  A    between atoms: C_12  and  C_13 
REMARK    4  A    between atoms: N_20  and  C_21 
REMARK    5  A    between atoms: C_21  and  C_22 
REMARK    6  A    between atoms: C_22  and  O_23 
ROOT
ATOM      1  C   UNL d   1      25.780 -13.982  -4.189  0.00  0.00     0.074 A 
ATOM      2  N   UNL d   1      24.415 -13.806  -4.271  0.00  0.00    -0.276 N 
ATOM      3  N   UNL d   1      23.710 -14.447  -3.290  0.00  0.00    -0.168 NA
ATOM      4  C   UNL d   1      24.678 -14.992  -2.550  0.00  0.00     0.155 A 
ATOM      5  C   UNL d   1      25.947 -14.710  -3.044  0.00  0.00     0.035 A 
ATOM      6  C   UNL d   1      26.986 -15.350  -2.227  0.00  0.00     0.162 C 
ATOM      7  N   UNL d   1      26.171 -16.251  -1.400  0.00  0.00    -0.331 N 
ATOM      8  C   UNL d   1      24.802 -15.896  -1.412  0.00  0.00     0.275 C 
ATOM      9  O   UNL d   1      23.929 -16.267  -0.635  0.00  0.00    -0.266 OA
ATOM     10  H   UNL d   1      23.915 -13.289  -4.989  0.00  0.00     0.189 HD
ENDROOT
BRANCH   1  11
ATOM     11  C   UNL d   1      26.764 -13.435  -5.102  0.00  0.00     0.028 C 
ATOM     12  C   UNL d   1      27.689 -14.256  -5.754  0.00  0.00     0.078 C 
ATOM     13  C   UNL d   1      28.494 -13.744  -6.772  0.00  0.00     0.045 C 
ATOM     14  C   UNL d   1      28.301 -12.424  -7.224  0.00  0.00    -0.038 C 
ATOM     15  C   UNL d   1      29.012 -11.936  -8.455  0.00  0.00     0.050 C 
ATOM     16  C   UNL d   1      27.402 -11.596  -6.537  0.00  0.00     0.041 C 
ATOM     17  C   UNL d   1      26.689 -12.081  -5.443  0.00  0.00     0.041 C 
ATOM     18 CL   UNL d   1      27.088  -9.974  -7.043  0.00  0.00    -0.084 Cl
BRANCH  12  19
ATOM     19  O   UNL d   1      27.759 -15.576  -5.400  0.00  0.00    -0.360 OA
ATOM     20  H   UNL d   1      28.685 -15.841  -5.278  0.00  0.00     0.217 HD
ENDBRANCH  12  19
ENDBRANCH   1  11
BRANCH   6  21
ATOM     21  C   UNL d   1      27.649 -14.260  -1.419  0.00  0.00     0.008 C 
ATOM     22  C   UNL d   1      27.237 -13.845  -0.136  0.00  0.00     0.012 C 
ATOM     23  C   UNL d   1      27.782 -12.695   0.445  0.00  0.00     0.001 C 
ATOM     24  C   UNL d   1      28.843 -12.038  -0.172  0.00  0.00     0.003 C 
ATOM     25  C   UNL d   1      29.373 -12.543  -1.355  0.00  0.00     0.043 C 
ATOM     26  C   UNL d   1      28.740 -13.605  -1.990  0.00  0.00     0.125 C 
ATOM     27  F   UNL d   1      29.198 -14.005  -3.184  0.00  0.00    -0.205 F 
ENDBRANCH   6  21
BRANCH   7  28
ATOM     28  C   UNL d   1      26.731 -17.459  -0.790  0.00  0.00     0.153 C 
BRANCH  28  29
ATOM     29  C   UNL d   1      26.026 -17.931   0.498  0.00  0.00     0.184 C 
BRANCH  29  30
ATOM     30  O   UNL d   1      24.786 -18.573   0.235  0.00  0.00    -0.399 OA
ATOM     31  H   UNL d   1      24.106 -17.886   0.134  0.00  0.00     0.209 HD
ENDBRANCH  29  30
ENDBRANCH  28  29
ENDBRANCH   7  28
TORSDOF 6
ENDMDL
MODEL 5
REMARK VINA RESULT:    -6.431      4.598      6.961
REMARK INTER + INTRA:         -10.747
REMARK INTER:                  -8.220
REMARK INTRA:                  -2.526
REMARK CONF_INDEPENDENT:        1.790
REMARK UNBOUND:                -2.526
REMARK  6 active torsions:
REMARK  status: ('A' for Active; 'I' for Inactive)
REMARK    1  A    between atoms: C_4  and  O_5 
REMARK    2  A    between atoms: C_6  and  C_7 
REMARK    3  A    between atoms: C_12  and  C_13 
REMARK    4  A    between atoms: N_20  and  C_21 
REMARK    5  A    between atoms: C_21  and  C_22 
REMARK    6  A    between atoms: C_22  and  O_23 
ROOT
ATOM      1  C   UNL d   1      27.802 -13.418  -0.319  0.00  0.00     0.074 A 
ATOM      2  N   UNL d   1      28.470 -12.754  -1.326  0.00  0.00    -0.276 N 
ATOM      3  N   UNL d   1      28.812 -11.467  -1.014  0.00  0.00    -0.168 NA
ATOM      4  C   UNL d   1      28.387 -11.354   0.247  0.00  0.00     0.155 A 
ATOM      5  C   UNL d   1      27.795 -12.522   0.714  0.00  0.00     0.035 A 
ATOM      6  C   UNL d   1      27.310 -12.354   2.090  0.00  0.00     0.162 C 
ATOM      7  N   UNL d   1      27.427 -10.898   2.248  0.00  0.00    -0.331 N 
ATOM      8  C   UNL d   1      28.265 -10.319   1.267  0.00  0.00     0.275 C 
ATOM      9  O   UNL d   1      28.771  -9.203   1.284  0.00  0.00    -0.266 OA
ATOM     10  H   UNL d   1      28.687 -13.118  -2.249  0.00  0.00     0.189 HD
ENDROOT
BRANCH   1  11
ATOM     11  C   UNL d   1      27.307 -14.779  -0.380  0.00  0.00     0.028 C 
ATOM     12  C   UNL d   1      27.990 -15.831   0.236  0.00  0.00     0.078 C 
ATOM     13  C   UNL d   1      27.403 -17.092   0.336  0.00  0.00     0.045 C 
ATOM     14  C   UNL d   1      26.073 -17.284  -0.087  0.00  0.00    -0.038 C 
ATOM     15  C   UNL d   1      25.365 -18.576   0.210  0.00  0.00     0.050 C 
ATOM     16  C   UNL d   1      25.412 -16.236  -0.743  0.00  0.00     0.041 C 
ATOM     17  C   UNL d   1      26.050 -15.015  -0.945  0.00  0.00     0.041 C 
ATOM     18 CL   UNL d   1      23.772 -16.381  -1.269  0.00  0.00    -0.084 Cl
BRANCH  12  19
ATOM     19  O   UNL d   1      29.225 -15.586   0.774  0.00  0.00    -0.360 OA
ATOM     20  H   UNL d   1      29.299 -16.005   1.646  0.00  0.00     0.217 HD
ENDBRANCH  12  19
ENDBRANCH   1  11
BRANCH   6  21
ATOM     21  C   UNL d   1      28.256 -13.114   2.989  0.00  0.00     0.008 C 
ATOM     22  C   UNL d   1      29.658 -13.140   2.845  0.00  0.00     0.012 C 
ATOM     23  C   UNL d   1      30.431 -14.031   3.598  0.00  0.00     0.001 C 
ATOM     24  C   UNL d   1      29.838 -14.792   4.602  0.00  0.00     0.003 C 
ATOM     25  C   UNL d   1      28.482 -14.645   4.869  0.00  0.00     0.043 C 
ATOM     26  C   UNL d   1      27.700 -13.857   4.031  0.00  0.00     0.125 C 
ATOM     27  F   UNL d   1      26.377 -13.817   4.236  0.00  0.00    -0.205 F 
ENDBRANCH   6  21
BRANCH   7  28
ATOM     28  C   UNL d   1      26.618 -10.158   3.220  0.00  0.00     0.153 C 
BRANCH  28  29
ATOM     29  C   UNL d   1      25.905  -8.909   2.663  0.00  0.00     0.184 C 
BRANCH  29  30
ATOM     30  O   UNL d   1      26.660  -7.721   2.855  0.00  0.00    -0.399 OA
ATOM     31  H   UNL d   1      27.525  -7.841   2.430  0.00  0.00     0.209 HD
ENDBRANCH  29  30
ENDBRANCH  28  29
ENDBRANCH   7  28
TORSDOF 6
ENDMDL
MODEL 6
REMARK VINA RESULT:    -6.423      2.969      3.961
REMARK INTER + INTRA:         -10.730
REMARK INTER:                  -8.212
REMARK INTRA:                  -2.517
REMARK CONF_INDEPENDENT:        1.790
REMARK UNBOUND:                -2.517
REMARK  6 active torsions:
REMARK  status: ('A' for Active; 'I' for Inactive)
REMARK    1  A    between atoms: C_4  and  O_5 
REMARK    2  A    between atoms: C_6  and  C_7 
REMARK    3  A    between atoms: C_12  and  C_13 
REMARK    4  A    between atoms: N_20  and  C_21 
REMARK    5  A    between atoms: C_21  and  C_22 
REMARK    6  A    between atoms: C_22  and  O_23 
ROOT
ATOM      1  C   UNL d   1      25.846 -14.843  -2.353  0.00  0.00     0.074 A 
ATOM      2  N   UNL d   1      24.631 -15.496  -2.349  0.00  0.00    -0.276 N 
ATOM      3  N   UNL d   1      24.641 -16.685  -1.674  0.00  0.00    -0.168 NA
ATOM      4  C   UNL d   1      25.888 -16.739  -1.202  0.00  0.00     0.155 A 
ATOM      5  C   UNL d   1      26.642 -15.629  -1.568  0.00  0.00     0.035 A 
ATOM      6  C   UNL d   1      28.017 -15.734  -1.062  0.00  0.00     0.162 C 
ATOM      7  N   UNL d   1      28.043 -17.137  -0.625  0.00  0.00    -0.331 N 
ATOM      8  C   UNL d   1      26.744 -17.679  -0.489  0.00  0.00     0.275 C 
ATOM      9  O   UNL d   1      26.423 -18.705   0.101  0.00  0.00    -0.266 OA
ATOM     10  H   UNL d   1      23.781 -15.193  -2.815  0.00  0.00     0.189 HD
ENDROOT
BRANCH   1  11
ATOM     11  C   UNL d   1      26.129 -13.579  -3.004  0.00  0.00     0.028 C 
ATOM     12  C   UNL d   1      25.374 -13.135  -4.093  0.00  0.00     0.078 C 
ATOM     13  C   UNL d   1      25.530 -11.837  -4.579  0.00  0.00     0.045 C 
ATOM     14  C   UNL d   1      26.370 -10.930  -3.905  0.00  0.00    -0.038 C 
ATOM     15  C   UNL d   1      26.380  -9.478  -4.292  0.00  0.00     0.050 C 
ATOM     16  C   UNL d   1      27.155 -11.395  -2.840  0.00  0.00     0.041 C 
ATOM     17  C   UNL d   1      27.081 -12.726  -2.437  0.00  0.00     0.041 C 
ATOM     18 CL   UNL d   1      28.190 -10.342  -1.943  0.00  0.00    -0.084 Cl
BRANCH  12  19
ATOM     19  O   UNL d   1      24.454 -13.986  -4.645  0.00  0.00    -0.360 OA
ATOM     20  H   UNL d   1      23.650 -13.498  -4.885  0.00  0.00     0.217 HD
ENDBRANCH  12  19
ENDBRANCH   1  11
BRANCH   6  21
ATOM     21  C   UNL d   1      28.141 -14.765   0.090  0.00  0.00     0.008 C 
ATOM     22  C   UNL d   1      27.407 -14.844   1.291  0.00  0.00     0.012 C 
ATOM     23  C   UNL d   1      27.441 -13.790   2.211  0.00  0.00     0.001 C 
ATOM     24  C   UNL d   1      28.316 -12.724   2.020  0.00  0.00     0.003 C 
ATOM     25  C   UNL d   1      29.172 -12.723   0.924  0.00  0.00     0.043 C 
ATOM     26  C   UNL d   1      29.038 -13.705  -0.051  0.00  0.00     0.125 C 
ATOM     27  F   UNL d   1      29.794 -13.624  -1.154  0.00  0.00    -0.205 F 
ENDBRANCH   6  21
BRANCH   7  28
ATOM     28  C   UNL d   1      29.295 -17.891  -0.520  0.00  0.00     0.153 C 
BRANCH  28  29
ATOM     29  C   UNL d   1      30.578 -17.035  -0.530  0.00  0.00     0.184 C 
BRANCH  29  30
ATOM     30  O   UNL d   1      30.674 -16.186   0.605  0.00  0.00    -0.399 OA
ATOM     31  H   UNL d   1      30.431 -16.703   1.390  0.00  0.00     0.209 HD
ENDBRANCH  29  30
ENDBRANCH  28  29
ENDBRANCH   7  28
TORSDOF 6
ENDMDL
MODEL 7
REMARK VINA RESULT:    -5.943      3.096      5.577
REMARK INTER + INTRA:         -10.715
REMARK INTER:                  -7.733
REMARK INTRA:                  -2.982
REMARK CONF_INDEPENDENT:        1.790
REMARK UNBOUND:                -2.982
REMARK  6 active torsions:
REMARK  status: ('A' for Active; 'I' for Inactive)
REMARK    1  A    between atoms: C_4  and  O_5 
REMARK    2  A    between atoms: C_6  and  C_7 
REMARK    3  A    between atoms: C_12  and  C_13 
REMARK    4  A    between atoms: N_20  and  C_21 
REMARK    5  A    between atoms: C_21  and  C_22 
REMARK    6  A    between atoms: C_22  and  O_23 
ROOT
ATOM      1  C   UNL d   1      27.037 -12.800  -1.841  0.00  0.00     0.074 A 
ATOM      2  N   UNL d   1      26.227 -12.079  -2.693  0.00  0.00    -0.276 N 
ATOM      3  N   UNL d   1      26.063 -12.652  -3.924  0.00  0.00    -0.168 NA
ATOM      4  C   UNL d   1      26.752 -13.789  -3.807  0.00  0.00     0.155 A 
ATOM      5  C   UNL d   1      27.334 -13.930  -2.552  0.00  0.00     0.035 A 
ATOM      6  C   UNL d   1      28.111 -15.174  -2.466  0.00  0.00     0.162 C 
ATOM      7  N   UNL d   1      28.147 -15.574  -3.880  0.00  0.00    -0.331 N 
ATOM      8  C   UNL d   1      27.169 -14.903  -4.651  0.00  0.00     0.275 C 
ATOM      9  O   UNL d   1      26.770 -15.201  -5.770  0.00  0.00    -0.266 OA
ATOM     10  H   UNL d   1      25.792 -11.183  -2.497  0.00  0.00     0.189 HD
ENDROOT
BRANCH   1  11
ATOM     11  C   UNL d   1      27.397 -12.424  -0.489  0.00  0.00     0.028 C 
ATOM     12  C   UNL d   1      27.352 -11.092  -0.067  0.00  0.00     0.078 C 
ATOM     13  C   UNL d   1      27.509 -10.773   1.282  0.00  0.00     0.045 C 
ATOM     14  C   UNL d   1      27.604 -11.799   2.241  0.00  0.00    -0.038 C 
ATOM     15  C   UNL d   1      27.558 -11.470   3.707  0.00  0.00     0.050 C 
ATOM     16  C   UNL d   1      27.691 -13.129   1.806  0.00  0.00     0.041 C 
ATOM     17  C   UNL d   1      27.654 -13.431   0.447  0.00  0.00     0.041 C 
ATOM     18 CL   UNL d   1      27.782 -14.448   2.918  0.00  0.00    -0.084 Cl
BRANCH  12  19
ATOM     19  O   UNL d   1      27.112 -10.117  -0.996  0.00  0.00    -0.360 OA
ATOM     20  H   UNL d   1      27.392 -10.417  -1.876  0.00  0.00     0.217 HD
ENDBRANCH  12  19
ENDBRANCH   1  11
BRANCH   6  21
ATOM     21  C   UNL d   1      27.318 -16.133  -1.611  0.00  0.00     0.008 C 
ATOM     22  C   UNL d   1      25.925 -16.329  -1.699  0.00  0.00     0.012 C 
ATOM     23  C   UNL d   1      25.254 -17.084  -0.731  0.00  0.00     0.001 C 
ATOM     24  C   UNL d   1      25.975 -17.774   0.239  0.00  0.00     0.003 C 
ATOM     25  C   UNL d   1      27.365 -17.728   0.228  0.00  0.00     0.043 C 
ATOM     26  C   UNL d   1      28.015 -16.871  -0.653  0.00  0.00     0.125 C 
ATOM     27  F   UNL d   1      29.347 -16.756  -0.572  0.00  0.00    -0.205 F 
ENDBRANCH   6  21
BRANCH   7  28
ATOM     28  C   UNL d   1      29.199 -16.443  -4.411  0.00  0.00     0.153 C 
BRANCH  28  29
ATOM     29  C   UNL d   1      30.022 -15.844  -5.570  0.00  0.00     0.184 C 
BRANCH  29  30
ATOM     30  O   UNL d   1      29.233 -15.600  -6.726  0.00  0.00    -0.399 OA
ATOM     31  H   UNL d   1      28.689 -14.812  -6.560  0.00  0.00     0.209 HD
ENDBRANCH  29  30
ENDBRANCH  28  29
ENDBRANCH   7  28
TORSDOF 6
ENDMDL
MODEL 8
REMARK VINA RESULT:    -5.917      3.640      6.961
REMARK INTER + INTRA:         -10.940
REMARK INTER:                  -7.707
REMARK INTRA:                  -3.234
REMARK CONF_INDEPENDENT:        1.790
REMARK UNBOUND:                -3.234
REMARK  6 active torsions:
REMARK  status: ('A' for Active; 'I' for Inactive)
REMARK    1  A    between atoms: C_4  and  O_5 
REMARK    2  A    between atoms: C_6  and  C_7 
REMARK    3  A    between atoms: C_12  and  C_13 
REMARK    4  A    between atoms: N_20  and  C_21 
REMARK    5  A    between atoms: C_21  and  C_22 
REMARK    6  A    between atoms: C_22  and  O_23 
ROOT
ATOM      1  C   UNL d   1      29.150 -15.766  -2.381  0.00  0.00     0.074 A 
ATOM      2  N   UNL d   1      30.365 -15.434  -1.820  0.00  0.00    -0.276 N 
ATOM      3  N   UNL d   1      31.168 -14.683  -2.634  0.00  0.00    -0.168 NA
ATOM      4  C   UNL d   1      30.399 -14.502  -3.710  0.00  0.00     0.155 A 
ATOM      5  C   UNL d   1      29.159 -15.119  -3.585  0.00  0.00     0.035 A 
ATOM      6  C   UNL d   1      28.350 -14.930  -4.797  0.00  0.00     0.162 C 
ATOM      7  N   UNL d   1      29.360 -14.397  -5.722  0.00  0.00    -0.331 N 
ATOM      8  C   UNL d   1      30.510 -13.926  -5.045  0.00  0.00     0.275 C 
ATOM      9  O   UNL d   1      31.390 -13.198  -5.489  0.00  0.00    -0.266 OA
ATOM     10  H   UNL d   1      30.707 -15.718  -0.907  0.00  0.00     0.189 HD
ENDROOT
BRANCH   1  11
ATOM     11  C   UNL d   1      28.115 -16.565  -1.755  0.00  0.00     0.028 C 
ATOM     12  C   UNL d   1      28.410 -17.459  -0.722  0.00  0.00     0.078 C 
ATOM     13  C   UNL d   1      27.383 -18.070  -0.002  0.00  0.00     0.045 C 
ATOM     14  C   UNL d   1      26.044 -17.704  -0.239  0.00  0.00    -0.038 C 
ATOM     15  C   UNL d   1      24.955 -18.195   0.672  0.00  0.00     0.050 C 
ATOM     16  C   UNL d   1      25.755 -16.840  -1.305  0.00  0.00     0.041 C 
ATOM     17  C   UNL d   1      26.780 -16.328  -2.096  0.00  0.00     0.041 C 
ATOM     18 CL   UNL d   1      24.142 -16.321  -1.645  0.00  0.00    -0.084 Cl
BRANCH  12  19
ATOM     19  O   UNL d   1      29.722 -17.690  -0.408  0.00  0.00    -0.360 OA
ATOM     20  H   UNL d   1      29.807 -17.907   0.534  0.00  0.00     0.217 HD
ENDBRANCH  12  19
ENDBRANCH   1  11
BRANCH   6  21
ATOM     21  C   UNL d   1      27.279 -13.919  -4.462  0.00  0.00     0.008 C 
ATOM     22  C   UNL d   1      27.523 -12.608  -4.006  0.00  0.00     0.012 C 
ATOM     23  C   UNL d   1      26.472 -11.817  -3.529  0.00  0.00     0.001 C 
ATOM     24  C   UNL d   1      25.157 -12.262  -3.642  0.00  0.00     0.003 C 
ATOM     25  C   UNL d   1      24.893 -13.484  -4.252  0.00  0.00     0.043 C 
ATOM     26  C   UNL d   1      25.949 -14.318  -4.601  0.00  0.00     0.125 C 
ATOM     27  F   UNL d   1      25.673 -15.537  -5.083  0.00  0.00    -0.205 F 
ENDBRANCH   6  21
BRANCH   7  28
ATOM     28  C   UNL d   1      29.218 -14.516  -7.175  0.00  0.00     0.153 C 
BRANCH  28  29
ATOM     29  C   UNL d   1      28.802 -13.221  -7.901  0.00  0.00     0.184 C 
BRANCH  29  30
ATOM     30  O   UNL d   1      29.019 -12.060  -7.110  0.00  0.00    -0.399 OA
ATOM     31  H   UNL d   1      29.816 -12.206  -6.574  0.00  0.00     0.209 HD
ENDBRANCH  29  30
ENDBRANCH  28  29
ENDBRANCH   7  28
TORSDOF 6
ENDMDL
MODEL 9
REMARK VINA RESULT:    -5.695      3.313      6.465
REMARK INTER + INTRA:         -10.589
REMARK INTER:                  -7.485
REMARK INTRA:                  -3.103
REMARK CONF_INDEPENDENT:        1.790
REMARK UNBOUND:                -3.103
REMARK  6 active torsions:
REMARK  status: ('A' for Active; 'I' for Inactive)
REMARK    1  A    between atoms: C_4  and  O_5 
REMARK    2  A    between atoms: C_6  and  C_7 
REMARK    3  A    between atoms: C_12  and  C_13 
REMARK    4  A    between atoms: N_20  and  C_21 
REMARK    5  A    between atoms: C_21  and  C_22 
REMARK    6  A    between atoms: C_22  and  O_23 
ROOT
ATOM      1  C   UNL d   1      27.312 -15.204  -4.300  0.00  0.00     0.074 A 
ATOM      2  N   UNL d   1      26.848 -15.144  -5.597  0.00  0.00    -0.276 N 
ATOM      3  N   UNL d   1      27.808 -14.826  -6.517  0.00  0.00    -0.168 NA
ATOM      4  C   UNL d   1      28.910 -14.740  -5.768  0.00  0.00     0.155 A 
ATOM      5  C   UNL d   1      28.656 -14.990  -4.423  0.00  0.00     0.035 A 
ATOM      6  C   UNL d   1      29.880 -14.855  -3.621  0.00  0.00     0.162 C 
ATOM      7  N   UNL d   1      30.781 -14.226  -4.597  0.00  0.00    -0.331 N 
ATOM      8  C   UNL d   1      30.308 -14.356  -5.923  0.00  0.00     0.275 C 
ATOM      9  O   UNL d   1      30.939 -14.185  -6.960  0.00  0.00    -0.266 OA
ATOM     10  H   UNL d   1      25.889 -15.279  -5.902  0.00  0.00     0.189 HD
ENDROOT
BRANCH   1  11
ATOM     11  C   UNL d   1      26.515 -15.501  -3.125  0.00  0.00     0.028 C 
ATOM     12  C   UNL d   1      25.155 -15.188  -3.070  0.00  0.00     0.078 C 
ATOM     13  C   UNL d   1      24.364 -15.655  -2.020  0.00  0.00     0.045 C 
ATOM     14  C   UNL d   1      24.910 -16.537  -1.068  0.00  0.00    -0.038 C 
ATOM     15  C   UNL d   1      24.017 -17.210  -0.063  0.00  0.00     0.050 C 
ATOM     16  C   UNL d   1      26.284 -16.812  -1.106  0.00  0.00     0.041 C 
ATOM     17  C   UNL d   1      27.090 -16.244  -2.090  0.00  0.00     0.041 C 
ATOM     18 CL   UNL d   1      27.027 -17.904   0.008  0.00  0.00    -0.084 Cl
BRANCH  12  19
ATOM     19  O   UNL d   1      24.609 -14.449  -4.085  0.00  0.00    -0.360 OA
ATOM     20  H   UNL d   1      24.028 -13.761  -3.723  0.00  0.00     0.217 HD
ENDBRANCH  12  19
ENDBRANCH   1  11
BRANCH   6  21
ATOM     21  C   UNL d   1      30.317 -16.250  -3.242  0.00  0.00     0.008 C 
ATOM     22  C   UNL d   1      30.582 -17.288  -4.159  0.00  0.00     0.012 C 
ATOM     23  C   UNL d   1      30.782 -18.597  -3.707  0.00  0.00     0.001 C 
ATOM     24  C   UNL d   1      30.872 -18.858  -2.342  0.00  0.00     0.003 C 
ATOM     25  C   UNL d   1      30.786 -17.810  -1.433  0.00  0.00     0.043 C 
ATOM     26  C   UNL d   1      30.456 -16.537  -1.884  0.00  0.00     0.125 C 
ATOM     27  F   UNL d   1      30.267 -15.564  -0.982  0.00  0.00    -0.205 F 
ENDBRANCH   6  21
BRANCH   7  28
ATOM     28  C   UNL d   1      31.935 -13.425  -4.180  0.00  0.00     0.153 C 
BRANCH  28  29
ATOM     29  C   UNL d   1      33.309 -14.001  -4.576  0.00  0.00     0.184 C 
BRANCH  29  30
ATOM     30  O   UNL d   1      33.205 -15.265  -5.216  0.00  0.00    -0.399 OA
ATOM     31  H   UNL d   1      32.489 -15.214  -5.871  0.00  0.00     0.209 HD
ENDBRANCH  29  30
ENDBRANCH  28  29
ENDBRANCH   7  28
TORSDOF 6
ENDMDL
