MODEL 1
REMARK VINA RESULT:    -7.315      0.000      0.000
REMARK INTER + INTRA:          -9.540
REMARK INTER:                  -8.806
REMARK INTRA:                  -0.733
REMARK CONF_INDEPENDENT:        1.492
REMARK UNBOUND:                -0.733
REMARK  5 active torsions:
REMARK  status: ('A' for Active; 'I' for Inactive)
REMARK       I    between atoms: C_2  and  N_3 
REMARK    1  A    between atoms: C_2  and  C_12 
REMARK    2  A    between atoms: N_3  and  C_4 
REMARK    3  A    between atoms: C_10  and  O_11 
REMARK    4  A    between atoms: C_16  and  O_17 
REMARK    5  A    between atoms: O_17  and  C_18 
ROOT
ATOM      1  O   UNL d   1      23.330 -18.487   1.103  0.00  0.00    -0.267 OA
ATOM      2  C   UNL d   1      23.092 -18.146  -0.057  0.00  0.00     0.256 C 
ATOM      3  N   UNL d   1      21.966 -18.493  -0.800  0.00  0.00    -0.320 N 
ATOM      4  H   UNL d   1      22.057 -18.499  -1.808  0.00  0.00     0.169 HD
ENDROOT
BRANCH   2   5
ATOM      5  C   UNL d   1      24.176 -17.456  -0.803  0.00  0.00     0.035 A 
ATOM      6  C   UNL d   1      25.519 -17.800  -0.646  0.00  0.00     0.017 A 
ATOM      7  C   UNL d   1      26.503 -17.007  -1.240  0.00  0.00     0.004 A 
ATOM      8  C   UNL d   1      26.144 -15.924  -2.050  0.00  0.00     0.037 A 
ATOM      9  C   UNL d   1      24.798 -15.606  -2.255  0.00  0.00     0.075 A 
ATOM     10  C   UNL d   1      23.818 -16.388  -1.641  0.00  0.00     0.054 A 
BRANCH   9  11
ATOM     11  O   UNL d   1      24.564 -14.497  -3.024  0.00  0.00    -0.290 OA
BRANCH  11  12
ATOM     12  C   UNL d   1      25.598 -14.132  -3.930  0.00  0.00     0.505 C 
ATOM     13  F   UNL d   1      25.723 -15.088  -4.884  0.00  0.00    -0.184 F 
ATOM     14  F   UNL d   1      25.206 -13.002  -4.570  0.00  0.00    -0.184 F 
ENDBRANCH  11  12
ENDBRANCH   9  11
ENDBRANCH   2   5
BRANCH   3  15
ATOM     15  C   UNL d   1      20.922 -19.266  -0.232  0.00  0.00     0.070 A 
ATOM     16  C   UNL d   1      20.922 -19.523   1.145  0.00  0.00     0.056 A 
ATOM     17  C   UNL d   1      19.838 -20.200   1.720  0.00  0.00     0.036 A 
ATOM     18 CL   UNL d   1      19.783 -20.451   3.425  0.00  0.00    -0.084 Cl
ATOM     19  C   UNL d   1      18.779 -20.656   0.935  0.00  0.00     0.026 A 
ATOM     20  C   UNL d   1      18.805 -20.455  -0.444  0.00  0.00     0.040 A 
ATOM     21  C   UNL d   1      19.880 -19.778  -1.020  0.00  0.00     0.092 A 
BRANCH  21  22
ATOM     22  O   UNL d   1      19.971 -19.700  -2.383  0.00  0.00    -0.358 OA
ATOM     23  H   UNL d   1      19.142 -19.348  -2.739  0.00  0.00     0.217 HD
ENDBRANCH  21  22
ENDBRANCH   3  15
TORSDOF 5
ENDMDL
MODEL 2
REMARK VINA RESULT:    -6.528      4.399      7.986
REMARK INTER + INTRA:          -9.298
REMARK INTER:                  -8.019
REMARK INTRA:                  -1.279
REMARK CONF_INDEPENDENT:        1.492
REMARK UNBOUND:                -1.279
REMARK  5 active torsions:
REMARK  status: ('A' for Active; 'I' for Inactive)
REMARK       I    between atoms: C_2  and  N_3 
REMARK    1  A    between atoms: C_2  and  C_12 
REMARK    2  A    between atoms: N_3  and  C_4 
REMARK    3  A    between atoms: C_10  and  O_11 
REMARK    4  A    between atoms: C_16  and  O_17 
REMARK    5  A    between atoms: O_17  and  C_18 
ROOT
ATOM      1  O   UNL d   1      27.192 -15.979  -2.500  0.00  0.00    -0.267 OA
ATOM      2  C   UNL d   1      25.961 -15.920  -2.491  0.00  0.00     0.256 C 
ATOM      3  N   UNL d   1      25.180 -14.961  -3.133  0.00  0.00    -0.320 N 
ATOM      4  H   UNL d   1      24.261 -14.778  -2.752  0.00  0.00     0.169 HD
ENDROOT
BRANCH   2   5
ATOM      5  C   UNL d   1      25.238 -16.838  -1.573  0.00  0.00     0.035 A 
ATOM      6  C   UNL d   1      25.753 -17.196  -0.327  0.00  0.00     0.017 A 
ATOM      7  C   UNL d   1      25.116 -18.190   0.418  0.00  0.00     0.004 A 
ATOM      8  C   UNL d   1      23.928 -18.767  -0.045  0.00  0.00     0.037 A 
ATOM      9  C   UNL d   1      23.377 -18.375  -1.269  0.00  0.00     0.075 A 
ATOM     10  C   UNL d   1      24.030 -17.397  -2.020  0.00  0.00     0.054 A 
BRANCH   9  11
ATOM     11  O   UNL d   1      22.243 -19.042  -1.646  0.00  0.00    -0.290 OA
BRANCH  11  12
ATOM     12  C   UNL d   1      21.072 -18.768  -0.886  0.00  0.00     0.505 C 
ATOM     13  F   UNL d   1      20.551 -17.576  -1.270  0.00  0.00    -0.184 F 
ATOM     14  F   UNL d   1      20.146 -19.709  -1.200  0.00  0.00    -0.184 F 
ENDBRANCH  11  12
ENDBRANCH   9  11
ENDBRANCH   2   5
BRANCH   3  15
ATOM     15  C   UNL d   1      25.772 -13.950  -3.933  0.00  0.00     0.070 A 
ATOM     16  C   UNL d   1      25.444 -12.608  -3.707  0.00  0.00     0.056 A 
ATOM     17  C   UNL d   1      26.105 -11.606  -4.429  0.00  0.00     0.036 A 
ATOM     18 CL   UNL d   1      25.772  -9.945  -4.104  0.00  0.00    -0.084 Cl
ATOM     19  C   UNL d   1      27.055 -11.927  -5.398  0.00  0.00     0.026 A 
ATOM     20  C   UNL d   1      27.340 -13.265  -5.667  0.00  0.00     0.040 A 
ATOM     21  C   UNL d   1      26.688 -14.266  -4.948  0.00  0.00     0.092 A 
BRANCH  21  22
ATOM     22  O   UNL d   1      26.867 -15.575  -5.305  0.00  0.00    -0.358 OA
ATOM     23  H   UNL d   1      27.387 -16.024  -4.622  0.00  0.00     0.217 HD
ENDBRANCH  21  22
ENDBRANCH   3  15
TORSDOF 5
ENDMDL
MODEL 3
REMARK VINA RESULT:    -6.450      3.636      5.566
REMARK INTER + INTRA:          -8.801
REMARK INTER:                  -7.941
REMARK INTRA:                  -0.860
REMARK CONF_INDEPENDENT:        1.492
REMARK UNBOUND:                -0.860
REMARK  5 active torsions:
REMARK  status: ('A' for Active; 'I' for Inactive)
REMARK       I    between atoms: C_2  and  N_3 
REMARK    1  A    between atoms: C_2  and  C_12 
REMARK    2  A    between atoms: N_3  and  C_4 
REMARK    3  A    between atoms: C_10  and  O_11 
REMARK    4  A    between atoms: C_16  and  O_17 
REMARK    5  A    between atoms: O_17  and  C_18 
ROOT
ATOM      1  O   UNL d   1      24.265 -14.653  -2.801  0.00  0.00    -0.267 OA
ATOM      2  C   UNL d   1      25.336 -15.168  -3.127  0.00  0.00     0.256 C 
ATOM      3  N   UNL d   1      25.916 -16.295  -2.548  0.00  0.00    -0.320 N 
ATOM      4  H   UNL d   1      26.921 -16.387  -2.613  0.00  0.00     0.169 HD
ENDROOT
BRANCH   2   5
ATOM      5  C   UNL d   1      26.183 -14.429  -4.100  0.00  0.00     0.035 A 
ATOM      6  C   UNL d   1      26.079 -13.048  -4.272  0.00  0.00     0.017 A 
ATOM      7  C   UNL d   1      26.774 -12.435  -5.315  0.00  0.00     0.004 A 
ATOM      8  C   UNL d   1      27.629 -13.184  -6.131  0.00  0.00     0.037 A 
ATOM      9  C   UNL d   1      27.779 -14.560  -5.930  0.00  0.00     0.075 A 
ATOM     10  C   UNL d   1      27.065 -15.172  -4.900  0.00  0.00     0.054 A 
BRANCH   9  11
ATOM     11  O   UNL d   1      28.601 -15.200  -6.818  0.00  0.00    -0.290 OA
BRANCH  11  12
ATOM     12  C   UNL d   1      29.831 -15.686  -6.296  0.00  0.00     0.505 C 
ATOM     13  F   UNL d   1      29.583 -16.550  -5.280  0.00  0.00    -0.184 F 
ATOM     14  F   UNL d   1      30.438 -16.408  -7.272  0.00  0.00    -0.184 F 
ENDBRANCH  11  12
ENDBRANCH   9  11
ENDBRANCH   2   5
BRANCH   3  15
ATOM     15  C   UNL d   1      25.257 -17.008  -1.514  0.00  0.00     0.070 A 
ATOM     16  C   UNL d   1      23.898 -17.320  -1.645  0.00  0.00     0.056 A 
ATOM     17  C   UNL d   1      23.276 -18.112  -0.671  0.00  0.00     0.036 A 
ATOM     18 CL   UNL d   1      21.626 -18.574  -0.860  0.00  0.00    -0.084 Cl
ATOM     19  C   UNL d   1      23.979 -18.559   0.447  0.00  0.00     0.026 A 
ATOM     20  C   UNL d   1      25.316 -18.200   0.611  0.00  0.00     0.040 A 
ATOM     21  C   UNL d   1      25.941 -17.416  -0.359  0.00  0.00     0.092 A 
BRANCH  21  22
ATOM     22  O   UNL d   1      27.209 -16.952  -0.132  0.00  0.00    -0.358 OA
ATOM     23  H   UNL d   1      27.651 -17.530   0.507  0.00  0.00     0.217 HD
ENDBRANCH  21  22
ENDBRANCH   3  15
TORSDOF 5
ENDMDL
MODEL 4
REMARK VINA RESULT:    -6.387      4.516      8.008
REMARK INTER + INTRA:          -9.170
REMARK INTER:                  -7.878
REMARK INTRA:                  -1.292
REMARK CONF_INDEPENDENT:        1.492
REMARK UNBOUND:                -1.292
REMARK  5 active torsions:
REMARK  status: ('A' for Active; 'I' for Inactive)
REMARK       I    between atoms: C_2  and  N_3 
REMARK    1  A    between atoms: C_2  and  C_12 
REMARK    2  A    between atoms: N_3  and  C_4 
REMARK    3  A    between atoms: C_10  and  O_11 
REMARK    4  A    between atoms: C_16  and  O_17 
REMARK    5  A    between atoms: O_17  and  C_18 
ROOT
ATOM      1  O   UNL d   1      25.804 -14.577  -1.259  0.00  0.00    -0.267 OA
ATOM      2  C   UNL d   1      25.469 -15.602  -1.855  0.00  0.00     0.256 C 
ATOM      3  N   UNL d   1      25.636 -15.852  -3.215  0.00  0.00    -0.320 N 
ATOM      4  H   UNL d   1      25.002 -16.509  -3.649  0.00  0.00     0.169 HD
ENDROOT
BRANCH   2   5
ATOM      5  C   UNL d   1      24.651 -16.593  -1.108  0.00  0.00     0.035 A 
ATOM      6  C   UNL d   1      25.229 -17.574  -0.303  0.00  0.00     0.017 A 
ATOM      7  C   UNL d   1      24.424 -18.579   0.236  0.00  0.00     0.004 A 
ATOM      8  C   UNL d   1      23.040 -18.559   0.036  0.00  0.00     0.037 A 
ATOM      9  C   UNL d   1      22.446 -17.547  -0.726  0.00  0.00     0.075 A 
ATOM     10  C   UNL d   1      23.258 -16.557  -1.281  0.00  0.00     0.054 A 
BRANCH   9  11
ATOM     11  O   UNL d   1      21.093 -17.655  -0.898  0.00  0.00    -0.290 OA
BRANCH  11  12
ATOM     12  C   UNL d   1      20.549 -18.965  -0.798  0.00  0.00     0.505 C 
ATOM     13  F   UNL d   1      19.224 -18.887  -0.519  0.00  0.00    -0.184 F 
ATOM     14  F   UNL d   1      20.649 -19.548  -2.020  0.00  0.00    -0.184 F 
ENDBRANCH  11  12
ENDBRANCH   9  11
ENDBRANCH   2   5
BRANCH   3  15
ATOM     15  C   UNL d   1      26.288 -14.915  -4.058  0.00  0.00     0.070 A 
ATOM     16  C   UNL d   1      27.457 -15.287  -4.733  0.00  0.00     0.056 A 
ATOM     17  C   UNL d   1      28.041 -14.396  -5.642  0.00  0.00     0.036 A 
ATOM     18 CL   UNL d   1      29.433 -14.870  -6.543  0.00  0.00    -0.084 Cl
ATOM     19  C   UNL d   1      27.499 -13.128  -5.855  0.00  0.00     0.026 A 
ATOM     20  C   UNL d   1      26.369 -12.733  -5.139  0.00  0.00     0.040 A 
ATOM     21  C   UNL d   1      25.782 -13.619  -4.236  0.00  0.00     0.092 A 
BRANCH  21  22
ATOM     22  O   UNL d   1      24.759 -13.184  -3.438  0.00  0.00    -0.358 OA
ATOM     23  H   UNL d   1      25.110 -12.956  -2.565  0.00  0.00     0.217 HD
ENDBRANCH  21  22
ENDBRANCH   3  15
TORSDOF 5
ENDMDL
MODEL 5
REMARK VINA RESULT:    -6.236      4.604      8.350
REMARK INTER + INTRA:          -8.837
REMARK INTER:                  -7.727
REMARK INTRA:                  -1.109
REMARK CONF_INDEPENDENT:        1.492
REMARK UNBOUND:                -1.109
REMARK  5 active torsions:
REMARK  status: ('A' for Active; 'I' for Inactive)
REMARK       I    between atoms: C_2  and  N_3 
REMARK    1  A    between atoms: C_2  and  C_12 
REMARK    2  A    between atoms: N_3  and  C_4 
REMARK    3  A    between atoms: C_10  and  O_11 
REMARK    4  A    between atoms: C_16  and  O_17 
REMARK    5  A    between atoms: O_17  and  C_18 
ROOT
ATOM      1  O   UNL d   1      24.207 -14.466  -3.186  0.00  0.00    -0.267 OA
ATOM      2  C   UNL d   1      25.202 -14.958  -2.651  0.00  0.00     0.256 C 
ATOM      3  N   UNL d   1      26.525 -14.761  -3.039  0.00  0.00    -0.320 N 
ATOM      4  H   UNL d   1      27.192 -15.485  -2.803  0.00  0.00     0.169 HD
ENDROOT
BRANCH   2   5
ATOM      5  C   UNL d   1      24.977 -15.999  -1.613  0.00  0.00     0.035 A 
ATOM      6  C   UNL d   1      26.031 -16.702  -1.030  0.00  0.00     0.017 A 
ATOM      7  C   UNL d   1      25.751 -17.782  -0.190  0.00  0.00     0.004 A 
ATOM      8  C   UNL d   1      24.427 -18.106   0.127  0.00  0.00     0.037 A 
ATOM      9  C   UNL d   1      23.367 -17.370  -0.412  0.00  0.00     0.075 A 
ATOM     10  C   UNL d   1      23.651 -16.306  -1.269  0.00  0.00     0.054 A 
BRANCH   9  11
ATOM     11  O   UNL d   1      22.114 -17.807  -0.075  0.00  0.00    -0.290 OA
BRANCH  11  12
ATOM     12  C   UNL d   1      21.639 -18.951  -0.773  0.00  0.00     0.505 C 
ATOM     13  F   UNL d   1      20.402 -18.698  -1.270  0.00  0.00    -0.184 F 
ATOM     14  F   UNL d   1      22.448 -19.147  -1.844  0.00  0.00    -0.184 F 
ENDBRANCH  11  12
ENDBRANCH   9  11
ENDBRANCH   2   5
BRANCH   3  15
ATOM     15  C   UNL d   1      26.853 -13.889  -4.108  0.00  0.00     0.070 A 
ATOM     16  C   UNL d   1      27.872 -14.243  -5.002  0.00  0.00     0.056 A 
ATOM     17  C   UNL d   1      28.125 -13.430  -6.115  0.00  0.00     0.036 A 
ATOM     18 CL   UNL d   1      29.318 -13.895  -7.270  0.00  0.00    -0.084 Cl
ATOM     19  C   UNL d   1      27.405 -12.254  -6.323  0.00  0.00     0.026 A 
ATOM     20  C   UNL d   1      26.432 -11.868  -5.402  0.00  0.00     0.040 A 
ATOM     21  C   UNL d   1      26.174 -12.676  -4.296  0.00  0.00     0.092 A 
BRANCH  21  22
ATOM     22  O   UNL d   1      25.317 -12.232  -3.325  0.00  0.00    -0.358 OA
ATOM     23  H   UNL d   1      24.405 -12.326  -3.636  0.00  0.00     0.217 HD
ENDBRANCH  21  22
ENDBRANCH   3  15
TORSDOF 5
ENDMDL
MODEL 6
REMARK VINA RESULT:    -6.166      2.276      2.788
REMARK INTER + INTRA:          -8.529
REMARK INTER:                  -7.658
REMARK INTRA:                  -0.871
REMARK CONF_INDEPENDENT:        1.492
REMARK UNBOUND:                -0.871
REMARK  5 active torsions:
REMARK  status: ('A' for Active; 'I' for Inactive)
REMARK       I    between atoms: C_2  and  N_3 
REMARK    1  A    between atoms: C_2  and  C_12 
REMARK    2  A    between atoms: N_3  and  C_4 
REMARK    3  A    between atoms: C_10  and  O_11 
REMARK    4  A    between atoms: C_16  and  O_17 
REMARK    5  A    between atoms: O_17  and  C_18 
ROOT
ATOM      1  O   UNL d   1      23.804 -18.931   0.605  0.00  0.00    -0.267 OA
ATOM      2  C   UNL d   1      23.268 -18.035  -0.049  0.00  0.00     0.256 C 
ATOM      3  N   UNL d   1      21.916 -17.953  -0.376  0.00  0.00    -0.320 N 
ATOM      4  H   UNL d   1      21.669 -17.428  -1.205  0.00  0.00     0.169 HD
ENDROOT
BRANCH   2   5
ATOM      5  C   UNL d   1      24.158 -17.043  -0.707  0.00  0.00     0.035 A 
ATOM      6  C   UNL d   1      23.680 -16.127  -1.645  0.00  0.00     0.017 A 
ATOM      7  C   UNL d   1      24.586 -15.337  -2.354  0.00  0.00     0.004 A 
ATOM      8  C   UNL d   1      25.955 -15.406  -2.072  0.00  0.00     0.037 A 
ATOM      9  C   UNL d   1      26.436 -16.283  -1.095  0.00  0.00     0.075 A 
ATOM     10  C   UNL d   1      25.528 -17.087  -0.405  0.00  0.00     0.054 A 
BRANCH   9  11
ATOM     11  O   UNL d   1      27.796 -16.304  -0.939  0.00  0.00    -0.290 OA
BRANCH  11  12
ATOM     12  C   UNL d   1      28.287 -15.899   0.333  0.00  0.00     0.505 C 
ATOM     13  F   UNL d   1      27.802 -14.669   0.636  0.00  0.00    -0.184 F 
ATOM     14  F   UNL d   1      27.781 -16.749   1.262  0.00  0.00    -0.184 F 
ENDBRANCH  11  12
ENDBRANCH   9  11
ENDBRANCH   2   5
BRANCH   3  15
ATOM     15  C   UNL d   1      20.990 -18.921   0.087  0.00  0.00     0.070 A 
ATOM     16  C   UNL d   1      20.941 -19.236   1.451  0.00  0.00     0.056 A 
ATOM     17  C   UNL d   1      19.958 -20.117   1.920  0.00  0.00     0.036 A 
ATOM     18 CL   UNL d   1      19.832 -20.450   3.607  0.00  0.00    -0.084 Cl
ATOM     19  C   UNL d   1      19.053 -20.716   1.044  0.00  0.00     0.026 A 
ATOM     20  C   UNL d   1      19.138 -20.451  -0.322  0.00  0.00     0.040 A 
ATOM     21  C   UNL d   1      20.112 -19.571  -0.793  0.00  0.00     0.092 A 
BRANCH  21  22
ATOM     22  O   UNL d   1      20.281 -19.417  -2.143  0.00  0.00    -0.358 OA
ATOM     23  H   UNL d   1      19.501 -19.760  -2.604  0.00  0.00     0.217 HD
ENDBRANCH  21  22
ENDBRANCH   3  15
TORSDOF 5
ENDMDL
MODEL 7
REMARK VINA RESULT:    -6.068      3.836      5.757
REMARK INTER + INTRA:          -8.457
REMARK INTER:                  -7.560
REMARK INTRA:                  -0.897
REMARK CONF_INDEPENDENT:        1.492
REMARK UNBOUND:                -0.897
REMARK  5 active torsions:
REMARK  status: ('A' for Active; 'I' for Inactive)
REMARK       I    between atoms: C_2  and  N_3 
REMARK    1  A    between atoms: C_2  and  C_12 
REMARK    2  A    between atoms: N_3  and  C_4 
REMARK    3  A    between atoms: C_10  and  O_11 
REMARK    4  A    between atoms: C_16  and  O_17 
REMARK    5  A    between atoms: O_17  and  C_18 
ROOT
ATOM      1  O   UNL d   1      24.405 -14.763  -3.285  0.00  0.00    -0.267 OA
ATOM      2  C   UNL d   1      25.590 -15.043  -3.468  0.00  0.00     0.256 C 
ATOM      3  N   UNL d   1      26.354 -15.922  -2.702  0.00  0.00    -0.320 N 
ATOM      4  H   UNL d   1      27.355 -15.779  -2.690  0.00  0.00     0.169 HD
ENDROOT
BRANCH   2   5
ATOM      5  C   UNL d   1      26.335 -14.246  -4.478  0.00  0.00     0.035 A 
ATOM      6  C   UNL d   1      27.243 -14.832  -5.360  0.00  0.00     0.017 A 
ATOM      7  C   UNL d   1      28.036 -14.016  -6.168  0.00  0.00     0.004 A 
ATOM      8  C   UNL d   1      27.868 -12.627  -6.150  0.00  0.00     0.037 A 
ATOM      9  C   UNL d   1      26.922 -12.036  -5.307  0.00  0.00     0.075 A 
ATOM     10  C   UNL d   1      26.147 -12.855  -4.485  0.00  0.00     0.054 A 
BRANCH   9  11
ATOM     11  O   UNL d   1      26.878 -10.668  -5.334  0.00  0.00    -0.290 OA
BRANCH  11  12
ATOM     12  C   UNL d   1      25.892 -10.089  -6.180  0.00  0.00     0.505 C 
ATOM     13  F   UNL d   1      25.158 -11.071  -6.759  0.00  0.00    -0.184 F 
ATOM     14  F   UNL d   1      25.038  -9.384  -5.396  0.00  0.00    -0.184 F 
ENDBRANCH  11  12
ENDBRANCH   9  11
ENDBRANCH   2   5
BRANCH   3  15
ATOM     15  C   UNL d   1      25.780 -16.642  -1.623  0.00  0.00     0.070 A 
ATOM     16  C   UNL d   1      24.417 -16.962  -1.651  0.00  0.00     0.056 A 
ATOM     17  C   UNL d   1      23.876 -17.760  -0.635  0.00  0.00     0.036 A 
ATOM     18 CL   UNL d   1      22.219 -18.233  -0.699  0.00  0.00    -0.084 Cl
ATOM     19  C   UNL d   1      24.665 -18.205   0.426  0.00  0.00     0.026 A 
ATOM     20  C   UNL d   1      26.008 -17.837   0.488  0.00  0.00     0.040 A 
ATOM     21  C   UNL d   1      26.552 -17.047  -0.524  0.00  0.00     0.092 A 
BRANCH  21  22
ATOM     22  O   UNL d   1      27.831 -16.575  -0.393  0.00  0.00    -0.358 OA
ATOM     23  H   UNL d   1      28.182 -16.839   0.470  0.00  0.00     0.217 HD
ENDBRANCH  21  22
ENDBRANCH   3  15
TORSDOF 5
ENDMDL
MODEL 8
REMARK VINA RESULT:    -5.293      3.765      5.572
REMARK INTER + INTRA:          -8.049
REMARK INTER:                  -6.785
REMARK INTRA:                  -1.264
REMARK CONF_INDEPENDENT:        1.492
REMARK UNBOUND:                -1.264
REMARK  5 active torsions:
REMARK  status: ('A' for Active; 'I' for Inactive)
REMARK       I    between atoms: C_2  and  N_3 
REMARK    1  A    between atoms: C_2  and  C_12 
REMARK    2  A    between atoms: N_3  and  C_4 
REMARK    3  A    between atoms: C_10  and  O_11 
REMARK    4  A    between atoms: C_16  and  O_17 
REMARK    5  A    between atoms: O_17  and  C_18 
ROOT
ATOM      1  O   UNL d   1      27.123 -16.105  -2.945  0.00  0.00    -0.267 OA
ATOM      2  C   UNL d   1      26.324 -15.173  -2.840  0.00  0.00     0.256 C 
ATOM      3  N   UNL d   1      25.165 -15.168  -2.066  0.00  0.00    -0.320 N 
ATOM      4  H   UNL d   1      24.418 -14.548  -2.350  0.00  0.00     0.169 HD
ENDROOT
BRANCH   2   5
ATOM      5  C   UNL d   1      26.500 -14.013  -3.753  0.00  0.00     0.035 A 
ATOM      6  C   UNL d   1      25.834 -12.805  -3.551  0.00  0.00     0.017 A 
ATOM      7  C   UNL d   1      25.905 -11.812  -4.530  0.00  0.00     0.004 A 
ATOM      8  C   UNL d   1      26.700 -11.997  -5.667  0.00  0.00     0.037 A 
ATOM      9  C   UNL d   1      27.413 -13.185  -5.850  0.00  0.00     0.075 A 
ATOM     10  C   UNL d   1      27.322 -14.183  -4.879  0.00  0.00     0.054 A 
BRANCH   9  11
ATOM     11  O   UNL d   1      28.117 -13.277  -7.020  0.00  0.00    -0.290 OA
BRANCH  11  12
ATOM     12  C   UNL d   1      29.440 -13.789  -6.919  0.00  0.00     0.505 C 
ATOM     13  F   UNL d   1      29.946 -13.498  -5.695  0.00  0.00    -0.184 F 
ATOM     14  F   UNL d   1      29.366 -15.142  -6.990  0.00  0.00    -0.184 F 
ENDBRANCH  11  12
ENDBRANCH   9  11
ENDBRANCH   2   5
BRANCH   3  15
ATOM     15  C   UNL d   1      24.823 -16.279  -1.253  0.00  0.00     0.070 A 
ATOM     16  C   UNL d   1      23.512 -16.772  -1.271  0.00  0.00     0.056 A 
ATOM     17  C   UNL d   1      23.201 -17.930  -0.546  0.00  0.00     0.036 A 
ATOM     18 CL   UNL d   1      21.614 -18.597  -0.624  0.00  0.00    -0.084 Cl
ATOM     19  C   UNL d   1      24.168 -18.575   0.226  0.00  0.00     0.026 A 
ATOM     20  C   UNL d   1      25.458 -18.052   0.293  0.00  0.00     0.040 A 
ATOM     21  C   UNL d   1      25.774 -16.902  -0.430  0.00  0.00     0.092 A 
BRANCH  21  22
ATOM     22  O   UNL d   1      26.997 -16.314  -0.257  0.00  0.00    -0.358 OA
ATOM     23  H   UNL d   1      27.584 -16.580  -0.980  0.00  0.00     0.217 HD
ENDBRANCH  21  22
ENDBRANCH   3  15
TORSDOF 5
ENDMDL
MODEL 9
REMARK VINA RESULT:    -5.189      6.382      8.153
REMARK INTER + INTRA:          -7.966
REMARK INTER:                  -6.681
REMARK INTRA:                  -1.285
REMARK CONF_INDEPENDENT:        1.492
REMARK UNBOUND:                -1.285
REMARK  5 active torsions:
REMARK  status: ('A' for Active; 'I' for Inactive)
REMARK       I    between atoms: C_2  and  N_3 
REMARK    1  A    between atoms: C_2  and  C_12 
REMARK    2  A    between atoms: N_3  and  C_4 
REMARK    3  A    between atoms: C_10  and  O_11 
REMARK    4  A    between atoms: C_16  and  O_17 
REMARK    5  A    between atoms: O_17  and  C_18 
ROOT
ATOM      1  O   UNL d   1      26.646 -13.724   1.283  0.00  0.00    -0.267 OA
ATOM      2  C   UNL d   1      27.455 -14.632   1.480  0.00  0.00     0.256 C 
ATOM      3  N   UNL d   1      27.436 -15.892   0.886  0.00  0.00    -0.320 N 
ATOM      4  H   UNL d   1      27.877 -16.651   1.390  0.00  0.00     0.169 HD
ENDROOT
BRANCH   2   5
ATOM      5  C   UNL d   1      28.437 -14.447   2.580  0.00  0.00     0.035 A 
ATOM      6  C   UNL d   1      29.793 -14.233   2.333  0.00  0.00     0.017 A 
ATOM      7  C   UNL d   1      30.693 -14.237   3.401  0.00  0.00     0.004 A 
ATOM      8  C   UNL d   1      30.229 -14.375   4.714  0.00  0.00     0.037 A 
ATOM      9  C   UNL d   1      28.865 -14.537   4.973  0.00  0.00     0.075 A 
ATOM     10  C   UNL d   1      27.972 -14.554   3.900  0.00  0.00     0.054 A 
BRANCH   9  11
ATOM     11  O   UNL d   1      28.530 -14.714   6.289  0.00  0.00    -0.290 OA
BRANCH  11  12
ATOM     12  C   UNL d   1      29.000 -13.723   7.194  0.00  0.00     0.505 C 
ATOM     13  F   UNL d   1      28.145 -12.670   7.197  0.00  0.00    -0.184 F 
ATOM     14  F   UNL d   1      28.959 -14.252   8.443  0.00  0.00    -0.184 F 
ENDBRANCH  11  12
ENDBRANCH   9  11
ENDBRANCH   2   5
BRANCH   3  15
ATOM     15  C   UNL d   1      26.458 -16.230  -0.085  0.00  0.00     0.070 A 
ATOM     16  C   UNL d   1      25.642 -17.350   0.115  0.00  0.00     0.056 A 
ATOM     17  C   UNL d   1      24.611 -17.623  -0.794  0.00  0.00     0.036 A 
ATOM     18 CL   UNL d   1      23.546 -18.950  -0.518  0.00  0.00    -0.084 Cl
ATOM     19  C   UNL d   1      24.412 -16.817  -1.916  0.00  0.00     0.026 A 
ATOM     20  C   UNL d   1      25.261 -15.736  -2.149  0.00  0.00     0.040 A 
ATOM     21  C   UNL d   1      26.285 -15.459  -1.244  0.00  0.00     0.092 A 
BRANCH  21  22
ATOM     22  O   UNL d   1      27.199 -14.484  -1.543  0.00  0.00    -0.358 OA
ATOM     23  H   UNL d   1      27.368 -13.952  -0.751  0.00  0.00     0.217 HD
ENDBRANCH  21  22
ENDBRANCH   3  15
TORSDOF 5
ENDMDL
