MODEL 1
REMARK VINA RESULT:    -8.277      0.000      0.000
REMARK INTER + INTRA:          -9.781
REMARK INTER:                  -9.172
REMARK INTRA:                  -0.609
REMARK CONF_INDEPENDENT:        0.895
REMARK UNBOUND:                -0.609
REMARK  3 active torsions:
REMARK  status: ('A' for Active; 'I' for Inactive)
REMARK    1  A    between atoms: C_5  and  C_6 
REMARK       I    between atoms: C_6  and  N_8 
REMARK    2  A    between atoms: N_8  and  C_9 
REMARK    3  A    between atoms: C_15  and  O_16 
ROOT
ATOM      1  C   UNL d   1      22.238 -17.871  -0.443  0.00  0.00     0.256 C 
ATOM      2  O   UNL d   1      21.929 -16.759  -0.879  0.00  0.00    -0.267 OA
ATOM      3  N   UNL d   1      23.547 -18.351  -0.380  0.00  0.00    -0.320 N 
ATOM      4  H   UNL d   1      23.711 -19.343  -0.321  0.00  0.00     0.169 HD
ENDROOT
BRANCH   3   5
ATOM      5  C   UNL d   1      24.666 -17.538  -0.696  0.00  0.00     0.070 A 
ATOM      6  C   UNL d   1      24.603 -16.683  -1.804  0.00  0.00     0.056 A 
ATOM      7  C   UNL d   1      25.681 -15.837  -2.087  0.00  0.00     0.036 A 
ATOM      8 CL   UNL d   1      25.593 -14.738  -3.411  0.00  0.00    -0.084 Cl
ATOM      9  C   UNL d   1      26.833 -15.856  -1.300  0.00  0.00     0.026 A 
ATOM     10  C   UNL d   1      26.920 -16.737  -0.224  0.00  0.00     0.040 A 
ATOM     11  C   UNL d   1      25.849 -17.585   0.060  0.00  0.00     0.092 A 
BRANCH  11  12
ATOM     12  O   UNL d   1      26.009 -18.559   1.007  0.00  0.00    -0.358 OA
ATOM     13  H   UNL d   1      26.947 -18.634   1.234  0.00  0.00     0.217 HD
ENDBRANCH  11  12
ENDBRANCH   3   5
BRANCH   1  14
ATOM     14  C   UNL d   1      21.119 -18.796  -0.065  0.00  0.00     0.032 A 
ATOM     15  C   UNL d   1      20.159 -19.260  -0.967  0.00  0.00     0.017 A 
ATOM     16  C   UNL d   1      19.111 -20.075  -0.521  0.00  0.00     0.008 A 
ATOM     17  C   UNL d   1      19.006 -20.459   0.824  0.00  0.00    -0.056 A 
ATOM     18  C   UNL d   1      17.851 -21.321   1.258  0.00  0.00     0.049 C 
ATOM     19  C   UNL d   1      19.985 -20.032   1.738  0.00  0.00    -0.055 A 
ATOM     20  C   UNL d   1      21.024 -19.201   1.282  0.00  0.00     0.024 A 
ATOM     21  C   UNL d   1      19.943 -20.449   3.184  0.00  0.00     0.049 C 
ENDBRANCH   1  14
TORSDOF 3
ENDMDL
MODEL 2
REMARK VINA RESULT:    -7.769      2.818      7.262
REMARK INTER + INTRA:          -9.265
REMARK INTER:                  -8.664
REMARK INTRA:                  -0.600
REMARK CONF_INDEPENDENT:        0.895
REMARK UNBOUND:                -0.600
REMARK  3 active torsions:
REMARK  status: ('A' for Active; 'I' for Inactive)
REMARK    1  A    between atoms: C_5  and  C_6 
REMARK       I    between atoms: C_6  and  N_8 
REMARK    2  A    between atoms: N_8  and  C_9 
REMARK    3  A    between atoms: C_15  and  O_16 
ROOT
ATOM      1  C   UNL d   1      23.262 -18.559  -0.394  0.00  0.00     0.256 C 
ATOM      2  O   UNL d   1      23.625 -19.737  -0.325  0.00  0.00    -0.267 OA
ATOM      3  N   UNL d   1      21.945 -18.135  -0.210  0.00  0.00    -0.320 N 
ATOM      4  H   UNL d   1      21.654 -17.244  -0.580  0.00  0.00     0.169 HD
ENDROOT
BRANCH   3   5
ATOM      5  C   UNL d   1      20.917 -19.018   0.207  0.00  0.00     0.070 A 
ATOM      6  C   UNL d   1      20.785 -19.325   1.567  0.00  0.00     0.056 A 
ATOM      7  C   UNL d   1      19.738 -20.150   1.992  0.00  0.00     0.036 A 
ATOM      8 CL   UNL d   1      19.530 -20.488   3.669  0.00  0.00    -0.084 Cl
ATOM      9  C   UNL d   1      18.840 -20.698   1.075  0.00  0.00     0.026 A 
ATOM     10  C   UNL d   1      18.993 -20.433  -0.284  0.00  0.00     0.040 A 
ATOM     11  C   UNL d   1      20.038 -19.614  -0.712  0.00  0.00     0.092 A 
BRANCH  11  12
ATOM     12  O   UNL d   1      20.281 -19.498  -2.053  0.00  0.00    -0.358 OA
ATOM     13  H   UNL d   1      19.443 -19.543  -2.536  0.00  0.00     0.217 HD
ENDBRANCH  11  12
ENDBRANCH   3   5
BRANCH   1  14
ATOM     14  C   UNL d   1      24.288 -17.548  -0.812  0.00  0.00     0.032 A 
ATOM     15  C   UNL d   1      24.012 -16.463  -1.647  0.00  0.00     0.017 A 
ATOM     16  C   UNL d   1      25.040 -15.596  -2.036  0.00  0.00     0.008 A 
ATOM     17  C   UNL d   1      26.358 -15.779  -1.592  0.00  0.00    -0.056 A 
ATOM     18  C   UNL d   1      27.432 -14.833  -2.053  0.00  0.00     0.049 C 
ATOM     19  C   UNL d   1      26.646 -16.844  -0.719  0.00  0.00    -0.055 A 
ATOM     20  C   UNL d   1      25.608 -17.717  -0.347  0.00  0.00     0.024 A 
ATOM     21  C   UNL d   1      28.034 -17.062  -0.179  0.00  0.00     0.049 C 
ENDBRANCH   1  14
TORSDOF 3
ENDMDL
MODEL 3
REMARK VINA RESULT:    -6.882      3.955      8.558
REMARK INTER + INTRA:          -8.466
REMARK INTER:                  -7.777
REMARK INTRA:                  -0.689
REMARK CONF_INDEPENDENT:        0.895
REMARK UNBOUND:                -0.689
REMARK  3 active torsions:
REMARK  status: ('A' for Active; 'I' for Inactive)
REMARK    1  A    between atoms: C_5  and  C_6 
REMARK       I    between atoms: C_6  and  N_8 
REMARK    2  A    between atoms: N_8  and  C_9 
REMARK    3  A    between atoms: C_15  and  O_16 
ROOT
ATOM      1  C   UNL d   1      25.958 -15.163  -3.320  0.00  0.00     0.256 C 
ATOM      2  O   UNL d   1      24.780 -14.825  -3.174  0.00  0.00    -0.267 OA
ATOM      3  N   UNL d   1      26.626 -16.056  -2.481  0.00  0.00    -0.320 N 
ATOM      4  H   UNL d   1      27.633 -16.052  -2.451  0.00  0.00     0.169 HD
ENDROOT
BRANCH   3   5
ATOM      5  C   UNL d   1      25.961 -16.763  -1.447  0.00  0.00     0.070 A 
ATOM      6  C   UNL d   1      24.565 -16.878  -1.480  0.00  0.00     0.056 A 
ATOM      7  C   UNL d   1      23.908 -17.623  -0.495  0.00  0.00     0.036 A 
ATOM      8 CL   UNL d   1      22.198 -17.821  -0.558  0.00  0.00    -0.084 Cl
ATOM      9  C   UNL d   1      24.621 -18.228   0.541  0.00  0.00     0.026 A 
ATOM     10  C   UNL d   1      26.005 -18.079   0.605  0.00  0.00     0.040 A 
ATOM     11  C   UNL d   1      26.664 -17.334  -0.373  0.00  0.00     0.092 A 
BRANCH  11  12
ATOM     12  O   UNL d   1      27.992 -17.053  -0.208  0.00  0.00    -0.358 OA
ATOM     13  H   UNL d   1      28.372 -17.664   0.439  0.00  0.00     0.217 HD
ENDBRANCH  11  12
ENDBRANCH   3   5
BRANCH   1  14
ATOM     14  C   UNL d   1      26.739 -14.480  -4.404  0.00  0.00     0.032 A 
ATOM     15  C   UNL d   1      26.476 -13.182  -4.847  0.00  0.00     0.017 A 
ATOM     16  C   UNL d   1      27.215 -12.637  -5.905  0.00  0.00     0.008 A 
ATOM     17  C   UNL d   1      28.238 -13.363  -6.532  0.00  0.00    -0.056 A 
ATOM     18  C   UNL d   1      28.990 -12.742  -7.677  0.00  0.00     0.049 C 
ATOM     19  C   UNL d   1      28.540 -14.657  -6.073  0.00  0.00    -0.055 A 
ATOM     20  C   UNL d   1      27.782 -15.200  -5.020  0.00  0.00     0.024 A 
ATOM     21  C   UNL d   1      29.655 -15.465  -6.683  0.00  0.00     0.049 C 
ENDBRANCH   1  14
TORSDOF 3
ENDMDL
MODEL 4
REMARK VINA RESULT:    -6.795      3.966      8.574
REMARK INTER + INTRA:          -8.384
REMARK INTER:                  -7.690
REMARK INTRA:                  -0.694
REMARK CONF_INDEPENDENT:        0.895
REMARK UNBOUND:                -0.694
REMARK  3 active torsions:
REMARK  status: ('A' for Active; 'I' for Inactive)
REMARK    1  A    between atoms: C_5  and  C_6 
REMARK       I    between atoms: C_6  and  N_8 
REMARK    2  A    between atoms: N_8  and  C_9 
REMARK    3  A    between atoms: C_15  and  O_16 
ROOT
ATOM      1  C   UNL d   1      25.933 -15.200  -3.373  0.00  0.00     0.256 C 
ATOM      2  O   UNL d   1      24.770 -14.830  -3.188  0.00  0.00    -0.267 OA
ATOM      3  N   UNL d   1      26.607 -16.103  -2.550  0.00  0.00    -0.320 N 
ATOM      4  H   UNL d   1      27.614 -16.124  -2.555  0.00  0.00     0.169 HD
ENDROOT
BRANCH   3   5
ATOM      5  C   UNL d   1      25.961 -16.784  -1.487  0.00  0.00     0.070 A 
ATOM      6  C   UNL d   1      24.566 -16.913  -1.500  0.00  0.00     0.056 A 
ATOM      7  C   UNL d   1      23.928 -17.634  -0.484  0.00  0.00     0.036 A 
ATOM      8 CL   UNL d   1      22.219 -17.849  -0.520  0.00  0.00    -0.084 Cl
ATOM      9  C   UNL d   1      24.660 -18.200   0.560  0.00  0.00     0.026 A 
ATOM     10  C   UNL d   1      26.043 -18.037   0.603  0.00  0.00     0.040 A 
ATOM     11  C   UNL d   1      26.682 -17.316  -0.405  0.00  0.00     0.092 A 
BRANCH  11  12
ATOM     12  O   UNL d   1      28.010 -17.018  -0.265  0.00  0.00    -0.358 OA
ATOM     13  H   UNL d   1      28.406 -17.614   0.386  0.00  0.00     0.217 HD
ENDBRANCH  11  12
ENDBRANCH   3   5
BRANCH   1  14
ATOM     14  C   UNL d   1      26.692 -14.545  -4.490  0.00  0.00     0.032 A 
ATOM     15  C   UNL d   1      27.713 -15.174  -5.205  0.00  0.00     0.017 A 
ATOM     16  C   UNL d   1      28.412 -14.474  -6.196  0.00  0.00     0.008 A 
ATOM     17  C   UNL d   1      28.100 -13.142  -6.507  0.00  0.00    -0.056 A 
ATOM     18  C   UNL d   1      28.892 -12.425  -7.566  0.00  0.00     0.049 C 
ATOM     19  C   UNL d   1      27.049 -12.506  -5.822  0.00  0.00    -0.055 A 
ATOM     20  C   UNL d   1      26.364 -13.215  -4.818  0.00  0.00     0.024 A 
ATOM     21  C   UNL d   1      26.646 -11.091  -6.144  0.00  0.00     0.049 C 
ENDBRANCH   1  14
TORSDOF 3
ENDMDL
MODEL 5
REMARK VINA RESULT:    -6.480      4.648      7.264
REMARK INTER + INTRA:          -8.532
REMARK INTER:                  -7.375
REMARK INTRA:                  -1.157
REMARK CONF_INDEPENDENT:        0.895
REMARK UNBOUND:                -1.157
REMARK  3 active torsions:
REMARK  status: ('A' for Active; 'I' for Inactive)
REMARK    1  A    between atoms: C_5  and  C_6 
REMARK       I    between atoms: C_6  and  N_8 
REMARK    2  A    between atoms: N_8  and  C_9 
REMARK    3  A    between atoms: C_15  and  O_16 
ROOT
ATOM      1  C   UNL d   1      25.873 -14.331  -3.761  0.00  0.00     0.256 C 
ATOM      2  O   UNL d   1      24.768 -14.121  -4.270  0.00  0.00    -0.267 OA
ATOM      3  N   UNL d   1      27.072 -13.819  -4.256  0.00  0.00    -0.320 N 
ATOM      4  H   UNL d   1      27.942 -14.263  -4.009  0.00  0.00     0.169 HD
ENDROOT
BRANCH   3   5
ATOM      5  C   UNL d   1      27.113 -12.890  -5.327  0.00  0.00     0.070 A 
ATOM      6  C   UNL d   1      28.029 -13.083  -6.370  0.00  0.00     0.056 A 
ATOM      7  C   UNL d   1      28.035 -12.202  -7.457  0.00  0.00     0.036 A 
ATOM      8 CL   UNL d   1      29.116 -12.463  -8.774  0.00  0.00    -0.084 Cl
ATOM      9  C   UNL d   1      27.163 -11.114  -7.503  0.00  0.00     0.026 A 
ATOM     10  C   UNL d   1      26.281 -10.891  -6.448  0.00  0.00     0.040 A 
ATOM     11  C   UNL d   1      26.274 -11.764  -5.360  0.00  0.00     0.092 A 
BRANCH  11  12
ATOM     12  O   UNL d   1      25.530 -11.443  -4.259  0.00  0.00    -0.358 OA
ATOM     13  H   UNL d   1      24.709 -11.955  -4.265  0.00  0.00     0.217 HD
ENDBRANCH  11  12
ENDBRANCH   3   5
BRANCH   1  14
ATOM     14  C   UNL d   1      25.925 -15.289  -2.608  0.00  0.00     0.032 A 
ATOM     15  C   UNL d   1      27.114 -15.742  -2.031  0.00  0.00     0.017 A 
ATOM     16  C   UNL d   1      27.078 -16.681  -0.993  0.00  0.00     0.008 A 
ATOM     17  C   UNL d   1      25.863 -17.177  -0.498  0.00  0.00    -0.056 A 
ATOM     18  C   UNL d   1      25.876 -18.200   0.605  0.00  0.00     0.049 C 
ATOM     19  C   UNL d   1      24.656 -16.703  -1.042  0.00  0.00    -0.055 A 
ATOM     20  C   UNL d   1      24.705 -15.771  -2.094  0.00  0.00     0.024 A 
ATOM     21  C   UNL d   1      23.323 -17.171  -0.521  0.00  0.00     0.049 C 
ENDBRANCH   1  14
TORSDOF 3
ENDMDL
MODEL 6
REMARK VINA RESULT:    -6.436      4.633      7.088
REMARK INTER + INTRA:          -8.034
REMARK INTER:                  -7.331
REMARK INTRA:                  -0.704
REMARK CONF_INDEPENDENT:        0.895
REMARK UNBOUND:                -0.704
REMARK  3 active torsions:
REMARK  status: ('A' for Active; 'I' for Inactive)
REMARK    1  A    between atoms: C_5  and  C_6 
REMARK       I    between atoms: C_6  and  N_8 
REMARK    2  A    between atoms: N_8  and  C_9 
REMARK    3  A    between atoms: C_15  and  O_16 
ROOT
ATOM      1  C   UNL d   1      26.078 -14.779  -3.819  0.00  0.00     0.256 C 
ATOM      2  O   UNL d   1      24.978 -14.448  -4.271  0.00  0.00    -0.267 OA
ATOM      3  N   UNL d   1      27.299 -14.423  -4.394  0.00  0.00    -0.320 N 
ATOM      4  H   UNL d   1      28.123 -14.963  -4.184  0.00  0.00     0.169 HD
ENDROOT
BRANCH   3   5
ATOM      5  C   UNL d   1      27.386 -13.528  -5.491  0.00  0.00     0.070 A 
ATOM      6  C   UNL d   1      26.668 -12.326  -5.455  0.00  0.00     0.056 A 
ATOM      7  C   UNL d   1      26.794 -11.412  -6.508  0.00  0.00     0.036 A 
ATOM      8 CL   UNL d   1      25.963  -9.904  -6.448  0.00  0.00    -0.084 Cl
ATOM      9  C   UNL d   1      27.601 -11.697  -7.610  0.00  0.00     0.026 A 
ATOM     10  C   UNL d   1      28.282 -12.911  -7.672  0.00  0.00     0.040 A 
ATOM     11  C   UNL d   1      28.155 -13.826  -6.627  0.00  0.00     0.092 A 
BRANCH  11  12
ATOM     12  O   UNL d   1      28.688 -15.077  -6.775  0.00  0.00    -0.358 OA
ATOM     13  H   UNL d   1      28.970 -15.200  -7.693  0.00  0.00     0.217 HD
ENDBRANCH  11  12
ENDBRANCH   3   5
BRANCH   1  14
ATOM     14  C   UNL d   1      26.085 -15.712  -2.644  0.00  0.00     0.032 A 
ATOM     15  C   UNL d   1      27.250 -16.150  -2.009  0.00  0.00     0.017 A 
ATOM     16  C   UNL d   1      27.174 -17.067  -0.955  0.00  0.00     0.008 A 
ATOM     17  C   UNL d   1      25.940 -17.556  -0.499  0.00  0.00    -0.056 A 
ATOM     18  C   UNL d   1      25.910 -18.555   0.624  0.00  0.00     0.049 C 
ATOM     19  C   UNL d   1      24.756 -17.096  -1.102  0.00  0.00    -0.055 A 
ATOM     20  C   UNL d   1      24.846 -16.186  -2.171  0.00  0.00     0.024 A 
ATOM     21  C   UNL d   1      23.403 -17.556  -0.626  0.00  0.00     0.049 C 
ENDBRANCH   1  14
TORSDOF 3
ENDMDL
MODEL 7
REMARK VINA RESULT:    -6.385      4.073      8.494
REMARK INTER + INTRA:          -7.873
REMARK INTER:                  -7.280
REMARK INTRA:                  -0.593
REMARK CONF_INDEPENDENT:        0.895
REMARK UNBOUND:                -0.593
REMARK  3 active torsions:
REMARK  status: ('A' for Active; 'I' for Inactive)
REMARK    1  A    between atoms: C_5  and  C_6 
REMARK       I    between atoms: C_6  and  N_8 
REMARK    2  A    between atoms: N_8  and  C_9 
REMARK    3  A    between atoms: C_15  and  O_16 
ROOT
ATOM      1  C   UNL d   1      25.863 -14.972  -3.545  0.00  0.00     0.256 C 
ATOM      2  O   UNL d   1      25.530 -15.951  -4.219  0.00  0.00    -0.267 OA
ATOM      3  N   UNL d   1      25.794 -14.922  -2.152  0.00  0.00    -0.320 N 
ATOM      4  H   UNL d   1      25.771 -14.029  -1.687  0.00  0.00     0.169 HD
ENDROOT
BRANCH   3   5
ATOM      5  C   UNL d   1      25.453 -16.056  -1.371  0.00  0.00     0.070 A 
ATOM      6  C   UNL d   1      24.161 -16.590  -1.462  0.00  0.00     0.056 A 
ATOM      7  C   UNL d   1      23.835 -17.742  -0.737  0.00  0.00     0.036 A 
ATOM      8 CL   UNL d   1      22.267 -18.442  -0.886  0.00  0.00    -0.084 Cl
ATOM      9  C   UNL d   1      24.770 -18.349   0.101  0.00  0.00     0.026 A 
ATOM     10  C   UNL d   1      26.043 -17.796   0.231  0.00  0.00     0.040 A 
ATOM     11  C   UNL d   1      26.370 -16.646  -0.486  0.00  0.00     0.092 A 
BRANCH  11  12
ATOM     12  O   UNL d   1      27.557 -16.018  -0.224  0.00  0.00    -0.358 OA
ATOM     13  H   UNL d   1      28.175 -16.651   0.168  0.00  0.00     0.217 HD
ENDBRANCH  11  12
ENDBRANCH   3   5
BRANCH   1  14
ATOM     14  C   UNL d   1      26.258 -13.730  -4.287  0.00  0.00     0.032 A 
ATOM     15  C   UNL d   1      27.106 -13.727  -5.397  0.00  0.00     0.017 A 
ATOM     16  C   UNL d   1      27.473 -12.517  -5.999  0.00  0.00     0.008 A 
ATOM     17  C   UNL d   1      26.992 -11.289  -5.521  0.00  0.00    -0.056 A 
ATOM     18  C   UNL d   1      27.430 -10.014  -6.188  0.00  0.00     0.049 C 
ATOM     19  C   UNL d   1      26.108 -11.277  -4.428  0.00  0.00    -0.055 A 
ATOM     20  C   UNL d   1      25.759 -12.497  -3.822  0.00  0.00     0.024 A 
ATOM     21  C   UNL d   1      25.530  -9.990  -3.901  0.00  0.00     0.049 C 
ENDBRANCH   1  14
TORSDOF 3
ENDMDL
MODEL 8
REMARK VINA RESULT:    -6.075      4.721      7.161
REMARK INTER + INTRA:          -8.186
REMARK INTER:                  -6.970
REMARK INTRA:                  -1.216
REMARK CONF_INDEPENDENT:        0.895
REMARK UNBOUND:                -1.216
REMARK  3 active torsions:
REMARK  status: ('A' for Active; 'I' for Inactive)
REMARK    1  A    between atoms: C_5  and  C_6 
REMARK       I    between atoms: C_6  and  N_8 
REMARK    2  A    between atoms: N_8  and  C_9 
REMARK    3  A    between atoms: C_15  and  O_16 
ROOT
ATOM      1  C   UNL d   1      25.566 -14.124  -3.568  0.00  0.00     0.256 C 
ATOM      2  O   UNL d   1      24.999 -14.466  -4.610  0.00  0.00    -0.267 OA
ATOM      3  N   UNL d   1      26.228 -12.907  -3.401  0.00  0.00    -0.320 N 
ATOM      4  H   UNL d   1      26.921 -12.813  -2.676  0.00  0.00     0.169 HD
ENDROOT
BRANCH   3   5
ATOM      5  C   UNL d   1      26.195 -11.887  -4.386  0.00  0.00     0.070 A 
ATOM      6  C   UNL d   1      25.530 -10.686  -4.109  0.00  0.00     0.056 A 
ATOM      7  C   UNL d   1      25.543  -9.654  -5.055  0.00  0.00     0.036 A 
ATOM      8 CL   UNL d   1      24.778  -8.150  -4.702  0.00  0.00    -0.084 Cl
ATOM      9  C   UNL d   1      26.182  -9.816  -6.284  0.00  0.00     0.026 A 
ATOM     10  C   UNL d   1      26.807 -11.025  -6.583  0.00  0.00     0.040 A 
ATOM     11  C   UNL d   1      26.793 -12.058  -5.646  0.00  0.00     0.092 A 
BRANCH  11  12
ATOM     12  O   UNL d   1      27.258 -13.291  -6.012  0.00  0.00    -0.358 OA
ATOM     13  H   UNL d   1      26.582 -13.958  -5.823  0.00  0.00     0.217 HD
ENDBRANCH  11  12
ENDBRANCH   3   5
BRANCH   1  14
ATOM     14  C   UNL d   1      25.635 -15.134  -2.460  0.00  0.00     0.032 A 
ATOM     15  C   UNL d   1      26.827 -15.545  -1.860  0.00  0.00     0.017 A 
ATOM     16  C   UNL d   1      26.810 -16.536  -0.870  0.00  0.00     0.008 A 
ATOM     17  C   UNL d   1      25.610 -17.126  -0.447  0.00  0.00    -0.056 A 
ATOM     18  C   UNL d   1      25.645 -18.200   0.605  0.00  0.00     0.049 C 
ATOM     19  C   UNL d   1      24.397 -16.696  -1.015  0.00  0.00    -0.055 A 
ATOM     20  C   UNL d   1      24.428 -15.711  -2.018  0.00  0.00     0.024 A 
ATOM     21  C   UNL d   1      23.077 -17.266  -0.568  0.00  0.00     0.049 C 
ENDBRANCH   1  14
TORSDOF 3
ENDMDL
MODEL 9
REMARK VINA RESULT:    -6.007      5.234     10.005
REMARK INTER + INTRA:          -8.075
REMARK INTER:                  -6.902
REMARK INTRA:                  -1.173
REMARK CONF_INDEPENDENT:        0.895
REMARK UNBOUND:                -1.173
REMARK  3 active torsions:
REMARK  status: ('A' for Active; 'I' for Inactive)
REMARK    1  A    between atoms: C_5  and  C_6 
REMARK       I    between atoms: C_6  and  N_8 
REMARK    2  A    between atoms: N_8  and  C_9 
REMARK    3  A    between atoms: C_15  and  O_16 
ROOT
ATOM      1  C   UNL d   1      27.326 -15.186  -4.952  0.00  0.00     0.256 C 
ATOM      2  O   UNL d   1      26.309 -15.596  -5.519  0.00  0.00    -0.267 OA
ATOM      3  N   UNL d   1      27.472 -15.109  -3.566  0.00  0.00    -0.320 N 
ATOM      4  H   UNL d   1      28.165 -14.492  -3.172  0.00  0.00     0.169 HD
ENDROOT
BRANCH   3   5
ATOM      5  C   UNL d   1      26.499 -15.627  -2.673  0.00  0.00     0.070 A 
ATOM      6  C   UNL d   1      26.877 -16.588  -1.727  0.00  0.00     0.056 A 
ATOM      7  C   UNL d   1      25.935 -17.061  -0.806  0.00  0.00     0.036 A 
ATOM      8 CL   UNL d   1      26.402 -18.199   0.400  0.00  0.00    -0.084 Cl
ATOM      9  C   UNL d   1      24.615 -16.611  -0.837  0.00  0.00     0.026 A 
ATOM     10  C   UNL d   1      24.222 -15.688  -1.804  0.00  0.00     0.040 A 
ATOM     11  C   UNL d   1      25.156 -15.218  -2.727  0.00  0.00     0.092 A 
BRANCH  11  12
ATOM     12  O   UNL d   1      24.725 -14.448  -3.772  0.00  0.00    -0.358 OA
ATOM     13  H   UNL d   1      25.113 -14.778  -4.595  0.00  0.00     0.217 HD
ENDBRANCH  11  12
ENDBRANCH   3   5
BRANCH   1  14
ATOM     14  C   UNL d   1      28.420 -14.635  -5.818  0.00  0.00     0.032 A 
ATOM     15  C   UNL d   1      28.407 -13.346  -6.355  0.00  0.00     0.017 A 
ATOM     16  C   UNL d   1      29.441 -12.927  -7.203  0.00  0.00     0.008 A 
ATOM     17  C   UNL d   1      30.513 -13.774  -7.520  0.00  0.00    -0.056 A 
ATOM     18  C   UNL d   1      31.589 -13.285  -8.451  0.00  0.00     0.049 C 
ATOM     19  C   UNL d   1      30.560 -15.061  -6.957  0.00  0.00    -0.055 A 
ATOM     20  C   UNL d   1      29.509 -15.476  -6.120  0.00  0.00     0.024 A 
ATOM     21  C   UNL d   1      31.709 -15.996  -7.232  0.00  0.00     0.049 C 
ENDBRANCH   1  14
TORSDOF 3
ENDMDL
