MODEL 1
REMARK VINA RESULT:    -9.243      0.000      0.000
REMARK INTER + INTRA:         -10.652
REMARK INTER:                 -10.138
REMARK INTRA:                  -0.513
REMARK CONF_INDEPENDENT:        0.895
REMARK UNBOUND:                -0.513
REMARK  3 active torsions:
REMARK  status: ('A' for Active; 'I' for Inactive)
REMARK       I    between atoms: C_2  and  N_3 
REMARK    1  A    between atoms: C_2  and  C_15 
REMARK    2  A    between atoms: N_3  and  N_4 
REMARK    3  A    between atoms: C_5  and  C_6 
ROOT
ATOM      1  N   UNL d   1      23.609 -18.971  -0.483  0.00  0.00    -0.184 NA
ATOM      2  C   UNL d   1      24.311 -18.184   0.270  0.00  0.00     0.152 C 
ENDROOT
BRANCH   1   3
ATOM      3  N   UNL d   1      22.366 -19.396  -0.026  0.00  0.00    -0.247 N 
ATOM      4  C   UNL d   1      21.255 -18.587  -0.269  0.00  0.00     0.241 C 
ATOM      5  O   UNL d   1      21.315 -17.534  -0.915  0.00  0.00    -0.271 OA
ATOM      6  H   UNL d   1      22.294 -20.266   0.490  0.00  0.00     0.192 HD
BRANCH   4   7
ATOM      7  C   UNL d   1      19.900 -19.068   0.297  0.00  0.00     0.080 C 
ATOM      8  C   UNL d   1      19.272 -20.075  -0.691  0.00  0.00     0.014 C 
ATOM      9  C   UNL d   1      18.026 -20.776  -0.144  0.00  0.00     0.001 C 
ATOM     10  C   UNL d   1      18.303 -21.455   1.191  0.00  0.00     0.000 C 
ATOM     11  C   UNL d   1      18.859 -20.449   2.192  0.00  0.00     0.001 C 
ATOM     12  C   UNL d   1      20.118 -19.756   1.660  0.00  0.00     0.014 C 
ENDBRANCH   4   7
ENDBRANCH   1   3
BRANCH   2  13
ATOM     13  C   UNL d   1      25.633 -17.726  -0.157  0.00  0.00     0.011 A 
ATOM     14  C   UNL d   1      26.821 -18.027   0.492  0.00  0.00     0.102 A 
ATOM     15  N   UNL d   1      27.858 -17.419  -0.173  0.00  0.00    -0.364 N 
ATOM     16  C   UNL d   1      27.373 -16.651  -1.205  0.00  0.00     0.043 A 
ATOM     17  H   UNL d   1      28.836 -17.485   0.077  0.00  0.00     0.165 HD
ATOM     18  C   UNL d   1      28.044 -15.796  -2.095  0.00  0.00     0.030 A 
ATOM     19  C   UNL d   1      25.988 -16.849  -1.238  0.00  0.00     0.004 A 
ATOM     20  C   UNL d   1      27.274 -15.101  -3.031  0.00  0.00     0.002 A 
ATOM     21  C   UNL d   1      25.895 -15.281  -3.094  0.00  0.00     0.001 A 
ATOM     22  C   UNL d   1      25.246 -16.158  -2.216  0.00  0.00     0.014 A 
ENDBRANCH   2  13
TORSDOF 3
ENDMDL
MODEL 2
REMARK VINA RESULT:    -9.125      0.931      1.562
REMARK INTER + INTRA:         -10.460
REMARK INTER:                 -10.020
REMARK INTRA:                  -0.440
REMARK CONF_INDEPENDENT:        0.895
REMARK UNBOUND:                -0.440
REMARK  3 active torsions:
REMARK  status: ('A' for Active; 'I' for Inactive)
REMARK       I    between atoms: C_2  and  N_3 
REMARK    1  A    between atoms: C_2  and  C_15 
REMARK    2  A    between atoms: N_3  and  N_4 
REMARK    3  A    between atoms: C_5  and  C_6 
ROOT
ATOM      1  N   UNL d   1      23.872 -18.262  -0.748  0.00  0.00    -0.184 NA
ATOM      2  C   UNL d   1      25.012 -18.080  -0.159  0.00  0.00     0.152 C 
ENDROOT
BRANCH   1   3
ATOM      3  N   UNL d   1      22.994 -19.204  -0.223  0.00  0.00    -0.247 N 
ATOM      4  C   UNL d   1      21.623 -18.957  -0.311  0.00  0.00     0.241 C 
ATOM      5  O   UNL d   1      21.151 -17.964  -0.877  0.00  0.00    -0.271 OA
ATOM      6  H   UNL d   1      23.362 -20.034   0.230  0.00  0.00     0.192 HD
BRANCH   4   7
ATOM      7  C   UNL d   1      20.680 -20.001   0.328  0.00  0.00     0.080 C 
ATOM      8  C   UNL d   1      20.415 -19.606   1.797  0.00  0.00     0.014 C 
ATOM      9  C   UNL d   1      19.333 -20.450   2.475  0.00  0.00     0.001 C 
ATOM     10  C   UNL d   1      18.030 -20.435   1.685  0.00  0.00     0.000 C 
ATOM     11  C   UNL d   1      18.274 -20.890   0.252  0.00  0.00     0.001 C 
ATOM     12  C   UNL d   1      19.343 -20.038  -0.441  0.00  0.00     0.014 C 
ENDBRANCH   4   7
ENDBRANCH   1   3
BRANCH   2  13
ATOM     13  C   UNL d   1      25.978 -17.116  -0.685  0.00  0.00     0.011 A 
ATOM     14  C   UNL d   1      27.301 -17.023  -0.280  0.00  0.00     0.102 A 
ATOM     15  N   UNL d   1      27.906 -16.000  -0.969  0.00  0.00    -0.364 N 
ATOM     16  C   UNL d   1      26.988 -15.357  -1.767  0.00  0.00     0.043 A 
ATOM     17  H   UNL d   1      28.875 -15.724  -0.881  0.00  0.00     0.165 HD
ATOM     18  C   UNL d   1      27.128 -14.219  -2.577  0.00  0.00     0.030 A 
ATOM     19  C   UNL d   1      25.782 -16.053  -1.632  0.00  0.00     0.004 A 
ATOM     20  C   UNL d   1      25.993 -13.761  -3.252  0.00  0.00     0.002 A 
ATOM     21  C   UNL d   1      24.780 -14.435  -3.145  0.00  0.00     0.001 A 
ATOM     22  C   UNL d   1      24.666 -15.584  -2.353  0.00  0.00     0.014 A 
ENDBRANCH   2  13
TORSDOF 3
ENDMDL
MODEL 3
REMARK VINA RESULT:    -8.754      1.304      2.280
REMARK INTER + INTRA:         -10.079
REMARK INTER:                  -9.649
REMARK INTRA:                  -0.430
REMARK CONF_INDEPENDENT:        0.895
REMARK UNBOUND:                -0.430
REMARK  3 active torsions:
REMARK  status: ('A' for Active; 'I' for Inactive)
REMARK       I    between atoms: C_2  and  N_3 
REMARK    1  A    between atoms: C_2  and  C_15 
REMARK    2  A    between atoms: N_3  and  N_4 
REMARK    3  A    between atoms: C_5  and  C_6 
ROOT
ATOM      1  N   UNL d   1      23.504 -18.611  -1.026  0.00  0.00    -0.184 NA
ATOM      2  C   UNL d   1      23.946 -17.561  -0.408  0.00  0.00     0.152 C 
ENDROOT
BRANCH   1   3
ATOM      3  N   UNL d   1      22.684 -19.495  -0.333  0.00  0.00    -0.247 N 
ATOM      4  C   UNL d   1      21.309 -19.253  -0.316  0.00  0.00     0.241 C 
ATOM      5  O   UNL d   1      20.781 -18.317  -0.929  0.00  0.00    -0.271 OA
ATOM      6  H   UNL d   1      23.097 -20.279   0.161  0.00  0.00     0.192 HD
BRANCH   4   7
ATOM      7  C   UNL d   1      20.435 -20.228   0.505  0.00  0.00     0.080 C 
ATOM      8  C   UNL d   1      20.278 -19.675   1.938  0.00  0.00     0.014 C 
ATOM      9  C   UNL d   1      19.266 -20.447   2.787  0.00  0.00     0.001 C 
ATOM     10  C   UNL d   1      17.906 -20.529   2.105  0.00  0.00     0.000 C 
ATOM     11  C   UNL d   1      18.046 -21.138   0.715  0.00  0.00     0.001 C 
ATOM     12  C   UNL d   1      19.044 -20.359  -0.149  0.00  0.00     0.014 C 
ENDBRANCH   4   7
ENDBRANCH   1   3
BRANCH   2  13
ATOM     13  C   UNL d   1      24.829 -16.612  -1.087  0.00  0.00     0.011 A 
ATOM     14  C   UNL d   1      24.406 -15.649  -1.989  0.00  0.00     0.102 A 
ATOM     15  N   UNL d   1      25.501 -14.951  -2.439  0.00  0.00    -0.364 N 
ATOM     16  C   UNL d   1      26.653 -15.487  -1.914  0.00  0.00     0.043 A 
ATOM     17  H   UNL d   1      25.479 -14.180  -3.094  0.00  0.00     0.165 HD
ATOM     18  C   UNL d   1      27.998 -15.158  -2.152  0.00  0.00     0.030 A 
ATOM     19  C   UNL d   1      26.261 -16.506  -1.041  0.00  0.00     0.004 A 
ATOM     20  C   UNL d   1      28.975 -15.914  -1.496  0.00  0.00     0.002 A 
ATOM     21  C   UNL d   1      28.616 -16.931  -0.615  0.00  0.00     0.001 A 
ATOM     22  C   UNL d   1      27.270 -17.226  -0.370  0.00  0.00     0.014 A 
ENDBRANCH   2  13
TORSDOF 3
ENDMDL
MODEL 4
REMARK VINA RESULT:    -7.864      1.551      8.281
REMARK INTER + INTRA:          -9.186
REMARK INTER:                  -8.759
REMARK INTRA:                  -0.426
REMARK CONF_INDEPENDENT:        0.895
REMARK UNBOUND:                -0.426
REMARK  3 active torsions:
REMARK  status: ('A' for Active; 'I' for Inactive)
REMARK       I    between atoms: C_2  and  N_3 
REMARK    1  A    between atoms: C_2  and  C_15 
REMARK    2  A    between atoms: N_3  and  N_4 
REMARK    3  A    between atoms: C_5  and  C_6 
ROOT
ATOM      1  N   UNL d   1      23.622 -18.871  -0.041  0.00  0.00    -0.184 NA
ATOM      2  C   UNL d   1      22.492 -18.293   0.219  0.00  0.00     0.152 C 
ENDROOT
BRANCH   1   3
ATOM      3  N   UNL d   1      24.800 -18.193   0.254  0.00  0.00    -0.247 N 
ATOM      4  C   UNL d   1      25.217 -17.177  -0.608  0.00  0.00     0.241 C 
ATOM      5  O   UNL d   1      24.562 -16.818  -1.594  0.00  0.00    -0.271 OA
ATOM      6  H   UNL d   1      25.342 -18.462   1.069  0.00  0.00     0.192 HD
BRANCH   4   7
ATOM      7  C   UNL d   1      26.556 -16.481  -0.276  0.00  0.00     0.080 C 
ATOM      8  C   UNL d   1      27.694 -17.522  -0.349  0.00  0.00     0.014 C 
ATOM      9  C   UNL d   1      29.093 -16.911  -0.240  0.00  0.00     0.001 C 
ATOM     10  C   UNL d   1      29.313 -15.820  -1.281  0.00  0.00     0.000 C 
ATOM     11  C   UNL d   1      28.230 -14.754  -1.168  0.00  0.00     0.001 C 
ATOM     12  C   UNL d   1      26.826 -15.355  -1.294  0.00  0.00     0.014 C 
ENDBRANCH   4   7
ENDBRANCH   1   3
BRANCH   2  13
ATOM     13  C   UNL d   1      21.225 -18.956  -0.093  0.00  0.00     0.011 A 
ATOM     14  C   UNL d   1      20.647 -19.000  -1.351  0.00  0.00     0.102 A 
ATOM     15  N   UNL d   1      19.460 -19.687  -1.272  0.00  0.00    -0.364 N 
ATOM     16  C   UNL d   1      19.199 -20.031   0.034  0.00  0.00     0.043 A 
ATOM     17  H   UNL d   1      18.839 -19.882  -2.047  0.00  0.00     0.165 HD
ATOM     18  C   UNL d   1      18.079 -20.662   0.600  0.00  0.00     0.030 A 
ATOM     19  C   UNL d   1      20.301 -19.614   0.788  0.00  0.00     0.004 A 
ATOM     20  C   UNL d   1      18.072 -20.848   1.986  0.00  0.00     0.002 A 
ATOM     21  C   UNL d   1      19.157 -20.451   2.763  0.00  0.00     0.001 A 
ATOM     22  C   UNL d   1      20.276 -19.848   2.177  0.00  0.00     0.014 A 
ENDBRANCH   2  13
TORSDOF 3
ENDMDL
MODEL 5
REMARK VINA RESULT:    -7.159      4.485      9.065
REMARK INTER + INTRA:          -8.497
REMARK INTER:                  -8.054
REMARK INTRA:                  -0.442
REMARK CONF_INDEPENDENT:        0.895
REMARK UNBOUND:                -0.442
REMARK  3 active torsions:
REMARK  status: ('A' for Active; 'I' for Inactive)
REMARK       I    between atoms: C_2  and  N_3 
REMARK    1  A    between atoms: C_2  and  C_15 
REMARK    2  A    between atoms: N_3  and  N_4 
REMARK    3  A    between atoms: C_5  and  C_6 
ROOT
ATOM      1  N   UNL d   1      25.077 -14.599  -3.895  0.00  0.00    -0.184 NA
ATOM      2  C   UNL d   1      25.344 -14.469  -2.633  0.00  0.00     0.152 C 
ENDROOT
BRANCH   1   3
ATOM      3  N   UNL d   1      24.857 -13.454  -4.651  0.00  0.00    -0.247 N 
ATOM      4  C   UNL d   1      25.923 -12.575  -4.854  0.00  0.00     0.241 C 
ATOM      5  O   UNL d   1      27.066 -12.793  -4.434  0.00  0.00    -0.271 OA
ATOM      6  H   UNL d   1      23.930 -13.267  -5.019  0.00  0.00     0.192 HD
BRANCH   4   7
ATOM      7  C   UNL d   1      25.628 -11.288  -5.656  0.00  0.00     0.080 C 
ATOM      8  C   UNL d   1      25.531 -10.098  -4.677  0.00  0.00     0.014 C 
ATOM      9  C   UNL d   1      25.446  -8.737  -5.372  0.00  0.00     0.001 C 
ATOM     10  C   UNL d   1      26.602  -8.526  -6.341  0.00  0.00     0.000 C 
ATOM     11  C   UNL d   1      26.660  -9.664  -7.353  0.00  0.00     0.001 C 
ATOM     12  C   UNL d   1      26.765 -11.030  -6.666  0.00  0.00     0.014 C 
ENDBRANCH   4   7
ENDBRANCH   1   3
BRANCH   2  13
ATOM     13  C   UNL d   1      25.562 -15.645  -1.791  0.00  0.00     0.011 A 
ATOM     14  C   UNL d   1      26.802 -16.202  -1.520  0.00  0.00     0.102 A 
ATOM     15  N   UNL d   1      26.630 -17.300  -0.713  0.00  0.00    -0.364 N 
ATOM     16  C   UNL d   1      25.290 -17.532  -0.507  0.00  0.00     0.043 A 
ATOM     17  H   UNL d   1      27.371 -17.885  -0.349  0.00  0.00     0.165 HD
ATOM     18  C   UNL d   1      24.643 -18.575   0.175  0.00  0.00     0.030 A 
ATOM     19  C   UNL d   1      24.601 -16.494  -1.144  0.00  0.00     0.004 A 
ATOM     20  C   UNL d   1      23.245 -18.573   0.184  0.00  0.00     0.002 A 
ATOM     21  C   UNL d   1      22.530 -17.551  -0.434  0.00  0.00     0.001 A 
ATOM     22  C   UNL d   1      23.193 -16.505  -1.086  0.00  0.00     0.014 A 
ENDBRANCH   2  13
TORSDOF 3
ENDMDL
MODEL 6
REMARK VINA RESULT:    -6.822      4.200      6.431
REMARK INTER + INTRA:          -8.249
REMARK INTER:                  -7.716
REMARK INTRA:                  -0.532
REMARK CONF_INDEPENDENT:        0.895
REMARK UNBOUND:                -0.532
REMARK  3 active torsions:
REMARK  status: ('A' for Active; 'I' for Inactive)
REMARK       I    between atoms: C_2  and  N_3 
REMARK    1  A    between atoms: C_2  and  C_15 
REMARK    2  A    between atoms: N_3  and  N_4 
REMARK    3  A    between atoms: C_5  and  C_6 
ROOT
ATOM      1  N   UNL d   1      25.737 -15.042  -4.428  0.00  0.00    -0.184 NA
ATOM      2  C   UNL d   1      27.018 -15.040  -4.625  0.00  0.00     0.152 C 
ENDROOT
BRANCH   1   3
ATOM      3  N   UNL d   1      25.229 -15.773  -3.360  0.00  0.00    -0.247 N 
ATOM      4  C   UNL d   1      25.377 -15.257  -2.071  0.00  0.00     0.241 C 
ATOM      5  O   UNL d   1      25.894 -14.158  -1.839  0.00  0.00    -0.271 OA
ATOM      6  H   UNL d   1      24.785 -16.668  -3.532  0.00  0.00     0.192 HD
BRANCH   4   7
ATOM      7  C   UNL d   1      24.844 -16.120  -0.905  0.00  0.00     0.080 C 
ATOM      8  C   UNL d   1      23.351 -16.429  -1.151  0.00  0.00     0.014 C 
ATOM      9  C   UNL d   1      22.765 -17.446  -0.169  0.00  0.00     0.001 C 
ATOM     10  C   UNL d   1      23.572 -18.739  -0.150  0.00  0.00     0.000 C 
ATOM     11  C   UNL d   1      25.035 -18.446   0.160  0.00  0.00     0.001 C 
ATOM     12  C   UNL d   1      25.635 -17.442  -0.830  0.00  0.00     0.014 C 
ENDBRANCH   4   7
ENDBRANCH   1   3
BRANCH   2  13
ATOM     13  C   UNL d   1      27.600 -14.304  -5.747  0.00  0.00     0.011 A 
ATOM     14  C   UNL d   1      28.540 -14.819  -6.626  0.00  0.00     0.102 A 
ATOM     15  N   UNL d   1      28.873 -13.849  -7.540  0.00  0.00    -0.364 N 
ATOM     16  C   UNL d   1      28.231 -12.672  -7.237  0.00  0.00     0.043 A 
ATOM     17  H   UNL d   1      29.525 -13.961  -8.306  0.00  0.00     0.165 HD
ATOM     18  C   UNL d   1      28.327 -11.404  -7.835  0.00  0.00     0.030 A 
ATOM     19  C   UNL d   1      27.405 -12.936  -6.139  0.00  0.00     0.004 A 
ATOM     20  C   UNL d   1      27.574 -10.367  -7.277  0.00  0.00     0.002 A 
ATOM     21  C   UNL d   1      26.737 -10.599  -6.189  0.00  0.00     0.001 A 
ATOM     22  C   UNL d   1      26.634 -11.875  -5.623  0.00  0.00     0.014 A 
ENDBRANCH   2  13
TORSDOF 3
ENDMDL
MODEL 7
REMARK VINA RESULT:    -6.774      5.076      8.527
REMARK INTER + INTRA:          -8.044
REMARK INTER:                  -7.669
REMARK INTRA:                  -0.375
REMARK CONF_INDEPENDENT:        0.895
REMARK UNBOUND:                -0.375
REMARK  3 active torsions:
REMARK  status: ('A' for Active; 'I' for Inactive)
REMARK       I    between atoms: C_2  and  N_3 
REMARK    1  A    between atoms: C_2  and  C_15 
REMARK    2  A    between atoms: N_3  and  N_4 
REMARK    3  A    between atoms: C_5  and  C_6 
ROOT
ATOM      1  N   UNL d   1      27.505 -14.930   1.453  0.00  0.00    -0.184 NA
ATOM      2  C   UNL d   1      27.421 -16.137   0.988  0.00  0.00     0.152 C 
ENDROOT
BRANCH   1   3
ATOM      3  N   UNL d   1      28.289 -14.703   2.578  0.00  0.00    -0.247 N 
ATOM      4  C   UNL d   1      27.865 -13.747   3.503  0.00  0.00     0.241 C 
ATOM      5  O   UNL d   1      26.800 -13.128   3.394  0.00  0.00    -0.271 OA
ATOM      6  H   UNL d   1      29.158 -15.214   2.695  0.00  0.00     0.192 HD
BRANCH   4   7
ATOM      7  C   UNL d   1      28.787 -13.486   4.715  0.00  0.00     0.080 C 
ATOM      8  C   UNL d   1      28.276 -12.243   5.476  0.00  0.00     0.014 C 
ATOM      9  C   UNL d   1      28.986 -12.005   6.811  0.00  0.00     0.001 C 
ATOM     10  C   UNL d   1      28.921 -13.234   7.710  0.00  0.00     0.000 C 
ATOM     11  C   UNL d   1      29.488 -14.450   6.987  0.00  0.00     0.001 C 
ATOM     12  C   UNL d   1      28.770 -14.707   5.657  0.00  0.00     0.014 C 
ENDBRANCH   4   7
ENDBRANCH   1   3
BRANCH   2  13
ATOM     13  C   UNL d   1      26.592 -16.430  -0.181  0.00  0.00     0.011 A 
ATOM     14  C   UNL d   1      26.766 -15.864  -1.434  0.00  0.00     0.102 A 
ATOM     15  N   UNL d   1      25.802 -16.354  -2.282  0.00  0.00    -0.364 N 
ATOM     16  C   UNL d   1      24.939 -17.174  -1.594  0.00  0.00     0.043 A 
ATOM     17  H   UNL d   1      25.706 -16.120  -3.262  0.00  0.00     0.165 HD
ATOM     18  C   UNL d   1      23.771 -17.826  -2.022  0.00  0.00     0.030 A 
ATOM     19  C   UNL d   1      25.427 -17.265  -0.286  0.00  0.00     0.004 A 
ATOM     20  C   UNL d   1      23.063 -18.573  -1.075  0.00  0.00     0.002 A 
ATOM     21  C   UNL d   1      23.526 -18.688   0.233  0.00  0.00     0.001 A 
ATOM     22  C   UNL d   1      24.707 -18.054   0.634  0.00  0.00     0.014 A 
ENDBRANCH   2  13
TORSDOF 3
ENDMDL
MODEL 8
REMARK VINA RESULT:    -6.744      3.846      8.936
REMARK INTER + INTRA:          -8.057
REMARK INTER:                  -7.638
REMARK INTRA:                  -0.419
REMARK CONF_INDEPENDENT:        0.895
REMARK UNBOUND:                -0.419
REMARK  3 active torsions:
REMARK  status: ('A' for Active; 'I' for Inactive)
REMARK       I    between atoms: C_2  and  N_3 
REMARK    1  A    between atoms: C_2  and  C_15 
REMARK    2  A    between atoms: N_3  and  N_4 
REMARK    3  A    between atoms: C_5  and  C_6 
ROOT
ATOM      1  N   UNL d   1      25.914 -15.002  -3.083  0.00  0.00    -0.184 NA
ATOM      2  C   UNL d   1      26.409 -15.267  -1.915  0.00  0.00     0.152 C 
ENDROOT
BRANCH   1   3
ATOM      3  N   UNL d   1      26.387 -13.890  -3.770  0.00  0.00    -0.247 N 
ATOM      4  C   UNL d   1      27.054 -14.091  -4.981  0.00  0.00     0.241 C 
ATOM      5  O   UNL d   1      27.199 -15.206  -5.494  0.00  0.00    -0.271 OA
ATOM      6  H   UNL d   1      26.262 -12.965  -3.374  0.00  0.00     0.192 HD
BRANCH   4   7
ATOM      7  C   UNL d   1      27.610 -12.836  -5.691  0.00  0.00     0.080 C 
ATOM      8  C   UNL d   1      28.167 -13.248  -7.072  0.00  0.00     0.014 C 
ATOM      9  C   UNL d   1      28.559 -12.060  -7.954  0.00  0.00     0.001 C 
ATOM     10  C   UNL d   1      27.405 -11.080  -8.125  0.00  0.00     0.000 C 
ATOM     11  C   UNL d   1      26.896 -10.619  -6.765  0.00  0.00     0.001 C 
ATOM     12  C   UNL d   1      26.483 -11.801  -5.881  0.00  0.00     0.014 C 
ENDBRANCH   4   7
ENDBRANCH   1   3
BRANCH   2  13
ATOM     13  C   UNL d   1      25.929 -16.414  -1.143  0.00  0.00     0.011 A 
ATOM     14  C   UNL d   1      26.746 -17.374  -0.566  0.00  0.00     0.102 A 
ATOM     15  N   UNL d   1      25.958 -18.307   0.064  0.00  0.00    -0.364 N 
ATOM     16  C   UNL d   1      24.629 -18.029  -0.153  0.00  0.00     0.043 A 
ATOM     17  H   UNL d   1      26.295 -19.109   0.581  0.00  0.00     0.165 HD
ATOM     18  C   UNL d   1      23.479 -18.742   0.223  0.00  0.00     0.030 A 
ATOM     19  C   UNL d   1      24.581 -16.834  -0.878  0.00  0.00     0.004 A 
ATOM     20  C   UNL d   1      22.241 -18.233  -0.179  0.00  0.00     0.002 A 
ATOM     21  C   UNL d   1      22.159 -17.041  -0.896  0.00  0.00     0.001 A 
ATOM     22  C   UNL d   1      23.315 -16.330  -1.238  0.00  0.00     0.014 A 
ENDBRANCH   2  13
TORSDOF 3
ENDMDL
MODEL 9
REMARK VINA RESULT:    -6.500      4.315      6.503
REMARK INTER + INTRA:          -7.879
REMARK INTER:                  -7.395
REMARK INTRA:                  -0.484
REMARK CONF_INDEPENDENT:        0.895
REMARK UNBOUND:                -0.484
REMARK  3 active torsions:
REMARK  status: ('A' for Active; 'I' for Inactive)
REMARK       I    between atoms: C_2  and  N_3 
REMARK    1  A    between atoms: C_2  and  C_15 
REMARK    2  A    between atoms: N_3  and  N_4 
REMARK    3  A    between atoms: C_5  and  C_6 
ROOT
ATOM      1  N   UNL d   1      25.115 -14.173  -4.039  0.00  0.00    -0.184 NA
ATOM      2  C   UNL d   1      25.668 -13.017  -3.845  0.00  0.00     0.152 C 
ENDROOT
BRANCH   1   3
ATOM      3  N   UNL d   1      24.564 -14.838  -2.949  0.00  0.00    -0.247 N 
ATOM      4  C   UNL d   1      25.424 -15.486  -2.061  0.00  0.00     0.241 C 
ATOM      5  O   UNL d   1      26.655 -15.455  -2.169  0.00  0.00    -0.271 OA
ATOM      6  H   UNL d   1      23.557 -14.860  -2.833  0.00  0.00     0.192 HD
BRANCH   4   7
ATOM      7  C   UNL d   1      24.772 -16.257  -0.890  0.00  0.00     0.080 C 
ATOM      8  C   UNL d   1      23.254 -16.369  -1.147  0.00  0.00     0.014 C 
ATOM      9  C   UNL d   1      22.530 -17.288  -0.160  0.00  0.00     0.001 C 
ATOM     10  C   UNL d   1      23.159 -18.676  -0.119  0.00  0.00     0.000 C 
ATOM     11  C   UNL d   1      24.645 -18.575   0.202  0.00  0.00     0.001 C 
ATOM     12  C   UNL d   1      25.381 -17.671  -0.793  0.00  0.00     0.014 C 
ENDBRANCH   4   7
ENDBRANCH   1   3
BRANCH   2  13
ATOM     13  C   UNL d   1      26.281 -12.288  -4.956  0.00  0.00     0.011 A 
ATOM     14  C   UNL d   1      25.904 -11.020  -5.370  0.00  0.00     0.102 A 
ATOM     15  N   UNL d   1      26.678 -10.655  -6.445  0.00  0.00    -0.364 N 
ATOM     16  C   UNL d   1      27.509 -11.691  -6.804  0.00  0.00     0.043 A 
ATOM     17  H   UNL d   1      26.626  -9.771  -6.935  0.00  0.00     0.165 HD
ATOM     18  C   UNL d   1      28.406 -11.804  -7.879  0.00  0.00     0.030 A 
ATOM     19  C   UNL d   1      27.303 -12.712  -5.871  0.00  0.00     0.004 A 
ATOM     20  C   UNL d   1      29.097 -13.011  -8.021  0.00  0.00     0.002 A 
ATOM     21  C   UNL d   1      28.920 -14.045  -7.105  0.00  0.00     0.001 A 
ATOM     22  C   UNL d   1      28.041 -13.903  -6.024  0.00  0.00     0.014 A 
ENDBRANCH   2  13
TORSDOF 3
ENDMDL
