MODEL 1
REMARK VINA RESULT:    -8.770      0.000      0.000
REMARK INTER + INTRA:         -14.328
REMARK INTER:                 -11.753
REMARK INTRA:                  -2.574
REMARK CONF_INDEPENDENT:        2.983
REMARK UNBOUND:                -2.574
REMARK  10 active torsions:
REMARK  status: ('A' for Active; 'I' for Inactive)
REMARK    1  A    between atoms: C_2  and  N_3 
REMARK    2  A    between atoms: C_4  and  C_5 
REMARK    3  A    between atoms: C_5  and  N_6 
REMARK    4  A    between atoms: N_6  and  C_7 
REMARK    5  A    between atoms: C_16  and  S_17 
REMARK    6  A    between atoms: S_17  and  C_18 
REMARK    7  A    between atoms: C_18  and  C_19 
REMARK       I    between atoms: C_19  and  N_21 
REMARK    8  A    between atoms: N_21  and  N_22 
REMARK       I    between atoms: N_22  and  C_23 
REMARK    9  A    between atoms: C_23  and  C_25 
REMARK   10  A    between atoms: C_25  and  C_26 
ROOT
ATOM      1  N   UNL d   1      25.268 -16.755  -1.072  0.00  0.00    -0.310 N 
ATOM      2  C   UNL d   1      24.450 -17.818  -0.682  0.00  0.00     0.148 A 
ATOM      3  N   UNL d   1      25.156 -18.573   0.142  0.00  0.00    -0.132 NA
ATOM      4  N   UNL d   1      26.404 -18.025   0.294  0.00  0.00    -0.123 NA
ATOM      5  C   UNL d   1      26.482 -16.932  -0.436  0.00  0.00     0.192 A 
ENDROOT
BRANCH   5   6
ATOM      6  S   UNL d   1      27.939 -15.958  -0.461  0.00  0.00    -0.081 SA
BRANCH   6   7
ATOM      7  C   UNL d   1      29.451 -16.929  -0.208  0.00  0.00     0.186 C 
BRANCH   7   8
ATOM      8  C   UNL d   1      30.297 -17.097  -1.470  0.00  0.00     0.245 C 
ATOM      9  O   UNL d   1      31.431 -17.583  -1.505  0.00  0.00    -0.271 OA
ATOM     10  N   UNL d   1      29.678 -16.670  -2.635  0.00  0.00    -0.267 N 
ATOM     11  H   UNL d   1      28.748 -16.247  -2.700  0.00  0.00     0.190 HD
BRANCH  10  12
ATOM     12  N   UNL d   1      30.349 -16.833  -3.882  0.00  0.00    -0.267 N 
ATOM     13  C   UNL d   1      29.655 -16.437  -5.006  0.00  0.00     0.240 C 
ATOM     14  O   UNL d   1      28.534 -15.950  -4.819  0.00  0.00    -0.272 OA
ATOM     15  H   UNL d   1      31.319 -17.141  -3.848  0.00  0.00     0.190 HD
BRANCH  13  16
ATOM     16  C   UNL d   1      30.349 -16.613  -6.381  0.00  0.00     0.143 C 
BRANCH  16  17
ATOM     17  C   UNL d   1      30.718 -18.041  -6.805  0.00  0.00    -0.049 A 
ATOM     18  C   UNL d   1      31.261 -18.311  -8.078  0.00  0.00     0.007 A 
ATOM     19  C   UNL d   1      31.574 -19.630  -8.463  0.00  0.00     0.001 A 
ATOM     20  C   UNL d   1      31.349 -20.698  -7.597  0.00  0.00     0.000 A 
ATOM     21  C   UNL d   1      30.821 -20.451  -6.345  0.00  0.00     0.001 A 
ATOM     22  C   UNL d   1      30.516 -19.147  -5.967  0.00  0.00     0.007 A 
ENDBRANCH  16  17
ENDBRANCH  13  16
ENDBRANCH  10  12
ENDBRANCH   7   8
ENDBRANCH   6   7
ENDBRANCH   5   6
BRANCH   1  23
ATOM     23  C   UNL d   1      24.948 -15.652  -1.937  0.00  0.00     0.128 C 
ATOM     24  C   UNL d   1      25.715 -15.692  -3.247  0.00  0.00     0.027 C 
ENDBRANCH   1  23
BRANCH   2  25
ATOM     25  C   UNL d   1      23.004 -18.151  -1.059  0.00  0.00     0.200 C 
BRANCH  25  26
ATOM     26  N   UNL d   1      22.003 -18.123  -0.011  0.00  0.00    -0.383 N 
ATOM     27  H   UNL d   1      22.206 -17.614   0.822  0.00  0.00     0.160 HD
BRANCH  26  28
ATOM     28  C   UNL d   1      20.923 -18.950   0.185  0.00  0.00     0.028 A 
ATOM     29  C   UNL d   1      20.103 -19.447  -0.819  0.00  0.00     0.029 A 
ATOM     30  C   UNL d   1      19.050 -20.322  -0.509  0.00  0.00     0.009 A 
ATOM     31  C   UNL d   1      18.783 -20.689   0.816  0.00  0.00    -0.062 A 
ATOM     32  C   UNL d   1      17.639 -21.598   1.155  0.00  0.00     0.048 C 
ATOM     33  C   UNL d   1      19.594 -20.181   1.829  0.00  0.00     0.009 A 
ATOM     34  C   UNL d   1      20.655 -19.333   1.509  0.00  0.00     0.029 A 
ENDBRANCH  26  28
ENDBRANCH  25  26
ENDBRANCH   2  25
TORSDOF 10
ENDMDL
MODEL 2
REMARK VINA RESULT:    -8.560      2.688      9.910
REMARK INTER + INTRA:         -14.655
REMARK INTER:                 -11.543
REMARK INTRA:                  -3.112
REMARK CONF_INDEPENDENT:        2.983
REMARK UNBOUND:                -3.112
REMARK  10 active torsions:
REMARK  status: ('A' for Active; 'I' for Inactive)
REMARK    1  A    between atoms: C_2  and  N_3 
REMARK    2  A    between atoms: C_4  and  C_5 
REMARK    3  A    between atoms: C_5  and  N_6 
REMARK    4  A    between atoms: N_6  and  C_7 
REMARK    5  A    between atoms: C_16  and  S_17 
REMARK    6  A    between atoms: S_17  and  C_18 
REMARK    7  A    between atoms: C_18  and  C_19 
REMARK       I    between atoms: C_19  and  N_21 
REMARK    8  A    between atoms: N_21  and  N_22 
REMARK       I    between atoms: N_22  and  C_23 
REMARK    9  A    between atoms: C_23  and  C_25 
REMARK   10  A    between atoms: C_25  and  C_26 
ROOT
ATOM      1  N   UNL d   1      26.557 -13.755  -2.446  0.00  0.00    -0.310 N 
ATOM      2  C   UNL d   1      25.907 -13.905  -3.673  0.00  0.00     0.148 A 
ATOM      3  N   UNL d   1      24.981 -14.836  -3.515  0.00  0.00    -0.132 NA
ATOM      4  N   UNL d   1      25.019 -15.289  -2.221  0.00  0.00    -0.123 NA
ATOM      5  C   UNL d   1      25.967 -14.646  -1.571  0.00  0.00     0.192 A 
ENDROOT
BRANCH   5   6
ATOM      6  S   UNL d   1      26.278 -14.960   0.124  0.00  0.00    -0.081 SA
BRANCH   6   7
ATOM      7  C   UNL d   1      26.946 -16.618   0.433  0.00  0.00     0.186 C 
BRANCH   7   8
ATOM      8  C   UNL d   1      26.033 -17.751  -0.035  0.00  0.00     0.245 C 
ATOM      9  O   UNL d   1      26.342 -18.946  -0.064  0.00  0.00    -0.271 OA
ATOM     10  N   UNL d   1      24.768 -17.342  -0.425  0.00  0.00    -0.267 N 
ATOM     11  H   UNL d   1      24.429 -16.376  -0.443  0.00  0.00     0.190 HD
BRANCH  10  12
ATOM     12  N   UNL d   1      23.810 -18.318  -0.823  0.00  0.00    -0.267 N 
ATOM     13  C   UNL d   1      22.494 -17.906  -0.858  0.00  0.00     0.240 C 
ATOM     14  O   UNL d   1      22.279 -16.723  -0.572  0.00  0.00    -0.272 OA
ATOM     15  H   UNL d   1      24.170 -19.216  -1.141  0.00  0.00     0.190 HD
BRANCH  13  16
ATOM     16  C   UNL d   1      21.423 -18.948  -1.275  0.00  0.00     0.143 C 
BRANCH  16  17
ATOM     17  C   UNL d   1      20.469 -19.452  -0.183  0.00  0.00    -0.049 A 
ATOM     18  C   UNL d   1      20.787 -19.324   1.184  0.00  0.00     0.007 A 
ATOM     19  C   UNL d   1      19.913 -19.811   2.176  0.00  0.00     0.001 A 
ATOM     20  C   UNL d   1      18.716 -20.435   1.827  0.00  0.00     0.000 A 
ATOM     21  C   UNL d   1      18.388 -20.565   0.492  0.00  0.00     0.001 A 
ATOM     22  C   UNL d   1      19.252 -20.080  -0.484  0.00  0.00     0.007 A 
ENDBRANCH  16  17
ENDBRANCH  13  16
ENDBRANCH  10  12
ENDBRANCH   7   8
ENDBRANCH   6   7
ENDBRANCH   5   6
BRANCH   1  23
ATOM     23  C   UNL d   1      27.617 -12.847  -2.103  0.00  0.00     0.128 C 
ATOM     24  C   UNL d   1      27.551 -12.389  -0.656  0.00  0.00     0.027 C 
ENDBRANCH   1  23
BRANCH   2  25
ATOM     25  C   UNL d   1      26.123 -13.188  -5.009  0.00  0.00     0.200 C 
BRANCH  25  26
ATOM     26  N   UNL d   1      27.480 -13.066  -5.505  0.00  0.00    -0.383 N 
ATOM     27  H   UNL d   1      27.746 -12.211  -5.944  0.00  0.00     0.160 HD
BRANCH  26  28
ATOM     28  C   UNL d   1      28.401 -14.050  -5.774  0.00  0.00     0.028 A 
ATOM     29  C   UNL d   1      29.391 -13.975  -6.745  0.00  0.00     0.029 A 
ATOM     30  C   UNL d   1      30.309 -15.025  -6.905  0.00  0.00     0.009 A 
ATOM     31  C   UNL d   1      30.232 -16.178  -6.114  0.00  0.00    -0.062 A 
ATOM     32  C   UNL d   1      31.191 -17.315  -6.303  0.00  0.00     0.048 C 
ATOM     33  C   UNL d   1      29.231 -16.263  -5.147  0.00  0.00     0.009 A 
ATOM     34  C   UNL d   1      28.340 -15.204  -4.977  0.00  0.00     0.029 A 
ENDBRANCH  26  28
ENDBRANCH  25  26
ENDBRANCH   2  25
TORSDOF 10
ENDMDL
MODEL 3
REMARK VINA RESULT:    -8.528      2.929      4.622
REMARK INTER + INTRA:         -15.262
REMARK INTER:                 -11.511
REMARK INTRA:                  -3.751
REMARK CONF_INDEPENDENT:        2.983
REMARK UNBOUND:                -3.751
REMARK  10 active torsions:
REMARK  status: ('A' for Active; 'I' for Inactive)
REMARK    1  A    between atoms: C_2  and  N_3 
REMARK    2  A    between atoms: C_4  and  C_5 
REMARK    3  A    between atoms: C_5  and  N_6 
REMARK    4  A    between atoms: N_6  and  C_7 
REMARK    5  A    between atoms: C_16  and  S_17 
REMARK    6  A    between atoms: S_17  and  C_18 
REMARK    7  A    between atoms: C_18  and  C_19 
REMARK       I    between atoms: C_19  and  N_21 
REMARK    8  A    between atoms: N_21  and  N_22 
REMARK       I    between atoms: N_22  and  C_23 
REMARK    9  A    between atoms: C_23  and  C_25 
REMARK   10  A    between atoms: C_25  and  C_26 
ROOT
ATOM      1  N   UNL d   1      26.357 -13.780  -2.695  0.00  0.00    -0.310 N 
ATOM      2  C   UNL d   1      26.185 -15.162  -2.799  0.00  0.00     0.148 A 
ATOM      3  N   UNL d   1      25.461 -15.386  -3.883  0.00  0.00    -0.132 NA
ATOM      4  N   UNL d   1      25.163 -14.186  -4.478  0.00  0.00    -0.123 NA
ATOM      5  C   UNL d   1      25.696 -13.214  -3.767  0.00  0.00     0.192 A 
ENDROOT
BRANCH   5   6
ATOM      6  S   UNL d   1      25.532 -11.539  -4.255  0.00  0.00    -0.081 SA
BRANCH   6   7
ATOM      7  C   UNL d   1      25.801 -11.282  -6.030  0.00  0.00     0.186 C 
BRANCH   7   8
ATOM      8  C   UNL d   1      27.153 -11.789  -6.532  0.00  0.00     0.245 C 
ATOM      9  O   UNL d   1      27.964 -11.123  -7.181  0.00  0.00    -0.271 OA
ATOM     10  N   UNL d   1      27.437 -13.100  -6.182  0.00  0.00    -0.267 N 
ATOM     11  H   UNL d   1      26.822 -13.728  -5.657  0.00  0.00     0.190 HD
BRANCH  10  12
ATOM     12  N   UNL d   1      28.696 -13.661  -6.544  0.00  0.00    -0.267 N 
ATOM     13  C   UNL d   1      28.886 -14.991  -6.228  0.00  0.00     0.240 C 
ATOM     14  O   UNL d   1      27.936 -15.571  -5.692  0.00  0.00    -0.272 OA
ATOM     15  H   UNL d   1      29.325 -13.074  -7.088  0.00  0.00     0.190 HD
BRANCH  13  16
ATOM     16  C   UNL d   1      30.250 -15.630  -6.595  0.00  0.00     0.143 C 
BRANCH  16  17
ATOM     17  C   UNL d   1      30.440 -17.118  -6.271  0.00  0.00    -0.049 A 
ATOM     18  C   UNL d   1      30.784 -18.049  -7.273  0.00  0.00     0.007 A 
ATOM     19  C   UNL d   1      30.933 -19.416  -6.967  0.00  0.00     0.001 A 
ATOM     20  C   UNL d   1      30.739 -19.880  -5.667  0.00  0.00     0.000 A 
ATOM     21  C   UNL d   1      30.405 -18.981  -4.673  0.00  0.00     0.001 A 
ATOM     22  C   UNL d   1      30.262 -17.632  -4.979  0.00  0.00     0.007 A 
ENDBRANCH  16  17
ENDBRANCH  13  16
ENDBRANCH  10  12
ENDBRANCH   7   8
ENDBRANCH   6   7
ENDBRANCH   5   6
BRANCH   1  23
ATOM     23  C   UNL d   1      27.093 -13.045  -1.703  0.00  0.00     0.128 C 
ATOM     24  C   UNL d   1      26.731 -13.448  -0.284  0.00  0.00     0.027 C 
ENDBRANCH   1  23
BRANCH   2  25
ATOM     25  C   UNL d   1      26.690 -16.299  -1.906  0.00  0.00     0.200 C 
BRANCH  25  26
ATOM     26  N   UNL d   1      25.885 -16.676  -0.762  0.00  0.00    -0.383 N 
ATOM     27  H   UNL d   1      26.325 -16.722   0.131  0.00  0.00     0.160 HD
BRANCH  26  28
ATOM     28  C   UNL d   1      24.663 -17.307  -0.725  0.00  0.00     0.028 A 
ATOM     29  C   UNL d   1      24.471 -18.666  -0.518  0.00  0.00     0.029 A 
ATOM     30  C   UNL d   1      23.173 -19.199  -0.456  0.00  0.00     0.009 A 
ATOM     31  C   UNL d   1      22.049 -18.383  -0.632  0.00  0.00    -0.062 A 
ATOM     32  C   UNL d   1      20.662 -18.952  -0.599  0.00  0.00     0.048 C 
ATOM     33  C   UNL d   1      22.238 -17.019  -0.855  0.00  0.00     0.009 A 
ATOM     34  C   UNL d   1      23.530 -16.494  -0.887  0.00  0.00     0.029 A 
ENDBRANCH  26  28
ENDBRANCH  25  26
ENDBRANCH   2  25
TORSDOF 10
ENDMDL
MODEL 4
REMARK VINA RESULT:    -8.495      2.612      4.178
REMARK INTER + INTRA:         -14.180
REMARK INTER:                 -11.478
REMARK INTRA:                  -2.702
REMARK CONF_INDEPENDENT:        2.983
REMARK UNBOUND:                -2.702
REMARK  10 active torsions:
REMARK  status: ('A' for Active; 'I' for Inactive)
REMARK    1  A    between atoms: C_2  and  N_3 
REMARK    2  A    between atoms: C_4  and  C_5 
REMARK    3  A    between atoms: C_5  and  N_6 
REMARK    4  A    between atoms: N_6  and  C_7 
REMARK    5  A    between atoms: C_16  and  S_17 
REMARK    6  A    between atoms: S_17  and  C_18 
REMARK    7  A    between atoms: C_18  and  C_19 
REMARK       I    between atoms: C_19  and  N_21 
REMARK    8  A    between atoms: N_21  and  N_22 
REMARK       I    between atoms: N_22  and  C_23 
REMARK    9  A    between atoms: C_23  and  C_25 
REMARK   10  A    between atoms: C_25  and  C_26 
ROOT
ATOM      1  N   UNL d   1      26.770 -14.427  -3.021  0.00  0.00    -0.310 N 
ATOM      2  C   UNL d   1      26.090 -15.470  -2.389  0.00  0.00     0.148 A 
ATOM      3  N   UNL d   1      24.876 -15.520  -2.911  0.00  0.00    -0.132 NA
ATOM      4  N   UNL d   1      24.757 -14.538  -3.861  0.00  0.00    -0.123 NA
ATOM      5  C   UNL d   1      25.891 -13.873  -3.932  0.00  0.00     0.192 A 
ENDROOT
BRANCH   5   6
ATOM      6  S   UNL d   1      26.102 -12.555  -5.068  0.00  0.00    -0.081 SA
BRANCH   6   7
ATOM      7  C   UNL d   1      27.637 -12.677  -6.027  0.00  0.00     0.186 C 
BRANCH   7   8
ATOM      8  C   UNL d   1      28.119 -14.112  -6.244  0.00  0.00     0.245 C 
ATOM      9  O   UNL d   1      27.413 -15.119  -6.155  0.00  0.00    -0.271 OA
ATOM     10  N   UNL d   1      29.459 -14.219  -6.584  0.00  0.00    -0.267 N 
ATOM     11  H   UNL d   1      30.121 -13.443  -6.670  0.00  0.00     0.190 HD
BRANCH  10  12
ATOM     12  N   UNL d   1      30.006 -15.504  -6.869  0.00  0.00    -0.267 N 
ATOM     13  C   UNL d   1      31.284 -15.523  -7.388  0.00  0.00     0.240 C 
ATOM     14  O   UNL d   1      31.840 -14.428  -7.525  0.00  0.00    -0.272 OA
ATOM     15  H   UNL d   1      29.457 -16.313  -6.586  0.00  0.00     0.190 HD
BRANCH  13  16
ATOM     16  C   UNL d   1      31.904 -16.905  -7.723  0.00  0.00     0.143 C 
BRANCH  16  17
ATOM     17  C   UNL d   1      31.361 -18.123  -6.965  0.00  0.00    -0.049 A 
ATOM     18  C   UNL d   1      30.953 -18.027  -5.619  0.00  0.00     0.007 A 
ATOM     19  C   UNL d   1      30.477 -19.158  -4.928  0.00  0.00     0.001 A 
ATOM     20  C   UNL d   1      30.404 -20.400  -5.557  0.00  0.00     0.000 A 
ATOM     21  C   UNL d   1      30.798 -20.511  -6.876  0.00  0.00     0.001 A 
ATOM     22  C   UNL d   1      31.263 -19.391  -7.557  0.00  0.00     0.007 A 
ENDBRANCH  16  17
ENDBRANCH  13  16
ENDBRANCH  10  12
ENDBRANCH   7   8
ENDBRANCH   6   7
ENDBRANCH   5   6
BRANCH   1  23
ATOM     23  C   UNL d   1      28.126 -13.995  -2.822  0.00  0.00     0.128 C 
ATOM     24  C   UNL d   1      29.131 -15.123  -2.982  0.00  0.00     0.027 C 
ENDBRANCH   1  23
BRANCH   2  25
ATOM     25  C   UNL d   1      26.549 -16.442  -1.298  0.00  0.00     0.200 C 
BRANCH  25  26
ATOM     26  N   UNL d   1      25.588 -16.838  -0.288  0.00  0.00    -0.383 N 
ATOM     27  H   UNL d   1      25.897 -16.904   0.657  0.00  0.00     0.160 HD
BRANCH  26  28
ATOM     28  C   UNL d   1      24.372 -17.461  -0.439  0.00  0.00     0.028 A 
ATOM     29  C   UNL d   1      24.149 -18.824  -0.302  0.00  0.00     0.029 A 
ATOM     30  C   UNL d   1      22.854 -19.350  -0.435  0.00  0.00     0.009 A 
ATOM     31  C   UNL d   1      21.767 -18.521  -0.739  0.00  0.00    -0.062 A 
ATOM     32  C   UNL d   1      20.387 -19.082  -0.915  0.00  0.00     0.048 C 
ATOM     33  C   UNL d   1      21.988 -17.153  -0.893  0.00  0.00     0.009 A 
ATOM     34  C   UNL d   1      23.274 -16.636  -0.731  0.00  0.00     0.029 A 
ENDBRANCH  26  28
ENDBRANCH  25  26
ENDBRANCH   2  25
TORSDOF 10
ENDMDL
MODEL 5
REMARK VINA RESULT:    -8.267      3.654      9.766
REMARK INTER + INTRA:         -14.753
REMARK INTER:                 -11.250
REMARK INTRA:                  -3.502
REMARK CONF_INDEPENDENT:        2.983
REMARK UNBOUND:                -3.502
REMARK  10 active torsions:
REMARK  status: ('A' for Active; 'I' for Inactive)
REMARK    1  A    between atoms: C_2  and  N_3 
REMARK    2  A    between atoms: C_4  and  C_5 
REMARK    3  A    between atoms: C_5  and  N_6 
REMARK    4  A    between atoms: N_6  and  C_7 
REMARK    5  A    between atoms: C_16  and  S_17 
REMARK    6  A    between atoms: S_17  and  C_18 
REMARK    7  A    between atoms: C_18  and  C_19 
REMARK       I    between atoms: C_19  and  N_21 
REMARK    8  A    between atoms: N_21  and  N_22 
REMARK       I    between atoms: N_22  and  C_23 
REMARK    9  A    between atoms: C_23  and  C_25 
REMARK   10  A    between atoms: C_25  and  C_26 
ROOT
ATOM      1  N   UNL d   1      27.017 -14.943  -2.705  0.00  0.00    -0.310 N 
ATOM      2  C   UNL d   1      26.214 -14.925  -3.847  0.00  0.00     0.148 A 
ATOM      3  N   UNL d   1      24.964 -15.093  -3.450  0.00  0.00    -0.132 NA
ATOM      4  N   UNL d   1      24.942 -15.220  -2.084  0.00  0.00    -0.123 NA
ATOM      5  C   UNL d   1      26.174 -15.134  -1.628  0.00  0.00     0.192 A 
ENDROOT
BRANCH   5   6
ATOM      6  S   UNL d   1      26.516 -15.230   0.088  0.00  0.00    -0.081 SA
BRANCH   6   7
ATOM      7  C   UNL d   1      26.993 -16.894   0.629  0.00  0.00     0.186 C 
BRANCH   7   8
ATOM      8  C   UNL d   1      26.029 -17.992   0.181  0.00  0.00     0.245 C 
ATOM      9  O   UNL d   1      26.260 -19.203   0.230  0.00  0.00    -0.271 OA
ATOM     10  N   UNL d   1      24.811 -17.527  -0.290  0.00  0.00    -0.267 N 
ATOM     11  H   UNL d   1      24.537 -16.544  -0.376  0.00  0.00     0.190 HD
BRANCH  10  12
ATOM     12  N   UNL d   1      23.810 -18.462  -0.680  0.00  0.00    -0.267 N 
ATOM     13  C   UNL d   1      22.541 -17.955  -0.874  0.00  0.00     0.240 C 
ATOM     14  O   UNL d   1      22.405 -16.736  -0.721  0.00  0.00    -0.272 OA
ATOM     15  H   UNL d   1      24.117 -19.412  -0.877  0.00  0.00     0.190 HD
BRANCH  13  16
ATOM     16  C   UNL d   1      21.424 -18.949  -1.285  0.00  0.00     0.143 C 
BRANCH  16  17
ATOM     17  C   UNL d   1      20.493 -19.460  -0.177  0.00  0.00    -0.049 A 
ATOM     18  C   UNL d   1      19.261 -20.075  -0.480  0.00  0.00     0.007 A 
ATOM     19  C   UNL d   1      18.406 -20.520   0.547  0.00  0.00     0.001 A 
ATOM     20  C   UNL d   1      18.756 -20.358   1.886  0.00  0.00     0.000 A 
ATOM     21  C   UNL d   1      19.961 -19.760   2.201  0.00  0.00     0.001 A 
ATOM     22  C   UNL d   1      20.804 -19.325   1.184  0.00  0.00     0.007 A 
ENDBRANCH  16  17
ENDBRANCH  13  16
ENDBRANCH  10  12
ENDBRANCH   7   8
ENDBRANCH   6   7
ENDBRANCH   5   6
BRANCH   1  23
ATOM     23  C   UNL d   1      28.442 -14.772  -2.613  0.00  0.00     0.128 C 
ATOM     24  C   UNL d   1      29.149 -16.009  -2.086  0.00  0.00     0.027 C 
ENDBRANCH   1  23
BRANCH   2  25
ATOM     25  C   UNL d   1      26.584 -14.745  -5.323  0.00  0.00     0.200 C 
BRANCH  25  26
ATOM     26  N   UNL d   1      27.006 -13.430  -5.764  0.00  0.00    -0.383 N 
ATOM     27  H   UNL d   1      27.870 -13.353  -6.255  0.00  0.00     0.160 HD
BRANCH  26  28
ATOM     28  C   UNL d   1      26.581 -12.192  -5.346  0.00  0.00     0.028 A 
ATOM     29  C   UNL d   1      25.966 -11.243  -6.152  0.00  0.00     0.029 A 
ATOM     30  C   UNL d   1      25.531 -10.024  -5.608  0.00  0.00     0.009 A 
ATOM     31  C   UNL d   1      25.733  -9.723  -4.255  0.00  0.00    -0.062 A 
ATOM     32  C   UNL d   1      25.300  -8.409  -3.678  0.00  0.00     0.048 C 
ATOM     33  C   UNL d   1      26.364 -10.668  -3.446  0.00  0.00     0.009 A 
ATOM     34  C   UNL d   1      26.768 -11.887  -3.988  0.00  0.00     0.029 A 
ENDBRANCH  26  28
ENDBRANCH  25  26
ENDBRANCH   2  25
TORSDOF 10
ENDMDL
MODEL 6
REMARK VINA RESULT:    -7.898      3.058     10.410
REMARK INTER + INTRA:         -14.299
REMARK INTER:                 -10.881
REMARK INTRA:                  -3.418
REMARK CONF_INDEPENDENT:        2.983
REMARK UNBOUND:                -3.418
REMARK  10 active torsions:
REMARK  status: ('A' for Active; 'I' for Inactive)
REMARK    1  A    between atoms: C_2  and  N_3 
REMARK    2  A    between atoms: C_4  and  C_5 
REMARK    3  A    between atoms: C_5  and  N_6 
REMARK    4  A    between atoms: N_6  and  C_7 
REMARK    5  A    between atoms: C_16  and  S_17 
REMARK    6  A    between atoms: S_17  and  C_18 
REMARK    7  A    between atoms: C_18  and  C_19 
REMARK       I    between atoms: C_19  and  N_21 
REMARK    8  A    between atoms: N_21  and  N_22 
REMARK       I    between atoms: N_22  and  C_23 
REMARK    9  A    between atoms: C_23  and  C_25 
REMARK   10  A    between atoms: C_25  and  C_26 
ROOT
ATOM      1  N   UNL d   1      27.059 -14.988  -2.784  0.00  0.00    -0.310 N 
ATOM      2  C   UNL d   1      26.220 -14.947  -3.900  0.00  0.00     0.148 A 
ATOM      3  N   UNL d   1      24.976 -14.911  -3.453  0.00  0.00    -0.132 NA
ATOM      4  N   UNL d   1      24.992 -14.928  -2.082  0.00  0.00    -0.123 NA
ATOM      5  C   UNL d   1      26.242 -14.978  -1.671  0.00  0.00     0.192 A 
ENDROOT
BRANCH   5   6
ATOM      6  S   UNL d   1      26.636 -14.988   0.037  0.00  0.00    -0.081 SA
BRANCH   6   7
ATOM      7  C   UNL d   1      27.079 -16.634   0.658  0.00  0.00     0.186 C 
BRANCH   7   8
ATOM      8  C   UNL d   1      26.115 -17.739   0.226  0.00  0.00     0.245 C 
ATOM      9  O   UNL d   1      26.350 -18.949   0.285  0.00  0.00    -0.271 OA
ATOM     10  N   UNL d   1      24.893 -17.282  -0.242  0.00  0.00    -0.267 N 
ATOM     11  H   UNL d   1      24.616 -16.301  -0.337  0.00  0.00     0.190 HD
BRANCH  10  12
ATOM     12  N   UNL d   1      23.892 -18.224  -0.618  0.00  0.00    -0.267 N 
ATOM     13  C   UNL d   1      22.637 -17.713  -0.874  0.00  0.00     0.240 C 
ATOM     14  O   UNL d   1      22.512 -16.487  -0.784  0.00  0.00    -0.272 OA
ATOM     15  H   UNL d   1      24.193 -19.186  -0.760  0.00  0.00     0.190 HD
BRANCH  13  16
ATOM     16  C   UNL d   1      21.520 -18.713  -1.271  0.00  0.00     0.143 C 
BRANCH  16  17
ATOM     17  C   UNL d   1      20.681 -19.319  -0.137  0.00  0.00    -0.049 A 
ATOM     18  C   UNL d   1      19.535 -20.093  -0.407  0.00  0.00     0.007 A 
ATOM     19  C   UNL d   1      18.761 -20.625   0.643  0.00  0.00     0.001 A 
ATOM     20  C   UNL d   1      19.108 -20.392   1.973  0.00  0.00     0.000 A 
ATOM     21  C   UNL d   1      20.230 -19.637   2.255  0.00  0.00     0.001 A 
ATOM     22  C   UNL d   1      20.993 -19.117   1.215  0.00  0.00     0.007 A 
ENDBRANCH  16  17
ENDBRANCH  13  16
ENDBRANCH  10  12
ENDBRANCH   7   8
ENDBRANCH   6   7
ENDBRANCH   5   6
BRANCH   1  23
ATOM     23  C   UNL d   1      28.496 -15.007  -2.748  0.00  0.00     0.128 C 
ATOM     24  C   UNL d   1      29.078 -16.324  -3.232  0.00  0.00     0.027 C 
ENDBRANCH   1  23
BRANCH   2  25
ATOM     25  C   UNL d   1      26.551 -14.933  -5.395  0.00  0.00     0.200 C 
BRANCH  25  26
ATOM     26  N   UNL d   1      27.271 -13.791  -5.923  0.00  0.00    -0.383 N 
ATOM     27  H   UNL d   1      26.758 -12.957  -6.114  0.00  0.00     0.160 HD
BRANCH  26  28
ATOM     28  C   UNL d   1      28.506 -13.741  -6.524  0.00  0.00     0.028 A 
ATOM     29  C   UNL d   1      29.604 -14.510  -6.161  0.00  0.00     0.029 A 
ATOM     30  C   UNL d   1      30.809 -14.409  -6.874  0.00  0.00     0.009 A 
ATOM     31  C   UNL d   1      30.943 -13.512  -7.941  0.00  0.00    -0.062 A 
ATOM     32  C   UNL d   1      32.239 -13.377  -8.684  0.00  0.00     0.048 C 
ATOM     33  C   UNL d   1      29.848 -12.727  -8.299  0.00  0.00     0.009 A 
ATOM     34  C   UNL d   1      28.646 -12.854  -7.604  0.00  0.00     0.029 A 
ENDBRANCH  26  28
ENDBRANCH  25  26
ENDBRANCH   2  25
TORSDOF 10
ENDMDL
MODEL 7
REMARK VINA RESULT:    -7.059      4.198      9.161
REMARK INTER + INTRA:         -14.241
REMARK INTER:                 -10.042
REMARK INTRA:                  -4.199
REMARK CONF_INDEPENDENT:        2.983
REMARK UNBOUND:                -4.199
REMARK  10 active torsions:
REMARK  status: ('A' for Active; 'I' for Inactive)
REMARK    1  A    between atoms: C_2  and  N_3 
REMARK    2  A    between atoms: C_4  and  C_5 
REMARK    3  A    between atoms: C_5  and  N_6 
REMARK    4  A    between atoms: N_6  and  C_7 
REMARK    5  A    between atoms: C_16  and  S_17 
REMARK    6  A    between atoms: S_17  and  C_18 
REMARK    7  A    between atoms: C_18  and  C_19 
REMARK       I    between atoms: C_19  and  N_21 
REMARK    8  A    between atoms: N_21  and  N_22 
REMARK       I    between atoms: N_22  and  C_23 
REMARK    9  A    between atoms: C_23  and  C_25 
REMARK   10  A    between atoms: C_25  and  C_26 
ROOT
ATOM      1  N   UNL d   1      29.023 -14.065  -4.857  0.00  0.00    -0.310 N 
ATOM      2  C   UNL d   1      28.768 -15.400  -4.533  0.00  0.00     0.148 A 
ATOM      3  N   UNL d   1      27.868 -15.846  -5.393  0.00  0.00    -0.132 NA
ATOM      4  N   UNL d   1      27.537 -14.835  -6.260  0.00  0.00    -0.123 NA
ATOM      5  C   UNL d   1      28.226 -13.759  -5.942  0.00  0.00     0.192 A 
ENDROOT
BRANCH   5   6
ATOM      6  S   UNL d   1      28.068 -12.276  -6.863  0.00  0.00    -0.081 SA
BRANCH   6   7
ATOM      7  C   UNL d   1      26.770 -11.178  -6.231  0.00  0.00     0.186 C 
BRANCH   7   8
ATOM      8  C   UNL d   1      26.251 -11.564  -4.846  0.00  0.00     0.245 C 
ATOM      9  O   UNL d   1      26.137 -10.791  -3.890  0.00  0.00    -0.271 OA
ATOM     10  N   UNL d   1      25.880 -12.894  -4.725  0.00  0.00    -0.267 N 
ATOM     11  H   UNL d   1      25.951 -13.606  -5.457  0.00  0.00     0.190 HD
BRANCH  10  12
ATOM     12  N   UNL d   1      25.326 -13.355  -3.495  0.00  0.00    -0.267 N 
ATOM     13  C   UNL d   1      25.131 -14.716  -3.384  0.00  0.00     0.240 C 
ATOM     14  O   UNL d   1      25.486 -15.404  -4.348  0.00  0.00    -0.272 OA
ATOM     15  H   UNL d   1      25.200 -12.664  -2.758  0.00  0.00     0.190 HD
BRANCH  13  16
ATOM     16  C   UNL d   1      24.516 -15.250  -2.065  0.00  0.00     0.143 C 
BRANCH  16  17
ATOM     17  C   UNL d   1      25.341 -16.267  -1.265  0.00  0.00    -0.049 A 
ATOM     18  C   UNL d   1      24.721 -17.291  -0.520  0.00  0.00     0.007 A 
ATOM     19  C   UNL d   1      25.488 -18.205   0.228  0.00  0.00     0.001 A 
ATOM     20  C   UNL d   1      26.879 -18.114   0.254  0.00  0.00     0.000 A 
ATOM     21  C   UNL d   1      27.503 -17.119  -0.472  0.00  0.00     0.001 A 
ATOM     22  C   UNL d   1      26.742 -16.220  -1.213  0.00  0.00     0.007 A 
ENDBRANCH  16  17
ENDBRANCH  13  16
ENDBRANCH  10  12
ENDBRANCH   7   8
ENDBRANCH   6   7
ENDBRANCH   5   6
BRANCH   1  23
ATOM     23  C   UNL d   1      29.946 -13.156  -4.233  0.00  0.00     0.128 C 
ATOM     24  C   UNL d   1      29.628 -12.911  -2.768  0.00  0.00     0.027 C 
ENDBRANCH   1  23
BRANCH   2  25
ATOM     25  C   UNL d   1      29.354 -16.287  -3.431  0.00  0.00     0.200 C 
BRANCH  25  26
ATOM     26  N   UNL d   1      30.392 -17.231  -3.796  0.00  0.00    -0.383 N 
ATOM     27  H   UNL d   1      31.249 -17.211  -3.287  0.00  0.00     0.160 HD
BRANCH  26  28
ATOM     28  C   UNL d   1      30.538 -17.961  -4.951  0.00  0.00     0.028 A 
ATOM     29  C   UNL d   1      30.406 -19.340  -5.048  0.00  0.00     0.029 A 
ATOM     30  C   UNL d   1      30.534 -19.980  -6.292  0.00  0.00     0.009 A 
ATOM     31  C   UNL d   1      30.827 -19.252  -7.451  0.00  0.00    -0.062 A 
ATOM     32  C   UNL d   1      30.997 -19.935  -8.775  0.00  0.00     0.048 C 
ATOM     33  C   UNL d   1      30.976 -17.869  -7.355  0.00  0.00     0.009 A 
ATOM     34  C   UNL d   1      30.819 -17.238  -6.122  0.00  0.00     0.029 A 
ENDBRANCH  26  28
ENDBRANCH  25  26
ENDBRANCH   2  25
TORSDOF 10
ENDMDL
MODEL 8
REMARK VINA RESULT:    -6.586      3.289      6.385
REMARK INTER + INTRA:         -14.401
REMARK INTER:                  -9.569
REMARK INTRA:                  -4.831
REMARK CONF_INDEPENDENT:        2.983
REMARK UNBOUND:                -4.831
REMARK  10 active torsions:
REMARK  status: ('A' for Active; 'I' for Inactive)
REMARK    1  A    between atoms: C_2  and  N_3 
REMARK    2  A    between atoms: C_4  and  C_5 
REMARK    3  A    between atoms: C_5  and  N_6 
REMARK    4  A    between atoms: N_6  and  C_7 
REMARK    5  A    between atoms: C_16  and  S_17 
REMARK    6  A    between atoms: S_17  and  C_18 
REMARK    7  A    between atoms: C_18  and  C_19 
REMARK       I    between atoms: C_19  and  N_21 
REMARK    8  A    between atoms: N_21  and  N_22 
REMARK       I    between atoms: N_22  and  C_23 
REMARK    9  A    between atoms: C_23  and  C_25 
REMARK   10  A    between atoms: C_25  and  C_26 
ROOT
ATOM      1  N   UNL d   1      26.749 -13.825  -4.473  0.00  0.00    -0.310 N 
ATOM      2  C   UNL d   1      25.737 -14.644  -3.966  0.00  0.00     0.148 A 
ATOM      3  N   UNL d   1      25.647 -15.695  -4.763  0.00  0.00    -0.132 NA
ATOM      4  N   UNL d   1      26.573 -15.575  -5.769  0.00  0.00    -0.123 NA
ATOM      5  C   UNL d   1      27.238 -14.450  -5.603  0.00  0.00     0.192 A 
ENDROOT
BRANCH   5   6
ATOM      6  S   UNL d   1      28.523 -13.986  -6.701  0.00  0.00    -0.081 SA
BRANCH   6   7
ATOM      7  C   UNL d   1      30.105 -14.792  -6.330  0.00  0.00     0.186 C 
BRANCH   7   8
ATOM      8  C   UNL d   1      30.418 -14.885  -4.837  0.00  0.00     0.245 C 
ATOM      9  O   UNL d   1      31.478 -14.535  -4.310  0.00  0.00    -0.271 OA
ATOM     10  N   UNL d   1      29.384 -15.393  -4.066  0.00  0.00    -0.267 N 
ATOM     11  H   UNL d   1      28.478 -15.718  -4.417  0.00  0.00     0.190 HD
BRANCH  10  12
ATOM     12  N   UNL d   1      29.540 -15.471  -2.652  0.00  0.00    -0.267 N 
ATOM     13  C   UNL d   1      28.465 -15.969  -1.944  0.00  0.00     0.240 C 
ATOM     14  O   UNL d   1      27.487 -16.329  -2.608  0.00  0.00    -0.272 OA
ATOM     15  H   UNL d   1      30.458 -15.242  -2.275  0.00  0.00     0.190 HD
BRANCH  13  16
ATOM     16  C   UNL d   1      28.596 -16.054  -0.401  0.00  0.00     0.143 C 
BRANCH  16  17
ATOM     17  C   UNL d   1      27.951 -14.931   0.422  0.00  0.00    -0.049 A 
ATOM     18  C   UNL d   1      27.225 -13.892  -0.196  0.00  0.00     0.007 A 
ATOM     19  C   UNL d   1      26.657 -12.856   0.570  0.00  0.00     0.001 A 
ATOM     20  C   UNL d   1      26.804 -12.830   1.956  0.00  0.00     0.000 A 
ATOM     21  C   UNL d   1      27.510 -13.841   2.578  0.00  0.00     0.001 A 
ATOM     22  C   UNL d   1      28.066 -14.865   1.819  0.00  0.00     0.007 A 
ENDBRANCH  16  17
ENDBRANCH  13  16
ENDBRANCH  10  12
ENDBRANCH   7   8
ENDBRANCH   6   7
ENDBRANCH   5   6
BRANCH   1  23
ATOM     23  C   UNL d   1      27.241 -12.583  -3.943  0.00  0.00     0.128 C 
ATOM     24  C   UNL d   1      26.129 -11.599  -3.624  0.00  0.00     0.027 C 
ENDBRANCH   1  23
BRANCH   2  25
ATOM     25  C   UNL d   1      24.841 -14.474  -2.735  0.00  0.00     0.200 C 
BRANCH  25  26
ATOM     26  N   UNL d   1      24.943 -15.460  -1.677  0.00  0.00    -0.383 N 
ATOM     27  H   UNL d   1      25.849 -15.682  -1.325  0.00  0.00     0.160 HD
BRANCH  26  28
ATOM     28  C   UNL d   1      24.027 -16.402  -1.273  0.00  0.00     0.028 A 
ATOM     29  C   UNL d   1      22.673 -16.167  -1.073  0.00  0.00     0.029 A 
ATOM     30  C   UNL d   1      21.818 -17.217  -0.700  0.00  0.00     0.009 A 
ATOM     31  C   UNL d   1      22.312 -18.510  -0.491  0.00  0.00    -0.062 A 
ATOM     32  C   UNL d   1      21.408 -19.627  -0.062  0.00  0.00     0.048 C 
ATOM     33  C   UNL d   1      23.673 -18.747  -0.677  0.00  0.00     0.009 A 
ATOM     34  C   UNL d   1      24.511 -17.705  -1.074  0.00  0.00     0.029 A 
ENDBRANCH  26  28
ENDBRANCH  25  26
ENDBRANCH   2  25
TORSDOF 10
ENDMDL
MODEL 9
REMARK VINA RESULT:    -6.424      3.824      8.475
REMARK INTER + INTRA:         -14.289
REMARK INTER:                  -9.407
REMARK INTRA:                  -4.882
REMARK CONF_INDEPENDENT:        2.983
REMARK UNBOUND:                -4.882
REMARK  10 active torsions:
REMARK  status: ('A' for Active; 'I' for Inactive)
REMARK    1  A    between atoms: C_2  and  N_3 
REMARK    2  A    between atoms: C_4  and  C_5 
REMARK    3  A    between atoms: C_5  and  N_6 
REMARK    4  A    between atoms: N_6  and  C_7 
REMARK    5  A    between atoms: C_16  and  S_17 
REMARK    6  A    between atoms: S_17  and  C_18 
REMARK    7  A    between atoms: C_18  and  C_19 
REMARK       I    between atoms: C_19  and  N_21 
REMARK    8  A    between atoms: N_21  and  N_22 
REMARK       I    between atoms: N_22  and  C_23 
REMARK    9  A    between atoms: C_23  and  C_25 
REMARK   10  A    between atoms: C_25  and  C_26 
ROOT
ATOM      1  N   UNL d   1      29.062 -13.919  -5.018  0.00  0.00    -0.310 N 
ATOM      2  C   UNL d   1      29.081 -15.294  -4.769  0.00  0.00     0.148 A 
ATOM      3  N   UNL d   1      28.045 -15.821  -5.399  0.00  0.00    -0.132 NA
ATOM      4  N   UNL d   1      27.361 -14.823  -6.046  0.00  0.00    -0.123 NA
ATOM      5  C   UNL d   1      27.964 -13.675  -5.819  0.00  0.00     0.192 A 
ENDROOT
BRANCH   5   6
ATOM      6  S   UNL d   1      27.368 -12.183  -6.518  0.00  0.00    -0.081 SA
BRANCH   6   7
ATOM      7  C   UNL d   1      25.977 -11.469  -5.599  0.00  0.00     0.186 C 
BRANCH   7   8
ATOM      8  C   UNL d   1      25.888 -11.938  -4.147  0.00  0.00     0.245 C 
ATOM      9  O   UNL d   1      25.874 -11.196  -3.161  0.00  0.00    -0.271 OA
ATOM     10  N   UNL d   1      25.800 -13.313  -3.994  0.00  0.00    -0.267 N 
ATOM     11  H   UNL d   1      25.815 -14.003  -4.750  0.00  0.00     0.190 HD
BRANCH  10  12
ATOM     12  N   UNL d   1      25.652 -13.862  -2.687  0.00  0.00    -0.267 N 
ATOM     13  C   UNL d   1      25.570 -15.237  -2.607  0.00  0.00     0.240 C 
ATOM     14  O   UNL d   1      25.665 -15.858  -3.672  0.00  0.00    -0.272 OA
ATOM     15  H   UNL d   1      25.711 -13.214  -1.904  0.00  0.00     0.190 HD
BRANCH  13  16
ATOM     16  C   UNL d   1      25.395 -15.868  -1.202  0.00  0.00     0.143 C 
BRANCH  16  17
ATOM     17  C   UNL d   1      24.225 -16.842  -1.008  0.00  0.00    -0.049 A 
ATOM     18  C   UNL d   1      22.887 -16.408  -1.093  0.00  0.00     0.007 A 
ATOM     19  C   UNL d   1      21.822 -17.308  -0.891  0.00  0.00     0.001 A 
ATOM     20  C   UNL d   1      22.068 -18.648  -0.597  0.00  0.00     0.000 A 
ATOM     21  C   UNL d   1      23.374 -19.091  -0.513  0.00  0.00     0.001 A 
ATOM     22  C   UNL d   1      24.422 -18.200  -0.716  0.00  0.00     0.007 A 
ENDBRANCH  16  17
ENDBRANCH  13  16
ENDBRANCH  10  12
ENDBRANCH   7   8
ENDBRANCH   6   7
ENDBRANCH   5   6
BRANCH   1  23
ATOM     23  C   UNL d   1      29.995 -12.919  -4.575  0.00  0.00     0.128 C 
ATOM     24  C   UNL d   1      29.356 -11.881  -3.669  0.00  0.00     0.027 C 
ENDBRANCH   1  23
BRANCH   2  25
ATOM     25  C   UNL d   1      30.058 -16.144  -3.952  0.00  0.00     0.200 C 
BRANCH  25  26
ATOM     26  N   UNL d   1      29.584 -16.723  -2.710  0.00  0.00    -0.383 N 
ATOM     27  H   UNL d   1      29.392 -17.701  -2.689  0.00  0.00     0.160 HD
BRANCH  26  28
ATOM     28  C   UNL d   1      29.034 -16.103  -1.613  0.00  0.00     0.028 A 
ATOM     29  C   UNL d   1      28.625 -16.746  -0.452  0.00  0.00     0.029 A 
ATOM     30  C   UNL d   1      28.115 -16.007   0.627  0.00  0.00     0.009 A 
ATOM     31  C   UNL d   1      27.979 -14.616   0.548  0.00  0.00    -0.062 A 
ATOM     32  C   UNL d   1      27.405 -13.826   1.686  0.00  0.00     0.048 C 
ATOM     33  C   UNL d   1      28.375 -13.968  -0.621  0.00  0.00     0.009 A 
ATOM     34  C   UNL d   1      28.906 -14.707  -1.678  0.00  0.00     0.029 A 
ENDBRANCH  26  28
ENDBRANCH  25  26
ENDBRANCH   2  25
TORSDOF 10
ENDMDL
