MODEL 1
REMARK VINA RESULT:    -9.943      0.000      0.000
REMARK INTER + INTRA:         -12.699
REMARK INTER:                 -12.031
REMARK INTRA:                  -0.668
REMARK CONF_INDEPENDENT:        2.088
REMARK UNBOUND:                -0.668
REMARK  7 active torsions:
REMARK  status: ('A' for Active; 'I' for Inactive)
REMARK    1  A    between atoms: C_4  and  O_5 
REMARK    2  A    between atoms: O_5  and  C_6 
REMARK    3  A    between atoms: C_6  and  C_7 
REMARK       I    between atoms: C_7  and  N_9 
REMARK    4  A    between atoms: N_9  and  C_10 
REMARK    5  A    between atoms: C_10  and  C_11 
REMARK    6  A    between atoms: C_14  and  S_15 
REMARK    7  A    between atoms: S_15  and  N_16 
ROOT
ATOM      1  C   UNL d   1      27.730 -14.865   1.175  0.00  0.00     0.242 C 
ATOM      2  O   UNL d   1      26.771 -14.310   0.645  0.00  0.00    -0.271 OA
ATOM      3  N   UNL d   1      28.252 -16.037   0.667  0.00  0.00    -0.355 N 
ATOM      4  H   UNL d   1      29.080 -16.406   1.102  0.00  0.00     0.162 HD
ENDROOT
BRANCH   1   5
ATOM      5  C   UNL d   1      28.451 -14.340   2.445  0.00  0.00     0.278 C 
BRANCH   5   6
ATOM      6  O   UNL d   1      27.507 -13.725   3.304  0.00  0.00    -0.341 OA
BRANCH   6   7
ATOM      7  C   UNL d   1      27.719 -12.543   3.941  0.00  0.00     0.083 A 
ATOM      8  C   UNL d   1      27.489 -11.318   3.316  0.00  0.00     0.044 A 
ATOM      9  C   UNL d   1      27.701 -10.110   3.989  0.00  0.00    -0.057 A 
ATOM     10  C   UNL d   1      27.433  -8.818   3.283  0.00  0.00     0.048 C 
ATOM     11  C   UNL d   1      28.154 -10.129   5.309  0.00  0.00     0.045 A 
ATOM     12  C   UNL d   1      28.390 -11.357   5.933  0.00  0.00     0.093 A 
ATOM     13  O   UNL d   1      28.848 -11.285   7.269  0.00  0.00    -0.275 OA
ATOM     14  C   UNL d   1      28.184 -12.584   5.279  0.00  0.00     0.037 A 
ATOM     15  C   UNL d   1      29.118 -12.426   8.002  0.00  0.00     0.288 A 
ATOM     16  C   UNL d   1      28.905 -13.704   7.315  0.00  0.00     0.090 A 
ATOM     17  O   UNL d   1      29.516 -12.395   9.161  0.00  0.00    -0.260 OA
ATOM     18  C   UNL d   1      28.471 -13.815   6.049  0.00  0.00    -0.040 A 
ATOM     19  C   UNL d   1      28.310 -15.200   5.497  0.00  0.00     0.049 C 
ENDBRANCH   6   7
ENDBRANCH   5   6
ENDBRANCH   1   5
BRANCH   3  20
ATOM     20  C   UNL d   1      27.707 -16.680  -0.528  0.00  0.00     0.161 C 
BRANCH  20  21
ATOM     21  C   UNL d   1      26.226 -17.022  -0.449  0.00  0.00    -0.040 C 
ATOM     22  C   UNL d   1      25.810 -18.308  -0.041  0.00  0.00     0.010 C 
ATOM     23  C   UNL d   1      24.463 -18.699  -0.145  0.00  0.00     0.026 C 
ATOM     24  C   UNL d   1      23.506 -17.766  -0.548  0.00  0.00     0.079 C 
ATOM     25  C   UNL d   1      23.879 -16.454  -0.813  0.00  0.00     0.026 C 
ATOM     26  C   UNL d   1      25.230 -16.113  -0.833  0.00  0.00     0.010 C 
BRANCH  24  27
ATOM     27  S   UNL d   1      21.809 -18.236  -0.767  0.00  0.00     0.256 S 
ATOM     28  O   UNL d   1      21.030 -17.026  -0.916  0.00  0.00    -0.201 OA
ATOM     29  O   UNL d   1      21.759 -19.325  -1.711  0.00  0.00    -0.201 OA
BRANCH  27  30
ATOM     30  N   UNL d   1      21.444 -18.892   0.724  0.00  0.00    -0.324 N 
ATOM     31  H   UNL d   1      21.612 -18.303   1.533  0.00  0.00     0.169 HD
ATOM     32  H   UNL d   1      21.509 -19.903   0.800  0.00  0.00     0.169 HD
ENDBRANCH  27  30
ENDBRANCH  24  27
ENDBRANCH  20  21
ENDBRANCH   3  20
TORSDOF 7
ENDMDL
MODEL 2
REMARK VINA RESULT:    -9.754      1.805      3.389
REMARK INTER + INTRA:         -13.348
REMARK INTER:                 -11.843
REMARK INTRA:                  -1.506
REMARK CONF_INDEPENDENT:        2.088
REMARK UNBOUND:                -1.506
REMARK  7 active torsions:
REMARK  status: ('A' for Active; 'I' for Inactive)
REMARK    1  A    between atoms: C_4  and  O_5 
REMARK    2  A    between atoms: O_5  and  C_6 
REMARK    3  A    between atoms: C_6  and  C_7 
REMARK       I    between atoms: C_7  and  N_9 
REMARK    4  A    between atoms: N_9  and  C_10 
REMARK    5  A    between atoms: C_10  and  C_11 
REMARK    6  A    between atoms: C_14  and  S_15 
REMARK    7  A    between atoms: S_15  and  N_16 
ROOT
ATOM      1  C   UNL d   1      27.927 -15.740   0.260  0.00  0.00     0.242 C 
ATOM      2  O   UNL d   1      28.636 -16.246  -0.607  0.00  0.00    -0.271 OA
ATOM      3  N   UNL d   1      26.564 -15.610   0.086  0.00  0.00    -0.355 N 
ATOM      4  H   UNL d   1      26.028 -15.254   0.859  0.00  0.00     0.162 HD
ENDROOT
BRANCH   1   5
ATOM      5  C   UNL d   1      28.456 -15.198   1.614  0.00  0.00     0.278 C 
BRANCH   5   6
ATOM      6  O   UNL d   1      27.477 -14.361   2.203  0.00  0.00    -0.341 OA
BRANCH   6   7
ATOM      7  C   UNL d   1      27.686 -13.623   3.325  0.00  0.00     0.083 A 
ATOM      8  C   UNL d   1      28.137 -14.200   4.513  0.00  0.00     0.044 A 
ATOM      9  C   UNL d   1      28.357 -13.424   5.656  0.00  0.00    -0.057 A 
ATOM     10  C   UNL d   1      28.850 -14.082   6.907  0.00  0.00     0.048 C 
ATOM     11  C   UNL d   1      28.119 -12.049   5.611  0.00  0.00     0.045 A 
ATOM     12  C   UNL d   1      27.661 -11.474   4.423  0.00  0.00     0.093 A 
ATOM     13  O   UNL d   1      27.444 -10.077   4.465  0.00  0.00    -0.275 OA
ATOM     14  C   UNL d   1      27.433 -12.230   3.261  0.00  0.00     0.037 A 
ATOM     15  C   UNL d   1      26.994  -9.382   3.357  0.00  0.00     0.288 A 
ATOM     16  C   UNL d   1      26.754 -10.176   2.148  0.00  0.00     0.090 A 
ATOM     17  O   UNL d   1      26.797  -8.172   3.364  0.00  0.00    -0.260 OA
ATOM     18  C   UNL d   1      26.947 -11.503   2.067  0.00  0.00    -0.040 A 
ATOM     19  C   UNL d   1      26.650 -12.161   0.753  0.00  0.00     0.049 C 
ENDBRANCH   6   7
ENDBRANCH   5   6
ENDBRANCH   1   5
BRANCH   3  20
ATOM     20  C   UNL d   1      25.884 -16.069  -1.124  0.00  0.00     0.161 C 
BRANCH  20  21
ATOM     21  C   UNL d   1      24.571 -16.799  -0.880  0.00  0.00    -0.040 C 
ATOM     22  C   UNL d   1      24.568 -18.164  -0.520  0.00  0.00     0.010 C 
ATOM     23  C   UNL d   1      23.368 -18.898  -0.477  0.00  0.00     0.026 C 
ATOM     24  C   UNL d   1      22.154 -18.241  -0.682  0.00  0.00     0.079 C 
ATOM     25  C   UNL d   1      22.130 -16.868  -0.894  0.00  0.00     0.026 C 
ATOM     26  C   UNL d   1      23.328 -16.176  -1.063  0.00  0.00     0.010 C 
BRANCH  24  27
ATOM     27  S   UNL d   1      20.625 -19.141  -0.714  0.00  0.00     0.256 S 
ATOM     28  O   UNL d   1      19.551 -18.198  -0.486  0.00  0.00    -0.201 OA
ATOM     29  O   UNL d   1      20.653 -20.042  -1.839  0.00  0.00    -0.201 OA
BRANCH  27  30
ATOM     30  N   UNL d   1      20.761 -20.090   0.651  0.00  0.00    -0.324 N 
ATOM     31  H   UNL d   1      20.535 -19.650   1.537  0.00  0.00     0.169 HD
ATOM     32  H   UNL d   1      21.441 -20.844   0.610  0.00  0.00     0.169 HD
ENDBRANCH  27  30
ENDBRANCH  24  27
ENDBRANCH  20  21
ENDBRANCH   3  20
TORSDOF 7
ENDMDL
MODEL 3
REMARK VINA RESULT:    -9.253      4.236      7.569
REMARK INTER + INTRA:         -13.680
REMARK INTER:                 -11.341
REMARK INTRA:                  -2.339
REMARK CONF_INDEPENDENT:        2.088
REMARK UNBOUND:                -2.339
REMARK  7 active torsions:
REMARK  status: ('A' for Active; 'I' for Inactive)
REMARK    1  A    between atoms: C_4  and  O_5 
REMARK    2  A    between atoms: O_5  and  C_6 
REMARK    3  A    between atoms: C_6  and  C_7 
REMARK       I    between atoms: C_7  and  N_9 
REMARK    4  A    between atoms: N_9  and  C_10 
REMARK    5  A    between atoms: C_10  and  C_11 
REMARK    6  A    between atoms: C_14  and  S_15 
REMARK    7  A    between atoms: S_15  and  N_16 
ROOT
ATOM      1  C   UNL d   1      27.399 -13.983   0.225  0.00  0.00     0.242 C 
ATOM      2  O   UNL d   1      26.649 -14.009   1.199  0.00  0.00    -0.271 OA
ATOM      3  N   UNL d   1      27.892 -15.144  -0.333  0.00  0.00    -0.355 N 
ATOM      4  H   UNL d   1      28.442 -15.062  -1.170  0.00  0.00     0.162 HD
ENDROOT
BRANCH   1   5
ATOM      5  C   UNL d   1      27.873 -12.682  -0.476  0.00  0.00     0.278 C 
BRANCH   5   6
ATOM      6  O   UNL d   1      28.385 -12.997  -1.759  0.00  0.00    -0.341 OA
BRANCH   6   7
ATOM      7  C   UNL d   1      27.640 -13.528  -2.764  0.00  0.00     0.083 A 
ATOM      8  C   UNL d   1      26.256 -13.364  -2.820  0.00  0.00     0.044 A 
ATOM      9  C   UNL d   1      25.505 -13.907  -3.868  0.00  0.00    -0.057 A 
ATOM     10  C   UNL d   1      24.023 -13.700  -3.895  0.00  0.00     0.048 C 
ATOM     11  C   UNL d   1      26.150 -14.630  -4.873  0.00  0.00     0.045 A 
ATOM     12  C   UNL d   1      27.535 -14.799  -4.812  0.00  0.00     0.093 A 
ATOM     13  O   UNL d   1      28.106 -15.544  -5.870  0.00  0.00    -0.275 OA
ATOM     14  C   UNL d   1      28.312 -14.262  -3.772  0.00  0.00     0.037 A 
ATOM     15  C   UNL d   1      29.467 -15.784  -5.932  0.00  0.00     0.288 A 
ATOM     16  C   UNL d   1      30.274 -15.225  -4.842  0.00  0.00     0.090 A 
ATOM     17  O   UNL d   1      29.990 -16.426  -6.835  0.00  0.00    -0.260 OA
ATOM     18  C   UNL d   1      29.770 -14.512  -3.821  0.00  0.00    -0.040 A 
ATOM     19  C   UNL d   1      30.737 -14.016  -2.787  0.00  0.00     0.049 C 
ENDBRANCH   6   7
ENDBRANCH   5   6
ENDBRANCH   1   5
BRANCH   3  20
ATOM     20  C   UNL d   1      27.551 -16.467   0.189  0.00  0.00     0.161 C 
BRANCH  20  21
ATOM     21  C   UNL d   1      26.168 -16.969  -0.203  0.00  0.00    -0.040 C 
ATOM     22  C   UNL d   1      25.315 -16.171  -0.995  0.00  0.00     0.010 C 
ATOM     23  C   UNL d   1      23.973 -16.535  -1.205  0.00  0.00     0.026 C 
ATOM     24  C   UNL d   1      23.509 -17.759  -0.719  0.00  0.00     0.079 C 
ATOM     25  C   UNL d   1      24.377 -18.623  -0.062  0.00  0.00     0.026 C 
ATOM     26  C   UNL d   1      25.666 -18.197   0.253  0.00  0.00     0.010 C 
BRANCH  24  27
ATOM     27  S   UNL d   1      21.805 -18.223  -0.894  0.00  0.00     0.256 S 
ATOM     28  O   UNL d   1      21.030 -17.011  -1.043  0.00  0.00    -0.201 OA
ATOM     29  O   UNL d   1      21.729 -19.325  -1.821  0.00  0.00    -0.201 OA
BRANCH  27  30
ATOM     30  N   UNL d   1      21.470 -18.855   0.614  0.00  0.00    -0.324 N 
ATOM     31  H   UNL d   1      21.562 -18.224   1.403  0.00  0.00     0.169 HD
ATOM     32  H   UNL d   1      21.629 -19.852   0.731  0.00  0.00     0.169 HD
ENDBRANCH  27  30
ENDBRANCH  24  27
ENDBRANCH  20  21
ENDBRANCH   3  20
TORSDOF 7
ENDMDL
MODEL 4
REMARK VINA RESULT:    -9.252      6.404      9.108
REMARK INTER + INTRA:         -12.206
REMARK INTER:                 -11.340
REMARK INTRA:                  -0.865
REMARK CONF_INDEPENDENT:        2.088
REMARK UNBOUND:                -0.865
REMARK  7 active torsions:
REMARK  status: ('A' for Active; 'I' for Inactive)
REMARK    1  A    between atoms: C_4  and  O_5 
REMARK    2  A    between atoms: O_5  and  C_6 
REMARK    3  A    between atoms: C_6  and  C_7 
REMARK       I    between atoms: C_7  and  N_9 
REMARK    4  A    between atoms: N_9  and  C_10 
REMARK    5  A    between atoms: C_10  and  C_11 
REMARK    6  A    between atoms: C_14  and  S_15 
REMARK    7  A    between atoms: S_15  and  N_16 
ROOT
ATOM      1  C   UNL d   1      25.761 -15.501  -3.224  0.00  0.00     0.242 C 
ATOM      2  O   UNL d   1      24.756 -14.865  -2.915  0.00  0.00    -0.271 OA
ATOM      3  N   UNL d   1      26.419 -16.295  -2.306  0.00  0.00    -0.355 N 
ATOM      4  H   UNL d   1      27.192 -16.846  -2.636  0.00  0.00     0.162 HD
ENDROOT
BRANCH   1   5
ATOM      5  C   UNL d   1      26.401 -15.491  -4.638  0.00  0.00     0.278 C 
BRANCH   5   6
ATOM      6  O   UNL d   1      27.645 -14.816  -4.589  0.00  0.00    -0.341 OA
BRANCH   6   7
ATOM      7  C   UNL d   1      28.068 -13.935  -5.534  0.00  0.00     0.083 A 
ATOM      8  C   UNL d   1      27.389 -12.743  -5.785  0.00  0.00     0.044 A 
ATOM      9  C   UNL d   1      27.843 -11.841  -6.754  0.00  0.00    -0.057 A 
ATOM     10  C   UNL d   1      27.090 -10.569  -6.985  0.00  0.00     0.048 C 
ATOM     11  C   UNL d   1      28.994 -12.141  -7.486  0.00  0.00     0.045 A 
ATOM     12  C   UNL d   1      29.669 -13.338  -7.237  0.00  0.00     0.093 A 
ATOM     13  O   UNL d   1      30.823 -13.562  -8.023  0.00  0.00    -0.275 OA
ATOM     14  C   UNL d   1      29.234 -14.260  -6.270  0.00  0.00     0.037 A 
ATOM     15  C   UNL d   1      31.586 -14.707  -7.877  0.00  0.00     0.288 A 
ATOM     16  C   UNL d   1      31.126 -15.667  -6.869  0.00  0.00     0.090 A 
ATOM     17  O   UNL d   1      32.590 -14.928  -8.544  0.00  0.00    -0.260 OA
ATOM     18  C   UNL d   1      30.037 -15.492  -6.103  0.00  0.00    -0.040 A 
ATOM     19  C   UNL d   1      29.706 -16.576  -5.121  0.00  0.00     0.049 C 
ENDBRANCH   6   7
ENDBRANCH   5   6
ENDBRANCH   1   5
BRANCH   3  20
ATOM     20  C   UNL d   1      25.960 -16.434  -0.925  0.00  0.00     0.161 C 
BRANCH  20  21
ATOM     21  C   UNL d   1      24.583 -17.066  -0.771  0.00  0.00    -0.040 C 
ATOM     22  C   UNL d   1      24.455 -18.454  -0.547  0.00  0.00     0.010 C 
ATOM     23  C   UNL d   1      23.196 -19.080  -0.593  0.00  0.00     0.026 C 
ATOM     24  C   UNL d   1      22.047 -18.302  -0.748  0.00  0.00     0.079 C 
ATOM     25  C   UNL d   1      22.146 -16.917  -0.824  0.00  0.00     0.026 C 
ATOM     26  C   UNL d   1      23.403 -16.321  -0.908  0.00  0.00     0.010 C 
BRANCH  24  27
ATOM     27  S   UNL d   1      20.447 -19.056  -0.888  0.00  0.00     0.256 S 
ATOM     28  O   UNL d   1      19.459 -17.999  -0.895  0.00  0.00    -0.201 OA
ATOM     29  O   UNL d   1      20.514 -20.075  -1.906  0.00  0.00    -0.201 OA
BRANCH  27  30
ATOM     30  N   UNL d   1      20.321 -19.857   0.570  0.00  0.00    -0.324 N 
ATOM     31  H   UNL d   1      19.383 -20.084   0.885  0.00  0.00     0.169 HD
ATOM     32  H   UNL d   1      21.064 -19.690   1.243  0.00  0.00     0.169 HD
ENDBRANCH  27  30
ENDBRANCH  24  27
ENDBRANCH  20  21
ENDBRANCH   3  20
TORSDOF 7
ENDMDL
MODEL 5
REMARK VINA RESULT:    -9.186      1.500      1.897
REMARK INTER + INTRA:         -12.733
REMARK INTER:                 -11.274
REMARK INTRA:                  -1.459
REMARK CONF_INDEPENDENT:        2.088
REMARK UNBOUND:                -1.459
REMARK  7 active torsions:
REMARK  status: ('A' for Active; 'I' for Inactive)
REMARK    1  A    between atoms: C_4  and  O_5 
REMARK    2  A    between atoms: O_5  and  C_6 
REMARK    3  A    between atoms: C_6  and  C_7 
REMARK       I    between atoms: C_7  and  N_9 
REMARK    4  A    between atoms: N_9  and  C_10 
REMARK    5  A    between atoms: C_10  and  C_11 
REMARK    6  A    between atoms: C_14  and  S_15 
REMARK    7  A    between atoms: S_15  and  N_16 
ROOT
ATOM      1  C   UNL d   1      27.750 -15.854   0.213  0.00  0.00     0.242 C 
ATOM      2  O   UNL d   1      28.428 -16.600  -0.489  0.00  0.00    -0.271 OA
ATOM      3  N   UNL d   1      26.453 -15.529  -0.128  0.00  0.00    -0.355 N 
ATOM      4  H   UNL d   1      25.926 -14.972   0.522  0.00  0.00     0.162 HD
ENDROOT
BRANCH   1   5
ATOM      5  C   UNL d   1      28.251 -15.200   1.528  0.00  0.00     0.278 C 
BRANCH   5   6
ATOM      6  O   UNL d   1      27.207 -14.433   2.102  0.00  0.00    -0.341 OA
BRANCH   6   7
ATOM      7  C   UNL d   1      27.309 -13.108   2.388  0.00  0.00     0.083 A 
ATOM      8  C   UNL d   1      27.122 -12.128   1.412  0.00  0.00     0.044 A 
ATOM      9  C   UNL d   1      27.218 -10.768   1.725  0.00  0.00    -0.057 A 
ATOM     10  C   UNL d   1      27.002  -9.749   0.651  0.00  0.00     0.048 C 
ATOM     11  C   UNL d   1      27.511 -10.383   3.035  0.00  0.00     0.045 A 
ATOM     12  C   UNL d   1      27.704 -11.365   4.009  0.00  0.00     0.093 A 
ATOM     13  O   UNL d   1      27.997 -10.888   5.308  0.00  0.00    -0.275 OA
ATOM     14  C   UNL d   1      27.611 -12.738   3.721  0.00  0.00     0.037 A 
ATOM     15  C   UNL d   1      28.208 -11.754   6.365  0.00  0.00     0.288 A 
ATOM     16  C   UNL d   1      28.114 -13.185   6.060  0.00  0.00     0.090 A 
ATOM     17  O   UNL d   1      28.463 -11.370   7.501  0.00  0.00    -0.260 OA
ATOM     18  C   UNL d   1      27.838 -13.678   4.841  0.00  0.00    -0.040 A 
ATOM     19  C   UNL d   1      27.782 -15.171   4.701  0.00  0.00     0.049 C 
ENDBRANCH   6   7
ENDBRANCH   5   6
ENDBRANCH   1   5
BRANCH   3  20
ATOM     20  C   UNL d   1      25.808 -16.054  -1.330  0.00  0.00     0.161 C 
BRANCH  20  21
ATOM     21  C   UNL d   1      24.507 -16.804  -1.079  0.00  0.00    -0.040 C 
ATOM     22  C   UNL d   1      24.509 -18.206  -0.915  0.00  0.00     0.010 C 
ATOM     23  C   UNL d   1      23.305 -18.932  -0.874  0.00  0.00     0.026 C 
ATOM     24  C   UNL d   1      22.089 -18.245  -0.881  0.00  0.00     0.079 C 
ATOM     25  C   UNL d   1      22.072 -16.856  -0.895  0.00  0.00     0.026 C 
ATOM     26  C   UNL d   1      23.264 -16.154  -1.067  0.00  0.00     0.010 C 
BRANCH  24  27
ATOM     27  S   UNL d   1      20.547 -19.123  -0.908  0.00  0.00     0.256 S 
ATOM     28  O   UNL d   1      19.505 -18.199  -0.515  0.00  0.00    -0.201 OA
ATOM     29  O   UNL d   1      20.491 -19.902  -2.120  0.00  0.00    -0.201 OA
BRANCH  27  30
ATOM     30  N   UNL d   1      20.754 -20.211   0.340  0.00  0.00    -0.324 N 
ATOM     31  H   UNL d   1      19.928 -20.716   0.646  0.00  0.00     0.169 HD
ATOM     32  H   UNL d   1      21.506 -20.011   0.993  0.00  0.00     0.169 HD
ENDBRANCH  27  30
ENDBRANCH  24  27
ENDBRANCH  20  21
ENDBRANCH   3  20
TORSDOF 7
ENDMDL
MODEL 6
REMARK VINA RESULT:    -8.851      5.424      9.447
REMARK INTER + INTRA:         -12.505
REMARK INTER:                 -10.939
REMARK INTRA:                  -1.566
REMARK CONF_INDEPENDENT:        2.088
REMARK UNBOUND:                -1.566
REMARK  7 active torsions:
REMARK  status: ('A' for Active; 'I' for Inactive)
REMARK    1  A    between atoms: C_4  and  O_5 
REMARK    2  A    between atoms: O_5  and  C_6 
REMARK    3  A    between atoms: C_6  and  C_7 
REMARK       I    between atoms: C_7  and  N_9 
REMARK    4  A    between atoms: N_9  and  C_10 
REMARK    5  A    between atoms: C_10  and  C_11 
REMARK    6  A    between atoms: C_14  and  S_15 
REMARK    7  A    between atoms: S_15  and  N_16 
ROOT
ATOM      1  C   UNL d   1      30.037 -16.984  -0.781  0.00  0.00     0.242 C 
ATOM      2  O   UNL d   1      30.448 -16.541   0.288  0.00  0.00    -0.271 OA
ATOM      3  N   UNL d   1      28.689 -17.018  -1.074  0.00  0.00    -0.355 N 
ATOM      4  H   UNL d   1      28.418 -17.325  -1.992  0.00  0.00     0.162 HD
ENDROOT
BRANCH   1   5
ATOM      5  C   UNL d   1      30.951 -17.548  -1.902  0.00  0.00     0.278 C 
BRANCH   5   6
ATOM      6  O   UNL d   1      30.155 -17.954  -3.001  0.00  0.00    -0.341 OA
BRANCH   6   7
ATOM      7  C   UNL d   1      30.108 -17.293  -4.188  0.00  0.00     0.083 A 
ATOM      8  C   UNL d   1      29.741 -15.950  -4.270  0.00  0.00     0.044 A 
ATOM      9  C   UNL d   1      29.709 -15.282  -5.498  0.00  0.00    -0.057 A 
ATOM     10  C   UNL d   1      29.318 -13.838  -5.540  0.00  0.00     0.048 C 
ATOM     11  C   UNL d   1      30.045 -15.971  -6.665  0.00  0.00     0.045 A 
ATOM     12  C   UNL d   1      30.406 -17.318  -6.582  0.00  0.00     0.093 A 
ATOM     13  O   UNL d   1      30.730 -17.939  -7.811  0.00  0.00    -0.275 OA
ATOM     14  C   UNL d   1      30.447 -18.012  -5.361  0.00  0.00     0.037 A 
ATOM     15  C   UNL d   1      31.106 -19.268  -7.871  0.00  0.00     0.288 A 
ATOM     16  C   UNL d   1      31.145 -19.990  -6.595  0.00  0.00     0.090 A 
ATOM     17  O   UNL d   1      31.392 -19.834  -8.921  0.00  0.00    -0.260 OA
ATOM     18  C   UNL d   1      30.845 -19.437  -5.408  0.00  0.00    -0.040 A 
ATOM     19  C   UNL d   1      30.933 -20.318  -4.198  0.00  0.00     0.049 C 
ENDBRANCH   6   7
ENDBRANCH   5   6
ENDBRANCH   1   5
BRANCH   3  20
ATOM     20  C   UNL d   1      27.676 -16.525  -0.141  0.00  0.00     0.161 C 
BRANCH  20  21
ATOM     21  C   UNL d   1      26.263 -17.021  -0.415  0.00  0.00    -0.040 C 
ATOM     22  C   UNL d   1      25.390 -16.275  -1.236  0.00  0.00     0.010 C 
ATOM     23  C   UNL d   1      24.029 -16.617  -1.343  0.00  0.00     0.026 C 
ATOM     24  C   UNL d   1      23.562 -17.776  -0.721  0.00  0.00     0.079 C 
ATOM     25  C   UNL d   1      24.441 -18.600  -0.028  0.00  0.00     0.026 C 
ATOM     26  C   UNL d   1      25.754 -18.184   0.180  0.00  0.00     0.010 C 
BRANCH  24  27
ATOM     27  S   UNL d   1      21.840 -18.203  -0.766  0.00  0.00     0.256 S 
ATOM     28  O   UNL d   1      21.083 -16.977  -0.897  0.00  0.00    -0.201 OA
ATOM     29  O   UNL d   1      21.675 -19.327  -1.654  0.00  0.00    -0.201 OA
BRANCH  27  30
ATOM     30  N   UNL d   1      21.595 -18.786   0.778  0.00  0.00    -0.324 N 
ATOM     31  H   UNL d   1      21.591 -19.795   0.889  0.00  0.00     0.169 HD
ATOM     32  H   UNL d   1      21.048 -18.199   1.401  0.00  0.00     0.169 HD
ENDBRANCH  27  30
ENDBRANCH  24  27
ENDBRANCH  20  21
ENDBRANCH   3  20
TORSDOF 7
ENDMDL
MODEL 7
REMARK VINA RESULT:    -8.819      5.807      8.549
REMARK INTER + INTRA:         -12.658
REMARK INTER:                 -10.907
REMARK INTRA:                  -1.751
REMARK CONF_INDEPENDENT:        2.088
REMARK UNBOUND:                -1.751
REMARK  7 active torsions:
REMARK  status: ('A' for Active; 'I' for Inactive)
REMARK    1  A    between atoms: C_4  and  O_5 
REMARK    2  A    between atoms: O_5  and  C_6 
REMARK    3  A    between atoms: C_6  and  C_7 
REMARK       I    between atoms: C_7  and  N_9 
REMARK    4  A    between atoms: N_9  and  C_10 
REMARK    5  A    between atoms: C_10  and  C_11 
REMARK    6  A    between atoms: C_14  and  S_15 
REMARK    7  A    between atoms: S_15  and  N_16 
ROOT
ATOM      1  C   UNL d   1      29.653 -16.329  -1.888  0.00  0.00     0.242 C 
ATOM      2  O   UNL d   1      30.279 -15.860  -0.940  0.00  0.00    -0.271 OA
ATOM      3  N   UNL d   1      28.434 -16.952  -1.706  0.00  0.00    -0.355 N 
ATOM      4  H   UNL d   1      27.937 -17.251  -2.527  0.00  0.00     0.162 HD
ENDROOT
BRANCH   1   5
ATOM      5  C   UNL d   1      30.137 -16.285  -3.362  0.00  0.00     0.278 C 
BRANCH   5   6
ATOM      6  O   UNL d   1      29.025 -16.414  -4.229  0.00  0.00    -0.341 OA
BRANCH   6   7
ATOM      7  C   UNL d   1      28.137 -15.415  -4.478  0.00  0.00     0.083 A 
ATOM      8  C   UNL d   1      26.984 -15.246  -3.710  0.00  0.00     0.044 A 
ATOM      9  C   UNL d   1      26.087 -14.205  -3.973  0.00  0.00    -0.057 A 
ATOM     10  C   UNL d   1      24.867 -14.055  -3.120  0.00  0.00     0.048 C 
ATOM     11  C   UNL d   1      26.345 -13.322  -5.023  0.00  0.00     0.045 A 
ATOM     12  C   UNL d   1      27.497 -13.497  -5.793  0.00  0.00     0.093 A 
ATOM     13  O   UNL d   1      27.681 -12.559  -6.836  0.00  0.00    -0.275 OA
ATOM     14  C   UNL d   1      28.415 -14.532  -5.551  0.00  0.00     0.037 A 
ATOM     15  C   UNL d   1      28.781 -12.616  -7.673  0.00  0.00     0.288 A 
ATOM     16  C   UNL d   1      29.734 -13.700  -7.418  0.00  0.00     0.090 A 
ATOM     17  O   UNL d   1      28.967 -11.817  -8.585  0.00  0.00    -0.260 OA
ATOM     18  C   UNL d   1      29.596 -14.610  -6.440  0.00  0.00    -0.040 A 
ATOM     19  C   UNL d   1      30.663 -15.656  -6.318  0.00  0.00     0.049 C 
ENDBRANCH   6   7
ENDBRANCH   5   6
ENDBRANCH   1   5
BRANCH   3  20
ATOM     20  C   UNL d   1      27.815 -17.084  -0.388  0.00  0.00     0.161 C 
BRANCH  20  21
ATOM     21  C   UNL d   1      26.302 -17.255  -0.409  0.00  0.00    -0.040 C 
ATOM     22  C   UNL d   1      25.653 -18.003   0.597  0.00  0.00     0.010 C 
ATOM     23  C   UNL d   1      24.289 -18.329   0.489  0.00  0.00     0.026 C 
ATOM     24  C   UNL d   1      23.541 -17.811  -0.569  0.00  0.00     0.079 C 
ATOM     25  C   UNL d   1      24.133 -16.953  -1.489  0.00  0.00     0.026 C 
ATOM     26  C   UNL d   1      25.509 -16.742  -1.446  0.00  0.00     0.010 C 
BRANCH  24  27
ATOM     27  S   UNL d   1      21.838 -18.259  -0.787  0.00  0.00     0.256 S 
ATOM     28  O   UNL d   1      21.069 -17.038  -0.899  0.00  0.00    -0.201 OA
ATOM     29  O   UNL d   1      21.770 -19.322  -1.759  0.00  0.00    -0.201 OA
BRANCH  27  30
ATOM     30  N   UNL d   1      21.477 -18.949   0.689  0.00  0.00    -0.324 N 
ATOM     31  H   UNL d   1      21.606 -18.365   1.509  0.00  0.00     0.169 HD
ATOM     32  H   UNL d   1      21.585 -19.958   0.754  0.00  0.00     0.169 HD
ENDBRANCH  27  30
ENDBRANCH  24  27
ENDBRANCH  20  21
ENDBRANCH   3  20
TORSDOF 7
ENDMDL
MODEL 8
REMARK VINA RESULT:    -8.413      5.292      7.453
REMARK INTER + INTRA:         -12.459
REMARK INTER:                 -10.501
REMARK INTRA:                  -1.959
REMARK CONF_INDEPENDENT:        2.088
REMARK UNBOUND:                -1.959
REMARK  7 active torsions:
REMARK  status: ('A' for Active; 'I' for Inactive)
REMARK    1  A    between atoms: C_4  and  O_5 
REMARK    2  A    between atoms: O_5  and  C_6 
REMARK    3  A    between atoms: C_6  and  C_7 
REMARK       I    between atoms: C_7  and  N_9 
REMARK    4  A    between atoms: N_9  and  C_10 
REMARK    5  A    between atoms: C_10  and  C_11 
REMARK    6  A    between atoms: C_14  and  S_15 
REMARK    7  A    between atoms: S_15  and  N_16 
ROOT
ATOM      1  C   UNL d   1      29.847 -15.182  -0.948  0.00  0.00     0.242 C 
ATOM      2  O   UNL d   1      30.669 -15.974  -1.404  0.00  0.00    -0.271 OA
ATOM      3  N   UNL d   1      28.685 -15.620  -0.346  0.00  0.00    -0.355 N 
ATOM      4  H   UNL d   1      28.087 -14.929   0.072  0.00  0.00     0.162 HD
ENDROOT
BRANCH   1   5
ATOM      5  C   UNL d   1      30.005 -13.639  -0.991  0.00  0.00     0.278 C 
BRANCH   5   6
ATOM      6  O   UNL d   1      29.713 -13.170  -2.295  0.00  0.00    -0.341 OA
BRANCH   6   7
ATOM      7  C   UNL d   1      29.132 -13.929  -3.262  0.00  0.00     0.083 A 
ATOM      8  C   UNL d   1      29.887 -14.708  -4.139  0.00  0.00     0.044 A 
ATOM      9  C   UNL d   1      29.273 -15.493  -5.121  0.00  0.00    -0.057 A 
ATOM     10  C   UNL d   1      30.119 -16.320  -6.037  0.00  0.00     0.048 C 
ATOM     11  C   UNL d   1      27.881 -15.494  -5.229  0.00  0.00     0.045 A 
ATOM     12  C   UNL d   1      27.127 -14.709  -4.354  0.00  0.00     0.093 A 
ATOM     13  O   UNL d   1      25.725 -14.769  -4.533  0.00  0.00    -0.275 OA
ATOM     14  C   UNL d   1      27.719 -13.913  -3.358  0.00  0.00     0.037 A 
ATOM     15  C   UNL d   1      24.863 -14.042  -3.733  0.00  0.00     0.288 A 
ATOM     16  C   UNL d   1      25.485 -13.211  -2.697  0.00  0.00     0.090 A 
ATOM     17  O   UNL d   1      23.644 -14.074  -3.865  0.00  0.00    -0.260 OA
ATOM     18  C   UNL d   1      26.810 -13.126  -2.495  0.00  0.00    -0.040 A 
ATOM     19  C   UNL d   1      27.280 -12.225  -1.393  0.00  0.00     0.049 C 
ENDBRANCH   6   7
ENDBRANCH   5   6
ENDBRANCH   1   5
BRANCH   3  20
ATOM     20  C   UNL d   1      28.366 -17.041  -0.208  0.00  0.00     0.161 C 
BRANCH  20  21
ATOM     21  C   UNL d   1      26.902 -17.390  -0.433  0.00  0.00    -0.040 C 
ATOM     22  C   UNL d   1      26.217 -16.905  -1.569  0.00  0.00     0.010 C 
ATOM     23  C   UNL d   1      24.825 -17.058  -1.694  0.00  0.00     0.026 C 
ATOM     24  C   UNL d   1      24.126 -17.797  -0.738  0.00  0.00     0.079 C 
ATOM     25  C   UNL d   1      24.808 -18.404   0.310  0.00  0.00     0.026 C 
ATOM     26  C   UNL d   1      26.164 -18.139   0.495  0.00  0.00     0.010 C 
BRANCH  24  27
ATOM     27  S   UNL d   1      22.360 -17.950  -0.815  0.00  0.00     0.256 S 
ATOM     28  O   UNL d   1      21.803 -16.616  -0.875  0.00  0.00    -0.201 OA
ATOM     29  O   UNL d   1      22.035 -18.981  -1.768  0.00  0.00    -0.201 OA
BRANCH  27  30
ATOM     30  N   UNL d   1      22.008 -18.576   0.691  0.00  0.00    -0.324 N 
ATOM     31  H   UNL d   1      21.995 -19.588   0.772  0.00  0.00     0.169 HD
ATOM     32  H   UNL d   1      21.421 -18.005   1.292  0.00  0.00     0.169 HD
ENDBRANCH  27  30
ENDBRANCH  24  27
ENDBRANCH  20  21
ENDBRANCH   3  20
TORSDOF 7
ENDMDL
MODEL 9
REMARK VINA RESULT:    -7.968      3.671      8.135
REMARK INTER + INTRA:         -12.204
REMARK INTER:                 -10.056
REMARK INTRA:                  -2.148
REMARK CONF_INDEPENDENT:        2.088
REMARK UNBOUND:                -2.148
REMARK  7 active torsions:
REMARK  status: ('A' for Active; 'I' for Inactive)
REMARK    1  A    between atoms: C_4  and  O_5 
REMARK    2  A    between atoms: O_5  and  C_6 
REMARK    3  A    between atoms: C_6  and  C_7 
REMARK       I    between atoms: C_7  and  N_9 
REMARK    4  A    between atoms: N_9  and  C_10 
REMARK    5  A    between atoms: C_10  and  C_11 
REMARK    6  A    between atoms: C_14  and  S_15 
REMARK    7  A    between atoms: S_15  and  N_16 
ROOT
ATOM      1  C   UNL d   1      25.651 -12.978  -2.864  0.00  0.00     0.242 C 
ATOM      2  O   UNL d   1      25.827 -11.834  -3.276  0.00  0.00    -0.271 OA
ATOM      3  N   UNL d   1      26.207 -13.407  -1.676  0.00  0.00    -0.355 N 
ATOM      4  H   UNL d   1      25.969 -14.330  -1.356  0.00  0.00     0.162 HD
ENDROOT
BRANCH   1   5
ATOM      5  C   UNL d   1      24.810 -14.053  -3.603  0.00  0.00     0.278 C 
BRANCH   5   6
ATOM      6  O   UNL d   1      25.485 -15.297  -3.554  0.00  0.00    -0.341 OA
BRANCH   6   7
ATOM      7  C   UNL d   1      25.538 -16.088  -2.449  0.00  0.00     0.083 A 
ATOM      8  C   UNL d   1      24.385 -16.596  -1.851  0.00  0.00     0.044 A 
ATOM      9  C   UNL d   1      24.457 -17.417  -0.721  0.00  0.00    -0.057 A 
ATOM     10  C   UNL d   1      23.196 -17.948  -0.116  0.00  0.00     0.048 C 
ATOM     11  C   UNL d   1      25.705 -17.733  -0.179  0.00  0.00     0.045 A 
ATOM     12  C   UNL d   1      26.858 -17.219  -0.777  0.00  0.00     0.093 A 
ATOM     13  O   UNL d   1      28.079 -17.587  -0.164  0.00  0.00    -0.275 OA
ATOM     14  C   UNL d   1      26.813 -16.392  -1.912  0.00  0.00     0.037 A 
ATOM     15  C   UNL d   1      29.295 -17.149  -0.655  0.00  0.00     0.288 A 
ATOM     16  C   UNL d   1      29.243 -16.284  -1.838  0.00  0.00     0.090 A 
ATOM     17  O   UNL d   1      30.368 -17.451  -0.145  0.00  0.00    -0.260 OA
ATOM     18  C   UNL d   1      28.106 -15.912  -2.449  0.00  0.00    -0.040 A 
ATOM     19  C   UNL d   1      28.231 -15.020  -3.648  0.00  0.00     0.049 C 
ENDBRANCH   6   7
ENDBRANCH   5   6
ENDBRANCH   1   5
BRANCH   3  20
ATOM     20  C   UNL d   1      27.026 -12.533  -0.838  0.00  0.00     0.161 C 
BRANCH  20  21
ATOM     21  C   UNL d   1      27.254 -13.039   0.580  0.00  0.00    -0.040 C 
ATOM     22  C   UNL d   1      27.043 -12.188   1.686  0.00  0.00     0.010 C 
ATOM     23  C   UNL d   1      27.430 -12.577   2.982  0.00  0.00     0.026 C 
ATOM     24  C   UNL d   1      27.923 -13.865   3.193  0.00  0.00     0.079 C 
ATOM     25  C   UNL d   1      28.001 -14.766   2.138  0.00  0.00     0.026 C 
ATOM     26  C   UNL d   1      27.739 -14.329   0.840  0.00  0.00     0.010 C 
BRANCH  24  27
ATOM     27  S   UNL d   1      28.494 -14.371   4.796  0.00  0.00     0.256 S 
ATOM     28  O   UNL d   1      28.545 -13.196   5.639  0.00  0.00    -0.201 OA
ATOM     29  O   UNL d   1      27.794 -15.575   5.167  0.00  0.00    -0.201 OA
BRANCH  27  30
ATOM     30  N   UNL d   1      30.066 -14.825   4.468  0.00  0.00    -0.324 N 
ATOM     31  H   UNL d   1      30.194 -15.715   3.999  0.00  0.00     0.169 HD
ATOM     32  H   UNL d   1      30.780 -14.466   5.096  0.00  0.00     0.169 HD
ENDBRANCH  27  30
ENDBRANCH  24  27
ENDBRANCH  20  21
ENDBRANCH   3  20
TORSDOF 7
ENDMDL
