MODEL 1
REMARK VINA RESULT:   -10.335      0.000      0.000
REMARK INTER + INTRA:         -13.894
REMARK INTER:                 -12.423
REMARK INTRA:                  -1.470
REMARK CONF_INDEPENDENT:        2.088
REMARK UNBOUND:                -1.470
REMARK  7 active torsions:
REMARK  status: ('A' for Active; 'I' for Inactive)
REMARK    1  A    between atoms: C_2  and  C_3 
REMARK    2  A    between atoms: C_3  and  C_4 
REMARK    3  A    between atoms: C_5  and  C_4 
REMARK    4  A    between atoms: C_8  and  C_9 
REMARK    5  A    between atoms: C_14  and  N_15 
REMARK    6  A    between atoms: C_18  and  C_19 
REMARK       I    between atoms: C_19  and  N_21 
REMARK    7  A    between atoms: N_21  and  C_22 
ROOT
ATOM      1  C   UNL d   1      26.792 -14.128   0.607  0.00  0.00     0.153 A 
ATOM      2  N   UNL d   1      26.593 -12.813   0.498  0.00  0.00    -0.213 NA
ATOM      3  C   UNL d   1      26.970 -12.300   1.744  0.00  0.00     0.190 A 
ATOM      4  C   UNL d   1      26.984 -10.912   2.133  0.00  0.00     0.124 C 
ATOM      5  N   UNL d   1      27.041  -9.845   2.578  0.00  0.00    -0.190 NA
ATOM      6  C   UNL d   1      27.404 -13.306   2.579  0.00  0.00     0.187 A 
ATOM      7  O   UNL d   1      27.315 -14.480   1.849  0.00  0.00    -0.276 OA
ENDROOT
BRANCH   6   8
ATOM      8  N   UNL d   1      27.849 -13.333   3.870  0.00  0.00    -0.359 N 
ATOM      9  C   UNL d   1      29.001 -12.556   4.331  0.00  0.00     0.126 C 
ATOM     10  C   UNL d   1      30.110 -13.471   4.868  0.00  0.00     0.034 C 
ATOM     11  C   UNL d   1      29.594 -14.416   5.960  0.00  0.00     0.081 C 
ATOM     12  C   UNL d   1      28.359 -15.177   5.415  0.00  0.00     0.034 C 
ATOM     13  C   UNL d   1      27.271 -14.225   4.868  0.00  0.00     0.126 C 
BRANCH  11  14
ATOM     14  C   UNL d   1      29.222 -13.680   7.259  0.00  0.00     0.226 C 
ATOM     15  O   UNL d   1      28.913 -12.491   7.228  0.00  0.00    -0.273 OA
ATOM     16  N   UNL d   1      29.352 -14.387   8.445  0.00  0.00    -0.322 N 
ATOM     17  H   UNL d   1      29.824 -15.281   8.447  0.00  0.00     0.169 HD
BRANCH  16  18
ATOM     18  C   UNL d   1      29.099 -13.790   9.673  0.00  0.00     0.101 A 
ATOM     19  C   UNL d   1      28.028 -14.087  10.433  0.00  0.00     0.121 A 
ATOM     20  N   UNL d   1      27.780 -13.519  11.662  0.00  0.00    -0.373 N 
ATOM     21  C   UNL d   1      28.606 -12.562  12.185  0.00  0.00     0.091 A 
ATOM     22  H   UNL d   1      27.008 -13.861  12.230  0.00  0.00     0.164 HD
ATOM     23  C   UNL d   1      29.698 -12.129  11.548  0.00  0.00     0.074 A 
ATOM     24  C   UNL d   1      30.031 -12.720  10.224  0.00  0.00     0.201 A 
ATOM     25  O   UNL d   1      30.971 -12.246   9.592  0.00  0.00    -0.286 OA
ENDBRANCH  16  18
ENDBRANCH  11  14
ENDBRANCH   6   8
BRANCH   1  26
ATOM     26  C   UNL d   1      26.630 -15.272  -0.467  0.00  0.00     0.063 C 
ATOM     27  C   UNL d   1      25.530 -14.987  -1.546  0.00  0.00     0.013 C 
ATOM     28  C   UNL d   1      25.157 -16.203  -2.425  0.00  0.00     0.005 C 
ATOM     29  C   UNL d   1      24.783 -17.464  -1.630  0.00  0.00    -0.014 C 
ATOM     30  C   UNL d   1      25.950 -17.804  -0.686  0.00  0.00     0.005 C 
ATOM     31  C   UNL d   1      26.429 -16.642   0.227  0.00  0.00     0.013 C 
BRANCH  29  32
ATOM     32  C   UNL d   1      23.417 -17.363  -0.900  0.00  0.00     0.004 C 
BRANCH  32  33
ATOM     33  C   UNL d   1      22.527 -18.555  -1.171  0.00  0.00     0.000 C 
BRANCH  33  34
ATOM     34  C   UNL d   1      21.512 -18.954  -0.148  0.00  0.00    -0.005 C 
ATOM     35  C   UNL d   1      20.207 -19.219  -0.893  0.00  0.00     0.005 C 
ENDBRANCH  33  34
ENDBRANCH  32  33
ENDBRANCH  29  32
ENDBRANCH   1  26
TORSDOF 7
ENDMDL
MODEL 2
REMARK VINA RESULT:   -10.320      0.998      1.101
REMARK INTER + INTRA:         -13.850
REMARK INTER:                 -12.408
REMARK INTRA:                  -1.442
REMARK CONF_INDEPENDENT:        2.088
REMARK UNBOUND:                -1.442
REMARK  7 active torsions:
REMARK  status: ('A' for Active; 'I' for Inactive)
REMARK    1  A    between atoms: C_2  and  C_3 
REMARK    2  A    between atoms: C_3  and  C_4 
REMARK    3  A    between atoms: C_5  and  C_4 
REMARK    4  A    between atoms: C_8  and  C_9 
REMARK    5  A    between atoms: C_14  and  N_15 
REMARK    6  A    between atoms: C_18  and  C_19 
REMARK       I    between atoms: C_19  and  N_21 
REMARK    7  A    between atoms: N_21  and  C_22 
ROOT
ATOM      1  C   UNL d   1      26.701 -14.450   0.759  0.00  0.00     0.153 A 
ATOM      2  N   UNL d   1      26.497 -13.148   0.546  0.00  0.00    -0.213 NA
ATOM      3  C   UNL d   1      26.928 -12.531   1.726  0.00  0.00     0.190 A 
ATOM      4  C   UNL d   1      26.959 -11.115   1.992  0.00  0.00     0.124 C 
ATOM      5  N   UNL d   1      27.035 -10.013   2.341  0.00  0.00    -0.190 NA
ATOM      6  C   UNL d   1      27.399 -13.463   2.624  0.00  0.00     0.187 A 
ATOM      7  O   UNL d   1      27.279 -14.695   2.003  0.00  0.00    -0.276 OA
ENDROOT
BRANCH   6   8
ATOM      8  N   UNL d   1      27.902 -13.380   3.891  0.00  0.00    -0.359 N 
ATOM      9  C   UNL d   1      28.747 -12.273   4.341  0.00  0.00     0.126 C 
ATOM     10  C   UNL d   1      30.130 -12.773   4.782  0.00  0.00     0.034 C 
ATOM     11  C   UNL d   1      30.029 -13.874   5.845  0.00  0.00     0.081 C 
ATOM     12  C   UNL d   1      29.095 -14.991   5.316  0.00  0.00     0.034 C 
ATOM     13  C   UNL d   1      27.719 -14.449   4.866  0.00  0.00     0.126 C 
BRANCH  11  14
ATOM     14  C   UNL d   1      29.506 -13.353   7.195  0.00  0.00     0.226 C 
ATOM     15  O   UNL d   1      29.301 -12.151   7.356  0.00  0.00    -0.273 OA
ATOM     16  N   UNL d   1      29.383 -14.275   8.224  0.00  0.00    -0.322 N 
ATOM     17  H   UNL d   1      29.776 -15.200   8.117  0.00  0.00     0.169 HD
BRANCH  16  18
ATOM     18  C   UNL d   1      28.978 -13.890   9.495  0.00  0.00     0.101 A 
ATOM     19  C   UNL d   1      28.353 -12.725   9.750  0.00  0.00     0.121 A 
ATOM     20  N   UNL d   1      27.926 -12.344  11.003  0.00  0.00    -0.373 N 
ATOM     21  C   UNL d   1      28.154 -13.126  12.102  0.00  0.00     0.091 A 
ATOM     22  H   UNL d   1      27.371 -11.499  11.111  0.00  0.00     0.164 HD
ATOM     23  C   UNL d   1      28.789 -14.300  12.031  0.00  0.00     0.074 A 
ATOM     24  C   UNL d   1      29.255 -14.777  10.701  0.00  0.00     0.201 A 
ATOM     25  O   UNL d   1      29.933 -15.800  10.651  0.00  0.00    -0.286 OA
ENDBRANCH  16  18
ENDBRANCH  11  14
ENDBRANCH   6   8
BRANCH   1  26
ATOM     26  C   UNL d   1      26.492 -15.681  -0.204  0.00  0.00     0.063 C 
ATOM     27  C   UNL d   1      25.187 -15.605  -1.068  0.00  0.00     0.013 C 
ATOM     28  C   UNL d   1      24.816 -16.918  -1.795  0.00  0.00     0.005 C 
ATOM     29  C   UNL d   1      24.757 -18.151  -0.880  0.00  0.00    -0.014 C 
ATOM     30  C   UNL d   1      26.110 -18.284  -0.159  0.00  0.00     0.005 C 
ATOM     31  C   UNL d   1      26.596 -17.009   0.586  0.00  0.00     0.013 C 
BRANCH  29  32
ATOM     32  C   UNL d   1      23.545 -18.154   0.090  0.00  0.00     0.004 C 
BRANCH  32  33
ATOM     33  C   UNL d   1      22.221 -18.223  -0.637  0.00  0.00     0.000 C 
BRANCH  33  34
ATOM     34  C   UNL d   1      21.282 -19.346  -0.334  0.00  0.00    -0.005 C 
ATOM     35  C   UNL d   1      19.918 -18.950  -0.892  0.00  0.00     0.005 C 
ENDBRANCH  33  34
ENDBRANCH  32  33
ENDBRANCH  29  32
ENDBRANCH   1  26
TORSDOF 7
ENDMDL
MODEL 3
REMARK VINA RESULT:    -9.676      8.123     11.279
REMARK INTER + INTRA:         -13.375
REMARK INTER:                 -11.765
REMARK INTRA:                  -1.610
REMARK CONF_INDEPENDENT:        2.088
REMARK UNBOUND:                -1.610
REMARK  7 active torsions:
REMARK  status: ('A' for Active; 'I' for Inactive)
REMARK    1  A    between atoms: C_2  and  C_3 
REMARK    2  A    between atoms: C_3  and  C_4 
REMARK    3  A    between atoms: C_5  and  C_4 
REMARK    4  A    between atoms: C_8  and  C_9 
REMARK    5  A    between atoms: C_14  and  N_15 
REMARK    6  A    between atoms: C_18  and  C_19 
REMARK       I    between atoms: C_19  and  N_21 
REMARK    7  A    between atoms: N_21  and  C_22 
ROOT
ATOM      1  C   UNL d   1      25.370 -15.560  -2.338  0.00  0.00     0.153 A 
ATOM      2  N   UNL d   1      26.076 -16.066  -3.351  0.00  0.00    -0.213 NA
ATOM      3  C   UNL d   1      26.368 -14.962  -4.159  0.00  0.00     0.190 A 
ATOM      4  C   UNL d   1      27.154 -14.966  -5.367  0.00  0.00     0.124 C 
ATOM      5  N   UNL d   1      27.756 -14.823  -6.346  0.00  0.00    -0.190 NA
ATOM      6  C   UNL d   1      25.850 -13.806  -3.617  0.00  0.00     0.187 A 
ATOM      7  O   UNL d   1      25.227 -14.177  -2.437  0.00  0.00    -0.276 OA
ENDROOT
BRANCH   6   8
ATOM      8  N   UNL d   1      25.842 -12.500  -4.016  0.00  0.00    -0.359 N 
ATOM      9  C   UNL d   1      25.529 -12.087  -5.385  0.00  0.00     0.126 C 
ATOM     10  C   UNL d   1      26.712 -11.349  -6.028  0.00  0.00     0.034 C 
ATOM     11  C   UNL d   1      27.180 -10.164  -5.174  0.00  0.00     0.081 C 
ATOM     12  C   UNL d   1      27.459 -10.667  -3.735  0.00  0.00     0.034 C 
ATOM     13  C   UNL d   1      26.253 -11.419  -3.127  0.00  0.00     0.126 C 
BRANCH  11  14
ATOM     14  C   UNL d   1      26.157  -9.016  -5.136  0.00  0.00     0.226 C 
ATOM     15  O   UNL d   1      26.178  -8.200  -4.216  0.00  0.00    -0.273 OA
ATOM     16  N   UNL d   1      25.171  -9.014  -6.112  0.00  0.00    -0.322 N 
ATOM     17  H   UNL d   1      25.054  -9.823  -6.707  0.00  0.00     0.169 HD
BRANCH  16  18
ATOM     18  C   UNL d   1      24.167  -8.056  -6.124  0.00  0.00     0.101 A 
ATOM     19  C   UNL d   1      23.128  -8.064  -5.267  0.00  0.00     0.121 A 
ATOM     20  N   UNL d   1      22.139  -7.105  -5.255  0.00  0.00    -0.373 N 
ATOM     21  C   UNL d   1      22.128  -6.081  -6.162  0.00  0.00     0.091 A 
ATOM     22  H   UNL d   1      21.438  -7.113  -4.518  0.00  0.00     0.164 HD
ATOM     23  C   UNL d   1      23.068  -5.941  -7.101  0.00  0.00     0.074 A 
ATOM     24  C   UNL d   1      24.175  -6.933  -7.152  0.00  0.00     0.201 A 
ATOM     25  O   UNL d   1      24.977  -6.867  -8.080  0.00  0.00    -0.286 OA
ENDBRANCH  16  18
ENDBRANCH  11  14
ENDBRANCH   6   8
BRANCH   1  26
ATOM     26  C   UNL d   1      24.797 -16.262  -1.048  0.00  0.00     0.063 C 
ATOM     27  C   UNL d   1      25.238 -17.756  -0.882  0.00  0.00     0.013 C 
ATOM     28  C   UNL d   1      24.466 -18.540   0.205  0.00  0.00     0.005 C 
ATOM     29  C   UNL d   1      22.938 -18.467   0.070  0.00  0.00    -0.014 C 
ATOM     30  C   UNL d   1      22.523 -16.984   0.062  0.00  0.00     0.005 C 
ATOM     31  C   UNL d   1      23.259 -16.092  -0.976  0.00  0.00     0.013 C 
BRANCH  29  32
ATOM     32  C   UNL d   1      22.375 -19.263  -1.138  0.00  0.00     0.004 C 
BRANCH  32  33
ATOM     33  C   UNL d   1      20.872 -19.147  -1.259  0.00  0.00     0.000 C 
BRANCH  33  34
ATOM     34  C   UNL d   1      20.029 -19.310  -0.035  0.00  0.00    -0.005 C 
ATOM     35  C   UNL d   1      19.931 -20.808   0.243  0.00  0.00     0.005 C 
ENDBRANCH  33  34
ENDBRANCH  32  33
ENDBRANCH  29  32
ENDBRANCH   1  26
TORSDOF 7
ENDMDL
MODEL 4
REMARK VINA RESULT:    -9.572      1.917      2.071
REMARK INTER + INTRA:         -13.111
REMARK INTER:                 -11.660
REMARK INTRA:                  -1.450
REMARK CONF_INDEPENDENT:        2.088
REMARK UNBOUND:                -1.450
REMARK  7 active torsions:
REMARK  status: ('A' for Active; 'I' for Inactive)
REMARK    1  A    between atoms: C_2  and  C_3 
REMARK    2  A    between atoms: C_3  and  C_4 
REMARK    3  A    between atoms: C_5  and  C_4 
REMARK    4  A    between atoms: C_8  and  C_9 
REMARK    5  A    between atoms: C_14  and  N_15 
REMARK    6  A    between atoms: C_18  and  C_19 
REMARK       I    between atoms: C_19  and  N_21 
REMARK    7  A    between atoms: N_21  and  C_22 
ROOT
ATOM      1  C   UNL d   1      26.871 -14.951   0.246  0.00  0.00     0.153 A 
ATOM      2  N   UNL d   1      27.050 -13.696  -0.171  0.00  0.00    -0.213 NA
ATOM      3  C   UNL d   1      27.606 -13.039   0.932  0.00  0.00     0.190 A 
ATOM      4  C   UNL d   1      28.030 -11.662   0.987  0.00  0.00     0.124 C 
ATOM      5  N   UNL d   1      28.406 -10.583   1.173  0.00  0.00    -0.190 NA
ATOM      6  C   UNL d   1      27.769 -13.906   1.990  0.00  0.00     0.187 A 
ATOM      7  O   UNL d   1      27.321 -15.140   1.551  0.00  0.00    -0.276 OA
ENDROOT
BRANCH   6   8
ATOM      8  N   UNL d   1      28.239 -13.759   3.264  0.00  0.00    -0.359 N 
ATOM      9  C   UNL d   1      29.613 -13.354   3.563  0.00  0.00     0.126 C 
ATOM     10  C   UNL d   1      30.349 -14.434   4.367  0.00  0.00     0.034 C 
ATOM     11  C   UNL d   1      29.586 -14.822   5.640  0.00  0.00     0.081 C 
ATOM     12  C   UNL d   1      28.135 -15.204   5.251  0.00  0.00     0.034 C 
ATOM     13  C   UNL d   1      27.431 -14.101   4.429  0.00  0.00     0.126 C 
BRANCH  11  14
ATOM     14  C   UNL d   1      29.565 -13.697   6.688  0.00  0.00     0.226 C 
ATOM     15  O   UNL d   1      28.522 -13.425   7.281  0.00  0.00    -0.273 OA
ATOM     16  N   UNL d   1      30.728 -12.959   6.847  0.00  0.00    -0.322 N 
ATOM     17  H   UNL d   1      31.484 -13.065   6.184  0.00  0.00     0.169 HD
BRANCH  16  18
ATOM     18  C   UNL d   1      30.789 -11.884   7.724  0.00  0.00     0.101 A 
ATOM     19  C   UNL d   1      29.701 -11.343   8.305  0.00  0.00     0.121 A 
ATOM     20  N   UNL d   1      29.751 -10.293   9.194  0.00  0.00    -0.373 N 
ATOM     21  C   UNL d   1      30.936  -9.690   9.520  0.00  0.00     0.091 A 
ATOM     22  H   UNL d   1      28.905  -9.997   9.674  0.00  0.00     0.164 HD
ATOM     23  C   UNL d   1      32.107 -10.083   9.010  0.00  0.00     0.074 A 
ATOM     24  C   UNL d   1      32.120 -11.227   8.059  0.00  0.00     0.201 A 
ATOM     25  O   UNL d   1      33.179 -11.517   7.508  0.00  0.00    -0.286 OA
ENDBRANCH  16  18
ENDBRANCH  11  14
ENDBRANCH   6   8
BRANCH   1  26
ATOM     26  C   UNL d   1      26.347 -16.216  -0.536  0.00  0.00     0.063 C 
ATOM     27  C   UNL d   1      25.125 -15.930  -1.474  0.00  0.00     0.013 C 
ATOM     28  C   UNL d   1      24.421 -17.193  -2.021  0.00  0.00     0.005 C 
ATOM     29  C   UNL d   1      24.014 -18.206  -0.940  0.00  0.00    -0.014 C 
ATOM     30  C   UNL d   1      25.268 -18.582  -0.132  0.00  0.00     0.005 C 
ATOM     31  C   UNL d   1      26.073 -17.384   0.444  0.00  0.00     0.013 C 
BRANCH  29  32
ATOM     32  C   UNL d   1      22.833 -17.733  -0.050  0.00  0.00     0.004 C 
BRANCH  32  33
ATOM     33  C   UNL d   1      21.780 -18.803   0.132  0.00  0.00     0.000 C 
BRANCH  33  34
ATOM     34  C   UNL d   1      20.785 -19.038  -0.959  0.00  0.00    -0.005 C 
ATOM     35  C   UNL d   1      19.579 -19.724  -0.322  0.00  0.00     0.005 C 
ENDBRANCH  33  34
ENDBRANCH  32  33
ENDBRANCH  29  32
ENDBRANCH   1  26
TORSDOF 7
ENDMDL
MODEL 5
REMARK VINA RESULT:    -9.541      1.630      2.068
REMARK INTER + INTRA:         -13.173
REMARK INTER:                 -11.629
REMARK INTRA:                  -1.544
REMARK CONF_INDEPENDENT:        2.088
REMARK UNBOUND:                -1.544
REMARK  7 active torsions:
REMARK  status: ('A' for Active; 'I' for Inactive)
REMARK    1  A    between atoms: C_2  and  C_3 
REMARK    2  A    between atoms: C_3  and  C_4 
REMARK    3  A    between atoms: C_5  and  C_4 
REMARK    4  A    between atoms: C_8  and  C_9 
REMARK    5  A    between atoms: C_14  and  N_15 
REMARK    6  A    between atoms: C_18  and  C_19 
REMARK       I    between atoms: C_19  and  N_21 
REMARK    7  A    between atoms: N_21  and  C_22 
ROOT
ATOM      1  C   UNL d   1      26.954 -14.962   0.510  0.00  0.00     0.153 A 
ATOM      2  N   UNL d   1      27.124 -13.674   0.204  0.00  0.00    -0.213 NA
ATOM      3  C   UNL d   1      27.673 -13.111   1.361  0.00  0.00     0.190 A 
ATOM      4  C   UNL d   1      28.087 -11.741   1.537  0.00  0.00     0.124 C 
ATOM      5  N   UNL d   1      28.454 -10.680   1.817  0.00  0.00    -0.190 NA
ATOM      6  C   UNL d   1      27.840 -14.065   2.340  0.00  0.00     0.187 A 
ATOM      7  O   UNL d   1      27.402 -15.261   1.795  0.00  0.00    -0.276 OA
ENDROOT
BRANCH   6   8
ATOM      8  N   UNL d   1      28.306 -14.027   3.624  0.00  0.00    -0.359 N 
ATOM      9  C   UNL d   1      27.501 -13.552   4.749  0.00  0.00     0.126 C 
ATOM     10  C   UNL d   1      28.147 -12.333   5.422  0.00  0.00     0.034 C 
ATOM     11  C   UNL d   1      29.596 -12.612   5.843  0.00  0.00     0.081 C 
ATOM     12  C   UNL d   1      30.377 -13.142   4.613  0.00  0.00     0.034 C 
ATOM     13  C   UNL d   1      29.688 -14.358   3.953  0.00  0.00     0.126 C 
BRANCH  11  14
ATOM     14  C   UNL d   1      29.697 -13.622   6.999  0.00  0.00     0.226 C 
ATOM     15  O   UNL d   1      28.860 -14.515   7.113  0.00  0.00    -0.273 OA
ATOM     16  N   UNL d   1      30.696 -13.410   7.938  0.00  0.00    -0.322 N 
ATOM     17  H   UNL d   1      31.212 -12.541   7.933  0.00  0.00     0.169 HD
BRANCH  16  18
ATOM     18  C   UNL d   1      30.828 -14.230   9.050  0.00  0.00     0.101 A 
ATOM     19  C   UNL d   1      31.894 -15.027   9.258  0.00  0.00     0.121 A 
ATOM     20  N   UNL d   1      32.046 -15.827  10.368  0.00  0.00    -0.373 N 
ATOM     21  C   UNL d   1      31.081 -15.896  11.335  0.00  0.00     0.091 A 
ATOM     22  H   UNL d   1      32.920 -16.327  10.513  0.00  0.00     0.164 HD
ATOM     23  C   UNL d   1      29.946 -15.194  11.270  0.00  0.00     0.074 A 
ATOM     24  C   UNL d   1      29.732 -14.294  10.105  0.00  0.00     0.201 A 
ATOM     25  O   UNL d   1      28.645 -13.734   9.990  0.00  0.00    -0.286 OA
ENDBRANCH  16  18
ENDBRANCH  11  14
ENDBRANCH   6   8
BRANCH   1  26
ATOM     26  C   UNL d   1      26.442 -16.158  -0.380  0.00  0.00     0.063 C 
ATOM     27  C   UNL d   1      25.196 -15.812  -1.266  0.00  0.00     0.013 C 
ATOM     28  C   UNL d   1      24.508 -17.032  -1.919  0.00  0.00     0.005 C 
ATOM     29  C   UNL d   1      24.143 -18.153  -0.933  0.00  0.00    -0.014 C 
ATOM     30  C   UNL d   1      25.420 -18.575  -0.186  0.00  0.00     0.005 C 
ATOM     31  C   UNL d   1      26.211 -17.420   0.488  0.00  0.00     0.013 C 
BRANCH  29  32
ATOM     32  C   UNL d   1      22.970 -17.793   0.018  0.00  0.00     0.004 C 
BRANCH  32  33
ATOM     33  C   UNL d   1      21.904 -18.865   0.054  0.00  0.00     0.000 C 
BRANCH  33  34
ATOM     34  C   UNL d   1      20.927 -18.958  -1.073  0.00  0.00    -0.005 C 
ATOM     35  C   UNL d   1      19.660 -19.600  -0.514  0.00  0.00     0.005 C 
ENDBRANCH  33  34
ENDBRANCH  32  33
ENDBRANCH  29  32
ENDBRANCH   1  26
TORSDOF 7
ENDMDL
MODEL 6
REMARK VINA RESULT:    -9.526      1.095      1.302
REMARK INTER + INTRA:         -13.013
REMARK INTER:                 -11.614
REMARK INTRA:                  -1.400
REMARK CONF_INDEPENDENT:        2.088
REMARK UNBOUND:                -1.400
REMARK  7 active torsions:
REMARK  status: ('A' for Active; 'I' for Inactive)
REMARK    1  A    between atoms: C_2  and  C_3 
REMARK    2  A    between atoms: C_3  and  C_4 
REMARK    3  A    between atoms: C_5  and  C_4 
REMARK    4  A    between atoms: C_8  and  C_9 
REMARK    5  A    between atoms: C_14  and  N_15 
REMARK    6  A    between atoms: C_18  and  C_19 
REMARK       I    between atoms: C_19  and  N_21 
REMARK    7  A    between atoms: N_21  and  C_22 
ROOT
ATOM      1  C   UNL d   1      27.139 -13.206   0.381  0.00  0.00     0.153 A 
ATOM      2  N   UNL d   1      26.951 -11.886   0.442  0.00  0.00    -0.213 NA
ATOM      3  C   UNL d   1      27.213 -11.559   1.777  0.00  0.00     0.190 A 
ATOM      4  C   UNL d   1      27.192 -10.239   2.357  0.00  0.00     0.124 C 
ATOM      5  N   UNL d   1      27.209  -9.246   2.952  0.00  0.00    -0.190 NA
ATOM      6  C   UNL d   1      27.567 -12.678   2.496  0.00  0.00     0.187 A 
ATOM      7  O   UNL d   1      27.545 -13.736   1.604  0.00  0.00    -0.276 OA
ENDROOT
BRANCH   6   8
ATOM      8  N   UNL d   1      27.892 -12.892   3.806  0.00  0.00    -0.359 N 
ATOM      9  C   UNL d   1      29.041 -12.258   4.455  0.00  0.00     0.126 C 
ATOM     10  C   UNL d   1      30.042 -13.306   4.961  0.00  0.00     0.034 C 
ATOM     11  C   UNL d   1      29.375 -14.339   5.878  0.00  0.00     0.081 C 
ATOM     12  C   UNL d   1      28.152 -14.941   5.141  0.00  0.00     0.034 C 
ATOM     13  C   UNL d   1      27.175 -13.857   4.632  0.00  0.00     0.126 C 
BRANCH  11  14
ATOM     14  C   UNL d   1      28.931 -13.742   7.225  0.00  0.00     0.226 C 
ATOM     15  O   UNL d   1      28.383 -12.642   7.262  0.00  0.00    -0.273 OA
ATOM     16  N   UNL d   1      29.268 -14.447   8.371  0.00  0.00    -0.322 N 
ATOM     17  H   UNL d   1      29.914 -15.223   8.310  0.00  0.00     0.169 HD
BRANCH  16  18
ATOM     18  C   UNL d   1      28.966 -13.959   9.635  0.00  0.00     0.101 A 
ATOM     19  C   UNL d   1      28.306 -12.803   9.842  0.00  0.00     0.121 A 
ATOM     20  N   UNL d   1      27.980 -12.322  11.091  0.00  0.00    -0.373 N 
ATOM     21  C   UNL d   1      28.352 -12.983  12.230  0.00  0.00     0.091 A 
ATOM     22  H   UNL d   1      27.393 -11.495  11.175  0.00  0.00     0.164 HD
ATOM     23  C   UNL d   1      29.039 -14.128  12.204  0.00  0.00     0.074 A 
ATOM     24  C   UNL d   1      29.403 -14.711  10.884  0.00  0.00     0.201 A 
ATOM     25  O   UNL d   1      30.126 -15.703  10.862  0.00  0.00    -0.286 OA
ENDBRANCH  16  18
ENDBRANCH  11  14
ENDBRANCH   6   8
BRANCH   1  26
ATOM     26  C   UNL d   1      27.075 -14.185  -0.853  0.00  0.00     0.063 C 
ATOM     27  C   UNL d   1      25.905 -13.884  -1.852  0.00  0.00     0.013 C 
ATOM     28  C   UNL d   1      25.649 -14.991  -2.900  0.00  0.00     0.005 C 
ATOM     29  C   UNL d   1      25.467 -16.395  -2.303  0.00  0.00    -0.014 C 
ATOM     30  C   UNL d   1      26.705 -16.722  -1.449  0.00  0.00     0.005 C 
ATOM     31  C   UNL d   1      27.074 -15.659  -0.376  0.00  0.00     0.013 C 
BRANCH  29  32
ATOM     32  C   UNL d   1      24.130 -16.582  -1.537  0.00  0.00     0.004 C 
BRANCH  32  33
ATOM     33  C   UNL d   1      24.020 -17.945  -0.891  0.00  0.00     0.000 C 
BRANCH  33  34
ATOM     34  C   UNL d   1      22.905 -18.855  -1.297  0.00  0.00    -0.005 C 
ATOM     35  C   UNL d   1      21.839 -18.769  -0.209  0.00  0.00     0.005 C 
ENDBRANCH  33  34
ENDBRANCH  32  33
ENDBRANCH  29  32
ENDBRANCH   1  26
TORSDOF 7
ENDMDL
MODEL 7
REMARK VINA RESULT:    -8.740      1.735      2.269
REMARK INTER + INTRA:         -12.076
REMARK INTER:                 -10.828
REMARK INTRA:                  -1.248
REMARK CONF_INDEPENDENT:        2.088
REMARK UNBOUND:                -1.248
REMARK  7 active torsions:
REMARK  status: ('A' for Active; 'I' for Inactive)
REMARK    1  A    between atoms: C_2  and  C_3 
REMARK    2  A    between atoms: C_3  and  C_4 
REMARK    3  A    between atoms: C_5  and  C_4 
REMARK    4  A    between atoms: C_8  and  C_9 
REMARK    5  A    between atoms: C_14  and  N_15 
REMARK    6  A    between atoms: C_18  and  C_19 
REMARK       I    between atoms: C_19  and  N_21 
REMARK    7  A    between atoms: N_21  and  C_22 
ROOT
ATOM      1  C   UNL d   1      27.379 -14.096   0.732  0.00  0.00     0.153 A 
ATOM      2  N   UNL d   1      27.282 -12.766   0.673  0.00  0.00    -0.213 NA
ATOM      3  C   UNL d   1      27.803 -12.326   1.895  0.00  0.00     0.190 A 
ATOM      4  C   UNL d   1      27.966 -10.957   2.316  0.00  0.00     0.124 C 
ATOM      5  N   UNL d   1      28.149  -9.913   2.781  0.00  0.00    -0.190 NA
ATOM      6  C   UNL d   1      28.218 -13.391   2.664  0.00  0.00     0.187 A 
ATOM      7  O   UNL d   1      27.971 -14.529   1.916  0.00  0.00    -0.276 OA
ENDROOT
BRANCH   6   8
ATOM      8  N   UNL d   1      28.765 -13.495   3.912  0.00  0.00    -0.359 N 
ATOM      9  C   UNL d   1      29.184 -14.770   4.494  0.00  0.00     0.126 C 
ATOM     10  C   UNL d   1      28.405 -15.077   5.781  0.00  0.00     0.034 C 
ATOM     11  C   UNL d   1      28.507 -13.933   6.798  0.00  0.00     0.081 C 
ATOM     12  C   UNL d   1      28.083 -12.613   6.104  0.00  0.00     0.034 C 
ATOM     13  C   UNL d   1      28.875 -12.346   4.805  0.00  0.00     0.126 C 
BRANCH  11  14
ATOM     14  C   UNL d   1      29.920 -13.782   7.387  0.00  0.00     0.226 C 
ATOM     15  O   UNL d   1      30.769 -13.122   6.791  0.00  0.00    -0.273 OA
ATOM     16  N   UNL d   1      30.204 -14.497   8.541  0.00  0.00    -0.322 N 
ATOM     17  H   UNL d   1      29.555 -15.200   8.867  0.00  0.00     0.169 HD
BRANCH  16  18
ATOM     18  C   UNL d   1      31.468 -14.474   9.112  0.00  0.00     0.101 A 
ATOM     19  C   UNL d   1      32.076 -15.570   9.606  0.00  0.00     0.121 A 
ATOM     20  N   UNL d   1      33.340 -15.563  10.153  0.00  0.00    -0.373 N 
ATOM     21  C   UNL d   1      34.060 -14.405  10.272  0.00  0.00     0.091 A 
ATOM     22  H   UNL d   1      33.781 -16.441  10.415  0.00  0.00     0.164 HD
ATOM     23  C   UNL d   1      33.593 -13.223   9.861  0.00  0.00     0.074 A 
ATOM     24  C   UNL d   1      32.241 -13.168   9.240  0.00  0.00     0.201 A 
ATOM     25  O   UNL d   1      31.769 -12.069   8.963  0.00  0.00    -0.286 OA
ENDBRANCH  16  18
ENDBRANCH  11  14
ENDBRANCH   6   8
BRANCH   1  26
ATOM     26  C   UNL d   1      27.032 -15.188  -0.352  0.00  0.00     0.063 C 
ATOM     27  C   UNL d   1      26.051 -14.694  -1.470  0.00  0.00     0.013 C 
ATOM     28  C   UNL d   1      25.477 -15.815  -2.367  0.00  0.00     0.005 C 
ATOM     29  C   UNL d   1      24.833 -16.975  -1.592  0.00  0.00    -0.014 C 
ATOM     30  C   UNL d   1      25.874 -17.537  -0.608  0.00  0.00     0.005 C 
ATOM     31  C   UNL d   1      26.540 -16.489   0.328  0.00  0.00     0.013 C 
BRANCH  29  32
ATOM     32  C   UNL d   1      23.488 -16.604  -0.911  0.00  0.00     0.004 C 
BRANCH  32  33
ATOM     33  C   UNL d   1      22.900 -17.756  -0.127  0.00  0.00     0.000 C 
BRANCH  33  34
ATOM     34  C   UNL d   1      22.319 -18.919  -0.866  0.00  0.00    -0.005 C 
ATOM     35  C   UNL d   1      21.032 -19.309  -0.143  0.00  0.00     0.005 C 
ENDBRANCH  33  34
ENDBRANCH  32  33
ENDBRANCH  29  32
ENDBRANCH   1  26
TORSDOF 7
ENDMDL
MODEL 8
REMARK VINA RESULT:    -8.212      1.771      2.314
REMARK INTER + INTRA:         -11.950
REMARK INTER:                 -10.300
REMARK INTRA:                  -1.650
REMARK CONF_INDEPENDENT:        2.088
REMARK UNBOUND:                -1.650
REMARK  7 active torsions:
REMARK  status: ('A' for Active; 'I' for Inactive)
REMARK    1  A    between atoms: C_2  and  C_3 
REMARK    2  A    between atoms: C_3  and  C_4 
REMARK    3  A    between atoms: C_5  and  C_4 
REMARK    4  A    between atoms: C_8  and  C_9 
REMARK    5  A    between atoms: C_14  and  N_15 
REMARK    6  A    between atoms: C_18  and  C_19 
REMARK       I    between atoms: C_19  and  N_21 
REMARK    7  A    between atoms: N_21  and  C_22 
ROOT
ATOM      1  C   UNL d   1      27.455 -14.914  -0.289  0.00  0.00     0.153 A 
ATOM      2  N   UNL d   1      28.144 -13.943  -0.892  0.00  0.00    -0.213 NA
ATOM      3  C   UNL d   1      28.522 -13.087   0.148  0.00  0.00     0.190 A 
ATOM      4  C   UNL d   1      29.327 -11.897   0.031  0.00  0.00     0.124 C 
ATOM      5  N   UNL d   1      29.954 -10.925   0.083  0.00  0.00    -0.190 NA
ATOM      6  C   UNL d   1      28.071 -13.559   1.361  0.00  0.00     0.187 A 
ATOM      7  O   UNL d   1      27.406 -14.743   1.093  0.00  0.00    -0.276 OA
ENDROOT
BRANCH   6   8
ATOM      8  N   UNL d   1      28.157 -13.094   2.643  0.00  0.00    -0.359 N 
ATOM      9  C   UNL d   1      27.144 -12.227   3.244  0.00  0.00     0.126 C 
ATOM     10  C   UNL d   1      27.743 -10.876   3.660  0.00  0.00     0.034 C 
ATOM     11  C   UNL d   1      28.958 -11.048   4.582  0.00  0.00     0.081 C 
ATOM     12  C   UNL d   1      29.969 -12.003   3.897  0.00  0.00     0.034 C 
ATOM     13  C   UNL d   1      29.326 -13.344   3.478  0.00  0.00     0.126 C 
BRANCH  11  14
ATOM     14  C   UNL d   1      28.581 -11.596   5.969  0.00  0.00     0.226 C 
ATOM     15  O   UNL d   1      27.405 -11.826   6.243  0.00  0.00    -0.273 OA
ATOM     16  N   UNL d   1      29.601 -11.713   6.901  0.00  0.00    -0.322 N 
ATOM     17  H   UNL d   1      30.505 -11.300   6.710  0.00  0.00     0.169 HD
BRANCH  16  18
ATOM     18  C   UNL d   1      29.350 -12.138   8.198  0.00  0.00     0.101 A 
ATOM     19  C   UNL d   1      29.499 -11.347   9.278  0.00  0.00     0.121 A 
ATOM     20  N   UNL d   1      29.230 -11.751  10.566  0.00  0.00    -0.373 N 
ATOM     21  C   UNL d   1      28.824 -13.028  10.843  0.00  0.00     0.091 A 
ATOM     22  H   UNL d   1      29.266 -11.074  11.325  0.00  0.00     0.164 HD
ATOM     23  C   UNL d   1      28.655 -13.951   9.892  0.00  0.00     0.074 A 
ATOM     24  C   UNL d   1      28.909 -13.569   8.477  0.00  0.00     0.201 A 
ATOM     25  O   UNL d   1      28.860 -14.444   7.617  0.00  0.00    -0.286 OA
ENDBRANCH  16  18
ENDBRANCH  11  14
ENDBRANCH   6   8
BRANCH   1  26
ATOM     26  C   UNL d   1      26.815 -16.226  -0.885  0.00  0.00     0.063 C 
ATOM     27  C   UNL d   1      25.592 -15.971  -1.831  0.00  0.00     0.013 C 
ATOM     28  C   UNL d   1      24.779 -17.236  -2.191  0.00  0.00     0.005 C 
ATOM     29  C   UNL d   1      24.327 -18.062  -0.977  0.00  0.00    -0.014 C 
ATOM     30  C   UNL d   1      25.572 -18.425  -0.148  0.00  0.00     0.005 C 
ATOM     31  C   UNL d   1      26.481 -17.229   0.248  0.00  0.00     0.013 C 
BRANCH  29  32
ATOM     32  C   UNL d   1      23.212 -17.383  -0.137  0.00  0.00     0.004 C 
BRANCH  32  33
ATOM     33  C   UNL d   1      21.827 -17.846  -0.532  0.00  0.00     0.000 C 
BRANCH  33  34
ATOM     34  C   UNL d   1      21.483 -19.296  -0.416  0.00  0.00    -0.005 C 
ATOM     35  C   UNL d   1      20.072 -19.375   0.160  0.00  0.00     0.005 C 
ENDBRANCH  33  34
ENDBRANCH  32  33
ENDBRANCH  29  32
ENDBRANCH   1  26
TORSDOF 7
ENDMDL
MODEL 9
REMARK VINA RESULT:    -7.817      7.653     11.741
REMARK INTER + INTRA:         -11.523
REMARK INTER:                  -9.905
REMARK INTRA:                  -1.617
REMARK CONF_INDEPENDENT:        2.088
REMARK UNBOUND:                -1.617
REMARK  7 active torsions:
REMARK  status: ('A' for Active; 'I' for Inactive)
REMARK    1  A    between atoms: C_2  and  C_3 
REMARK    2  A    between atoms: C_3  and  C_4 
REMARK    3  A    between atoms: C_5  and  C_4 
REMARK    4  A    between atoms: C_8  and  C_9 
REMARK    5  A    between atoms: C_14  and  N_15 
REMARK    6  A    between atoms: C_18  and  C_19 
REMARK       I    between atoms: C_19  and  N_21 
REMARK    7  A    between atoms: N_21  and  C_22 
ROOT
ATOM      1  C   UNL d   1      26.932 -16.553  -1.407  0.00  0.00     0.153 A 
ATOM      2  N   UNL d   1      28.063 -17.260  -1.368  0.00  0.00    -0.213 NA
ATOM      3  C   UNL d   1      28.855 -16.707  -2.380  0.00  0.00     0.190 A 
ATOM      4  C   UNL d   1      30.201 -17.090  -2.723  0.00  0.00     0.124 C 
ATOM      5  N   UNL d   1      31.275 -17.295  -3.105  0.00  0.00    -0.190 NA
ATOM      6  C   UNL d   1      28.199 -15.669  -3.004  0.00  0.00     0.187 A 
ATOM      7  O   UNL d   1      26.974 -15.547  -2.371  0.00  0.00    -0.276 OA
ENDROOT
BRANCH   6   8
ATOM      8  N   UNL d   1      28.523 -14.837  -4.039  0.00  0.00    -0.359 N 
ATOM      9  C   UNL d   1      28.424 -13.380  -3.950  0.00  0.00     0.126 C 
ATOM     10  C   UNL d   1      27.435 -12.825  -4.984  0.00  0.00     0.034 C 
ATOM     11  C   UNL d   1      27.779 -13.280  -6.408  0.00  0.00     0.081 C 
ATOM     12  C   UNL d   1      27.901 -14.826  -6.419  0.00  0.00     0.034 C 
ATOM     13  C   UNL d   1      28.892 -15.349  -5.354  0.00  0.00     0.126 C 
BRANCH  11  14
ATOM     14  C   UNL d   1      29.079 -12.652  -6.938  0.00  0.00     0.226 C 
ATOM     15  O   UNL d   1      29.486 -11.590  -6.471  0.00  0.00    -0.273 OA
ATOM     16  N   UNL d   1      29.692 -13.278  -8.013  0.00  0.00    -0.322 N 
ATOM     17  H   UNL d   1      29.205 -14.012  -8.509  0.00  0.00     0.169 HD
BRANCH  16  18
ATOM     18  C   UNL d   1      30.834 -12.752  -8.600  0.00  0.00     0.101 A 
ATOM     19  C   UNL d   1      30.892 -11.513  -9.125  0.00  0.00     0.121 A 
ATOM     20  N   UNL d   1      32.026 -10.972  -9.689  0.00  0.00    -0.373 N 
ATOM     21  C   UNL d   1      33.184 -11.694  -9.792  0.00  0.00     0.091 A 
ATOM     22  H   UNL d   1      32.031  -9.997  -9.976  0.00  0.00     0.164 HD
ATOM     23  C   UNL d   1      33.291 -12.950  -9.350  0.00  0.00     0.074 A 
ATOM     24  C   UNL d   1      32.106 -13.582  -8.710  0.00  0.00     0.201 A 
ATOM     25  O   UNL d   1      32.171 -14.769  -8.403  0.00  0.00    -0.286 OA
ENDBRANCH  16  18
ENDBRANCH  11  14
ENDBRANCH   6   8
BRANCH   1  26
ATOM     26  C   UNL d   1      25.658 -16.623  -0.481  0.00  0.00     0.063 C 
ATOM     27  C   UNL d   1      25.385 -18.039   0.130  0.00  0.00     0.013 C 
ATOM     28  C   UNL d   1      24.000 -18.200   0.797  0.00  0.00     0.005 C 
ATOM     29  C   UNL d   1      22.819 -17.790  -0.096  0.00  0.00    -0.014 C 
ATOM     30  C   UNL d   1      23.043 -16.339  -0.558  0.00  0.00     0.005 C 
ATOM     31  C   UNL d   1      24.420 -16.055  -1.219  0.00  0.00     0.013 C 
BRANCH  29  32
ATOM     32  C   UNL d   1      22.551 -18.769  -1.270  0.00  0.00     0.004 C 
BRANCH  32  33
ATOM     33  C   UNL d   1      21.113 -19.235  -1.318  0.00  0.00     0.000 C 
BRANCH  33  34
ATOM     34  C   UNL d   1      20.581 -20.072  -0.199  0.00  0.00    -0.005 C 
ATOM     35  C   UNL d   1      19.356 -19.348   0.355  0.00  0.00     0.005 C 
ENDBRANCH  33  34
ENDBRANCH  32  33
ENDBRANCH  29  32
ENDBRANCH   1  26
TORSDOF 7
ENDMDL
