MODEL 1
REMARK VINA RESULT:   -29.619      0.000      0.000
REMARK INTER + INTRA:         -32.944
REMARK INTER:                 -32.304
REMARK INTRA:                  -0.641
REMARK CONF_INDEPENDENT:        2.685
REMARK UNBOUND:                -0.641
REMARK  9 active torsions:
REMARK  status: ('A' for Active; 'I' for Inactive)
REMARK    1  A    between atoms: C_2  and  C_3 
REMARK    2  A    between atoms: C_3  and  C_4 
REMARK    3  A    between atoms: C_4  and  C_5 
REMARK       I    between atoms: C_5  and  N_7 
REMARK    4  A    between atoms: N_7  and  C_8 
REMARK    5  A    between atoms: C_11  and  N_12 
REMARK    6  A    between atoms: N_12  and  C_13 
REMARK    7  A    between atoms: C_13  and  N_15 
REMARK       I    between atoms: N_15  and  C_16 
REMARK    8  A    between atoms: C_16  and  C_18 
REMARK    9  A    between atoms: C_28  and  O_29 
ROOT
ATOM      1  N   UNL d   1      26.966 -14.403   1.038  0.00  0.00    -0.333 N 
ATOM      2  H   UNL d   1      26.428 -13.573   0.806  0.00  0.00     0.168 HD
ENDROOT
BRANCH   1   3
ATOM      3  C   UNL d   1      27.888 -14.216   2.170  0.00  0.00     0.037 A 
ATOM      4  C   UNL d   1      29.250 -14.534   2.134  0.00  0.00     0.032 A 
ATOM      5  C   UNL d   1      30.060 -14.429   3.318  0.00  0.00     0.035 A 
ATOM      6  C   UNL d   1      29.540 -13.999   4.562  0.00  0.00     0.068 A 
ATOM      7  C   UNL d   1      28.214 -13.606   4.587  0.00  0.00     0.097 A 
ATOM      8  C   UNL d   1      27.477 -13.702   3.399  0.00  0.00     0.068 A 
BRANCH   6   9
ATOM      9  N   UNL d   1      30.398 -13.859   5.680  0.00  0.00    -0.325 N 
ATOM     10  C   UNL d   1      29.931 -13.882   6.986  0.00  0.00     0.222 C 
ATOM     11  O   UNL d   1      28.859 -14.399   7.312  0.00  0.00    -0.273 OA
ATOM     12  H   UNL d   1      31.393 -13.825   5.507  0.00  0.00     0.169 HD
BRANCH  10  13
ATOM     13  C   UNL d   1      30.811 -13.139   7.995  0.00  0.00     0.103 C 
BRANCH  13  14
ATOM     14  C   UNL d   1      31.553 -14.108   8.940  0.00  0.00     0.009 C 
BRANCH  14  15
ATOM     15  C   UNL d   1      30.748 -14.412  10.202  0.00  0.00    -0.004 C 
ATOM     16  C   UNL d   1      29.257 -14.213   9.967  0.00  0.00     0.005 C 
ENDBRANCH  14  15
ENDBRANCH  13  14
ENDBRANCH  10  13
ENDBRANCH   6   9
BRANCH   7  17
ATOM     17  O   UNL d   1      27.422 -13.029   5.543  0.00  0.00    -0.354 OA
ATOM     18  C   UNL d   1      27.761 -11.806   6.138  0.00  0.00     0.210 C 
ENDBRANCH   7  17
ENDBRANCH   1   3
BRANCH   1  19
ATOM     19  C   UNL d   1      26.867 -15.553   0.183  0.00  0.00     0.179 C 
ATOM     20  S   UNL d   1      28.169 -16.416  -0.464  0.00  0.00    -0.040 SA
BRANCH  19  21
ATOM     21  N   UNL d   1      25.548 -15.980  -0.138  0.00  0.00    -0.299 N 
ATOM     22  C   UNL d   1      25.135 -17.331  -0.068  0.00  0.00     0.257 C 
ATOM     23  O   UNL d   1      25.827 -18.294   0.300  0.00  0.00    -0.267 OA
ATOM     24  H   UNL d   1      24.862 -15.296  -0.425  0.00  0.00     0.171 HD
BRANCH  22  25
ATOM     25  C   UNL d   1      23.791 -17.806  -0.429  0.00  0.00     0.034 A 
ATOM     26  C   UNL d   1      22.931 -16.802  -0.999  0.00  0.00     0.019 A 
ATOM     27  C   UNL d   1      21.543 -16.934  -1.141  0.00  0.00     0.036 A 
ATOM     28  C   UNL d   1      21.033 -18.190  -0.766  0.00  0.00     0.096 A 
ATOM     29  N   UNL d   1      19.757 -18.579  -0.896  0.00  0.00    -0.191 NA
ATOM     30  C   UNL d   1      21.928 -19.254  -0.165  0.00  0.00     0.097 A 
ATOM     31  S   UNL d   1      19.685 -20.139  -0.335  0.00  0.00     0.117 SA
ATOM     32  N   UNL d   1      21.258 -20.371   0.156  0.00  0.00    -0.191 NA
ATOM     33  C   UNL d   1      23.318 -19.039   0.029  0.00  0.00     0.052 A 
ENDBRANCH  22  25
ENDBRANCH  19  21
ENDBRANCH   1  19
TORSDOF 9
ENDMDL
MODEL 2
REMARK VINA RESULT:   -29.326      5.629      8.704
REMARK INTER + INTRA:         -33.095
REMARK INTER:                 -32.010
REMARK INTRA:                  -1.085
REMARK CONF_INDEPENDENT:        2.685
REMARK UNBOUND:                -1.085
REMARK  9 active torsions:
REMARK  status: ('A' for Active; 'I' for Inactive)
REMARK    1  A    between atoms: C_2  and  C_3 
REMARK    2  A    between atoms: C_3  and  C_4 
REMARK    3  A    between atoms: C_4  and  C_5 
REMARK       I    between atoms: C_5  and  N_7 
REMARK    4  A    between atoms: N_7  and  C_8 
REMARK    5  A    between atoms: C_11  and  N_12 
REMARK    6  A    between atoms: N_12  and  C_13 
REMARK    7  A    between atoms: C_13  and  N_15 
REMARK       I    between atoms: N_15  and  C_16 
REMARK    8  A    between atoms: C_16  and  C_18 
REMARK    9  A    between atoms: C_28  and  O_29 
ROOT
ATOM      1  N   UNL d   1      27.208 -14.910  -0.496  0.00  0.00    -0.333 N 
ATOM      2  H   UNL d   1      27.470 -14.442   0.367  0.00  0.00     0.168 HD
ENDROOT
BRANCH   1   3
ATOM      3  C   UNL d   1      26.913 -13.990  -1.606  0.00  0.00     0.037 A 
ATOM      4  C   UNL d   1      27.289 -12.642  -1.629  0.00  0.00     0.032 A 
ATOM      5  C   UNL d   1      26.863 -11.780  -2.699  0.00  0.00     0.035 A 
ATOM      6  C   UNL d   1      26.063 -12.236  -3.773  0.00  0.00     0.068 A 
ATOM      7  C   UNL d   1      25.755 -13.584  -3.799  0.00  0.00     0.097 A 
ATOM      8  C   UNL d   1      26.218 -14.385  -2.747  0.00  0.00     0.068 A 
BRANCH   6   9
ATOM      9  N   UNL d   1      25.723 -11.355  -4.829  0.00  0.00    -0.325 N 
ATOM     10  C   UNL d   1      26.581 -10.363  -5.278  0.00  0.00     0.222 C 
ATOM     11  O   UNL d   1      27.802 -10.393  -5.104  0.00  0.00    -0.273 OA
ATOM     12  H   UNL d   1      24.855 -11.523  -5.318  0.00  0.00     0.169 HD
BRANCH  10  13
ATOM     13  C   UNL d   1      25.889  -9.168  -5.941  0.00  0.00     0.103 C 
BRANCH  13  14
ATOM     14  C   UNL d   1      24.457  -8.958  -5.408  0.00  0.00     0.009 C 
BRANCH  14  15
ATOM     15  C   UNL d   1      23.715  -7.859  -6.166  0.00  0.00    -0.004 C 
ATOM     16  C   UNL d   1      24.253  -6.481  -5.806  0.00  0.00     0.005 C 
ENDBRANCH  14  15
ENDBRANCH  13  14
ENDBRANCH  10  13
ENDBRANCH   6   9
BRANCH   7  17
ATOM     17  O   UNL d   1      25.132 -14.388  -4.716  0.00  0.00    -0.354 OA
ATOM     18  C   UNL d   1      25.814 -15.424  -5.368  0.00  0.00     0.210 C 
ENDBRANCH   7  17
ENDBRANCH   1   3
BRANCH   1  19
ATOM     19  C   UNL d   1      27.029 -16.336  -0.482  0.00  0.00     0.179 C 
ATOM     20  S   UNL d   1      28.264 -17.483  -0.336  0.00  0.00    -0.040 SA
BRANCH  19  21
ATOM     21  N   UNL d   1      25.690 -16.798  -0.610  0.00  0.00    -0.299 N 
ATOM     22  C   UNL d   1      25.252 -18.044  -0.104  0.00  0.00     0.257 C 
ATOM     23  O   UNL d   1      25.938 -18.865   0.527  0.00  0.00    -0.267 OA
ATOM     24  H   UNL d   1      25.008 -16.217  -1.077  0.00  0.00     0.171 HD
BRANCH  22  25
ATOM     25  C   UNL d   1      23.885 -18.565  -0.254  0.00  0.00     0.034 A 
ATOM     26  C   UNL d   1      23.459 -18.754  -1.616  0.00  0.00     0.019 A 
ATOM     27  C   UNL d   1      22.129 -18.950  -2.013  0.00  0.00     0.036 A 
ATOM     28  C   UNL d   1      21.211 -19.046  -0.952  0.00  0.00     0.096 A 
ATOM     29  N   UNL d   1      19.905 -19.320  -1.080  0.00  0.00    -0.191 NA
ATOM     30  C   UNL d   1      21.646 -18.849   0.485  0.00  0.00     0.097 A 
ATOM     31  S   UNL d   1      19.281 -19.345   0.458  0.00  0.00     0.117 SA
ATOM     32  N   UNL d   1      20.628 -18.950   1.352  0.00  0.00    -0.191 NA
ATOM     33  C   UNL d   1      22.997 -18.576   0.826  0.00  0.00     0.052 A 
ENDBRANCH  22  25
ENDBRANCH  19  21
ENDBRANCH   1  19
TORSDOF 9
ENDMDL
MODEL 3
REMARK VINA RESULT:   -29.082      1.469      2.141
REMARK INTER + INTRA:         -32.752
REMARK INTER:                 -31.766
REMARK INTRA:                  -0.986
REMARK CONF_INDEPENDENT:        2.685
REMARK UNBOUND:                -0.986
REMARK  9 active torsions:
REMARK  status: ('A' for Active; 'I' for Inactive)
REMARK    1  A    between atoms: C_2  and  C_3 
REMARK    2  A    between atoms: C_3  and  C_4 
REMARK    3  A    between atoms: C_4  and  C_5 
REMARK       I    between atoms: C_5  and  N_7 
REMARK    4  A    between atoms: N_7  and  C_8 
REMARK    5  A    between atoms: C_11  and  N_12 
REMARK    6  A    between atoms: N_12  and  C_13 
REMARK    7  A    between atoms: C_13  and  N_15 
REMARK       I    between atoms: N_15  and  C_16 
REMARK    8  A    between atoms: C_16  and  C_18 
REMARK    9  A    between atoms: C_28  and  O_29 
ROOT
ATOM      1  N   UNL d   1      27.020 -14.192   0.206  0.00  0.00    -0.333 N 
ATOM      2  H   UNL d   1      27.060 -13.489  -0.526  0.00  0.00     0.168 HD
ENDROOT
BRANCH   1   3
ATOM      3  C   UNL d   1      27.262 -13.659   1.557  0.00  0.00     0.037 A 
ATOM      4  C   UNL d   1      27.047 -12.326   1.925  0.00  0.00     0.032 A 
ATOM      5  C   UNL d   1      27.416 -11.857   3.233  0.00  0.00     0.035 A 
ATOM      6  C   UNL d   1      27.999 -12.701   4.209  0.00  0.00     0.068 A 
ATOM      7  C   UNL d   1      28.141 -14.037   3.882  0.00  0.00     0.097 A 
ATOM      8  C   UNL d   1      27.740 -14.446   2.603  0.00  0.00     0.068 A 
BRANCH   6   9
ATOM      9  N   UNL d   1      28.289 -12.197   5.501  0.00  0.00    -0.325 N 
ATOM     10  C   UNL d   1      28.325 -10.840   5.782  0.00  0.00     0.222 C 
ATOM     11  O   UNL d   1      27.752  -9.991   5.095  0.00  0.00    -0.273 OA
ATOM     12  H   UNL d   1      28.387 -12.865   6.254  0.00  0.00     0.169 HD
BRANCH  10  13
ATOM     13  C   UNL d   1      29.208 -10.455   6.973  0.00  0.00     0.103 C 
BRANCH  13  14
ATOM     14  C   UNL d   1      29.580 -11.677   7.838  0.00  0.00     0.009 C 
BRANCH  14  15
ATOM     15  C   UNL d   1      28.423 -12.123   8.732  0.00  0.00    -0.004 C 
ATOM     16  C   UNL d   1      28.891 -12.369  10.159  0.00  0.00     0.005 C 
ENDBRANCH  14  15
ENDBRANCH  13  14
ENDBRANCH  10  13
ENDBRANCH   6   9
BRANCH   7  17
ATOM     17  O   UNL d   1      28.530 -15.142   4.589  0.00  0.00    -0.354 OA
ATOM     18  C   UNL d   1      29.626 -15.107   5.463  0.00  0.00     0.210 C 
ENDBRANCH   7  17
ENDBRANCH   1   3
BRANCH   1  19
ATOM     19  C   UNL d   1      26.881 -15.572  -0.167  0.00  0.00     0.179 C 
ATOM     20  S   UNL d   1      28.142 -16.692  -0.294  0.00  0.00    -0.040 SA
BRANCH  19  21
ATOM     21  N   UNL d   1      25.558 -16.010  -0.457  0.00  0.00    -0.299 N 
ATOM     22  C   UNL d   1      25.101 -17.321  -0.185  0.00  0.00     0.257 C 
ATOM     23  O   UNL d   1      25.753 -18.230   0.354  0.00  0.00    -0.267 OA
ATOM     24  H   UNL d   1      24.902 -15.363  -0.871  0.00  0.00     0.171 HD
BRANCH  22  25
ATOM     25  C   UNL d   1      23.754 -17.812  -0.507  0.00  0.00     0.034 A 
ATOM     26  C   UNL d   1      22.894 -16.842  -1.135  0.00  0.00     0.019 A 
ATOM     27  C   UNL d   1      21.505 -16.977  -1.261  0.00  0.00     0.036 A 
ATOM     28  C   UNL d   1      20.991 -18.203  -0.802  0.00  0.00     0.096 A 
ATOM     29  N   UNL d   1      19.713 -18.594  -0.900  0.00  0.00    -0.191 NA
ATOM     30  C   UNL d   1      21.885 -19.230  -0.140  0.00  0.00     0.097 A 
ATOM     31  S   UNL d   1      19.638 -20.114  -0.239  0.00  0.00     0.117 SA
ATOM     32  N   UNL d   1      21.213 -20.322   0.256  0.00  0.00    -0.191 NA
ATOM     33  C   UNL d   1      23.277 -19.011   0.032  0.00  0.00     0.052 A 
ENDBRANCH  22  25
ENDBRANCH  19  21
ENDBRANCH   1  19
TORSDOF 9
ENDMDL
MODEL 4
REMARK VINA RESULT:   -28.958      1.538      1.765
REMARK INTER + INTRA:         -32.722
REMARK INTER:                 -31.643
REMARK INTRA:                  -1.079
REMARK CONF_INDEPENDENT:        2.685
REMARK UNBOUND:                -1.079
REMARK  9 active torsions:
REMARK  status: ('A' for Active; 'I' for Inactive)
REMARK    1  A    between atoms: C_2  and  C_3 
REMARK    2  A    between atoms: C_3  and  C_4 
REMARK    3  A    between atoms: C_4  and  C_5 
REMARK       I    between atoms: C_5  and  N_7 
REMARK    4  A    between atoms: N_7  and  C_8 
REMARK    5  A    between atoms: C_11  and  N_12 
REMARK    6  A    between atoms: N_12  and  C_13 
REMARK    7  A    between atoms: C_13  and  N_15 
REMARK       I    between atoms: N_15  and  C_16 
REMARK    8  A    between atoms: C_16  and  C_18 
REMARK    9  A    between atoms: C_28  and  O_29 
ROOT
ATOM      1  N   UNL d   1      27.044 -14.135   0.222  0.00  0.00    -0.333 N 
ATOM      2  H   UNL d   1      26.965 -13.368  -0.439  0.00  0.00     0.168 HD
ENDROOT
BRANCH   1   3
ATOM      3  C   UNL d   1      27.380 -13.708   1.591  0.00  0.00     0.037 A 
ATOM      4  C   UNL d   1      28.053 -14.508   2.520  0.00  0.00     0.032 A 
ATOM      5  C   UNL d   1      28.242 -14.060   3.873  0.00  0.00     0.035 A 
ATOM      6  C   UNL d   1      27.775 -12.807   4.334  0.00  0.00     0.068 A 
ATOM      7  C   UNL d   1      27.179 -11.976   3.401  0.00  0.00     0.097 A 
ATOM      8  C   UNL d   1      27.045 -12.451   2.090  0.00  0.00     0.068 A 
BRANCH   6   9
ATOM      9  N   UNL d   1      28.041 -12.394   5.663  0.00  0.00    -0.325 N 
ATOM     10  C   UNL d   1      29.314 -12.062   6.100  0.00  0.00     0.222 C 
ATOM     11  O   UNL d   1      30.223 -11.718   5.340  0.00  0.00    -0.273 OA
ATOM     12  H   UNL d   1      27.251 -12.261   6.280  0.00  0.00     0.169 HD
BRANCH  10  13
ATOM     13  C   UNL d   1      29.542 -12.236   7.604  0.00  0.00     0.103 C 
BRANCH  13  14
ATOM     14  C   UNL d   1      28.256 -12.670   8.339  0.00  0.00     0.009 C 
BRANCH  14  15
ATOM     15  C   UNL d   1      28.313 -12.357   9.833  0.00  0.00    -0.004 C 
ATOM     16  C   UNL d   1      27.861 -13.550  10.664  0.00  0.00     0.005 C 
ENDBRANCH  14  15
ENDBRANCH  13  14
ENDBRANCH  10  13
ENDBRANCH   6   9
BRANCH   7  17
ATOM     17  O   UNL d   1      26.735 -10.682   3.443  0.00  0.00    -0.354 OA
ATOM     18  C   UNL d   1      27.334  -9.726   4.275  0.00  0.00     0.210 C 
ENDBRANCH   7  17
ENDBRANCH   1   3
BRANCH   1  19
ATOM     19  C   UNL d   1      26.964 -15.482  -0.269  0.00  0.00     0.179 C 
ATOM     20  S   UNL d   1      28.274 -16.527  -0.502  0.00  0.00    -0.040 SA
BRANCH  19  21
ATOM     21  N   UNL d   1      25.659 -15.954  -0.586  0.00  0.00    -0.299 N 
ATOM     22  C   UNL d   1      25.150 -17.188  -0.119  0.00  0.00     0.257 C 
ATOM     23  O   UNL d   1      25.733 -17.989   0.630  0.00  0.00    -0.267 OA
ATOM     24  H   UNL d   1      25.056 -15.389  -1.167  0.00  0.00     0.171 HD
BRANCH  22  25
ATOM     25  C   UNL d   1      23.822 -17.719  -0.461  0.00  0.00     0.034 A 
ATOM     26  C   UNL d   1      22.931 -16.765  -1.068  0.00  0.00     0.019 A 
ATOM     27  C   UNL d   1      21.548 -16.945  -1.205  0.00  0.00     0.036 A 
ATOM     28  C   UNL d   1      21.077 -18.200  -0.780  0.00  0.00     0.096 A 
ATOM     29  N   UNL d   1      19.814 -18.633  -0.895  0.00  0.00    -0.191 NA
ATOM     30  C   UNL d   1      22.004 -19.212  -0.140  0.00  0.00     0.097 A 
ATOM     31  S   UNL d   1      19.790 -20.172  -0.273  0.00  0.00     0.117 SA
ATOM     32  N   UNL d   1      21.369 -20.336   0.225  0.00  0.00    -0.191 NA
ATOM     33  C   UNL d   1      23.387 -18.947   0.045  0.00  0.00     0.052 A 
ENDBRANCH  22  25
ENDBRANCH  19  21
ENDBRANCH   1  19
TORSDOF 9
ENDMDL
MODEL 5
REMARK VINA RESULT:   -28.932      5.645      8.959
REMARK INTER + INTRA:         -32.963
REMARK INTER:                 -31.617
REMARK INTRA:                  -1.346
REMARK CONF_INDEPENDENT:        2.685
REMARK UNBOUND:                -1.346
REMARK  9 active torsions:
REMARK  status: ('A' for Active; 'I' for Inactive)
REMARK    1  A    between atoms: C_2  and  C_3 
REMARK    2  A    between atoms: C_3  and  C_4 
REMARK    3  A    between atoms: C_4  and  C_5 
REMARK       I    between atoms: C_5  and  N_7 
REMARK    4  A    between atoms: N_7  and  C_8 
REMARK    5  A    between atoms: C_11  and  N_12 
REMARK    6  A    between atoms: N_12  and  C_13 
REMARK    7  A    between atoms: C_13  and  N_15 
REMARK       I    between atoms: N_15  and  C_16 
REMARK    8  A    between atoms: C_16  and  C_18 
REMARK    9  A    between atoms: C_28  and  O_29 
ROOT
ATOM      1  N   UNL d   1      28.072 -16.587  -1.523  0.00  0.00    -0.333 N 
ATOM      2  H   UNL d   1      28.772 -17.251  -1.204  0.00  0.00     0.168 HD
ENDROOT
BRANCH   1   3
ATOM      3  C   UNL d   1      28.283 -16.120  -2.903  0.00  0.00     0.037 A 
ATOM      4  C   UNL d   1      29.273 -16.617  -3.758  0.00  0.00     0.032 A 
ATOM      5  C   UNL d   1      29.488 -16.028  -5.052  0.00  0.00     0.035 A 
ATOM      6  C   UNL d   1      28.722 -14.939  -5.531  0.00  0.00     0.068 A 
ATOM      7  C   UNL d   1      27.690 -14.494  -4.726  0.00  0.00     0.097 A 
ATOM      8  C   UNL d   1      27.506 -15.121  -3.486  0.00  0.00     0.068 A 
BRANCH   6   9
ATOM      9  N   UNL d   1      28.940 -14.437  -6.838  0.00  0.00    -0.325 N 
ATOM     10  C   UNL d   1      29.156 -13.092  -7.094  0.00  0.00     0.222 C 
ATOM     11  O   UNL d   1      29.561 -12.297  -6.242  0.00  0.00    -0.273 OA
ATOM     12  H   UNL d   1      29.022 -15.107  -7.590  0.00  0.00     0.169 HD
BRANCH  10  13
ATOM     13  C   UNL d   1      28.771 -12.637  -8.505  0.00  0.00     0.103 C 
BRANCH  13  14
ATOM     14  C   UNL d   1      27.578 -11.660  -8.494  0.00  0.00     0.009 C 
BRANCH  14  15
ATOM     15  C   UNL d   1      27.012 -11.458  -7.089  0.00  0.00    -0.004 C 
ATOM     16  C   UNL d   1      26.732  -9.987  -6.812  0.00  0.00     0.005 C 
ENDBRANCH  14  15
ENDBRANCH  13  14
ENDBRANCH  10  13
ENDBRANCH   6   9
BRANCH   7  17
ATOM     17  O   UNL d   1      26.687 -13.579  -4.902  0.00  0.00    -0.354 OA
ATOM     18  C   UNL d   1      25.399 -13.791  -4.392  0.00  0.00     0.210 C 
ENDBRANCH   7  17
ENDBRANCH   1   3
BRANCH   1  19
ATOM     19  C   UNL d   1      27.097 -16.105  -0.585  0.00  0.00     0.179 C 
ATOM     20  S   UNL d   1      27.427 -15.183   0.794  0.00  0.00    -0.040 SA
BRANCH  19  21
ATOM     21  N   UNL d   1      25.744 -16.452  -0.857  0.00  0.00    -0.299 N 
ATOM     22  C   UNL d   1      25.124 -17.612  -0.335  0.00  0.00     0.257 C 
ATOM     23  O   UNL d   1      25.642 -18.441   0.431  0.00  0.00    -0.267 OA
ATOM     24  H   UNL d   1      25.187 -15.849  -1.446  0.00  0.00     0.171 HD
BRANCH  22  25
ATOM     25  C   UNL d   1      23.742 -18.015  -0.628  0.00  0.00     0.034 A 
ATOM     26  C   UNL d   1      22.908 -16.967  -1.156  0.00  0.00     0.019 A 
ATOM     27  C   UNL d   1      21.510 -17.025  -1.230  0.00  0.00     0.036 A 
ATOM     28  C   UNL d   1      20.953 -18.253  -0.828  0.00  0.00     0.096 A 
ATOM     29  N   UNL d   1      19.654 -18.575  -0.895  0.00  0.00    -0.191 NA
ATOM     30  C   UNL d   1      21.820 -19.363  -0.272  0.00  0.00     0.097 A 
ATOM     31  S   UNL d   1      19.529 -20.130  -0.329  0.00  0.00     0.117 SA
ATOM     32  N   UNL d   1      21.110 -20.445   0.083  0.00  0.00    -0.191 NA
ATOM     33  C   UNL d   1      23.227 -19.223  -0.146  0.00  0.00     0.052 A 
ENDBRANCH  22  25
ENDBRANCH  19  21
ENDBRANCH   1  19
TORSDOF 9
ENDMDL
MODEL 6
REMARK VINA RESULT:   -28.840      5.348      9.116
REMARK INTER + INTRA:         -32.611
REMARK INTER:                 -31.525
REMARK INTRA:                  -1.086
REMARK CONF_INDEPENDENT:        2.685
REMARK UNBOUND:                -1.086
REMARK  9 active torsions:
REMARK  status: ('A' for Active; 'I' for Inactive)
REMARK    1  A    between atoms: C_2  and  C_3 
REMARK    2  A    between atoms: C_3  and  C_4 
REMARK    3  A    between atoms: C_4  and  C_5 
REMARK       I    between atoms: C_5  and  N_7 
REMARK    4  A    between atoms: N_7  and  C_8 
REMARK    5  A    between atoms: C_11  and  N_12 
REMARK    6  A    between atoms: N_12  and  C_13 
REMARK    7  A    between atoms: C_13  and  N_15 
REMARK       I    between atoms: N_15  and  C_16 
REMARK    8  A    between atoms: C_16  and  C_18 
REMARK    9  A    between atoms: C_28  and  O_29 
ROOT
ATOM      1  N   UNL d   1      28.218 -16.781  -0.176  0.00  0.00    -0.333 N 
ATOM      2  H   UNL d   1      28.578 -17.399   0.546  0.00  0.00     0.168 HD
ENDROOT
BRANCH   1   3
ATOM      3  C   UNL d   1      28.959 -16.853  -1.445  0.00  0.00     0.037 A 
ATOM      4  C   UNL d   1      28.557 -16.218  -2.626  0.00  0.00     0.032 A 
ATOM      5  C   UNL d   1      29.275 -16.432  -3.854  0.00  0.00     0.035 A 
ATOM      6  C   UNL d   1      30.410 -17.272  -3.938  0.00  0.00     0.068 A 
ATOM      7  C   UNL d   1      30.861 -17.839  -2.760  0.00  0.00     0.097 A 
ATOM      8  C   UNL d   1      30.142 -17.576  -1.586  0.00  0.00     0.068 A 
BRANCH   6   9
ATOM      9  N   UNL d   1      31.112 -17.398  -5.162  0.00  0.00    -0.325 N 
ATOM     10  C   UNL d   1      30.535 -17.097  -6.386  0.00  0.00     0.222 C 
ATOM     11  O   UNL d   1      29.560 -16.351  -6.511  0.00  0.00    -0.273 OA
ATOM     12  H   UNL d   1      32.093 -17.638  -5.118  0.00  0.00     0.169 HD
BRANCH  10  13
ATOM     13  C   UNL d   1      31.149 -17.830  -7.583  0.00  0.00     0.103 C 
BRANCH  13  14
ATOM     14  C   UNL d   1      31.110 -19.362  -7.406  0.00  0.00     0.009 C 
BRANCH  14  15
ATOM     15  C   UNL d   1      31.679 -20.096  -8.619  0.00  0.00    -0.004 C 
ATOM     16  C   UNL d   1      32.448 -19.148  -9.528  0.00  0.00     0.005 C 
ENDBRANCH  14  15
ENDBRANCH  13  14
ENDBRANCH  10  13
ENDBRANCH   6   9
BRANCH   7  17
ATOM     17  O   UNL d   1      31.967 -18.578  -2.435  0.00  0.00    -0.354 OA
ATOM     18  C   UNL d   1      32.438 -19.601  -3.269  0.00  0.00     0.210 C 
ENDBRANCH   7  17
ENDBRANCH   1   3
BRANCH   1  19
ATOM     19  C   UNL d   1      27.171 -15.857   0.165  0.00  0.00     0.179 C 
ATOM     20  S   UNL d   1      27.378 -14.390   0.981  0.00  0.00    -0.040 SA
BRANCH  19  21
ATOM     21  N   UNL d   1      25.855 -16.234  -0.224  0.00  0.00    -0.299 N 
ATOM     22  C   UNL d   1      25.270 -17.472   0.132  0.00  0.00     0.257 C 
ATOM     23  O   UNL d   1      25.788 -18.357   0.834  0.00  0.00    -0.267 OA
ATOM     24  H   UNL d   1      25.299 -15.596  -0.775  0.00  0.00     0.171 HD
BRANCH  22  25
ATOM     25  C   UNL d   1      23.928 -17.904  -0.285  0.00  0.00     0.034 A 
ATOM     26  C   UNL d   1      23.103 -16.860  -0.834  0.00  0.00     0.019 A 
ATOM     27  C   UNL d   1      21.718 -16.957  -1.020  0.00  0.00     0.036 A 
ATOM     28  C   UNL d   1      21.173 -18.218  -0.713  0.00  0.00     0.096 A 
ATOM     29  N   UNL d   1      19.895 -18.575  -0.895  0.00  0.00    -0.191 NA
ATOM     30  C   UNL d   1      22.031 -19.324  -0.135  0.00  0.00     0.097 A 
ATOM     31  S   UNL d   1      19.778 -20.156  -0.404  0.00  0.00     0.117 SA
ATOM     32  N   UNL d   1      21.332 -20.440   0.119  0.00  0.00    -0.191 NA
ATOM     33  C   UNL d   1      23.419 -19.146   0.106  0.00  0.00     0.052 A 
ENDBRANCH  22  25
ENDBRANCH  19  21
ENDBRANCH   1  19
TORSDOF 9
ENDMDL
MODEL 7
REMARK VINA RESULT:   -28.812      5.364      8.702
REMARK INTER + INTRA:         -32.856
REMARK INTER:                 -31.497
REMARK INTRA:                  -1.359
REMARK CONF_INDEPENDENT:        2.685
REMARK UNBOUND:                -1.359
REMARK  9 active torsions:
REMARK  status: ('A' for Active; 'I' for Inactive)
REMARK    1  A    between atoms: C_2  and  C_3 
REMARK    2  A    between atoms: C_3  and  C_4 
REMARK    3  A    between atoms: C_4  and  C_5 
REMARK       I    between atoms: C_5  and  N_7 
REMARK    4  A    between atoms: N_7  and  C_8 
REMARK    5  A    between atoms: C_11  and  N_12 
REMARK    6  A    between atoms: N_12  and  C_13 
REMARK    7  A    between atoms: C_13  and  N_15 
REMARK       I    between atoms: N_15  and  C_16 
REMARK    8  A    between atoms: C_16  and  C_18 
REMARK    9  A    between atoms: C_28  and  O_29 
ROOT
ATOM      1  N   UNL d   1      28.081 -16.505  -0.712  0.00  0.00    -0.333 N 
ATOM      2  H   UNL d   1      28.564 -17.128  -0.072  0.00  0.00     0.168 HD
ENDROOT
BRANCH   1   3
ATOM      3  C   UNL d   1      28.663 -16.472  -2.063  0.00  0.00     0.037 A 
ATOM      4  C   UNL d   1      29.942 -16.944  -2.378  0.00  0.00     0.032 A 
ATOM      5  C   UNL d   1      30.482 -16.771  -3.700  0.00  0.00     0.035 A 
ATOM      6  C   UNL d   1      29.765 -16.135  -4.741  0.00  0.00     0.068 A 
ATOM      7  C   UNL d   1      28.470 -15.738  -4.460  0.00  0.00     0.097 A 
ATOM      8  C   UNL d   1      27.983 -15.954  -3.164  0.00  0.00     0.068 A 
BRANCH   6   9
ATOM      9  N   UNL d   1      30.325 -16.045  -6.039  0.00  0.00    -0.325 N 
ATOM     10  C   UNL d   1      30.754 -17.159  -6.744  0.00  0.00     0.222 C 
ATOM     11  O   UNL d   1      30.353 -18.302  -6.514  0.00  0.00    -0.273 OA
ATOM     12  H   UNL d   1      30.328 -15.139  -6.487  0.00  0.00     0.169 HD
BRANCH  10  13
ATOM     13  C   UNL d   1      31.839 -16.879  -7.788  0.00  0.00     0.103 C 
BRANCH  13  14
ATOM     14  C   UNL d   1      33.236 -17.324  -7.306  0.00  0.00     0.009 C 
BRANCH  14  15
ATOM     15  C   UNL d   1      33.179 -18.039  -5.957  0.00  0.00    -0.004 C 
ATOM     16  C   UNL d   1      33.553 -19.508  -6.095  0.00  0.00     0.005 C 
ENDBRANCH  14  15
ENDBRANCH  13  14
ENDBRANCH  10  13
ENDBRANCH   6   9
BRANCH   7  17
ATOM     17  O   UNL d   1      27.458 -15.223  -5.224  0.00  0.00    -0.354 OA
ATOM     18  C   UNL d   1      26.277 -14.734  -4.649  0.00  0.00     0.210 C 
ENDBRANCH   7  17
ENDBRANCH   1   3
BRANCH   1  19
ATOM     19  C   UNL d   1      27.029 -15.670  -0.202  0.00  0.00     0.179 C 
ATOM     20  S   UNL d   1      27.242 -14.264   0.714  0.00  0.00    -0.040 SA
BRANCH  19  21
ATOM     21  N   UNL d   1      25.701 -16.086  -0.500  0.00  0.00    -0.299 N 
ATOM     22  C   UNL d   1      25.201 -17.368  -0.171  0.00  0.00     0.257 C 
ATOM     23  O   UNL d   1      25.815 -18.265   0.429  0.00  0.00    -0.267 OA
ATOM     24  H   UNL d   1      25.073 -15.444  -0.964  0.00  0.00     0.171 HD
BRANCH  22  25
ATOM     25  C   UNL d   1      23.848 -17.838  -0.500  0.00  0.00     0.034 A 
ATOM     26  C   UNL d   1      22.993 -16.845  -1.096  0.00  0.00     0.019 A 
ATOM     27  C   UNL d   1      21.603 -16.963  -1.219  0.00  0.00     0.036 A 
ATOM     28  C   UNL d   1      21.081 -18.198  -0.793  0.00  0.00     0.096 A 
ATOM     29  N   UNL d   1      19.799 -18.575  -0.895  0.00  0.00    -0.191 NA
ATOM     30  C   UNL d   1      21.970 -19.251  -0.164  0.00  0.00     0.097 A 
ATOM     31  S   UNL d   1      19.714 -20.113  -0.277  0.00  0.00     0.117 SA
ATOM     32  N   UNL d   1      21.290 -20.347   0.205  0.00  0.00    -0.191 NA
ATOM     33  C   UNL d   1      23.364 -19.048   0.008  0.00  0.00     0.052 A 
ENDBRANCH  22  25
ENDBRANCH  19  21
ENDBRANCH   1  19
TORSDOF 9
ENDMDL
MODEL 8
REMARK VINA RESULT:   -28.425      6.551      9.833
REMARK INTER + INTRA:         -32.922
REMARK INTER:                 -31.109
REMARK INTRA:                  -1.812
REMARK CONF_INDEPENDENT:        2.685
REMARK UNBOUND:                -1.812
REMARK  9 active torsions:
REMARK  status: ('A' for Active; 'I' for Inactive)
REMARK    1  A    between atoms: C_2  and  C_3 
REMARK    2  A    between atoms: C_3  and  C_4 
REMARK    3  A    between atoms: C_4  and  C_5 
REMARK       I    between atoms: C_5  and  N_7 
REMARK    4  A    between atoms: N_7  and  C_8 
REMARK    5  A    between atoms: C_11  and  N_12 
REMARK    6  A    between atoms: N_12  and  C_13 
REMARK    7  A    between atoms: C_13  and  N_15 
REMARK       I    between atoms: N_15  and  C_16 
REMARK    8  A    between atoms: C_16  and  C_18 
REMARK    9  A    between atoms: C_28  and  O_29 
ROOT
ATOM      1  N   UNL d   1      25.821 -14.794  -2.952  0.00  0.00    -0.333 N 
ATOM      2  H   UNL d   1      24.837 -14.583  -3.095  0.00  0.00     0.168 HD
ENDROOT
BRANCH   1   3
ATOM      3  C   UNL d   1      26.673 -14.470  -4.108  0.00  0.00     0.037 A 
ATOM      4  C   UNL d   1      26.512 -13.332  -4.907  0.00  0.00     0.032 A 
ATOM      5  C   UNL d   1      27.313 -13.146  -6.087  0.00  0.00     0.035 A 
ATOM      6  C   UNL d   1      28.296 -14.078  -6.497  0.00  0.00     0.068 A 
ATOM      7  C   UNL d   1      28.516 -15.165  -5.670  0.00  0.00     0.097 A 
ATOM      8  C   UNL d   1      27.727 -15.284  -4.518  0.00  0.00     0.068 A 
BRANCH   6   9
ATOM      9  N   UNL d   1      29.095 -13.813  -7.636  0.00  0.00    -0.325 N 
ATOM     10  C   UNL d   1      30.237 -13.029  -7.580  0.00  0.00     0.222 C 
ATOM     11  O   UNL d   1      30.869 -12.827  -6.540  0.00  0.00    -0.273 OA
ATOM     12  H   UNL d   1      28.858 -14.288  -8.497  0.00  0.00     0.169 HD
BRANCH  10  13
ATOM     13  C   UNL d   1      30.618 -12.354  -8.901  0.00  0.00     0.103 C 
BRANCH  13  14
ATOM     14  C   UNL d   1      29.406 -12.201  -9.844  0.00  0.00     0.009 C 
BRANCH  14  15
ATOM     15  C   UNL d   1      28.951 -10.748  -9.966  0.00  0.00    -0.004 C 
ATOM     16  C   UNL d   1      29.481  -9.904  -8.815  0.00  0.00     0.005 C 
ENDBRANCH  14  15
ENDBRANCH  13  14
ENDBRANCH  10  13
ENDBRANCH   6   9
BRANCH   7  17
ATOM     17  O   UNL d   1      29.441 -16.174  -5.670  0.00  0.00    -0.354 OA
ATOM     18  C   UNL d   1      29.687 -16.945  -4.526  0.00  0.00     0.210 C 
ENDBRANCH   7  17
ENDBRANCH   1   3
BRANCH   1  19
ATOM     19  C   UNL d   1      26.213 -15.480  -1.753  0.00  0.00     0.179 C 
ATOM     20  S   UNL d   1      27.619 -15.180  -0.861  0.00  0.00    -0.040 SA
BRANCH  19  21
ATOM     21  N   UNL d   1      25.330 -16.498  -1.299  0.00  0.00    -0.299 N 
ATOM     22  C   UNL d   1      23.921 -16.369  -1.329  0.00  0.00     0.257 C 
ATOM     23  O   UNL d   1      23.280 -15.400  -1.768  0.00  0.00    -0.267 OA
ATOM     24  H   UNL d   1      25.712 -17.362  -0.940  0.00  0.00     0.171 HD
BRANCH  22  25
ATOM     25  C   UNL d   1      22.985 -17.388  -0.832  0.00  0.00     0.034 A 
ATOM     26  C   UNL d   1      23.606 -18.605  -0.377  0.00  0.00     0.019 A 
ATOM     27  C   UNL d   1      22.923 -19.807  -0.146  0.00  0.00     0.036 A 
ATOM     28  C   UNL d   1      21.527 -19.726  -0.302  0.00  0.00     0.096 A 
ATOM     29  N   UNL d   1      20.661 -20.716  -0.049  0.00  0.00    -0.191 NA
ATOM     30  C   UNL d   1      20.863 -18.452  -0.780  0.00  0.00     0.097 A 
ATOM     31  S   UNL d   1      19.150 -20.106  -0.365  0.00  0.00     0.117 SA
ATOM     32  N   UNL d   1      19.532 -18.575  -0.895  0.00  0.00    -0.191 NA
ATOM     33  C   UNL d   1      21.612 -17.283  -1.075  0.00  0.00     0.052 A 
ENDBRANCH  22  25
ENDBRANCH  19  21
ENDBRANCH   1  19
TORSDOF 9
ENDMDL
MODEL 9
REMARK VINA RESULT:   -28.294      6.552      9.870
REMARK INTER + INTRA:         -32.867
REMARK INTER:                 -30.978
REMARK INTRA:                  -1.888
REMARK CONF_INDEPENDENT:        2.685
REMARK UNBOUND:                -1.888
REMARK  9 active torsions:
REMARK  status: ('A' for Active; 'I' for Inactive)
REMARK    1  A    between atoms: C_2  and  C_3 
REMARK    2  A    between atoms: C_3  and  C_4 
REMARK    3  A    between atoms: C_4  and  C_5 
REMARK       I    between atoms: C_5  and  N_7 
REMARK    4  A    between atoms: N_7  and  C_8 
REMARK    5  A    between atoms: C_11  and  N_12 
REMARK    6  A    between atoms: N_12  and  C_13 
REMARK    7  A    between atoms: C_13  and  N_15 
REMARK       I    between atoms: N_15  and  C_16 
REMARK    8  A    between atoms: C_16  and  C_18 
REMARK    9  A    between atoms: C_28  and  O_29 
ROOT
ATOM      1  N   UNL d   1      25.839 -14.379  -3.154  0.00  0.00    -0.333 N 
ATOM      2  H   UNL d   1      24.867 -14.230  -3.407  0.00  0.00     0.168 HD
ENDROOT
BRANCH   1   3
ATOM      3  C   UNL d   1      26.766 -14.322  -4.297  0.00  0.00     0.037 A 
ATOM      4  C   UNL d   1      27.624 -15.363  -4.665  0.00  0.00     0.032 A 
ATOM      5  C   UNL d   1      28.581 -15.186  -5.724  0.00  0.00     0.035 A 
ATOM      6  C   UNL d   1      28.702 -13.976  -6.448  0.00  0.00     0.068 A 
ATOM      7  C   UNL d   1      27.803 -12.969  -6.144  0.00  0.00     0.097 A 
ATOM      8  C   UNL d   1      26.874 -13.204  -5.122  0.00  0.00     0.068 A 
BRANCH   6   9
ATOM      9  N   UNL d   1      29.623 -13.879  -7.520  0.00  0.00    -0.325 N 
ATOM     10  C   UNL d   1      30.617 -12.914  -7.564  0.00  0.00     0.222 C 
ATOM     11  O   UNL d   1      31.044 -12.335  -6.561  0.00  0.00    -0.273 OA
ATOM     12  H   UNL d   1      29.594 -14.597  -8.230  0.00  0.00     0.169 HD
BRANCH  10  13
ATOM     13  C   UNL d   1      31.098 -12.551  -8.972  0.00  0.00     0.103 C 
BRANCH  13  14
ATOM     14  C   UNL d   1      29.934 -12.129  -9.891  0.00  0.00     0.009 C 
BRANCH  14  15
ATOM     15  C   UNL d   1      28.913 -11.256  -9.163  0.00  0.00    -0.004 C 
ATOM     16  C   UNL d   1      27.506 -11.493  -9.693  0.00  0.00     0.005 C 
ENDBRANCH  14  15
ENDBRANCH  13  14
ENDBRANCH  10  13
ENDBRANCH   6   9
BRANCH   7  17
ATOM     17  O   UNL d   1      27.538 -11.747  -6.701  0.00  0.00    -0.354 OA
ATOM     18  C   UNL d   1      26.376 -11.031  -6.383  0.00  0.00     0.210 C 
ENDBRANCH   7  17
ENDBRANCH   1   3
BRANCH   1  19
ATOM     19  C   UNL d   1      26.154 -14.750  -1.803  0.00  0.00     0.179 C 
ATOM     20  S   UNL d   1      27.357 -14.049  -0.842  0.00  0.00    -0.040 SA
BRANCH  19  21
ATOM     21  N   UNL d   1      25.376 -15.805  -1.248  0.00  0.00    -0.299 N 
ATOM     22  C   UNL d   1      23.985 -15.938  -1.470  0.00  0.00     0.257 C 
ATOM     23  O   UNL d   1      23.279 -15.202  -2.178  0.00  0.00    -0.267 OA
ATOM     24  H   UNL d   1      25.826 -16.501  -0.671  0.00  0.00     0.171 HD
BRANCH  22  25
ATOM     25  C   UNL d   1      23.150 -16.994  -0.880  0.00  0.00     0.034 A 
ATOM     26  C   UNL d   1      23.884 -18.069  -0.264  0.00  0.00     0.019 A 
ATOM     27  C   UNL d   1      23.332 -19.306   0.092  0.00  0.00     0.036 A 
ATOM     28  C   UNL d   1      21.944 -19.408  -0.111  0.00  0.00     0.096 A 
ATOM     29  N   UNL d   1      21.184 -20.456   0.235  0.00  0.00    -0.191 NA
ATOM     30  C   UNL d   1      21.161 -18.285  -0.758  0.00  0.00     0.097 A 
ATOM     31  S   UNL d   1      19.630 -20.068  -0.195  0.00  0.00     0.117 SA
ATOM     32  N   UNL d   1      19.858 -18.576  -0.895  0.00  0.00    -0.191 NA
ATOM     33  C   UNL d   1      21.785 -17.079  -1.172  0.00  0.00     0.052 A 
ENDBRANCH  22  25
ENDBRANCH  19  21
ENDBRANCH   1  19
TORSDOF 9
ENDMDL
