MODEL 1
REMARK VINA RESULT:   -31.595      0.000      0.000
REMARK INTER + INTRA:         -33.279
REMARK INTER:                 -32.788
REMARK INTRA:                  -0.490
REMARK CONF_INDEPENDENT:        1.193
REMARK UNBOUND:                -0.490
REMARK  4 active torsions:
REMARK  status: ('A' for Active; 'I' for Inactive)
REMARK       I    between atoms: C_2  and  N_3 
REMARK    1  A    between atoms: C_2  and  C_12 
REMARK    2  A    between atoms: N_3  and  O_4 
REMARK    3  A    between atoms: O_4  and  C_5 
REMARK    4  A    between atoms: C_5  and  C_6 
ROOT
ATOM      1  O   UNL d   1      22.813 -16.921  -0.922  0.00  0.00    -0.266 OA
ATOM      2  C   UNL d   1      22.778 -17.924  -0.168  0.00  0.00     0.273 C 
ATOM      3  N   UNL d   1      23.910 -18.670   0.046  0.00  0.00    -0.231 N 
ATOM      4  H   UNL d   1      23.743 -19.637   0.256  0.00  0.00     0.197 HD
ENDROOT
BRANCH   2   5
ATOM      5  C   UNL d   1      21.417 -18.673   0.129  0.00  0.00     0.043 C 
ATOM      6  C   UNL d   1      21.216 -19.327  -1.085  0.00  0.00     0.122 C 
ATOM      7  N   UNL d   1      19.905 -18.969  -1.246  0.00  0.00    -0.281 NA
ATOM      8  C   UNL d   1      19.321 -19.706  -0.255  0.00  0.00     0.020 A 
ATOM      9  H   UNL d   1      19.564 -18.026  -1.375  0.00  0.00     0.128 HD
ATOM     10  C   UNL d   1      18.148 -20.450  -0.423  0.00  0.00     0.024 A 
ATOM     11  C   UNL d   1      20.232 -19.600   0.825  0.00  0.00    -0.002 A 
ATOM     12  C   UNL d   1      17.684 -21.273   0.563  0.00  0.00     0.002 A 
ATOM     13  C   UNL d   1      18.440 -21.291   1.723  0.00  0.00     0.001 A 
ATOM     14  C   UNL d   1      19.675 -20.442   1.918  0.00  0.00     0.014 A 
ENDBRANCH   2   5
BRANCH   3  15
ATOM     15  O   UNL d   1      25.234 -18.391  -0.445  0.00  0.00    -0.273 OA
BRANCH  15  16
ATOM     16  C   UNL d   1      25.505 -17.019  -0.042  0.00  0.00     0.240 C 
BRANCH  16  17
ATOM     17  C   UNL d   1      25.730 -15.911  -1.057  0.00  0.00    -0.032 A 
ATOM     18  C   UNL d   1      26.410 -14.726  -0.766  0.00  0.00     0.009 A 
ATOM     19  C   UNL d   1      26.572 -13.740  -1.753  0.00  0.00     0.001 A 
ATOM     20  C   UNL d   1      26.144 -13.963  -3.063  0.00  0.00     0.000 A 
ATOM     21  C   UNL d   1      25.531 -15.167  -3.388  0.00  0.00     0.001 A 
ATOM     22  C   UNL d   1      25.330 -16.130  -2.395  0.00  0.00     0.009 A 
ENDBRANCH  16  17
ENDBRANCH  15  16
ENDBRANCH   3  15
TORSDOF 4
ENDMDL
MODEL 2
REMARK VINA RESULT:   -30.837      1.406      2.119
REMARK INTER + INTRA:         -32.538
REMARK INTER:                 -32.030
REMARK INTRA:                  -0.508
REMARK CONF_INDEPENDENT:        1.193
REMARK UNBOUND:                -0.508
REMARK  4 active torsions:
REMARK  status: ('A' for Active; 'I' for Inactive)
REMARK       I    between atoms: C_2  and  N_3 
REMARK    1  A    between atoms: C_2  and  C_12 
REMARK    2  A    between atoms: N_3  and  O_4 
REMARK    3  A    between atoms: O_4  and  C_5 
REMARK    4  A    between atoms: C_5  and  C_6 
ROOT
ATOM      1  O   UNL d   1      23.794 -18.081   0.519  0.00  0.00    -0.266 OA
ATOM      2  C   UNL d   1      22.788 -17.929  -0.217  0.00  0.00     0.273 C 
ATOM      3  N   UNL d   1      22.671 -16.812  -1.006  0.00  0.00    -0.231 N 
ATOM      4  H   UNL d   1      21.726 -16.532  -1.199  0.00  0.00     0.197 HD
ENDROOT
BRANCH   2   5
ATOM      5  C   UNL d   1      21.429 -18.675   0.095  0.00  0.00     0.043 C 
ATOM      6  C   UNL d   1      21.216 -19.334  -1.113  0.00  0.00     0.122 C 
ATOM      7  N   UNL d   1      19.904 -18.976  -1.265  0.00  0.00    -0.281 NA
ATOM      8  C   UNL d   1      19.328 -19.707  -0.265  0.00  0.00     0.020 A 
ATOM      9  H   UNL d   1      19.564 -18.033  -1.395  0.00  0.00     0.128 HD
ATOM     10  C   UNL d   1      18.153 -20.450  -0.420  0.00  0.00     0.024 A 
ATOM     11  C   UNL d   1      20.250 -19.597   0.806  0.00  0.00    -0.002 A 
ATOM     12  C   UNL d   1      17.697 -21.267   0.575  0.00  0.00     0.002 A 
ATOM     13  C   UNL d   1      18.463 -21.281   1.729  0.00  0.00     0.001 A 
ATOM     14  C   UNL d   1      19.700 -20.433   1.908  0.00  0.00     0.014 A 
ENDBRANCH   2   5
BRANCH   3  15
ATOM     15  O   UNL d   1      23.644 -15.766  -1.173  0.00  0.00    -0.273 OA
BRANCH  15  16
ATOM     16  C   UNL d   1      24.653 -16.326  -2.059  0.00  0.00     0.240 C 
BRANCH  16  17
ATOM     17  C   UNL d   1      26.092 -16.529  -1.614  0.00  0.00    -0.032 A 
ATOM     18  C   UNL d   1      27.190 -15.984  -2.283  0.00  0.00     0.009 A 
ATOM     19  C   UNL d   1      28.494 -16.223  -1.821  0.00  0.00     0.001 A 
ATOM     20  C   UNL d   1      28.714 -16.924  -0.634  0.00  0.00     0.000 A 
ATOM     21  C   UNL d   1      27.629 -17.411   0.085  0.00  0.00     0.001 A 
ATOM     22  C   UNL d   1      26.333 -17.212  -0.400  0.00  0.00     0.009 A 
ENDBRANCH  16  17
ENDBRANCH  15  16
ENDBRANCH   3  15
TORSDOF 4
ENDMDL
