MODEL 1
REMARK VINA RESULT:    -7.139      0.000      0.000
REMARK INTER + INTRA:          -9.270
REMARK INTER:                  -8.630
REMARK INTRA:                  -0.640
REMARK CONF_INDEPENDENT:        1.492
REMARK UNBOUND:                -0.640
REMARK  5 active torsions:
REMARK  status: ('A' for Active; 'I' for Inactive)
REMARK    1  A    between atoms: O_2  and  C_3 
REMARK    2  A    between atoms: C_8  and  N_9 
REMARK    3  A    between atoms: C_10  and  C_11 
REMARK       I    between atoms: C_11  and  N_13 
REMARK    4  A    between atoms: N_13  and  C_14 
REMARK    5  A    between atoms: C_28  and  O_29 
ROOT
ATOM      1  C   UNL d   1      29.397 -12.972   7.592  0.00  0.00     0.098 A 
ATOM      2  S   UNL d   1      28.902 -14.168   8.726  0.00  0.00    -0.075 SA
ATOM      3  C   UNL d   1      29.454 -13.244  10.088  0.00  0.00    -0.012 A 
ATOM      4  C   UNL d   1      29.398 -13.703  11.530  0.00  0.00     0.057 C 
ATOM      5  C   UNL d   1      29.917 -12.008   9.671  0.00  0.00    -0.026 A 
ATOM      6  C   UNL d   1      30.390 -10.917  10.571  0.00  0.00     0.051 C 
ATOM      7  C   UNL d   1      29.895 -11.863   8.244  0.00  0.00     0.085 A 
ATOM      8  C   UNL d   1      30.270 -10.649   7.593  0.00  0.00     0.103 C 
ATOM      9  N   UNL d   1      30.555  -9.637   7.074  0.00  0.00    -0.191 NA
ENDROOT
BRANCH   1  10
ATOM     10  N   UNL d   1      29.239 -13.214   6.216  0.00  0.00    -0.315 N 
ATOM     11  C   UNL d   1      28.321 -12.449   5.479  0.00  0.00     0.265 C 
ATOM     12  O   UNL d   1      27.786 -11.455   5.976  0.00  0.00    -0.267 OA
ATOM     13  H   UNL d   1      29.844 -13.880   5.759  0.00  0.00     0.170 HD
BRANCH  11  14
ATOM     14  C   UNL d   1      28.039 -12.790   4.071  0.00  0.00     0.102 A 
ATOM     15  C   UNL d   1      27.946 -14.083   3.568  0.00  0.00     0.061 A 
ATOM     16  C   UNL d   1      27.616 -14.138   2.184  0.00  0.00     0.026 A 
ATOM     17  C   UNL d   1      27.402 -15.238   1.344  0.00  0.00     0.030 C 
ATOM     18  C   UNL d   1      27.445 -12.881   1.640  0.00  0.00     0.088 A 
ATOM     19  C   UNL d   1      26.822 -15.059   0.099  0.00  0.00    -0.006 A 
ATOM     20  C   UNL d   1      26.368 -16.196  -0.588  0.00  0.00     0.053 A 
ATOM     21  C   UNL d   1      26.654 -13.767  -0.420  0.00  0.00     0.046 A 
ATOM     22  C   UNL d   1      25.733 -16.130  -1.834  0.00  0.00     0.102 A 
ATOM     23  C   UNL d   1      25.551 -14.844  -2.383  0.00  0.00     0.103 A 
ATOM     24  C   UNL d   1      26.039 -13.682  -1.683  0.00  0.00     0.070 A 
ATOM     25  N   UNL d   1      27.053 -12.700   0.328  0.00  0.00    -0.349 N 
ATOM     26  H   UNL d   1      27.027 -11.749  -0.038  0.00  0.00     0.166 HD
ATOM     27  S   UNL d   1      27.761 -11.651   2.799  0.00  0.00    -0.064 SA
BRANCH  15  28
ATOM     28  N   UNL d   1      28.093 -15.212   4.296  0.00  0.00    -0.397 N 
ATOM     29  H   UNL d   1      27.584 -15.447   5.146  0.00  0.00     0.156 HD
ATOM     30  H   UNL d   1      28.764 -15.944   4.032  0.00  0.00     0.156 HD
ENDBRANCH  15  28
BRANCH  22  31
ATOM     31  O   UNL d   1      25.208 -17.350  -2.201  0.00  0.00    -0.353 OA
ATOM     32  C   UNL d   1      24.007 -17.863  -1.616  0.00  0.00     0.210 C 
ENDBRANCH  22  31
BRANCH  23  33
ATOM     33  O   UNL d   1      24.867 -14.465  -3.521  0.00  0.00    -0.353 OA
ATOM     34  C   UNL d   1      25.327 -13.293  -4.155  0.00  0.00     0.210 C 
ENDBRANCH  23  33
ENDBRANCH  11  14
ENDBRANCH   1  10
TORSDOF 5
ENDMDL
MODEL 2
REMARK VINA RESULT:    -6.829      8.944      9.927
REMARK INTER + INTRA:          -8.906
REMARK INTER:                  -8.320
REMARK INTRA:                  -0.585
REMARK CONF_INDEPENDENT:        1.492
REMARK UNBOUND:                -0.585
REMARK  5 active torsions:
REMARK  status: ('A' for Active; 'I' for Inactive)
REMARK    1  A    between atoms: O_2  and  C_3 
REMARK    2  A    between atoms: C_8  and  N_9 
REMARK    3  A    between atoms: C_10  and  C_11 
REMARK       I    between atoms: C_11  and  N_13 
REMARK    4  A    between atoms: N_13  and  C_14 
REMARK    5  A    between atoms: C_28  and  O_29 
ROOT
ATOM      1  C   UNL d   1      32.497 -20.699   3.039  0.00  0.00     0.098 A 
ATOM      2  S   UNL d   1      34.135 -20.452   3.506  0.00  0.00    -0.075 SA
ATOM      3  C   UNL d   1      33.823 -20.853   5.166  0.00  0.00    -0.012 A 
ATOM      4  C   UNL d   1      34.849 -20.809   6.279  0.00  0.00     0.057 C 
ATOM      5  C   UNL d   1      32.508 -21.258   5.321  0.00  0.00    -0.026 A 
ATOM      6  C   UNL d   1      31.905 -21.757   6.591  0.00  0.00     0.051 C 
ATOM      7  C   UNL d   1      31.752 -21.155   4.106  0.00  0.00     0.085 A 
ATOM      8  C   UNL d   1      30.390 -21.575   4.016  0.00  0.00     0.103 C 
ATOM      9  N   UNL d   1      29.281 -21.950   3.949  0.00  0.00    -0.191 NA
ENDROOT
BRANCH   1  10
ATOM     10  N   UNL d   1      32.111 -20.452   1.710  0.00  0.00    -0.315 N 
ATOM     11  C   UNL d   1      31.727 -21.524   0.889  0.00  0.00     0.265 C 
ATOM     12  O   UNL d   1      31.551 -22.649   1.362  0.00  0.00    -0.267 OA
ATOM     13  H   UNL d   1      32.037 -19.499   1.386  0.00  0.00     0.170 HD
BRANCH  11  14
ATOM     14  C   UNL d   1      31.462 -21.297  -0.546  0.00  0.00     0.102 A 
ATOM     15  C   UNL d   1      31.357 -20.048  -1.148  0.00  0.00     0.061 A 
ATOM     16  C   UNL d   1      31.147 -20.106  -2.555  0.00  0.00     0.026 A 
ATOM     17  C   UNL d   1      31.029 -19.078  -3.499  0.00  0.00     0.030 C 
ATOM     18  C   UNL d   1      31.106 -21.404  -3.022  0.00  0.00     0.088 A 
ATOM     19  C   UNL d   1      31.102 -19.365  -4.852  0.00  0.00    -0.006 A 
ATOM     20  C   UNL d   1      31.265 -18.296  -5.747  0.00  0.00     0.053 A 
ATOM     21  C   UNL d   1      31.068 -20.697  -5.292  0.00  0.00     0.046 A 
ATOM     22  C   UNL d   1      31.389 -18.472  -7.131  0.00  0.00     0.102 A 
ATOM     23  C   UNL d   1      31.356 -19.800  -7.604  0.00  0.00     0.103 A 
ATOM     24  C   UNL d   1      31.167 -20.893  -6.682  0.00  0.00     0.070 A 
ATOM     25  N   UNL d   1      30.980 -21.693  -4.367  0.00  0.00    -0.349 N 
ATOM     26  H   UNL d   1      30.870 -22.670  -4.639  0.00  0.00     0.166 HD
ATOM     27  S   UNL d   1      31.248 -22.535  -1.735  0.00  0.00    -0.064 SA
BRANCH  15  28
ATOM     28  N   UNL d   1      31.490 -18.864  -0.510  0.00  0.00    -0.397 N 
ATOM     29  H   UNL d   1      32.252 -18.201  -0.631  0.00  0.00     0.156 HD
ATOM     30  H   UNL d   1      30.799 -18.539   0.177  0.00  0.00     0.156 HD
ENDBRANCH  15  28
BRANCH  22  31
ATOM     31  O   UNL d   1      31.736 -17.298  -7.762  0.00  0.00    -0.353 OA
ATOM     32  C   UNL d   1      31.328 -16.021  -7.263  0.00  0.00     0.210 C 
ENDBRANCH  22  31
BRANCH  23  33
ATOM     33  O   UNL d   1      31.567 -20.281  -8.880  0.00  0.00    -0.353 OA
ATOM     34  C   UNL d   1      30.779 -19.700  -9.895  0.00  0.00     0.210 C 
ENDBRANCH  23  33
ENDBRANCH  11  14
ENDBRANCH   1  10
TORSDOF 5
ENDMDL
MODEL 3
REMARK VINA RESULT:    -6.791      7.249     10.582
REMARK INTER + INTRA:          -9.064
REMARK INTER:                  -8.282
REMARK INTRA:                  -0.781
REMARK CONF_INDEPENDENT:        1.492
REMARK UNBOUND:                -0.781
REMARK  5 active torsions:
REMARK  status: ('A' for Active; 'I' for Inactive)
REMARK    1  A    between atoms: O_2  and  C_3 
REMARK    2  A    between atoms: C_8  and  N_9 
REMARK    3  A    between atoms: C_10  and  C_11 
REMARK       I    between atoms: C_11  and  N_13 
REMARK    4  A    between atoms: N_13  and  C_14 
REMARK    5  A    between atoms: C_28  and  O_29 
ROOT
ATOM      1  C   UNL d   1      26.346 -16.412  -2.021  0.00  0.00     0.098 A 
ATOM      2  S   UNL d   1      24.641 -16.640  -2.058  0.00  0.00    -0.075 SA
ATOM      3  C   UNL d   1      24.657 -17.709  -0.691  0.00  0.00    -0.012 A 
ATOM      4  C   UNL d   1      23.440 -18.408  -0.119  0.00  0.00     0.057 C 
ATOM      5  C   UNL d   1      25.937 -17.802  -0.171  0.00  0.00    -0.026 A 
ATOM      6  C   UNL d   1      26.315 -18.562   1.056  0.00  0.00     0.051 C 
ATOM      7  C   UNL d   1      26.900 -17.070  -0.942  0.00  0.00     0.085 A 
ATOM      8  C   UNL d   1      28.271 -16.974  -0.559  0.00  0.00     0.103 C 
ATOM      9  N   UNL d   1      29.389 -16.880  -0.217  0.00  0.00    -0.191 NA
ENDROOT
BRANCH   1  10
ATOM     10  N   UNL d   1      26.961 -15.620  -3.006  0.00  0.00    -0.315 N 
ATOM     11  C   UNL d   1      26.177 -14.773  -3.805  0.00  0.00     0.265 C 
ATOM     12  O   UNL d   1      24.988 -14.578  -3.539  0.00  0.00    -0.267 OA
ATOM     13  H   UNL d   1      27.968 -15.610  -3.074  0.00  0.00     0.170 HD
BRANCH  11  14
ATOM     14  C   UNL d   1      26.790 -14.050  -4.936  0.00  0.00     0.102 A 
ATOM     15  C   UNL d   1      26.389 -12.800  -5.394  0.00  0.00     0.061 A 
ATOM     16  C   UNL d   1      27.177 -12.302  -6.469  0.00  0.00     0.026 A 
ATOM     17  C   UNL d   1      27.107 -11.087  -7.161  0.00  0.00     0.030 C 
ATOM     18  C   UNL d   1      28.188 -13.174  -6.820  0.00  0.00     0.088 A 
ATOM     19  C   UNL d   1      28.147 -10.697  -7.989  0.00  0.00    -0.006 A 
ATOM     20  C   UNL d   1      28.173  -9.366  -8.436  0.00  0.00     0.053 A 
ATOM     21  C   UNL d   1      29.164 -11.606  -8.318  0.00  0.00     0.046 A 
ATOM     22  C   UNL d   1      29.195  -8.853  -9.244  0.00  0.00     0.102 A 
ATOM     23  C   UNL d   1      30.231  -9.745  -9.593  0.00  0.00     0.103 A 
ATOM     24  C   UNL d   1      30.187 -11.116  -9.149  0.00  0.00     0.070 A 
ATOM     25  N   UNL d   1      29.116 -12.863  -7.795  0.00  0.00    -0.349 N 
ATOM     26  H   UNL d   1      29.785 -13.583  -8.067  0.00  0.00     0.166 HD
ATOM     27  S   UNL d   1      28.119 -14.617  -5.888  0.00  0.00    -0.064 SA
BRANCH  15  28
ATOM     28  N   UNL d   1      25.387 -12.063  -4.863  0.00  0.00    -0.397 N 
ATOM     29  H   UNL d   1      25.149 -11.107  -5.116  0.00  0.00     0.156 HD
ATOM     30  H   UNL d   1      24.771 -12.436  -4.131  0.00  0.00     0.156 HD
ENDBRANCH  15  28
BRANCH  22  31
ATOM     31  O   UNL d   1      29.098  -7.486  -9.377  0.00  0.00    -0.353 OA
ATOM     32  C   UNL d   1      27.838  -6.810  -9.345  0.00  0.00     0.210 C 
ENDBRANCH  22  31
BRANCH  23  33
ATOM     33  O   UNL d   1      31.409  -9.497 -10.270  0.00  0.00    -0.353 OA
ATOM     34  C   UNL d   1      32.358 -10.539 -10.255  0.00  0.00     0.210 C 
ENDBRANCH  23  33
ENDBRANCH  11  14
ENDBRANCH   1  10
TORSDOF 5
ENDMDL
MODEL 4
REMARK VINA RESULT:    -6.749      2.534     10.628
REMARK INTER + INTRA:          -9.149
REMARK INTER:                  -8.240
REMARK INTRA:                  -0.909
REMARK CONF_INDEPENDENT:        1.492
REMARK UNBOUND:                -0.909
REMARK  5 active torsions:
REMARK  status: ('A' for Active; 'I' for Inactive)
REMARK    1  A    between atoms: O_2  and  C_3 
REMARK    2  A    between atoms: C_8  and  N_9 
REMARK    3  A    between atoms: C_10  and  C_11 
REMARK       I    between atoms: C_11  and  N_13 
REMARK    4  A    between atoms: N_13  and  C_14 
REMARK    5  A    between atoms: C_28  and  O_29 
ROOT
ATOM      1  C   UNL d   1      27.004 -14.819   0.275  0.00  0.00     0.098 A 
ATOM      2  S   UNL d   1      27.118 -13.367  -0.641  0.00  0.00    -0.075 SA
ATOM      3  C   UNL d   1      26.473 -14.106  -2.073  0.00  0.00    -0.012 A 
ATOM      4  C   UNL d   1      26.306 -13.413  -3.410  0.00  0.00     0.057 C 
ATOM      5  C   UNL d   1      26.094 -15.412  -1.809  0.00  0.00    -0.026 A 
ATOM      6  C   UNL d   1      25.423 -16.326  -2.777  0.00  0.00     0.051 C 
ATOM      7  C   UNL d   1      26.412 -15.818  -0.470  0.00  0.00     0.085 A 
ATOM      8  C   UNL d   1      26.058 -17.103   0.043  0.00  0.00     0.103 C 
ATOM      9  N   UNL d   1      25.737 -18.151   0.459  0.00  0.00    -0.191 NA
ENDROOT
BRANCH   1  10
ATOM     10  N   UNL d   1      27.469 -14.841   1.602  0.00  0.00    -0.315 N 
ATOM     11  C   UNL d   1      27.213 -13.748   2.444  0.00  0.00     0.265 C 
ATOM     12  O   UNL d   1      26.437 -12.854   2.099  0.00  0.00    -0.267 OA
ATOM     13  H   UNL d   1      27.913 -15.675   1.956  0.00  0.00     0.170 HD
BRANCH  11  14
ATOM     14  C   UNL d   1      27.821 -13.693   3.788  0.00  0.00     0.102 A 
ATOM     15  C   UNL d   1      28.391 -12.561   4.360  0.00  0.00     0.061 A 
ATOM     16  C   UNL d   1      28.863 -12.764   5.687  0.00  0.00     0.026 A 
ATOM     17  C   UNL d   1      29.455 -11.870   6.587  0.00  0.00     0.030 C 
ATOM     18  C   UNL d   1      28.638 -14.052   6.128  0.00  0.00     0.088 A 
ATOM     19  C   UNL d   1      29.586 -12.213   7.923  0.00  0.00    -0.006 A 
ATOM     20  C   UNL d   1      29.916 -11.200   8.837  0.00  0.00     0.053 A 
ATOM     21  C   UNL d   1      29.339 -13.530   8.339  0.00  0.00     0.046 A 
ATOM     22  C   UNL d   1      30.037 -11.424  10.214  0.00  0.00     0.102 A 
ATOM     23  C   UNL d   1      29.796 -12.740  10.663  0.00  0.00     0.103 A 
ATOM     24  C   UNL d   1      29.479 -13.781   9.717  0.00  0.00     0.070 A 
ATOM     25  N   UNL d   1      28.954 -14.451   7.413  0.00  0.00    -0.349 N 
ATOM     26  H   UNL d   1      28.842 -15.436   7.650  0.00  0.00     0.166 HD
ATOM     27  S   UNL d   1      27.924 -15.018   4.897  0.00  0.00    -0.064 SA
BRANCH  15  28
ATOM     28  N   UNL d   1      28.464 -11.347   3.770  0.00  0.00    -0.397 N 
ATOM     29  H   UNL d   1      29.070 -10.580   4.053  0.00  0.00     0.156 HD
ATOM     30  H   UNL d   1      27.881 -11.102   2.961  0.00  0.00     0.156 HD
ENDBRANCH  15  28
BRANCH  22  31
ATOM     31  O   UNL d   1      30.168 -10.243  10.911  0.00  0.00    -0.353 OA
ATOM     32  C   UNL d   1      30.628  -9.042  10.285  0.00  0.00     0.210 C 
ENDBRANCH  22  31
BRANCH  23  33
ATOM     33  O   UNL d   1      29.729 -13.227  11.952  0.00  0.00    -0.353 OA
ATOM     34  C   UNL d   1      28.646 -14.086  12.230  0.00  0.00     0.210 C 
ENDBRANCH  23  33
ENDBRANCH  11  14
ENDBRANCH   1  10
TORSDOF 5
ENDMDL
MODEL 5
REMARK VINA RESULT:    -6.614      1.410      2.039
REMARK INTER + INTRA:          -9.068
REMARK INTER:                  -8.105
REMARK INTRA:                  -0.963
REMARK CONF_INDEPENDENT:        1.492
REMARK UNBOUND:                -0.963
REMARK  5 active torsions:
REMARK  status: ('A' for Active; 'I' for Inactive)
REMARK    1  A    between atoms: O_2  and  C_3 
REMARK    2  A    between atoms: C_8  and  N_9 
REMARK    3  A    between atoms: C_10  and  C_11 
REMARK       I    between atoms: C_11  and  N_13 
REMARK    4  A    between atoms: N_13  and  C_14 
REMARK    5  A    between atoms: C_28  and  O_29 
ROOT
ATOM      1  C   UNL d   1      29.387 -10.568   6.657  0.00  0.00     0.098 A 
ATOM      2  S   UNL d   1      29.496  -8.911   7.107  0.00  0.00    -0.075 SA
ATOM      3  C   UNL d   1      29.850  -9.285   8.765  0.00  0.00    -0.012 A 
ATOM      4  C   UNL d   1      30.040  -8.262   9.865  0.00  0.00     0.057 C 
ATOM      5  C   UNL d   1      29.973 -10.655   8.930  0.00  0.00    -0.026 A 
ATOM      6  C   UNL d   1      30.356 -11.337  10.200  0.00  0.00     0.051 C 
ATOM      7  C   UNL d   1      29.694 -11.383   7.727  0.00  0.00     0.085 A 
ATOM      8  C   UNL d   1      29.819 -12.803   7.647  0.00  0.00     0.103 C 
ATOM      9  N   UNL d   1      29.952 -13.967   7.589  0.00  0.00    -0.191 NA
ENDROOT
BRANCH   1  10
ATOM     10  N   UNL d   1      29.043 -10.907   5.336  0.00  0.00    -0.315 N 
ATOM     11  C   UNL d   1      28.164 -11.976   5.100  0.00  0.00     0.265 C 
ATOM     12  O   UNL d   1      27.551 -12.505   6.031  0.00  0.00    -0.267 OA
ATOM     13  H   UNL d   1      29.369 -10.328   4.577  0.00  0.00     0.170 HD
BRANCH  11  14
ATOM     14  C   UNL d   1      27.912 -12.434   3.720  0.00  0.00     0.102 A 
ATOM     15  C   UNL d   1      27.782 -13.763   3.333  0.00  0.00     0.061 A 
ATOM     16  C   UNL d   1      27.493 -13.932   1.949  0.00  0.00     0.026 A 
ATOM     17  C   UNL d   1      27.261 -15.095   1.205  0.00  0.00     0.030 C 
ATOM     18  C   UNL d   1      27.391 -12.725   1.288  0.00  0.00     0.088 A 
ATOM     19  C   UNL d   1      26.729 -15.009  -0.071  0.00  0.00    -0.006 A 
ATOM     20  C   UNL d   1      26.249 -16.186  -0.668  0.00  0.00     0.053 A 
ATOM     21  C   UNL d   1      26.630 -13.764  -0.711  0.00  0.00     0.046 A 
ATOM     22  C   UNL d   1      25.657 -16.211  -1.937  0.00  0.00     0.102 A 
ATOM     23  C   UNL d   1      25.546 -14.974  -2.606  0.00  0.00     0.103 A 
ATOM     24  C   UNL d   1      26.059 -13.772  -1.996  0.00  0.00     0.070 A 
ATOM     25  N   UNL d   1      27.049 -12.650  -0.049  0.00  0.00    -0.349 N 
ATOM     26  H   UNL d   1      27.074 -11.736  -0.499  0.00  0.00     0.166 HD
ATOM     27  S   UNL d   1      27.722 -11.406   2.341  0.00  0.00    -0.064 SA
BRANCH  15  28
ATOM     28  N   UNL d   1      27.860 -14.825   4.165  0.00  0.00    -0.397 N 
ATOM     29  H   UNL d   1      28.149 -15.766   3.908  0.00  0.00     0.156 HD
ATOM     30  H   UNL d   1      27.616 -14.752   5.160  0.00  0.00     0.156 HD
ENDBRANCH  15  28
BRANCH  22  31
ATOM     31  O   UNL d   1      25.094 -17.438  -2.209  0.00  0.00    -0.353 OA
ATOM     32  C   UNL d   1      23.977 -17.939  -1.469  0.00  0.00     0.210 C 
ENDBRANCH  22  31
BRANCH  23  33
ATOM     33  O   UNL d   1      24.914 -14.676  -3.796  0.00  0.00    -0.353 OA
ATOM     34  C   UNL d   1      25.087 -13.360  -4.272  0.00  0.00     0.210 C 
ENDBRANCH  23  33
ENDBRANCH  11  14
ENDBRANCH   1  10
TORSDOF 5
ENDMDL
MODEL 6
REMARK VINA RESULT:    -6.462      2.477     10.262
REMARK INTER + INTRA:          -9.209
REMARK INTER:                  -7.953
REMARK INTRA:                  -1.255
REMARK CONF_INDEPENDENT:        1.492
REMARK UNBOUND:                -1.255
REMARK  5 active torsions:
REMARK  status: ('A' for Active; 'I' for Inactive)
REMARK    1  A    between atoms: O_2  and  C_3 
REMARK    2  A    between atoms: C_8  and  N_9 
REMARK    3  A    between atoms: C_10  and  C_11 
REMARK       I    between atoms: C_11  and  N_13 
REMARK    4  A    between atoms: N_13  and  C_14 
REMARK    5  A    between atoms: C_28  and  O_29 
ROOT
ATOM      1  C   UNL d   1      26.619 -12.596  -1.670  0.00  0.00     0.098 A 
ATOM      2  S   UNL d   1      26.803 -11.351  -2.843  0.00  0.00    -0.075 SA
ATOM      3  C   UNL d   1      26.548 -12.435  -4.175  0.00  0.00    -0.012 A 
ATOM      4  C   UNL d   1      26.615 -12.047  -5.637  0.00  0.00     0.057 C 
ATOM      5  C   UNL d   1      26.234 -13.700  -3.708  0.00  0.00    -0.026 A 
ATOM      6  C   UNL d   1      25.868 -14.867  -4.562  0.00  0.00     0.051 C 
ATOM      7  C   UNL d   1      26.290 -13.790  -2.277  0.00  0.00     0.085 A 
ATOM      8  C   UNL d   1      25.945 -14.982  -1.572  0.00  0.00     0.103 C 
ATOM      9  N   UNL d   1      25.632 -15.960  -1.006  0.00  0.00    -0.191 NA
ENDROOT
BRANCH   1  10
ATOM     10  N   UNL d   1      26.788 -12.294  -0.307  0.00  0.00    -0.315 N 
ATOM     11  C   UNL d   1      27.554 -13.147   0.503  0.00  0.00     0.265 C 
ATOM     12  O   UNL d   1      28.228 -14.052   0.004  0.00  0.00    -0.267 OA
ATOM     13  H   UNL d   1      26.421 -11.426   0.056  0.00  0.00     0.170 HD
BRANCH  11  14
ATOM     14  C   UNL d   1      27.616 -12.923   1.960  0.00  0.00     0.102 A 
ATOM     15  C   UNL d   1      27.894 -13.903   2.906  0.00  0.00     0.061 A 
ATOM     16  C   UNL d   1      27.942 -13.415   4.242  0.00  0.00     0.026 A 
ATOM     17  C   UNL d   1      28.223 -14.078   5.442  0.00  0.00     0.030 C 
ATOM     18  C   UNL d   1      27.712 -12.056   4.307  0.00  0.00     0.088 A 
ATOM     19  C   UNL d   1      28.484 -13.353   6.593  0.00  0.00    -0.006 A 
ATOM     20  C   UNL d   1      29.035 -14.031   7.692  0.00  0.00     0.053 A 
ATOM     21  C   UNL d   1      28.249 -11.970   6.622  0.00  0.00     0.046 A 
ATOM     22  C   UNL d   1      29.374 -13.392   8.891  0.00  0.00     0.102 A 
ATOM     23  C   UNL d   1      29.146 -12.001   8.951  0.00  0.00     0.103 A 
ATOM     24  C   UNL d   1      28.561 -11.314   7.827  0.00  0.00     0.070 A 
ATOM     25  N   UNL d   1      27.779 -11.359   5.499  0.00  0.00    -0.349 N 
ATOM     26  H   UNL d   1      27.516 -10.374   5.494  0.00  0.00     0.166 HD
ATOM     27  S   UNL d   1      27.367 -11.405   2.753  0.00  0.00    -0.064 SA
BRANCH  15  28
ATOM     28  N   UNL d   1      28.155 -15.200   2.626  0.00  0.00    -0.397 N 
ATOM     29  H   UNL d   1      28.099 -15.976   3.282  0.00  0.00     0.156 HD
ATOM     30  H   UNL d   1      28.446 -15.504   1.690  0.00  0.00     0.156 HD
ENDBRANCH  15  28
BRANCH  22  31
ATOM     31  O   UNL d   1      30.075 -14.228   9.731  0.00  0.00    -0.353 OA
ATOM     32  C   UNL d   1      31.302 -14.846   9.333  0.00  0.00     0.210 C 
ENDBRANCH  22  31
BRANCH  23  33
ATOM     33  O   UNL d   1      29.483 -11.100   9.942  0.00  0.00    -0.353 OA
ATOM     34  C   UNL d   1      30.768 -10.529   9.842  0.00  0.00     0.210 C 
ENDBRANCH  23  33
ENDBRANCH  11  14
ENDBRANCH   1  10
TORSDOF 5
ENDMDL
MODEL 7
REMARK VINA RESULT:    -6.368      1.893      2.088
REMARK INTER + INTRA:          -9.100
REMARK INTER:                  -7.859
REMARK INTRA:                  -1.240
REMARK CONF_INDEPENDENT:        1.492
REMARK UNBOUND:                -1.240
REMARK  5 active torsions:
REMARK  status: ('A' for Active; 'I' for Inactive)
REMARK    1  A    between atoms: O_2  and  C_3 
REMARK    2  A    between atoms: C_8  and  N_9 
REMARK    3  A    between atoms: C_10  and  C_11 
REMARK       I    between atoms: C_11  and  N_13 
REMARK    4  A    between atoms: N_13  and  C_14 
REMARK    5  A    between atoms: C_28  and  O_29 
ROOT
ATOM      1  C   UNL d   1      28.632 -13.202   8.460  0.00  0.00     0.098 A 
ATOM      2  S   UNL d   1      28.530 -14.553   9.520  0.00  0.00    -0.075 SA
ATOM      3  C   UNL d   1      29.271 -13.698  10.837  0.00  0.00    -0.012 A 
ATOM      4  C   UNL d   1      29.586 -14.295  12.193  0.00  0.00     0.057 C 
ATOM      5  C   UNL d   1      29.496 -12.378  10.484  0.00  0.00    -0.026 A 
ATOM      6  C   UNL d   1      30.039 -11.326  11.390  0.00  0.00     0.051 C 
ATOM      7  C   UNL d   1      29.142 -12.104   9.121  0.00  0.00     0.085 A 
ATOM      8  C   UNL d   1      29.232 -10.795   8.557  0.00  0.00     0.103 C 
ATOM      9  N   UNL d   1      29.285  -9.710   8.116  0.00  0.00    -0.191 NA
ENDROOT
BRANCH   1  10
ATOM     10  N   UNL d   1      28.197 -13.330   7.129  0.00  0.00    -0.315 N 
ATOM     11  C   UNL d   1      29.053 -13.898   6.172  0.00  0.00     0.265 C 
ATOM     12  O   UNL d   1      30.103 -14.448   6.512  0.00  0.00    -0.267 OA
ATOM     13  H   UNL d   1      27.247 -13.085   6.894  0.00  0.00     0.170 HD
BRANCH  11  14
ATOM     14  C   UNL d   1      28.666 -13.903   4.747  0.00  0.00     0.102 A 
ATOM     15  C   UNL d   1      29.461 -14.373   3.708  0.00  0.00     0.061 A 
ATOM     16  C   UNL d   1      28.834 -14.310   2.432  0.00  0.00     0.026 A 
ATOM     17  C   UNL d   1      29.293 -14.717   1.173  0.00  0.00     0.030 C 
ATOM     18  C   UNL d   1      27.553 -13.803   2.507  0.00  0.00     0.088 A 
ATOM     19  C   UNL d   1      28.410 -14.814   0.110  0.00  0.00    -0.006 A 
ATOM     20  C   UNL d   1      28.839 -15.487  -1.046  0.00  0.00     0.053 A 
ATOM     21  C   UNL d   1      27.111 -14.296   0.223  0.00  0.00     0.046 A 
ATOM     22  C   UNL d   1      28.019 -15.679  -2.165  0.00  0.00     0.102 A 
ATOM     23  C   UNL d   1      26.707 -15.167  -2.082  0.00  0.00     0.103 A 
ATOM     24  C   UNL d   1      26.280 -14.458  -0.901  0.00  0.00     0.070 A 
ATOM     25  N   UNL d   1      26.734 -13.717   1.397  0.00  0.00    -0.349 N 
ATOM     26  H   UNL d   1      25.832 -13.254   1.501  0.00  0.00     0.166 HD
ATOM     27  S   UNL d   1      27.158 -13.340   4.115  0.00  0.00    -0.064 SA
BRANCH  15  28
ATOM     28  N   UNL d   1      30.698 -14.900   3.853  0.00  0.00    -0.397 N 
ATOM     29  H   UNL d   1      31.137 -15.575   3.231  0.00  0.00     0.156 HD
ATOM     30  H   UNL d   1      31.306 -14.645   4.641  0.00  0.00     0.156 HD
ENDBRANCH  15  28
BRANCH  22  31
ATOM     31  O   UNL d   1      28.598 -16.533  -3.077  0.00  0.00    -0.353 OA
ATOM     32  C   UNL d   1      29.907 -17.075  -2.882  0.00  0.00     0.210 C 
ENDBRANCH  22  31
BRANCH  23  33
ATOM     33  O   UNL d   1      25.655 -15.303  -2.966  0.00  0.00    -0.353 OA
ATOM     34  C   UNL d   1      25.918 -14.925  -4.298  0.00  0.00     0.210 C 
ENDBRANCH  23  33
ENDBRANCH  11  14
ENDBRANCH   1  10
TORSDOF 5
ENDMDL
MODEL 8
REMARK VINA RESULT:    -6.078      2.692     10.406
REMARK INTER + INTRA:          -8.773
REMARK INTER:                  -7.570
REMARK INTRA:                  -1.203
REMARK CONF_INDEPENDENT:        1.492
REMARK UNBOUND:                -1.203
REMARK  5 active torsions:
REMARK  status: ('A' for Active; 'I' for Inactive)
REMARK    1  A    between atoms: O_2  and  C_3 
REMARK    2  A    between atoms: C_8  and  N_9 
REMARK    3  A    between atoms: C_10  and  C_11 
REMARK       I    between atoms: C_11  and  N_13 
REMARK    4  A    between atoms: N_13  and  C_14 
REMARK    5  A    between atoms: C_28  and  O_29 
ROOT
ATOM      1  C   UNL d   1      27.198 -13.753  -1.433  0.00  0.00     0.098 A 
ATOM      2  S   UNL d   1      27.396 -12.254  -2.253  0.00  0.00    -0.075 SA
ATOM      3  C   UNL d   1      26.709 -12.860  -3.728  0.00  0.00    -0.012 A 
ATOM      4  C   UNL d   1      26.582 -12.074  -5.016  0.00  0.00     0.057 C 
ATOM      5  C   UNL d   1      26.254 -14.156  -3.546  0.00  0.00    -0.026 A 
ATOM      6  C   UNL d   1      25.530 -14.965  -4.569  0.00  0.00     0.051 C 
ATOM      7  C   UNL d   1      26.549 -14.665  -2.238  0.00  0.00     0.085 A 
ATOM      8  C   UNL d   1      26.121 -15.958  -1.808  0.00  0.00     0.103 C 
ATOM      9  N   UNL d   1      25.739 -17.010  -1.459  0.00  0.00    -0.191 NA
ENDROOT
BRANCH   1  10
ATOM     10  N   UNL d   1      27.662 -13.887  -0.112  0.00  0.00    -0.315 N 
ATOM     11  C   UNL d   1      27.460 -12.843   0.804  0.00  0.00     0.265 C 
ATOM     12  O   UNL d   1      26.729 -11.890   0.522  0.00  0.00    -0.267 OA
ATOM     13  H   UNL d   1      28.064 -14.765   0.183  0.00  0.00     0.170 HD
BRANCH  11  14
ATOM     14  C   UNL d   1      28.070 -12.910   2.146  0.00  0.00     0.102 A 
ATOM     15  C   UNL d   1      27.708 -12.113   3.226  0.00  0.00     0.061 A 
ATOM     16  C   UNL d   1      28.418 -12.412   4.423  0.00  0.00     0.026 A 
ATOM     17  C   UNL d   1      28.310 -11.860   5.706  0.00  0.00     0.030 C 
ATOM     18  C   UNL d   1      29.312 -13.449   4.252  0.00  0.00     0.088 A 
ATOM     19  C   UNL d   1      28.905 -12.490   6.786  0.00  0.00    -0.006 A 
ATOM     20  C   UNL d   1      28.543 -12.073   8.077  0.00  0.00     0.053 A 
ATOM     21  C   UNL d   1      29.803 -13.548   6.577  0.00  0.00     0.046 A 
ATOM     22  C   UNL d   1      29.053 -12.663   9.240  0.00  0.00     0.102 A 
ATOM     23  C   UNL d   1      29.959 -13.729   9.062  0.00  0.00     0.103 A 
ATOM     24  C   UNL d   1      30.344 -14.139   7.734  0.00  0.00     0.070 A 
ATOM     25  N   UNL d   1      30.059 -13.951   5.301  0.00  0.00    -0.349 N 
ATOM     26  H   UNL d   1      30.763 -14.658   5.093  0.00  0.00     0.166 HD
ATOM     27  S   UNL d   1      29.331 -13.995   2.622  0.00  0.00    -0.064 SA
BRANCH  15  28
ATOM     28  N   UNL d   1      26.741 -11.168   3.205  0.00  0.00    -0.397 N 
ATOM     29  H   UNL d   1      26.280 -10.766   4.018  0.00  0.00     0.156 HD
ATOM     30  H   UNL d   1      26.387 -10.776   2.324  0.00  0.00     0.156 HD
ENDBRANCH  15  28
BRANCH  22  31
ATOM     31  O   UNL d   1      28.397 -12.216  10.365  0.00  0.00    -0.353 OA
ATOM     32  C   UNL d   1      27.564 -13.076  11.148  0.00  0.00     0.210 C 
ENDBRANCH  22  31
BRANCH  23  33
ATOM     33  O   UNL d   1      30.526 -14.564  10.004  0.00  0.00    -0.353 OA
ATOM     34  C   UNL d   1      31.770 -15.128   9.658  0.00  0.00     0.210 C 
ENDBRANCH  23  33
ENDBRANCH  11  14
ENDBRANCH   1  10
TORSDOF 5
ENDMDL
MODEL 9
REMARK VINA RESULT:    -6.003      2.603     10.152
REMARK INTER + INTRA:          -8.678
REMARK INTER:                  -7.494
REMARK INTRA:                  -1.183
REMARK CONF_INDEPENDENT:        1.492
REMARK UNBOUND:                -1.183
REMARK  5 active torsions:
REMARK  status: ('A' for Active; 'I' for Inactive)
REMARK    1  A    between atoms: O_2  and  C_3 
REMARK    2  A    between atoms: C_8  and  N_9 
REMARK    3  A    between atoms: C_10  and  C_11 
REMARK       I    between atoms: C_11  and  N_13 
REMARK    4  A    between atoms: N_13  and  C_14 
REMARK    5  A    between atoms: C_28  and  O_29 
ROOT
ATOM      1  C   UNL d   1      26.737 -12.585  -0.911  0.00  0.00     0.098 A 
ATOM      2  S   UNL d   1      26.252 -14.184  -1.321  0.00  0.00    -0.075 SA
ATOM      3  C   UNL d   1      26.080 -13.803  -3.006  0.00  0.00    -0.012 A 
ATOM      4  C   UNL d   1      25.601 -14.767  -4.071  0.00  0.00     0.057 C 
ATOM      5  C   UNL d   1      26.482 -12.500  -3.245  0.00  0.00    -0.026 A 
ATOM      6  C   UNL d   1      26.553 -11.853  -4.587  0.00  0.00     0.051 C 
ATOM      7  C   UNL d   1      26.843 -11.804  -2.044  0.00  0.00     0.085 A 
ATOM      8  C   UNL d   1      27.346 -10.468  -2.056  0.00  0.00     0.103 C 
ATOM      9  N   UNL d   1      27.784  -9.381  -2.084  0.00  0.00    -0.191 NA
ENDROOT
BRANCH   1  10
ATOM     10  N   UNL d   1      26.981 -12.258   0.435  0.00  0.00    -0.315 N 
ATOM     11  C   UNL d   1      27.575 -13.206   1.282  0.00  0.00     0.265 C 
ATOM     12  O   UNL d   1      28.049 -14.249   0.827  0.00  0.00    -0.267 OA
ATOM     13  H   UNL d   1      26.798 -11.318   0.755  0.00  0.00     0.170 HD
BRANCH  11  14
ATOM     14  C   UNL d   1      27.700 -12.928   2.727  0.00  0.00     0.102 A 
ATOM     15  C   UNL d   1      27.970 -13.883   3.701  0.00  0.00     0.061 A 
ATOM     16  C   UNL d   1      28.088 -13.346   5.014  0.00  0.00     0.026 A 
ATOM     17  C   UNL d   1      28.385 -13.975   6.229  0.00  0.00     0.030 C 
ATOM     18  C   UNL d   1      27.920 -11.976   5.032  0.00  0.00     0.088 A 
ATOM     19  C   UNL d   1      28.720 -13.218   7.339  0.00  0.00    -0.006 A 
ATOM     20  C   UNL d   1      29.281 -13.877   8.445  0.00  0.00     0.053 A 
ATOM     21  C   UNL d   1      28.546 -11.826   7.322  0.00  0.00     0.046 A 
ATOM     22  C   UNL d   1      29.691 -13.208   9.605  0.00  0.00     0.102 A 
ATOM     23  C   UNL d   1      29.527 -11.807   9.617  0.00  0.00     0.103 A 
ATOM     24  C   UNL d   1      28.930 -11.138   8.487  0.00  0.00     0.070 A 
ATOM     25  N   UNL d   1      28.062 -11.238   6.192  0.00  0.00    -0.349 N 
ATOM     26  H   UNL d   1      27.841 -10.243   6.157  0.00  0.00     0.166 HD
ATOM     27  S   UNL d   1      27.547 -11.372   3.466  0.00  0.00    -0.064 SA
BRANCH  15  28
ATOM     28  N   UNL d   1      28.164 -15.200   3.464  0.00  0.00    -0.397 N 
ATOM     29  H   UNL d   1      28.144 -15.942   4.161  0.00  0.00     0.156 HD
ATOM     30  H   UNL d   1      28.359 -15.558   2.522  0.00  0.00     0.156 HD
ENDBRANCH  15  28
BRANCH  22  31
ATOM     31  O   UNL d   1      30.386 -14.042  10.452  0.00  0.00    -0.353 OA
ATOM     32  C   UNL d   1      31.143 -15.154   9.967  0.00  0.00     0.210 C 
ENDBRANCH  22  31
BRANCH  23  33
ATOM     33  O   UNL d   1      29.939 -10.885  10.558  0.00  0.00    -0.353 OA
ATOM     34  C   UNL d   1      31.279 -10.462  10.458  0.00  0.00     0.210 C 
ENDBRANCH  23  33
ENDBRANCH  11  14
ENDBRANCH   1  10
TORSDOF 5
ENDMDL
