MODEL 1
REMARK VINA RESULT:   -28.364      0.000      0.000
REMARK INTER + INTRA:         -32.639
REMARK INTER:                 -31.048
REMARK INTRA:                  -1.591
REMARK CONF_INDEPENDENT:        2.685
REMARK UNBOUND:                -1.591
REMARK  9 active torsions:
REMARK  status: ('A' for Active; 'I' for Inactive)
REMARK    1  A    between atoms: O_2  and  C_3 
REMARK    2  A    between atoms: C_6  and  C_7 
REMARK    3  A    between atoms: C_7  and  C_8 
REMARK    4  A    between atoms: C_8  and  N_9 
REMARK       I    between atoms: N_9  and  C_10 
REMARK       I    between atoms: C_10  and  N_12 
REMARK    5  A    between atoms: N_12  and  C_13 
REMARK    6  A    between atoms: C_16  and  N_17 
REMARK    7  A    between atoms: C_20  and  C_21 
REMARK       I    between atoms: C_21  and  N_23 
REMARK    8  A    between atoms: N_23  and  C_24 
REMARK    9  A    between atoms: C_24  and  C_25 
ROOT
ATOM      1  C   UNL d   1      24.619 -16.535  -1.317  0.00  0.00     0.036 A 
ATOM      2  C   UNL d   1      23.374 -15.894  -1.235  0.00  0.00     0.032 A 
ATOM      3  C   UNL d   1      22.190 -16.608  -0.886  0.00  0.00     0.035 A 
ATOM      4  C   UNL d   1      22.241 -17.976  -0.571  0.00  0.00     0.075 A 
ATOM      5  C   UNL d   1      23.496 -18.601  -0.584  0.00  0.00     0.035 A 
ATOM      6  C   UNL d   1      24.658 -17.894  -0.982  0.00  0.00     0.032 A 
ENDROOT
BRANCH   1   7
ATOM      7  N   UNL d   1      25.805 -15.820  -1.694  0.00  0.00    -0.309 N 
ATOM      8  C   UNL d   1      25.836 -14.966  -2.790  0.00  0.00     0.320 C 
ATOM      9  N   UNL d   1      27.036 -14.288  -2.970  0.00  0.00    -0.343 N 
ATOM     10  O   UNL d   1      24.884 -14.775  -3.542  0.00  0.00    -0.247 OA
ATOM     11  H   UNL d   1      27.828 -14.426  -2.361  0.00  0.00     0.164 HD
ATOM     12  H   UNL d   1      26.519 -15.691  -0.994  0.00  0.00     0.170 HD
BRANCH   9  13
ATOM     13  C   UNL d   1      27.137 -13.342  -4.080  0.00  0.00     0.129 C 
BRANCH  13  14
ATOM     14  C   UNL d   1      28.525 -13.157  -4.726  0.00  0.00     0.058 C 
BRANCH  14  15
ATOM     15  C   UNL d   1      29.140 -14.441  -5.273  0.00  0.00    -0.057 A 
ATOM     16  C   UNL d   1      29.202 -15.591  -4.470  0.00  0.00     0.010 A 
ATOM     17  C   UNL d   1      29.889 -16.735  -4.910  0.00  0.00     0.037 A 
ATOM     18  C   UNL d   1      30.461 -16.777  -6.182  0.00  0.00     0.068 A 
ATOM     19  C   UNL d   1      30.352 -15.667  -7.008  0.00  0.00     0.037 A 
ATOM     20  C   UNL d   1      29.703 -14.515  -6.556  0.00  0.00     0.010 A 
BRANCH  18  21
ATOM     21  O   UNL d   1      31.013 -17.968  -6.567  0.00  0.00    -0.356 OA
ATOM     22  C   UNL d   1      31.516 -18.010  -7.899  0.00  0.00     0.210 C 
ENDBRANCH  18  21
ENDBRANCH  14  15
ENDBRANCH  13  14
ENDBRANCH   9  13
ENDBRANCH   1   7
BRANCH   4  23
ATOM     23  N   UNL d   1      21.072 -18.720  -0.205  0.00  0.00    -0.154 N 
ATOM     24  N   UNL d   1      19.901 -18.696  -0.896  0.00  0.00     0.030 NA
ATOM     25  N   UNL d   1      19.057 -19.469  -0.211  0.00  0.00    -0.130 NA
ATOM     26  C   UNL d   1      19.718 -19.875   0.925  0.00  0.00     0.255 A 
ATOM     27  N   UNL d   1      21.018 -19.485   0.928  0.00  0.00    -0.126 NA
BRANCH  26  28
ATOM     28  C   UNL d   1      19.088 -20.608   2.057  0.00  0.00     0.292 C 
ATOM     29  O   UNL d   1      17.912 -20.984   2.075  0.00  0.00    -0.264 OA
ATOM     30  N   UNL d   1      19.933 -20.824   3.132  0.00  0.00    -0.346 N 
ATOM     31  H   UNL d   1      20.881 -20.465   3.036  0.00  0.00     0.163 HD
BRANCH  30  32
ATOM     32  C   UNL d   1      19.544 -21.529   4.364  0.00  0.00     0.240 C 
BRANCH  32  33
ATOM     33  C   UNL d   1      19.346 -20.616   5.577  0.00  0.00     0.403 C 
ATOM     34  F   UNL d   1      20.230 -19.592   5.563  0.00  0.00    -0.169 F 
ATOM     35  F   UNL d   1      18.104 -20.078   5.582  0.00  0.00    -0.169 F 
ATOM     36  F   UNL d   1      19.509 -21.282   6.740  0.00  0.00    -0.169 F 
ENDBRANCH  32  33
ENDBRANCH  30  32
ENDBRANCH  26  28
ENDBRANCH   4  23
TORSDOF 9
ENDMDL
MODEL 2
REMARK VINA RESULT:   -28.131      4.952      6.596
REMARK INTER + INTRA:         -32.316
REMARK INTER:                 -30.816
REMARK INTRA:                  -1.500
REMARK CONF_INDEPENDENT:        2.685
REMARK UNBOUND:                -1.500
REMARK  9 active torsions:
REMARK  status: ('A' for Active; 'I' for Inactive)
REMARK    1  A    between atoms: O_2  and  C_3 
REMARK    2  A    between atoms: C_6  and  C_7 
REMARK    3  A    between atoms: C_7  and  C_8 
REMARK    4  A    between atoms: C_8  and  N_9 
REMARK       I    between atoms: N_9  and  C_10 
REMARK       I    between atoms: C_10  and  N_12 
REMARK    5  A    between atoms: N_12  and  C_13 
REMARK    6  A    between atoms: C_16  and  N_17 
REMARK    7  A    between atoms: C_20  and  C_21 
REMARK       I    between atoms: C_21  and  N_23 
REMARK    8  A    between atoms: N_23  and  C_24 
REMARK    9  A    between atoms: C_24  and  C_25 
ROOT
ATOM      1  C   UNL d   1      25.955 -16.645  -0.714  0.00  0.00     0.036 A 
ATOM      2  C   UNL d   1      24.856 -15.863  -1.102  0.00  0.00     0.032 A 
ATOM      3  C   UNL d   1      23.531 -16.389  -1.099  0.00  0.00     0.035 A 
ATOM      4  C   UNL d   1      23.278 -17.701  -0.666  0.00  0.00     0.075 A 
ATOM      5  C   UNL d   1      24.367 -18.458  -0.212  0.00  0.00     0.035 A 
ATOM      6  C   UNL d   1      25.685 -17.944  -0.267  0.00  0.00     0.032 A 
ENDROOT
BRANCH   1   7
ATOM      7  N   UNL d   1      27.292 -16.122  -0.742  0.00  0.00    -0.309 N 
ATOM      8  C   UNL d   1      27.743 -15.198   0.192  0.00  0.00     0.320 C 
ATOM      9  N   UNL d   1      29.085 -14.854   0.075  0.00  0.00    -0.343 N 
ATOM     10  O   UNL d   1      27.046 -14.726   1.086  0.00  0.00    -0.247 OA
ATOM     11  H   UNL d   1      29.675 -15.234  -0.649  0.00  0.00     0.164 HD
ATOM     12  H   UNL d   1      27.993 -16.649  -1.239  0.00  0.00     0.170 HD
BRANCH   9  13
ATOM     13  C   UNL d   1      29.646 -13.914   1.044  0.00  0.00     0.129 C 
BRANCH  13  14
ATOM     14  C   UNL d   1      30.196 -14.500   2.360  0.00  0.00     0.058 C 
BRANCH  14  15
ATOM     15  C   UNL d   1      29.583 -13.897   3.620  0.00  0.00    -0.057 A 
ATOM     16  C   UNL d   1      29.527 -14.647   4.806  0.00  0.00     0.010 A 
ATOM     17  C   UNL d   1      28.842 -14.157   5.931  0.00  0.00     0.037 A 
ATOM     18  C   UNL d   1      28.265 -12.887   5.916  0.00  0.00     0.068 A 
ATOM     19  C   UNL d   1      28.368 -12.113   4.768  0.00  0.00     0.037 A 
ATOM     20  C   UNL d   1      29.015 -12.615   3.636  0.00  0.00     0.010 A 
BRANCH  18  21
ATOM     21  O   UNL d   1      27.715 -12.450   7.090  0.00  0.00    -0.356 OA
ATOM     22  C   UNL d   1      28.568 -12.518   8.229  0.00  0.00     0.210 C 
ENDBRANCH  18  21
ENDBRANCH  14  15
ENDBRANCH  13  14
ENDBRANCH   9  13
ENDBRANCH   1   7
BRANCH   4  23
ATOM     23  N   UNL d   1      21.956 -18.256  -0.640  0.00  0.00    -0.154 N 
ATOM     24  N   UNL d   1      20.948 -17.874  -1.469  0.00  0.00     0.030 NA
ATOM     25  N   UNL d   1      19.881 -18.580  -1.095  0.00  0.00    -0.130 NA
ATOM     26  C   UNL d   1      20.251 -19.312   0.008  0.00  0.00     0.255 A 
ATOM     27  N   UNL d   1      21.575 -19.192   0.281  0.00  0.00    -0.126 NA
BRANCH  26  28
ATOM     28  C   UNL d   1      19.317 -20.105   0.854  0.00  0.00     0.292 C 
ATOM     29  O   UNL d   1      18.330 -20.710   0.422  0.00  0.00    -0.264 OA
ATOM     30  N   UNL d   1      19.627 -20.097   2.202  0.00  0.00    -0.346 N 
ATOM     31  H   UNL d   1      20.449 -19.559   2.470  0.00  0.00     0.163 HD
BRANCH  30  32
ATOM     32  C   UNL d   1      18.858 -20.809   3.235  0.00  0.00     0.240 C 
BRANCH  32  33
ATOM     33  C   UNL d   1      19.531 -20.844   4.610  0.00  0.00     0.403 C 
ATOM     34  F   UNL d   1      19.905 -22.103   4.935  0.00  0.00    -0.169 F 
ATOM     35  F   UNL d   1      20.643 -20.074   4.626  0.00  0.00    -0.169 F 
ATOM     36  F   UNL d   1      18.708 -20.397   5.584  0.00  0.00    -0.169 F 
ENDBRANCH  32  33
ENDBRANCH  30  32
ENDBRANCH  26  28
ENDBRANCH   4  23
TORSDOF 9
ENDMDL
MODEL 3
REMARK VINA RESULT:   -27.977      2.410      4.501
REMARK INTER + INTRA:         -32.188
REMARK INTER:                 -30.662
REMARK INTRA:                  -1.527
REMARK CONF_INDEPENDENT:        2.685
REMARK UNBOUND:                -1.527
REMARK  9 active torsions:
REMARK  status: ('A' for Active; 'I' for Inactive)
REMARK    1  A    between atoms: O_2  and  C_3 
REMARK    2  A    between atoms: C_6  and  C_7 
REMARK    3  A    between atoms: C_7  and  C_8 
REMARK    4  A    between atoms: C_8  and  N_9 
REMARK       I    between atoms: N_9  and  C_10 
REMARK       I    between atoms: C_10  and  N_12 
REMARK    5  A    between atoms: N_12  and  C_13 
REMARK    6  A    between atoms: C_16  and  N_17 
REMARK    7  A    between atoms: C_20  and  C_21 
REMARK       I    between atoms: C_21  and  N_23 
REMARK    8  A    between atoms: N_23  and  C_24 
REMARK    9  A    between atoms: C_24  and  C_25 
ROOT
ATOM      1  C   UNL d   1      24.541 -16.560  -1.405  0.00  0.00     0.036 A 
ATOM      2  C   UNL d   1      23.338 -15.907  -1.096  0.00  0.00     0.032 A 
ATOM      3  C   UNL d   1      22.167 -16.636  -0.735  0.00  0.00     0.035 A 
ATOM      4  C   UNL d   1      22.193 -18.037  -0.636  0.00  0.00     0.075 A 
ATOM      5  C   UNL d   1      23.413 -18.684  -0.876  0.00  0.00     0.035 A 
ATOM      6  C   UNL d   1      24.557 -17.954  -1.284  0.00  0.00     0.032 A 
ENDROOT
BRANCH   1   7
ATOM      7  N   UNL d   1      25.711 -15.825  -1.793  0.00  0.00    -0.309 N 
ATOM      8  C   UNL d   1      25.801 -15.170  -3.015  0.00  0.00     0.320 C 
ATOM      9  N   UNL d   1      26.967 -14.437  -3.203  0.00  0.00    -0.343 N 
ATOM     10  O   UNL d   1      24.921 -15.186  -3.872  0.00  0.00    -0.247 OA
ATOM     11  H   UNL d   1      27.699 -14.406  -2.510  0.00  0.00     0.164 HD
ATOM     12  H   UNL d   1      26.340 -15.522  -1.066  0.00  0.00     0.170 HD
BRANCH   9  13
ATOM     13  C   UNL d   1      27.122 -13.688  -4.449  0.00  0.00     0.129 C 
BRANCH  13  14
ATOM     14  C   UNL d   1      27.798 -12.305  -4.362  0.00  0.00     0.058 C 
BRANCH  14  15
ATOM     15  C   UNL d   1      26.833 -11.127  -4.448  0.00  0.00    -0.057 A 
ATOM     16  C   UNL d   1      26.394 -10.664  -5.699  0.00  0.00     0.010 A 
ATOM     17  C   UNL d   1      25.618  -9.497  -5.798  0.00  0.00     0.037 A 
ATOM     18  C   UNL d   1      25.208  -8.814  -4.652  0.00  0.00     0.068 A 
ATOM     19  C   UNL d   1      25.586  -9.299  -3.407  0.00  0.00     0.037 A 
ATOM     20  C   UNL d   1      26.390 -10.437  -3.309  0.00  0.00     0.010 A 
BRANCH  18  21
ATOM     21  O   UNL d   1      24.367  -7.753  -4.839  0.00  0.00    -0.356 OA
ATOM     22  C   UNL d   1      23.825  -7.623  -6.150  0.00  0.00     0.210 C 
ENDBRANCH  18  21
ENDBRANCH  14  15
ENDBRANCH  13  14
ENDBRANCH   9  13
ENDBRANCH   1   7
BRANCH   4  23
ATOM     23  N   UNL d   1      21.036 -18.799  -0.265  0.00  0.00    -0.154 N 
ATOM     24  N   UNL d   1      19.834 -18.723  -0.895  0.00  0.00     0.030 NA
ATOM     25  N   UNL d   1      19.018 -19.536  -0.224  0.00  0.00    -0.130 NA
ATOM     26  C   UNL d   1      19.729 -20.020   0.849  0.00  0.00     0.255 A 
ATOM     27  N   UNL d   1      21.030 -19.638   0.815  0.00  0.00    -0.126 NA
BRANCH  26  28
ATOM     28  C   UNL d   1      19.149 -20.825   1.959  0.00  0.00     0.292 C 
ATOM     29  O   UNL d   1      18.086 -21.450   1.884  0.00  0.00    -0.264 OA
ATOM     30  N   UNL d   1      19.894 -20.804   3.124  0.00  0.00    -0.346 N 
ATOM     31  H   UNL d   1      20.748 -20.250   3.101  0.00  0.00     0.163 HD
BRANCH  30  32
ATOM     32  C   UNL d   1      19.530 -21.524   4.355  0.00  0.00     0.240 C 
BRANCH  32  33
ATOM     33  C   UNL d   1      19.350 -20.625   5.582  0.00  0.00     0.403 C 
ATOM     34  F   UNL d   1      19.529 -21.324   6.726  0.00  0.00    -0.169 F 
ATOM     35  F   UNL d   1      20.250 -19.614   5.579  0.00  0.00    -0.169 F 
ATOM     36  F   UNL d   1      18.117 -20.075   5.626  0.00  0.00    -0.169 F 
ENDBRANCH  32  33
ENDBRANCH  30  32
ENDBRANCH  26  28
ENDBRANCH   4  23
TORSDOF 9
ENDMDL
MODEL 4
REMARK VINA RESULT:   -27.813      3.451      5.115
REMARK INTER + INTRA:         -31.935
REMARK INTER:                 -30.498
REMARK INTRA:                  -1.438
REMARK CONF_INDEPENDENT:        2.685
REMARK UNBOUND:                -1.438
REMARK  9 active torsions:
REMARK  status: ('A' for Active; 'I' for Inactive)
REMARK    1  A    between atoms: O_2  and  C_3 
REMARK    2  A    between atoms: C_6  and  C_7 
REMARK    3  A    between atoms: C_7  and  C_8 
REMARK    4  A    between atoms: C_8  and  N_9 
REMARK       I    between atoms: N_9  and  C_10 
REMARK       I    between atoms: C_10  and  N_12 
REMARK    5  A    between atoms: N_12  and  C_13 
REMARK    6  A    between atoms: C_16  and  N_17 
REMARK    7  A    between atoms: C_20  and  C_21 
REMARK       I    between atoms: C_21  and  N_23 
REMARK    8  A    between atoms: N_23  and  C_24 
REMARK    9  A    between atoms: C_24  and  C_25 
ROOT
ATOM      1  C   UNL d   1      25.897 -16.377  -1.121  0.00  0.00     0.036 A 
ATOM      2  C   UNL d   1      24.725 -15.629  -1.313  0.00  0.00     0.032 A 
ATOM      3  C   UNL d   1      23.435 -16.224  -1.196  0.00  0.00     0.035 A 
ATOM      4  C   UNL d   1      23.294 -17.575  -0.839  0.00  0.00     0.075 A 
ATOM      5  C   UNL d   1      24.463 -18.304  -0.578  0.00  0.00     0.035 A 
ATOM      6  C   UNL d   1      25.741 -17.718  -0.748  0.00  0.00     0.032 A 
ENDROOT
BRANCH   1   7
ATOM      7  N   UNL d   1      27.196 -15.783  -1.265  0.00  0.00    -0.309 N 
ATOM      8  C   UNL d   1      27.365 -14.423  -1.491  0.00  0.00     0.320 C 
ATOM      9  N   UNL d   1      28.687 -13.994  -1.525  0.00  0.00    -0.343 N 
ATOM     10  O   UNL d   1      26.439 -13.625  -1.620  0.00  0.00    -0.247 OA
ATOM     11  H   UNL d   1      29.460 -14.632  -1.415  0.00  0.00     0.164 HD
ATOM     12  H   UNL d   1      27.987 -16.287  -0.896  0.00  0.00     0.170 HD
BRANCH   9  13
ATOM     13  C   UNL d   1      28.948 -12.570  -1.721  0.00  0.00     0.129 C 
BRANCH  13  14
ATOM     14  C   UNL d   1      29.126 -11.704  -0.458  0.00  0.00     0.058 C 
BRANCH  14  15
ATOM     15  C   UNL d   1      28.602 -12.346   0.823  0.00  0.00    -0.057 A 
ATOM     16  C   UNL d   1      29.308 -13.400   1.424  0.00  0.00     0.010 A 
ATOM     17  C   UNL d   1      28.766 -14.091   2.520  0.00  0.00     0.037 A 
ATOM     18  C   UNL d   1      27.549 -13.698   3.080  0.00  0.00     0.068 A 
ATOM     19  C   UNL d   1      26.873 -12.617   2.530  0.00  0.00     0.037 A 
ATOM     20  C   UNL d   1      27.392 -11.955   1.415  0.00  0.00     0.010 A 
BRANCH  18  21
ATOM     21  O   UNL d   1      27.153 -14.357   4.210  0.00  0.00    -0.356 OA
ATOM     22  C   UNL d   1      28.206 -14.859   5.029  0.00  0.00     0.210 C 
ENDBRANCH  18  21
ENDBRANCH  14  15
ENDBRANCH  13  14
ENDBRANCH   9  13
ENDBRANCH   1   7
BRANCH   4  23
ATOM     23  N   UNL d   1      22.011 -18.200  -0.702  0.00  0.00    -0.154 N 
ATOM     24  N   UNL d   1      20.879 -17.769  -1.318  0.00  0.00     0.030 NA
ATOM     25  N   UNL d   1      19.904 -18.575  -0.895  0.00  0.00    -0.130 NA
ATOM     26  C   UNL d   1      20.460 -19.424   0.033  0.00  0.00     0.255 A 
ATOM     27  N   UNL d   1      21.805 -19.269   0.127  0.00  0.00    -0.126 NA
BRANCH  26  28
ATOM     28  C   UNL d   1      19.691 -20.371   0.886  0.00  0.00     0.292 C 
ATOM     29  O   UNL d   1      19.224 -21.443   0.489  0.00  0.00    -0.264 OA
ATOM     30  N   UNL d   1      19.509 -19.940   2.188  0.00  0.00    -0.346 N 
ATOM     31  H   UNL d   1      19.914 -19.036   2.423  0.00  0.00     0.163 HD
BRANCH  30  32
ATOM     32  C   UNL d   1      18.787 -20.701   3.220  0.00  0.00     0.240 C 
BRANCH  32  33
ATOM     33  C   UNL d   1      19.534 -20.824   4.552  0.00  0.00     0.403 C 
ATOM     34  F   UNL d   1      19.922 -22.101   4.774  0.00  0.00    -0.169 F 
ATOM     35  F   UNL d   1      20.648 -20.056   4.555  0.00  0.00    -0.169 F 
ATOM     36  F   UNL d   1      18.768 -20.441   5.596  0.00  0.00    -0.169 F 
ENDBRANCH  32  33
ENDBRANCH  30  32
ENDBRANCH  26  28
ENDBRANCH   4  23
TORSDOF 9
ENDMDL
MODEL 5
REMARK VINA RESULT:   -27.744      4.217      6.211
REMARK INTER + INTRA:         -31.757
REMARK INTER:                 -30.428
REMARK INTRA:                  -1.329
REMARK CONF_INDEPENDENT:        2.685
REMARK UNBOUND:                -1.329
REMARK  9 active torsions:
REMARK  status: ('A' for Active; 'I' for Inactive)
REMARK    1  A    between atoms: O_2  and  C_3 
REMARK    2  A    between atoms: C_6  and  C_7 
REMARK    3  A    between atoms: C_7  and  C_8 
REMARK    4  A    between atoms: C_8  and  N_9 
REMARK       I    between atoms: N_9  and  C_10 
REMARK       I    between atoms: C_10  and  N_12 
REMARK    5  A    between atoms: N_12  and  C_13 
REMARK    6  A    between atoms: C_16  and  N_17 
REMARK    7  A    between atoms: C_20  and  C_21 
REMARK       I    between atoms: C_21  and  N_23 
REMARK    8  A    between atoms: N_23  and  C_24 
REMARK    9  A    between atoms: C_24  and  C_25 
ROOT
ATOM      1  C   UNL d   1      25.894 -16.407  -0.709  0.00  0.00     0.036 A 
ATOM      2  C   UNL d   1      25.734 -17.736  -0.288  0.00  0.00     0.032 A 
ATOM      3  C   UNL d   1      24.447 -18.345  -0.218  0.00  0.00     0.035 A 
ATOM      4  C   UNL d   1      23.296 -17.642  -0.610  0.00  0.00     0.075 A 
ATOM      5  C   UNL d   1      23.463 -16.338  -1.097  0.00  0.00     0.035 A 
ATOM      6  C   UNL d   1      24.740 -15.725  -1.115  0.00  0.00     0.032 A 
ENDROOT
BRANCH   1   7
ATOM      7  N   UNL d   1      27.188 -15.787  -0.754  0.00  0.00    -0.309 N 
ATOM      8  C   UNL d   1      27.409 -14.503  -0.273  0.00  0.00     0.320 C 
ATOM      9  N   UNL d   1      28.734 -14.081  -0.315  0.00  0.00    -0.343 N 
ATOM     10  O   UNL d   1      26.531 -13.781   0.194  0.00  0.00    -0.247 OA
ATOM     11  H   UNL d   1      29.469 -14.660  -0.689  0.00  0.00     0.164 HD
ATOM     12  H   UNL d   1      27.994 -16.386  -0.844  0.00  0.00     0.170 HD
BRANCH   9  13
ATOM     13  C   UNL d   1      29.055 -12.754   0.208  0.00  0.00     0.129 C 
BRANCH  13  14
ATOM     14  C   UNL d   1      28.644 -12.450   1.662  0.00  0.00     0.058 C 
BRANCH  14  15
ATOM     15  C   UNL d   1      27.828 -11.172   1.830  0.00  0.00    -0.057 A 
ATOM     16  C   UNL d   1      27.341 -10.493   0.702  0.00  0.00     0.010 A 
ATOM     17  C   UNL d   1      26.710  -9.244   0.835  0.00  0.00     0.037 A 
ATOM     18  C   UNL d   1      26.490  -8.688   2.096  0.00  0.00     0.068 A 
ATOM     19  C   UNL d   1      26.914  -9.381   3.222  0.00  0.00     0.037 A 
ATOM     20  C   UNL d   1      27.577 -10.604   3.088  0.00  0.00     0.010 A 
BRANCH  18  21
ATOM     21  O   UNL d   1      25.773  -7.524   2.136  0.00  0.00    -0.356 OA
ATOM     22  C   UNL d   1      26.489  -6.349   1.767  0.00  0.00     0.210 C 
ENDBRANCH  18  21
ENDBRANCH  14  15
ENDBRANCH  13  14
ENDBRANCH   9  13
ENDBRANCH   1   7
BRANCH   4  23
ATOM     23  N   UNL d   1      21.988 -18.229  -0.562  0.00  0.00    -0.154 N 
ATOM     24  N   UNL d   1      20.939 -17.825  -1.326  0.00  0.00     0.030 NA
ATOM     25  N   UNL d   1      19.903 -18.576  -0.949  0.00  0.00    -0.130 NA
ATOM     26  C   UNL d   1      20.335 -19.359   0.094  0.00  0.00     0.255 A 
ATOM     27  N   UNL d   1      21.667 -19.224   0.319  0.00  0.00    -0.126 NA
BRANCH  26  28
ATOM     28  C   UNL d   1      19.455 -20.221   0.931  0.00  0.00     0.292 C 
ATOM     29  O   UNL d   1      18.661 -21.053   0.479  0.00  0.00    -0.264 OA
ATOM     30  N   UNL d   1      19.574 -20.000   2.292  0.00  0.00    -0.346 N 
ATOM     31  H   UNL d   1      20.241 -19.284   2.574  0.00  0.00     0.163 HD
BRANCH  30  32
ATOM     32  C   UNL d   1      18.814 -20.729   3.320  0.00  0.00     0.240 C 
BRANCH  32  33
ATOM     33  C   UNL d   1      19.520 -20.827   4.675  0.00  0.00     0.403 C 
ATOM     34  F   UNL d   1      18.696 -20.447   5.679  0.00  0.00    -0.169 F 
ATOM     35  F   UNL d   1      19.909 -22.098   4.929  0.00  0.00    -0.169 F 
ATOM     36  F   UNL d   1      20.619 -20.043   4.728  0.00  0.00    -0.169 F 
ENDBRANCH  32  33
ENDBRANCH  30  32
ENDBRANCH  26  28
ENDBRANCH   4  23
TORSDOF 9
ENDMDL
MODEL 6
REMARK VINA RESULT:   -27.689      1.461      2.023
REMARK INTER + INTRA:         -31.588
REMARK INTER:                 -30.374
REMARK INTRA:                  -1.214
REMARK CONF_INDEPENDENT:        2.685
REMARK UNBOUND:                -1.214
REMARK  9 active torsions:
REMARK  status: ('A' for Active; 'I' for Inactive)
REMARK    1  A    between atoms: O_2  and  C_3 
REMARK    2  A    between atoms: C_6  and  C_7 
REMARK    3  A    between atoms: C_7  and  C_8 
REMARK    4  A    between atoms: C_8  and  N_9 
REMARK       I    between atoms: N_9  and  C_10 
REMARK       I    between atoms: C_10  and  N_12 
REMARK    5  A    between atoms: N_12  and  C_13 
REMARK    6  A    between atoms: C_16  and  N_17 
REMARK    7  A    between atoms: C_20  and  C_21 
REMARK       I    between atoms: C_21  and  N_23 
REMARK    8  A    between atoms: N_23  and  C_24 
REMARK    9  A    between atoms: C_24  and  C_25 
ROOT
ATOM      1  C   UNL d   1      25.848 -16.569  -0.966  0.00  0.00     0.036 A 
ATOM      2  C   UNL d   1      24.715 -15.835  -1.350  0.00  0.00     0.032 A 
ATOM      3  C   UNL d   1      23.405 -16.391  -1.269  0.00  0.00     0.035 A 
ATOM      4  C   UNL d   1      23.203 -17.684  -0.758  0.00  0.00     0.075 A 
ATOM      5  C   UNL d   1      24.327 -18.390  -0.308  0.00  0.00     0.035 A 
ATOM      6  C   UNL d   1      25.629 -17.848  -0.441  0.00  0.00     0.032 A 
ENDROOT
BRANCH   1   7
ATOM      7  N   UNL d   1      27.169 -16.016  -1.073  0.00  0.00    -0.309 N 
ATOM      8  C   UNL d   1      27.659 -15.499  -2.266  0.00  0.00     0.320 C 
ATOM      9  N   UNL d   1      28.923 -14.928  -2.182  0.00  0.00    -0.343 N 
ATOM     10  O   UNL d   1      27.035 -15.500  -3.325  0.00  0.00    -0.247 OA
ATOM     11  H   UNL d   1      29.449 -14.913  -1.322  0.00  0.00     0.164 HD
ATOM     12  H   UNL d   1      27.624 -15.717  -0.225  0.00  0.00     0.170 HD
BRANCH   9  13
ATOM     13  C   UNL d   1      29.495 -14.330  -3.387  0.00  0.00     0.129 C 
BRANCH  13  14
ATOM     14  C   UNL d   1      29.145 -14.988  -4.736  0.00  0.00     0.058 C 
BRANCH  14  15
ATOM     15  C   UNL d   1      29.905 -16.280  -5.021  0.00  0.00    -0.057 A 
ATOM     16  C   UNL d   1      30.485 -16.494  -6.281  0.00  0.00     0.010 A 
ATOM     17  C   UNL d   1      31.066 -17.733  -6.601  0.00  0.00     0.037 A 
ATOM     18  C   UNL d   1      31.142 -18.751  -5.649  0.00  0.00     0.068 A 
ATOM     19  C   UNL d   1      30.625 -18.527  -4.380  0.00  0.00     0.037 A 
ATOM     20  C   UNL d   1      30.013 -17.309  -4.074  0.00  0.00     0.010 A 
BRANCH  18  21
ATOM     21  O   UNL d   1      31.820 -19.881  -6.014  0.00  0.00    -0.356 OA
ATOM     22  C   UNL d   1      31.130 -21.108  -5.793  0.00  0.00     0.210 C 
ENDBRANCH  18  21
ENDBRANCH  14  15
ENDBRANCH  13  14
ENDBRANCH   9  13
ENDBRANCH   1   7
BRANCH   4  23
ATOM     23  N   UNL d   1      21.897 -18.269  -0.652  0.00  0.00    -0.154 N 
ATOM     24  N   UNL d   1      20.794 -17.800  -1.293  0.00  0.00     0.030 NA
ATOM     25  N   UNL d   1      19.785 -18.576  -0.896  0.00  0.00    -0.130 NA
ATOM     26  C   UNL d   1      20.292 -19.444   0.041  0.00  0.00     0.255 A 
ATOM     27  N   UNL d   1      21.638 -19.332   0.168  0.00  0.00    -0.126 NA
BRANCH  26  28
ATOM     28  C   UNL d   1      19.473 -20.368   0.874  0.00  0.00     0.292 C 
ATOM     29  O   UNL d   1      18.552 -21.067   0.438  0.00  0.00    -0.264 OA
ATOM     30  N   UNL d   1      19.810 -20.372   2.216  0.00  0.00    -0.346 N 
ATOM     31  H   UNL d   1      20.571 -19.752   2.489  0.00  0.00     0.163 HD
BRANCH  30  32
ATOM     32  C   UNL d   1      19.150 -21.203   3.235  0.00  0.00     0.240 C 
BRANCH  32  33
ATOM     33  C   UNL d   1      19.566 -20.885   4.674  0.00  0.00     0.403 C 
ATOM     34  F   UNL d   1      18.552 -20.300   5.354  0.00  0.00    -0.169 F 
ATOM     35  F   UNL d   1      19.904 -22.012   5.341  0.00  0.00    -0.169 F 
ATOM     36  F   UNL d   1      20.625 -20.048   4.718  0.00  0.00    -0.169 F 
ENDBRANCH  32  33
ENDBRANCH  30  32
ENDBRANCH  26  28
ENDBRANCH   4  23
TORSDOF 9
ENDMDL
MODEL 7
REMARK VINA RESULT:   -27.378      2.257      2.874
REMARK INTER + INTRA:         -31.260
REMARK INTER:                 -30.063
REMARK INTRA:                  -1.197
REMARK CONF_INDEPENDENT:        2.685
REMARK UNBOUND:                -1.197
REMARK  9 active torsions:
REMARK  status: ('A' for Active; 'I' for Inactive)
REMARK    1  A    between atoms: O_2  and  C_3 
REMARK    2  A    between atoms: C_6  and  C_7 
REMARK    3  A    between atoms: C_7  and  C_8 
REMARK    4  A    between atoms: C_8  and  N_9 
REMARK       I    between atoms: N_9  and  C_10 
REMARK       I    between atoms: C_10  and  N_12 
REMARK    5  A    between atoms: N_12  and  C_13 
REMARK    6  A    between atoms: C_16  and  N_17 
REMARK    7  A    between atoms: C_20  and  C_21 
REMARK       I    between atoms: C_21  and  N_23 
REMARK    8  A    between atoms: N_23  and  C_24 
REMARK    9  A    between atoms: C_24  and  C_25 
ROOT
ATOM      1  C   UNL d   1      25.813 -16.441  -0.904  0.00  0.00     0.036 A 
ATOM      2  C   UNL d   1      24.670 -15.695  -1.225  0.00  0.00     0.032 A 
ATOM      3  C   UNL d   1      23.366 -16.270  -1.173  0.00  0.00     0.035 A 
ATOM      4  C   UNL d   1      23.182 -17.599  -0.755  0.00  0.00     0.075 A 
ATOM      5  C   UNL d   1      24.318 -18.322  -0.366  0.00  0.00     0.035 A 
ATOM      6  C   UNL d   1      25.613 -17.757  -0.471  0.00  0.00     0.032 A 
ENDROOT
BRANCH   1   7
ATOM      7  N   UNL d   1      27.127 -15.867  -0.982  0.00  0.00    -0.309 N 
ATOM      8  C   UNL d   1      28.250 -16.524  -0.494  0.00  0.00     0.320 C 
ATOM      9  N   UNL d   1      29.456 -15.869  -0.721  0.00  0.00    -0.343 N 
ATOM     10  O   UNL d   1      28.220 -17.615   0.069  0.00  0.00    -0.247 OA
ATOM     11  H   UNL d   1      29.502 -14.976  -1.185  0.00  0.00     0.164 HD
ATOM     12  H   UNL d   1      27.283 -15.139  -1.662  0.00  0.00     0.170 HD
BRANCH   9  13
ATOM     13  C   UNL d   1      30.688 -16.513  -0.270  0.00  0.00     0.129 C 
BRANCH  13  14
ATOM     14  C   UNL d   1      30.996 -17.918  -0.826  0.00  0.00     0.058 C 
BRANCH  14  15
ATOM     15  C   UNL d   1      30.869 -18.034  -2.342  0.00  0.00    -0.057 A 
ATOM     16  C   UNL d   1      31.110 -19.262  -2.978  0.00  0.00     0.010 A 
ATOM     17  C   UNL d   1      31.134 -19.350  -4.380  0.00  0.00     0.037 A 
ATOM     18  C   UNL d   1      30.847 -18.235  -5.169  0.00  0.00     0.068 A 
ATOM     19  C   UNL d   1      30.547 -17.029  -4.548  0.00  0.00     0.037 A 
ATOM     20  C   UNL d   1      30.562 -16.932  -3.154  0.00  0.00     0.010 A 
BRANCH  18  21
ATOM     21  O   UNL d   1      30.786 -18.439  -6.520  0.00  0.00    -0.356 OA
ATOM     22  C   UNL d   1      30.525 -19.779  -6.926  0.00  0.00     0.210 C 
ENDBRANCH  18  21
ENDBRANCH  14  15
ENDBRANCH  13  14
ENDBRANCH   9  13
ENDBRANCH   1   7
BRANCH   4  23
ATOM     23  N   UNL d   1      21.884 -18.204  -0.681  0.00  0.00    -0.154 N 
ATOM     24  N   UNL d   1      20.810 -17.806  -1.413  0.00  0.00     0.030 NA
ATOM     25  N   UNL d   1      19.795 -18.575  -1.019  0.00  0.00    -0.130 NA
ATOM     26  C   UNL d   1      20.264 -19.365   0.004  0.00  0.00     0.255 A 
ATOM     27  N   UNL d   1      21.599 -19.214   0.196  0.00  0.00    -0.126 NA
BRANCH  26  28
ATOM     28  C   UNL d   1      19.418 -20.248   0.852  0.00  0.00     0.292 C 
ATOM     29  O   UNL d   1      18.658 -21.117   0.411  0.00  0.00    -0.264 OA
ATOM     30  N   UNL d   1      19.526 -20.003   2.210  0.00  0.00    -0.346 N 
ATOM     31  H   UNL d   1      20.163 -19.257   2.481  0.00  0.00     0.163 HD
BRANCH  30  32
ATOM     32  C   UNL d   1      18.793 -20.746   3.248  0.00  0.00     0.240 C 
BRANCH  32  33
ATOM     33  C   UNL d   1      19.531 -20.854   4.585  0.00  0.00     0.403 C 
ATOM     34  F   UNL d   1      19.904 -22.131   4.832  0.00  0.00    -0.169 F 
ATOM     35  F   UNL d   1      20.653 -20.097   4.582  0.00  0.00    -0.169 F 
ATOM     36  F   UNL d   1      18.763 -20.444   5.618  0.00  0.00    -0.169 F 
ENDBRANCH  32  33
ENDBRANCH  30  32
ENDBRANCH  26  28
ENDBRANCH   4  23
TORSDOF 9
ENDMDL
MODEL 8
REMARK VINA RESULT:   -26.781      2.103      3.337
REMARK INTER + INTRA:         -31.375
REMARK INTER:                 -29.466
REMARK INTRA:                  -1.909
REMARK CONF_INDEPENDENT:        2.685
REMARK UNBOUND:                -1.909
REMARK  9 active torsions:
REMARK  status: ('A' for Active; 'I' for Inactive)
REMARK    1  A    between atoms: O_2  and  C_3 
REMARK    2  A    between atoms: C_6  and  C_7 
REMARK    3  A    between atoms: C_7  and  C_8 
REMARK    4  A    between atoms: C_8  and  N_9 
REMARK       I    between atoms: N_9  and  C_10 
REMARK       I    between atoms: C_10  and  N_12 
REMARK    5  A    between atoms: N_12  and  C_13 
REMARK    6  A    between atoms: C_16  and  N_17 
REMARK    7  A    between atoms: C_20  and  C_21 
REMARK       I    between atoms: C_21  and  N_23 
REMARK    8  A    between atoms: N_23  and  C_24 
REMARK    9  A    between atoms: C_24  and  C_25 
ROOT
ATOM      1  C   UNL d   1      25.937 -16.577  -0.536  0.00  0.00     0.036 A 
ATOM      2  C   UNL d   1      24.948 -16.085  -1.401  0.00  0.00     0.032 A 
ATOM      3  C   UNL d   1      23.633 -16.636  -1.419  0.00  0.00     0.035 A 
ATOM      4  C   UNL d   1      23.273 -17.668  -0.537  0.00  0.00     0.075 A 
ATOM      5  C   UNL d   1      24.241 -18.112   0.376  0.00  0.00     0.035 A 
ATOM      6  C   UNL d   1      25.559 -17.593   0.350  0.00  0.00     0.032 A 
ENDROOT
BRANCH   1   7
ATOM      7  N   UNL d   1      27.267 -16.038  -0.538  0.00  0.00    -0.309 N 
ATOM      8  C   UNL d   1      28.071 -16.057  -1.671  0.00  0.00     0.320 C 
ATOM      9  N   UNL d   1      29.300 -15.422  -1.529  0.00  0.00    -0.343 N 
ATOM     10  O   UNL d   1      27.740 -16.558  -2.743  0.00  0.00    -0.247 OA
ATOM     11  H   UNL d   1      29.588 -15.000  -0.660  0.00  0.00     0.164 HD
ATOM     12  H   UNL d   1      27.506 -15.371   0.180  0.00  0.00     0.170 HD
BRANCH   9  13
ATOM     13  C   UNL d   1      30.189 -15.367  -2.688  0.00  0.00     0.129 C 
BRANCH  13  14
ATOM     14  C   UNL d   1      29.871 -14.319  -3.773  0.00  0.00     0.058 C 
BRANCH  14  15
ATOM     15  C   UNL d   1      28.384 -14.156  -4.072  0.00  0.00    -0.057 A 
ATOM     16  C   UNL d   1      27.666 -13.082  -3.521  0.00  0.00     0.010 A 
ATOM     17  C   UNL d   1      26.272 -12.999  -3.673  0.00  0.00     0.037 A 
ATOM     18  C   UNL d   1      25.582 -13.943  -4.436  0.00  0.00     0.068 A 
ATOM     19  C   UNL d   1      26.291 -14.974  -5.036  0.00  0.00     0.037 A 
ATOM     20  C   UNL d   1      27.672 -15.079  -4.852  0.00  0.00     0.010 A 
BRANCH  18  21
ATOM     21  O   UNL d   1      24.245 -13.721  -4.620  0.00  0.00    -0.356 OA
ATOM     22  C   UNL d   1      23.408 -14.075  -3.522  0.00  0.00     0.210 C 
ENDBRANCH  18  21
ENDBRANCH  14  15
ENDBRANCH  13  14
ENDBRANCH   9  13
ENDBRANCH   1   7
BRANCH   4  23
ATOM     23  N   UNL d   1      21.957 -18.238  -0.521  0.00  0.00    -0.154 N 
ATOM     24  N   UNL d   1      20.963 -17.890  -1.380  0.00  0.00     0.030 NA
ATOM     25  N   UNL d   1      19.895 -18.597  -1.008  0.00  0.00    -0.130 NA
ATOM     26  C   UNL d   1      20.252 -19.294   0.123  0.00  0.00     0.255 A 
ATOM     27  N   UNL d   1      21.568 -19.152   0.418  0.00  0.00    -0.126 NA
BRANCH  26  28
ATOM     28  C   UNL d   1      19.309 -20.074   0.972  0.00  0.00     0.292 C 
ATOM     29  O   UNL d   1      18.163 -20.385   0.634  0.00  0.00    -0.264 OA
ATOM     30  N   UNL d   1      19.815 -20.415   2.214  0.00  0.00    -0.346 N 
ATOM     31  H   UNL d   1      20.764 -20.103   2.413  0.00  0.00     0.163 HD
BRANCH  30  32
ATOM     32  C   UNL d   1      19.078 -21.187   3.227  0.00  0.00     0.240 C 
BRANCH  32  33
ATOM     33  C   UNL d   1      19.530 -20.931   4.667  0.00  0.00     0.403 C 
ATOM     34  F   UNL d   1      18.525 -20.404   5.404  0.00  0.00    -0.169 F 
ATOM     35  F   UNL d   1      19.912 -22.083   5.268  0.00  0.00    -0.169 F 
ATOM     36  F   UNL d   1      20.573 -20.075   4.723  0.00  0.00    -0.169 F 
ENDBRANCH  32  33
ENDBRANCH  30  32
ENDBRANCH  26  28
ENDBRANCH   4  23
TORSDOF 9
ENDMDL
MODEL 9
REMARK VINA RESULT:   -26.636      2.127      4.023
REMARK INTER + INTRA:         -30.851
REMARK INTER:                 -29.320
REMARK INTRA:                  -1.531
REMARK CONF_INDEPENDENT:        2.685
REMARK UNBOUND:                -1.531
REMARK  9 active torsions:
REMARK  status: ('A' for Active; 'I' for Inactive)
REMARK    1  A    between atoms: O_2  and  C_3 
REMARK    2  A    between atoms: C_6  and  C_7 
REMARK    3  A    between atoms: C_7  and  C_8 
REMARK    4  A    between atoms: C_8  and  N_9 
REMARK       I    between atoms: N_9  and  C_10 
REMARK       I    between atoms: C_10  and  N_12 
REMARK    5  A    between atoms: N_12  and  C_13 
REMARK    6  A    between atoms: C_16  and  N_17 
REMARK    7  A    between atoms: C_20  and  C_21 
REMARK       I    between atoms: C_21  and  N_23 
REMARK    8  A    between atoms: N_23  and  C_24 
REMARK    9  A    between atoms: C_24  and  C_25 
ROOT
ATOM      1  C   UNL d   1      25.944 -16.506  -0.736  0.00  0.00     0.036 A 
ATOM      2  C   UNL d   1      24.833 -15.819  -1.247  0.00  0.00     0.032 A 
ATOM      3  C   UNL d   1      23.526 -16.390  -1.217  0.00  0.00     0.035 A 
ATOM      4  C   UNL d   1      23.304 -17.648  -0.632  0.00  0.00     0.075 A 
ATOM      5  C   UNL d   1      24.403 -18.302  -0.058  0.00  0.00     0.035 A 
ATOM      6  C   UNL d   1      25.704 -17.750  -0.140  0.00  0.00     0.032 A 
ENDROOT
BRANCH   1   7
ATOM      7  N   UNL d   1      27.263 -15.941  -0.791  0.00  0.00    -0.309 N 
ATOM      8  C   UNL d   1      27.923 -15.722  -1.994  0.00  0.00     0.320 C 
ATOM      9  N   UNL d   1      29.157 -15.093  -1.879  0.00  0.00    -0.343 N 
ATOM     10  O   UNL d   1      27.466 -16.019  -3.095  0.00  0.00    -0.247 OA
ATOM     11  H   UNL d   1      29.548 -14.837  -0.986  0.00  0.00     0.164 HD
ATOM     12  H   UNL d   1      27.584 -15.416   0.008  0.00  0.00     0.170 HD
BRANCH   9  13
ATOM     13  C   UNL d   1      29.899 -14.794  -3.103  0.00  0.00     0.129 C 
BRANCH  13  14
ATOM     14  C   UNL d   1      29.130 -14.097  -4.242  0.00  0.00     0.058 C 
BRANCH  14  15
ATOM     15  C   UNL d   1      28.321 -12.881  -3.802  0.00  0.00    -0.057 A 
ATOM     16  C   UNL d   1      28.910 -11.607  -3.790  0.00  0.00     0.010 A 
ATOM     17  C   UNL d   1      28.222 -10.505  -3.256  0.00  0.00     0.037 A 
ATOM     18  C   UNL d   1      26.913 -10.639  -2.791  0.00  0.00     0.068 A 
ATOM     19  C   UNL d   1      26.299 -11.883  -2.855  0.00  0.00     0.037 A 
ATOM     20  C   UNL d   1      26.997 -12.988  -3.350  0.00  0.00     0.010 A 
BRANCH  18  21
ATOM     21  O   UNL d   1      26.285  -9.493  -2.390  0.00  0.00    -0.356 OA
ATOM     22  C   UNL d   1      27.100  -8.561  -1.684  0.00  0.00     0.210 C 
ENDBRANCH  18  21
ENDBRANCH  14  15
ENDBRANCH  13  14
ENDBRANCH   9  13
ENDBRANCH   1   7
BRANCH   4  23
ATOM     23  N   UNL d   1      22.001 -18.245  -0.575  0.00  0.00    -0.154 N 
ATOM     24  N   UNL d   1      20.920 -17.791  -1.262  0.00  0.00     0.030 NA
ATOM     25  N   UNL d   1      19.903 -18.574  -0.901  0.00  0.00    -0.130 NA
ATOM     26  C   UNL d   1      20.381 -19.432   0.061  0.00  0.00     0.255 A 
ATOM     27  N   UNL d   1      21.720 -19.306   0.241  0.00  0.00    -0.126 NA
BRANCH  26  28
ATOM     28  C   UNL d   1      19.539 -20.360   0.866  0.00  0.00     0.292 C 
ATOM     29  O   UNL d   1      18.686 -21.116   0.390  0.00  0.00    -0.264 OA
ATOM     30  N   UNL d   1      19.768 -20.295   2.229  0.00  0.00    -0.346 N 
ATOM     31  H   UNL d   1      20.477 -19.632   2.534  0.00  0.00     0.163 HD
BRANCH  30  32
ATOM     32  C   UNL d   1      19.064 -21.115   3.228  0.00  0.00     0.240 C 
BRANCH  32  33
ATOM     33  C   UNL d   1      19.538 -20.899   4.668  0.00  0.00     0.403 C 
ATOM     34  F   UNL d   1      19.906 -22.069   5.239  0.00  0.00    -0.169 F 
ATOM     35  F   UNL d   1      20.611 -20.074   4.707  0.00  0.00    -0.169 F 
ATOM     36  F   UNL d   1      18.573 -20.352   5.439  0.00  0.00    -0.169 F 
ENDBRANCH  32  33
ENDBRANCH  30  32
ENDBRANCH  26  28
ENDBRANCH   4  23
TORSDOF 9
ENDMDL
