MODEL 1
REMARK VINA RESULT:    -8.484      0.000      0.000
REMARK INTER + INTRA:         -13.642
REMARK INTER:                 -10.572
REMARK INTRA:                  -3.071
REMARK CONF_INDEPENDENT:        2.088
REMARK UNBOUND:                -3.071
REMARK  7 active torsions:
REMARK  status: ('A' for Active; 'I' for Inactive)
REMARK    1  A    between atoms: C_2  and  N_5 
REMARK       I    between atoms: N_5  and  C_6 
REMARK    2  A    between atoms: C_8  and  C_6 
REMARK    3  A    between atoms: C_8  and  N_19 
REMARK    4  A    between atoms: C_8  and  C_9 
REMARK    5  A    between atoms: C_11  and  N_12 
REMARK       I    between atoms: N_19  and  C_20 
REMARK    6  A    between atoms: N_19  and  C_28 
REMARK    7  A    between atoms: C_20  and  C_22 
ROOT
ATOM      1  C   UNL d   1      27.541 -15.531  -1.395  0.00  0.00     0.220 C 
ENDROOT
BRANCH   1   2
ATOM      2  N   UNL d   1      26.055 -15.640  -1.765  0.00  0.00    -0.299 N 
ATOM      3  C   UNL d   1      25.293 -14.680  -2.501  0.00  0.00     0.229 C 
ATOM      4  O   UNL d   1      24.056 -14.719  -2.547  0.00  0.00    -0.273 OA
BRANCH   3   5
ATOM      5  C   UNL d   1      25.915 -13.514  -3.300  0.00  0.00     0.078 C 
ATOM      6  C   UNL d   1      25.243 -13.252  -4.645  0.00  0.00     0.014 C 
ATOM      7  C   UNL d   1      25.922 -12.114  -5.419  0.00  0.00     0.001 C 
ATOM      8  C   UNL d   1      26.065 -10.857  -4.570  0.00  0.00     0.000 C 
ATOM      9  C   UNL d   1      26.793 -11.130  -3.265  0.00  0.00     0.001 C 
ATOM     10  C   UNL d   1      26.150 -12.259  -2.453  0.00  0.00     0.014 C 
ENDBRANCH   3   5
BRANCH   2  11
ATOM     11  C   UNL d   1      25.289 -16.807  -1.178  0.00  0.00     0.040 C 
ATOM     12  C   UNL d   1      25.862 -17.823  -0.398  0.00  0.00     0.030 C 
ATOM     13  C   UNL d   1      25.135 -18.524   0.578  0.00  0.00     0.004 C 
ATOM     14  C   UNL d   1      23.769 -18.573   0.493  0.00  0.00     0.024 C 
ATOM     15  C   UNL d   1      23.173 -17.873  -0.541  0.00  0.00     0.036 C 
ATOM     16 CL   UNL d   1      21.523 -18.195  -0.895  0.00  0.00    -0.084 Cl
ATOM     17  C   UNL d   1      23.905 -16.949  -1.315  0.00  0.00     0.053 C 
ENDBRANCH   2  11
ENDBRANCH   1   2
BRANCH   1  18
ATOM     18  C   UNL d   1      28.589 -15.782  -2.500  0.00  0.00    -0.002 A 
ATOM     19  C   UNL d   1      28.308 -15.263  -3.813  0.00  0.00     0.047 A 
ATOM     20  C   UNL d   1      29.087 -15.602  -4.921  0.00  0.00     0.103 A 
ATOM     21  C   UNL d   1      30.152 -16.492  -4.756  0.00  0.00     0.038 A 
ATOM     22  C   UNL d   1      30.460 -16.987  -3.472  0.00  0.00     0.027 A 
ATOM     23  C   UNL d   1      29.702 -16.626  -2.345  0.00  0.00     0.043 A 
ATOM     24 CL   UNL d   1      30.022 -17.448  -0.860  0.00  0.00    -0.084 Cl
BRANCH  20  25
ATOM     25  N   UNL d   1      28.636 -15.222  -6.277  0.00  0.00    -0.116 N 
ATOM     26  O   UNL d   1      27.405 -15.200  -6.485  0.00  0.00    -0.532 OA
ATOM     27  O   UNL d   1      29.493 -15.020  -7.136  0.00  0.00    -0.532 OA
ENDBRANCH  20  25
ENDBRANCH   1  18
BRANCH   1  28
ATOM     28  C   UNL d   1      28.070 -14.248  -0.662  0.00  0.00     0.246 C 
ATOM     29  N   UNL d   1      27.354 -13.750   0.389  0.00  0.00    -0.351 N 
ATOM     30  H   UNL d   1      26.347 -13.900   0.364  0.00  0.00     0.163 HD
ATOM     31  O   UNL d   1      29.153 -13.750  -0.999  0.00  0.00    -0.271 OA
BRANCH  29  32
ATOM     32  C   UNL d   1      27.838 -12.713   1.294  0.00  0.00     0.022 C 
ATOM     33  C   UNL d   1      27.032 -12.694   2.607  0.00  0.00     0.037 C 
ATOM     34  C   UNL d   1      27.599 -11.425   0.535  0.00  0.00     0.037 C 
ATOM     35  C   UNL d   1      29.306 -12.935   1.717  0.00  0.00     0.037 C 
ENDBRANCH  29  32
ENDBRANCH   1  28
TORSDOF 7
ENDMDL
MODEL 2
REMARK VINA RESULT:    -8.234      2.360      6.101
REMARK INTER + INTRA:         -13.666
REMARK INTER:                 -10.322
REMARK INTRA:                  -3.344
REMARK CONF_INDEPENDENT:        2.088
REMARK UNBOUND:                -3.344
REMARK  7 active torsions:
REMARK  status: ('A' for Active; 'I' for Inactive)
REMARK    1  A    between atoms: C_2  and  N_5 
REMARK       I    between atoms: N_5  and  C_6 
REMARK    2  A    between atoms: C_8  and  C_6 
REMARK    3  A    between atoms: C_8  and  N_19 
REMARK    4  A    between atoms: C_8  and  C_9 
REMARK    5  A    between atoms: C_11  and  N_12 
REMARK       I    between atoms: N_19  and  C_20 
REMARK    6  A    between atoms: N_19  and  C_28 
REMARK    7  A    between atoms: C_20  and  C_22 
ROOT
ATOM      1  C   UNL d   1      26.998 -15.118  -0.101  0.00  0.00     0.220 C 
ENDROOT
BRANCH   1   2
ATOM      2  N   UNL d   1      28.460 -15.261   0.349  0.00  0.00    -0.299 N 
ATOM      3  C   UNL d   1      29.055 -14.649   1.495  0.00  0.00     0.229 C 
ATOM      4  O   UNL d   1      30.284 -14.610   1.655  0.00  0.00    -0.273 OA
BRANCH   3   5
ATOM      5  C   UNL d   1      28.252 -13.982   2.633  0.00  0.00     0.078 C 
ATOM      6  C   UNL d   1      28.156 -14.825   3.903  0.00  0.00     0.014 C 
ATOM      7  C   UNL d   1      27.314 -14.140   4.988  0.00  0.00     0.001 C 
ATOM      8  C   UNL d   1      27.780 -12.714   5.253  0.00  0.00     0.000 C 
ATOM      9  C   UNL d   1      27.808 -11.877   3.985  0.00  0.00     0.001 C 
ATOM     10  C   UNL d   1      28.639 -12.520   2.870  0.00  0.00     0.014 C 
ENDBRANCH   3   5
BRANCH   2  11
ATOM     11  C   UNL d   1      29.392 -16.007  -0.583  0.00  0.00     0.040 C 
ATOM     12  C   UNL d   1      30.306 -16.990  -0.175  0.00  0.00     0.030 C 
ATOM     13  C   UNL d   1      30.715 -18.035  -1.020  0.00  0.00     0.004 C 
ATOM     14  C   UNL d   1      30.609 -17.882  -2.377  0.00  0.00     0.024 C 
ATOM     15  C   UNL d   1      30.048 -16.707  -2.841  0.00  0.00     0.036 C 
ATOM     16 CL   UNL d   1      30.224 -16.324  -4.507  0.00  0.00    -0.084 Cl
ATOM     17  C   UNL d   1      29.384 -15.819  -1.968  0.00  0.00     0.053 C 
ENDBRANCH   2  11
ENDBRANCH   1   2
BRANCH   1  18
ATOM     18  C   UNL d   1      26.706 -14.328  -1.394  0.00  0.00    -0.002 A 
ATOM     19  C   UNL d   1      26.418 -15.084  -2.585  0.00  0.00     0.047 A 
ATOM     20  C   UNL d   1      26.337 -14.479  -3.841  0.00  0.00     0.103 A 
ATOM     21  C   UNL d   1      26.570 -13.105  -3.948  0.00  0.00     0.038 A 
ATOM     22  C   UNL d   1      26.825 -12.344  -2.789  0.00  0.00     0.027 A 
ATOM     23  C   UNL d   1      26.876 -12.939  -1.516  0.00  0.00     0.043 A 
ATOM     24 CL   UNL d   1      27.404 -11.965  -0.191  0.00  0.00    -0.084 Cl
BRANCH  20  25
ATOM     25  N   UNL d   1      26.255 -15.319  -5.055  0.00  0.00    -0.116 N 
ATOM     26  O   UNL d   1      27.301 -15.463  -5.723  0.00  0.00    -0.532 OA
ATOM     27  O   UNL d   1      25.155 -15.768  -5.375  0.00  0.00    -0.532 OA
ENDBRANCH  20  25
ENDBRANCH   1  18
BRANCH   1  28
ATOM     28  C   UNL d   1      26.094 -16.394  -0.229  0.00  0.00     0.246 C 
ATOM     29  N   UNL d   1      24.737 -16.238  -0.253  0.00  0.00    -0.351 N 
ATOM     30  H   UNL d   1      24.363 -15.442   0.259  0.00  0.00     0.163 HD
ATOM     31  O   UNL d   1      26.619 -17.507  -0.373  0.00  0.00    -0.271 OA
BRANCH  29  32
ATOM     32  C   UNL d   1      23.795 -17.300  -0.591  0.00  0.00     0.022 C 
ATOM     33  C   UNL d   1      24.034 -17.825  -2.021  0.00  0.00     0.037 C 
ATOM     34  C   UNL d   1      22.442 -16.624  -0.520  0.00  0.00     0.037 C 
ATOM     35  C   UNL d   1      23.938 -18.533   0.327  0.00  0.00     0.037 C 
ENDBRANCH  29  32
ENDBRANCH   1  28
TORSDOF 7
ENDMDL
MODEL 3
REMARK VINA RESULT:    -8.094      2.242      4.706
REMARK INTER + INTRA:         -13.471
REMARK INTER:                 -10.182
REMARK INTRA:                  -3.288
REMARK CONF_INDEPENDENT:        2.088
REMARK UNBOUND:                -3.288
REMARK  7 active torsions:
REMARK  status: ('A' for Active; 'I' for Inactive)
REMARK    1  A    between atoms: C_2  and  N_5 
REMARK       I    between atoms: N_5  and  C_6 
REMARK    2  A    between atoms: C_8  and  C_6 
REMARK    3  A    between atoms: C_8  and  N_19 
REMARK    4  A    between atoms: C_8  and  C_9 
REMARK    5  A    between atoms: C_11  and  N_12 
REMARK       I    between atoms: N_19  and  C_20 
REMARK    6  A    between atoms: N_19  and  C_28 
REMARK    7  A    between atoms: C_20  and  C_22 
ROOT
ATOM      1  C   UNL d   1      26.410 -13.705  -1.257  0.00  0.00     0.220 C 
ENDROOT
BRANCH   1   2
ATOM      2  N   UNL d   1      26.047 -14.823  -2.247  0.00  0.00    -0.299 N 
ATOM      3  C   UNL d   1      26.000 -14.709  -3.671  0.00  0.00     0.229 C 
ATOM      4  O   UNL d   1      25.466 -15.572  -4.382  0.00  0.00    -0.273 OA
BRANCH   3   5
ATOM      5  C   UNL d   1      26.595 -13.524  -4.463  0.00  0.00     0.078 C 
ATOM      6  C   UNL d   1      27.673 -13.924  -5.466  0.00  0.00     0.014 C 
ATOM      7  C   UNL d   1      28.263 -12.710  -6.196  0.00  0.00     0.001 C 
ATOM      8  C   UNL d   1      27.177 -11.832  -6.806  0.00  0.00     0.000 C 
ATOM      9  C   UNL d   1      26.150 -11.395  -5.776  0.00  0.00     0.001 C 
ATOM     10  C   UNL d   1      25.530 -12.574  -5.020  0.00  0.00     0.014 C 
ENDBRANCH   3   5
BRANCH   2  11
ATOM     11  C   UNL d   1      25.559 -16.128  -1.654  0.00  0.00     0.040 C 
ATOM     12  C   UNL d   1      26.391 -17.099  -1.075  0.00  0.00     0.030 C 
ATOM     13  C   UNL d   1      25.945 -17.965  -0.063  0.00  0.00     0.004 C 
ATOM     14  C   UNL d   1      24.604 -18.210   0.070  0.00  0.00     0.024 C 
ATOM     15  C   UNL d   1      23.749 -17.537  -0.784  0.00  0.00     0.036 C 
ATOM     16 CL   UNL d   1      22.121 -18.075  -0.894  0.00  0.00    -0.084 Cl
ATOM     17  C   UNL d   1      24.204 -16.463  -1.578  0.00  0.00     0.053 C 
ENDBRANCH   2  11
ENDBRANCH   1   2
BRANCH   1  18
ATOM     18  C   UNL d   1      27.243 -14.075  -0.012  0.00  0.00    -0.002 A 
ATOM     19  C   UNL d   1      26.819 -13.538   1.255  0.00  0.00     0.047 A 
ATOM     20  C   UNL d   1      27.608 -13.646   2.402  0.00  0.00     0.103 A 
ATOM     21  C   UNL d   1      28.856 -14.268   2.311  0.00  0.00     0.038 A 
ATOM     22  C   UNL d   1      29.276 -14.825   1.085  0.00  0.00     0.027 A 
ATOM     23  C   UNL d   1      28.474 -14.750  -0.067  0.00  0.00     0.043 A 
ATOM     24 CL   UNL d   1      29.163 -15.268  -1.563  0.00  0.00    -0.084 Cl
BRANCH  20  25
ATOM     25  N   UNL d   1      27.234 -12.897   3.621  0.00  0.00    -0.116 N 
ATOM     26  O   UNL d   1      27.030 -13.560   4.660  0.00  0.00    -0.532 OA
ATOM     27  O   UNL d   1      27.076 -11.681   3.527  0.00  0.00    -0.532 OA
ENDBRANCH  20  25
ENDBRANCH   1  18
BRANCH   1  28
ATOM     28  C   UNL d   1      27.083 -12.388  -1.781  0.00  0.00     0.246 C 
ATOM     29  N   UNL d   1      26.289 -11.405  -2.297  0.00  0.00    -0.351 N 
ATOM     30  H   UNL d   1      25.427 -11.706  -2.746  0.00  0.00     0.163 HD
ATOM     31  O   UNL d   1      28.306 -12.233  -1.658  0.00  0.00    -0.271 OA
BRANCH  29  32
ATOM     32  C   UNL d   1      26.751 -10.056  -2.607  0.00  0.00     0.022 C 
ATOM     33  C   UNL d   1      27.190  -9.308  -1.333  0.00  0.00     0.037 C 
ATOM     34  C   UNL d   1      25.531  -9.379  -3.196  0.00  0.00     0.037 C 
ATOM     35  C   UNL d   1      27.987 -10.051  -3.531  0.00  0.00     0.037 C 
ENDBRANCH  29  32
ENDBRANCH   1  28
TORSDOF 7
ENDMDL
MODEL 4
REMARK VINA RESULT:    -7.934      1.642      4.732
REMARK INTER + INTRA:         -13.023
REMARK INTER:                 -10.022
REMARK INTRA:                  -3.001
REMARK CONF_INDEPENDENT:        2.088
REMARK UNBOUND:                -3.001
REMARK  7 active torsions:
REMARK  status: ('A' for Active; 'I' for Inactive)
REMARK    1  A    between atoms: C_2  and  N_5 
REMARK       I    between atoms: N_5  and  C_6 
REMARK    2  A    between atoms: C_8  and  C_6 
REMARK    3  A    between atoms: C_8  and  N_19 
REMARK    4  A    between atoms: C_8  and  C_9 
REMARK    5  A    between atoms: C_11  and  N_12 
REMARK       I    between atoms: N_19  and  C_20 
REMARK    6  A    between atoms: N_19  and  C_28 
REMARK    7  A    between atoms: C_20  and  C_22 
ROOT
ATOM      1  C   UNL d   1      27.374 -15.166  -1.495  0.00  0.00     0.220 C 
ENDROOT
BRANCH   1   2
ATOM      2  N   UNL d   1      26.098 -14.574  -2.112  0.00  0.00    -0.299 N 
ATOM      3  C   UNL d   1      24.783 -15.130  -2.031  0.00  0.00     0.229 C 
ATOM      4  O   UNL d   1      23.857 -14.734  -2.752  0.00  0.00    -0.273 OA
BRANCH   3   5
ATOM      5  C   UNL d   1      24.382 -16.260  -1.058  0.00  0.00     0.078 C 
ATOM      6  C   UNL d   1      22.890 -16.588  -1.065  0.00  0.00     0.014 C 
ATOM      7  C   UNL d   1      22.536 -17.686  -0.053  0.00  0.00     0.001 C 
ATOM      8  C   UNL d   1      23.417 -18.917  -0.218  0.00  0.00     0.000 C 
ATOM      9  C   UNL d   1      24.896 -18.575  -0.145  0.00  0.00     0.001 C 
ATOM     10  C   UNL d   1      25.301 -17.483  -1.140  0.00  0.00     0.014 C 
ENDBRANCH   3   5
BRANCH   2  11
ATOM     11  C   UNL d   1      26.269 -13.364  -3.006  0.00  0.00     0.040 C 
ATOM     12  C   UNL d   1      26.017 -13.353  -4.387  0.00  0.00     0.030 C 
ATOM     13  C   UNL d   1      25.619 -12.192  -5.070  0.00  0.00     0.004 C 
ATOM     14  C   UNL d   1      25.903 -10.965  -4.532  0.00  0.00     0.024 C 
ATOM     15  C   UNL d   1      26.532 -10.943  -3.300  0.00  0.00     0.036 C 
ATOM     16 CL   UNL d   1      27.220  -9.462  -2.766  0.00  0.00    -0.084 Cl
ATOM     17  C   UNL d   1      26.646 -12.110  -2.517  0.00  0.00     0.053 C 
ENDBRANCH   2  11
ENDBRANCH   1   2
BRANCH   1  18
ATOM     18  C   UNL d   1      28.454 -15.723  -2.446  0.00  0.00    -0.002 A 
ATOM     19  C   UNL d   1      28.412 -15.299  -3.822  0.00  0.00     0.047 A 
ATOM     20  C   UNL d   1      29.213 -15.892  -4.800  0.00  0.00     0.103 A 
ATOM     21  C   UNL d   1      30.058 -16.945  -4.439  0.00  0.00     0.038 A 
ATOM     22  C   UNL d   1      30.133 -17.355  -3.092  0.00  0.00     0.027 A 
ATOM     23  C   UNL d   1      29.355 -16.742  -2.094  0.00  0.00     0.043 A 
ATOM     24 CL   UNL d   1      29.358 -17.452  -0.520  0.00  0.00    -0.084 Cl
BRANCH  20  25
ATOM     25  N   UNL d   1      28.982 -15.576  -6.226  0.00  0.00    -0.116 N 
ATOM     26  O   UNL d   1      27.836 -15.200  -6.550  0.00  0.00    -0.532 OA
ATOM     27  O   UNL d   1      29.904 -15.766  -7.017  0.00  0.00    -0.532 OA
ENDBRANCH  20  25
ENDBRANCH   1  18
BRANCH   1  28
ATOM     28  C   UNL d   1      28.191 -14.333  -0.446  0.00  0.00     0.246 C 
ATOM     29  N   UNL d   1      27.589 -13.985   0.729  0.00  0.00    -0.351 N 
ATOM     30  H   UNL d   1      26.581 -13.849   0.700  0.00  0.00     0.163 HD
ATOM     31  O   UNL d   1      29.380 -14.065  -0.668  0.00  0.00    -0.271 OA
BRANCH  29  32
ATOM     32  C   UNL d   1      28.293 -13.416   1.873  0.00  0.00     0.022 C 
ATOM     33  C   UNL d   1      28.975 -12.083   1.505  0.00  0.00     0.037 C 
ATOM     34  C   UNL d   1      29.348 -14.450   2.204  0.00  0.00     0.037 C 
ATOM     35  C   UNL d   1      27.345 -13.080   3.044  0.00  0.00     0.037 C 
ENDBRANCH  29  32
ENDBRANCH   1  28
TORSDOF 7
ENDMDL
MODEL 5
REMARK VINA RESULT:    -7.841      1.222      1.606
REMARK INTER + INTRA:         -13.350
REMARK INTER:                  -9.929
REMARK INTRA:                  -3.421
REMARK CONF_INDEPENDENT:        2.088
REMARK UNBOUND:                -3.421
REMARK  7 active torsions:
REMARK  status: ('A' for Active; 'I' for Inactive)
REMARK    1  A    between atoms: C_2  and  N_5 
REMARK       I    between atoms: N_5  and  C_6 
REMARK    2  A    between atoms: C_8  and  C_6 
REMARK    3  A    between atoms: C_8  and  N_19 
REMARK    4  A    between atoms: C_8  and  C_9 
REMARK    5  A    between atoms: C_11  and  N_12 
REMARK       I    between atoms: N_19  and  C_20 
REMARK    6  A    between atoms: N_19  and  C_28 
REMARK    7  A    between atoms: C_20  and  C_22 
ROOT
ATOM      1  C   UNL d   1      27.632 -15.255  -1.358  0.00  0.00     0.220 C 
ENDROOT
BRANCH   1   2
ATOM      2  N   UNL d   1      26.213 -15.481  -1.901  0.00  0.00    -0.299 N 
ATOM      3  C   UNL d   1      25.487 -14.600  -2.762  0.00  0.00     0.229 C 
ATOM      4  O   UNL d   1      24.270 -14.728  -2.957  0.00  0.00    -0.273 OA
BRANCH   3   5
ATOM      5  C   UNL d   1      26.125 -13.419  -3.525  0.00  0.00     0.078 C 
ATOM      6  C   UNL d   1      26.265 -13.651  -5.028  0.00  0.00     0.014 C 
ATOM      7  C   UNL d   1      26.942 -12.469  -5.734  0.00  0.00     0.001 C 
ATOM      8  C   UNL d   1      26.269 -11.145  -5.397  0.00  0.00     0.000 C 
ATOM      9  C   UNL d   1      26.197 -10.907  -3.898  0.00  0.00     0.001 C 
ATOM     10  C   UNL d   1      25.526 -12.061  -3.146  0.00  0.00     0.014 C 
ENDBRANCH   3   5
BRANCH   2  11
ATOM     11  C   UNL d   1      25.459 -16.680  -1.365  0.00  0.00     0.040 C 
ATOM     12  C   UNL d   1      26.060 -17.782  -0.738  0.00  0.00     0.030 C 
ATOM     13  C   UNL d   1      25.392 -18.557   0.225  0.00  0.00     0.004 C 
ATOM     14  C   UNL d   1      24.023 -18.561   0.253  0.00  0.00     0.024 C 
ATOM     15  C   UNL d   1      23.368 -17.748  -0.654  0.00  0.00     0.036 C 
ATOM     16 CL   UNL d   1      21.684 -17.990  -0.895  0.00  0.00    -0.084 Cl
ATOM     17  C   UNL d   1      24.065 -16.771  -1.396  0.00  0.00     0.053 C 
ENDBRANCH   2  11
ENDBRANCH   1   2
BRANCH   1  18
ATOM     18  C   UNL d   1      28.827 -15.611  -2.267  0.00  0.00    -0.002 A 
ATOM     19  C   UNL d   1      28.661 -15.431  -3.685  0.00  0.00     0.047 A 
ATOM     20  C   UNL d   1      29.600 -15.906  -4.604  0.00  0.00     0.103 A 
ATOM     21  C   UNL d   1      30.717 -16.601  -4.134  0.00  0.00     0.038 A 
ATOM     22  C   UNL d   1      30.912 -16.762  -2.746  0.00  0.00     0.027 A 
ATOM     23  C   UNL d   1      29.989 -16.259  -1.813  0.00  0.00     0.043 A 
ATOM     24 CL   UNL d   1      30.202 -16.691  -0.155  0.00  0.00    -0.084 Cl
BRANCH  20  25
ATOM     25  N   UNL d   1      29.284 -15.889  -6.048  0.00  0.00    -0.116 N 
ATOM     26  O   UNL d   1      28.170 -15.435  -6.385  0.00  0.00    -0.532 OA
ATOM     27  O   UNL d   1      30.100 -16.384  -6.824  0.00  0.00    -0.532 OA
ENDBRANCH  20  25
ENDBRANCH   1  18
BRANCH   1  28
ATOM     28  C   UNL d   1      28.023 -13.861  -0.753  0.00  0.00     0.246 C 
ATOM     29  N   UNL d   1      28.771 -13.004  -1.509  0.00  0.00    -0.351 N 
ATOM     30  H   UNL d   1      29.414 -13.428  -2.174  0.00  0.00     0.163 HD
ATOM     31  O   UNL d   1      27.594 -13.533   0.362  0.00  0.00    -0.271 OA
BRANCH  29  32
ATOM     32  C   UNL d   1      29.011 -11.606  -1.167  0.00  0.00     0.022 C 
ATOM     33  C   UNL d   1      29.556 -10.819  -2.376  0.00  0.00     0.037 C 
ATOM     34  C   UNL d   1      30.071 -11.671  -0.087  0.00  0.00     0.037 C 
ATOM     35  C   UNL d   1      27.722 -10.869  -0.746  0.00  0.00     0.037 C 
ENDBRANCH  29  32
ENDBRANCH   1  28
TORSDOF 7
ENDMDL
MODEL 6
REMARK VINA RESULT:    -7.751      2.450      5.687
REMARK INTER + INTRA:         -13.503
REMARK INTER:                  -9.839
REMARK INTRA:                  -3.664
REMARK CONF_INDEPENDENT:        2.088
REMARK UNBOUND:                -3.664
REMARK  7 active torsions:
REMARK  status: ('A' for Active; 'I' for Inactive)
REMARK    1  A    between atoms: C_2  and  N_5 
REMARK       I    between atoms: N_5  and  C_6 
REMARK    2  A    between atoms: C_8  and  C_6 
REMARK    3  A    between atoms: C_8  and  N_19 
REMARK    4  A    between atoms: C_8  and  C_9 
REMARK    5  A    between atoms: C_11  and  N_12 
REMARK       I    between atoms: N_19  and  C_20 
REMARK    6  A    between atoms: N_19  and  C_28 
REMARK    7  A    between atoms: C_20  and  C_22 
ROOT
ATOM      1  C   UNL d   1      27.159 -14.946  -0.391  0.00  0.00     0.220 C 
ENDROOT
BRANCH   1   2
ATOM      2  N   UNL d   1      28.637 -15.043   0.015  0.00  0.00    -0.299 N 
ATOM      3  C   UNL d   1      29.682 -15.663  -0.738  0.00  0.00     0.229 C 
ATOM      4  O   UNL d   1      30.788 -15.917  -0.241  0.00  0.00    -0.273 OA
BRANCH   3   5
ATOM      5  C   UNL d   1      29.549 -16.076  -2.220  0.00  0.00     0.078 C 
ATOM      6  C   UNL d   1      29.893 -14.965  -3.210  0.00  0.00     0.014 C 
ATOM      7  C   UNL d   1      29.705 -15.411  -4.667  0.00  0.00     0.001 C 
ATOM      8  C   UNL d   1      30.435 -16.716  -4.959  0.00  0.00     0.000 C 
ATOM      9  C   UNL d   1      30.030 -17.824  -4.001  0.00  0.00     0.001 C 
ATOM     10  C   UNL d   1      30.201 -17.427  -2.531  0.00  0.00     0.014 C 
ENDBRANCH   3   5
BRANCH   2  11
ATOM     11  C   UNL d   1      28.997 -14.559   1.404  0.00  0.00     0.040 C 
ATOM     12  C   UNL d   1      30.183 -13.883   1.728  0.00  0.00     0.030 C 
ATOM     13  C   UNL d   1      30.261 -12.969   2.792  0.00  0.00     0.004 C 
ATOM     14  C   UNL d   1      29.351 -13.045   3.812  0.00  0.00     0.024 C 
ATOM     15  C   UNL d   1      28.359 -14.003   3.707  0.00  0.00     0.036 C 
ATOM     16 CL   UNL d   1      27.431 -14.369   5.105  0.00  0.00    -0.084 Cl
ATOM     17  C   UNL d   1      28.137 -14.695   2.498  0.00  0.00     0.053 C 
ENDBRANCH   2  11
ENDBRANCH   1   2
BRANCH   1  18
ATOM     18  C   UNL d   1      26.806 -14.197  -1.693  0.00  0.00    -0.002 A 
ATOM     19  C   UNL d   1      26.537 -14.990  -2.864  0.00  0.00     0.047 A 
ATOM     20  C   UNL d   1      26.405 -14.414  -4.130  0.00  0.00     0.103 A 
ATOM     21  C   UNL d   1      26.567 -13.032  -4.266  0.00  0.00     0.038 A 
ATOM     22  C   UNL d   1      26.802 -12.236  -3.126  0.00  0.00     0.027 A 
ATOM     23  C   UNL d   1      26.904 -12.803  -1.844  0.00  0.00     0.043 A 
ATOM     24 CL   UNL d   1      27.405 -11.779  -0.547  0.00  0.00    -0.084 Cl
BRANCH  20  25
ATOM     25  N   UNL d   1      26.345 -15.280  -5.326  0.00  0.00    -0.116 N 
ATOM     26  O   UNL d   1      25.401 -16.096  -5.395  0.00  0.00    -0.532 OA
ATOM     27  O   UNL d   1      27.259 -15.200  -6.145  0.00  0.00    -0.532 OA
ENDBRANCH  20  25
ENDBRANCH   1  18
BRANCH   1  28
ATOM     28  C   UNL d   1      26.282 -16.246  -0.457  0.00  0.00     0.246 C 
ATOM     29  N   UNL d   1      24.927 -16.133  -0.325  0.00  0.00    -0.351 N 
ATOM     30  H   UNL d   1      24.590 -15.363   0.249  0.00  0.00     0.163 HD
ATOM     31  O   UNL d   1      26.819 -17.337  -0.693  0.00  0.00    -0.271 OA
BRANCH  29  32
ATOM     32  C   UNL d   1      23.984 -17.214  -0.590  0.00  0.00     0.022 C 
ATOM     33  C   UNL d   1      22.527 -16.715  -0.520  0.00  0.00     0.037 C 
ATOM     34  C   UNL d   1      24.236 -18.200   0.531  0.00  0.00     0.037 C 
ATOM     35  C   UNL d   1      24.146 -17.808  -2.006  0.00  0.00     0.037 C 
ENDBRANCH  29  32
ENDBRANCH   1  28
TORSDOF 7
ENDMDL
MODEL 7
REMARK VINA RESULT:    -7.686      2.246      3.086
REMARK INTER + INTRA:         -13.240
REMARK INTER:                  -9.774
REMARK INTRA:                  -3.466
REMARK CONF_INDEPENDENT:        2.088
REMARK UNBOUND:                -3.466
REMARK  7 active torsions:
REMARK  status: ('A' for Active; 'I' for Inactive)
REMARK    1  A    between atoms: C_2  and  N_5 
REMARK       I    between atoms: N_5  and  C_6 
REMARK    2  A    between atoms: C_8  and  C_6 
REMARK    3  A    between atoms: C_8  and  N_19 
REMARK    4  A    between atoms: C_8  and  C_9 
REMARK    5  A    between atoms: C_11  and  N_12 
REMARK       I    between atoms: N_19  and  C_20 
REMARK    6  A    between atoms: N_19  and  C_28 
REMARK    7  A    between atoms: C_20  and  C_22 
ROOT
ATOM      1  C   UNL d   1      27.428 -14.716  -0.888  0.00  0.00     0.220 C 
ENDROOT
BRANCH   1   2
ATOM      2  N   UNL d   1      26.189 -15.190  -1.662  0.00  0.00    -0.299 N 
ATOM      3  C   UNL d   1      25.567 -14.515  -2.758  0.00  0.00     0.229 C 
ATOM      4  O   UNL d   1      24.440 -14.828  -3.168  0.00  0.00    -0.273 OA
BRANCH   3   5
ATOM      5  C   UNL d   1      26.216 -13.348  -3.534  0.00  0.00     0.078 C 
ATOM      6  C   UNL d   1      26.492 -13.654  -5.004  0.00  0.00     0.014 C 
ATOM      7  C   UNL d   1      27.175 -12.480  -5.720  0.00  0.00     0.001 C 
ATOM      8  C   UNL d   1      26.419 -11.174  -5.515  0.00  0.00     0.000 C 
ATOM      9  C   UNL d   1      26.212 -10.858  -4.043  0.00  0.00     0.001 C 
ATOM     10  C   UNL d   1      25.530 -12.001  -3.284  0.00  0.00     0.014 C 
ENDBRANCH   3   5
BRANCH   2  11
ATOM     11  C   UNL d   1      25.477 -16.415  -1.128  0.00  0.00     0.040 C 
ATOM     12  C   UNL d   1      26.098 -17.442  -0.401  0.00  0.00     0.030 C 
ATOM     13  C   UNL d   1      25.407 -18.219   0.544  0.00  0.00     0.004 C 
ATOM     14  C   UNL d   1      24.044 -18.321   0.463  0.00  0.00     0.024 C 
ATOM     15  C   UNL d   1      23.412 -17.599  -0.533  0.00  0.00     0.036 C 
ATOM     16 CL   UNL d   1      21.775 -17.974  -0.895  0.00  0.00    -0.084 Cl
ATOM     17  C   UNL d   1      24.100 -16.609  -1.266  0.00  0.00     0.053 C 
ENDBRANCH   2  11
ENDBRANCH   1   2
BRANCH   1  18
ATOM     18  C   UNL d   1      28.434 -13.796  -1.612  0.00  0.00    -0.002 A 
ATOM     19  C   UNL d   1      28.424 -12.398  -1.267  0.00  0.00     0.047 A 
ATOM     20  C   UNL d   1      29.147 -11.454  -1.998  0.00  0.00     0.103 A 
ATOM     21  C   UNL d   1      29.879 -11.873  -3.113  0.00  0.00     0.038 A 
ATOM     22  C   UNL d   1      29.923 -13.242  -3.448  0.00  0.00     0.027 A 
ATOM     23  C   UNL d   1      29.225 -14.205  -2.699  0.00  0.00     0.043 A 
ATOM     24 CL   UNL d   1      29.167 -15.818  -3.313  0.00  0.00    -0.084 Cl
BRANCH  20  25
ATOM     25  N   UNL d   1      28.937 -10.013  -1.742  0.00  0.00    -0.116 N 
ATOM     26  O   UNL d   1      27.898  -9.685  -1.130  0.00  0.00    -0.532 OA
ATOM     27  O   UNL d   1      29.755  -9.218  -2.203  0.00  0.00    -0.532 OA
ENDBRANCH  20  25
ENDBRANCH   1  18
BRANCH   1  28
ATOM     28  C   UNL d   1      27.258 -14.050   0.522  0.00  0.00     0.246 C 
ATOM     29  N   UNL d   1      28.215 -14.269   1.472  0.00  0.00    -0.351 N 
ATOM     30  H   UNL d   1      28.705 -15.160   1.425  0.00  0.00     0.163 HD
ATOM     31  O   UNL d   1      26.304 -13.288   0.731  0.00  0.00    -0.271 OA
BRANCH  29  32
ATOM     32  C   UNL d   1      28.301 -13.541   2.733  0.00  0.00     0.022 C 
ATOM     33  C   UNL d   1      28.446 -12.025   2.495  0.00  0.00     0.037 C 
ATOM     34  C   UNL d   1      29.563 -14.074   3.378  0.00  0.00     0.037 C 
ATOM     35  C   UNL d   1      27.031 -13.700   3.597  0.00  0.00     0.037 C 
ENDBRANCH  29  32
ENDBRANCH   1  28
TORSDOF 7
ENDMDL
MODEL 8
REMARK VINA RESULT:    -7.608      3.494      6.921
REMARK INTER + INTRA:         -12.889
REMARK INTER:                  -9.696
REMARK INTRA:                  -3.193
REMARK CONF_INDEPENDENT:        2.088
REMARK UNBOUND:                -3.193
REMARK  7 active torsions:
REMARK  status: ('A' for Active; 'I' for Inactive)
REMARK    1  A    between atoms: C_2  and  N_5 
REMARK       I    between atoms: N_5  and  C_6 
REMARK    2  A    between atoms: C_8  and  C_6 
REMARK    3  A    between atoms: C_8  and  N_19 
REMARK    4  A    between atoms: C_8  and  C_9 
REMARK    5  A    between atoms: C_11  and  N_12 
REMARK       I    between atoms: N_19  and  C_20 
REMARK    6  A    between atoms: N_19  and  C_28 
REMARK    7  A    between atoms: C_20  and  C_22 
ROOT
ATOM      1  C   UNL d   1      27.614 -12.323  -1.085  0.00  0.00     0.220 C 
ENDROOT
BRANCH   1   2
ATOM      2  N   UNL d   1      26.655 -12.701  -2.224  0.00  0.00    -0.299 N 
ATOM      3  C   UNL d   1      26.005 -13.961  -2.400  0.00  0.00     0.229 C 
ATOM      4  O   UNL d   1      25.448 -14.271  -3.462  0.00  0.00    -0.273 OA
BRANCH   3   5
ATOM      5  C   UNL d   1      25.927 -15.052  -1.309  0.00  0.00     0.078 C 
ATOM      6  C   UNL d   1      24.696 -15.950  -1.412  0.00  0.00     0.014 C 
ATOM      7  C   UNL d   1      24.641 -16.988  -0.283  0.00  0.00     0.001 C 
ATOM      8  C   UNL d   1      25.943 -17.772  -0.170  0.00  0.00     0.000 C 
ATOM      9  C   UNL d   1      27.147 -16.860  -0.005  0.00  0.00     0.001 C 
ATOM     10  C   UNL d   1      27.246 -15.805  -1.112  0.00  0.00     0.014 C 
ENDBRANCH   3   5
BRANCH   2  11
ATOM     11  C   UNL d   1      26.492 -11.692  -3.342  0.00  0.00     0.040 C 
ATOM     12  C   UNL d   1      26.786 -11.944  -4.690  0.00  0.00     0.030 C 
ATOM     13  C   UNL d   1      26.128 -11.283  -5.741  0.00  0.00     0.004 C 
ATOM     14  C   UNL d   1      25.530 -10.074  -5.504  0.00  0.00     0.024 C 
ATOM     15  C   UNL d   1      25.566  -9.592  -4.208  0.00  0.00     0.036 C 
ATOM     16 CL   UNL d   1      25.155  -7.945  -3.942  0.00  0.00    -0.084 Cl
ATOM     17  C   UNL d   1      25.970 -10.412  -3.133  0.00  0.00     0.053 C 
ENDBRANCH   2  11
ENDBRANCH   1   2
BRANCH   1  18
ATOM     18  C   UNL d   1      27.843 -10.826  -0.789  0.00  0.00    -0.002 A 
ATOM     19  C   UNL d   1      27.030 -10.217   0.231  0.00  0.00     0.047 A 
ATOM     20  C   UNL d   1      27.017  -8.836   0.437  0.00  0.00     0.103 A 
ATOM     21  C   UNL d   1      27.795  -8.020  -0.390  0.00  0.00     0.038 A 
ATOM     22  C   UNL d   1      28.619  -8.601  -1.375  0.00  0.00     0.027 A 
ATOM     23  C   UNL d   1      28.664  -9.992  -1.568  0.00  0.00     0.043 A 
ATOM     24 CL   UNL d   1      29.535 -10.590  -2.934  0.00  0.00    -0.084 Cl
BRANCH  20  25
ATOM     25  N   UNL d   1      26.013  -8.240   1.343  0.00  0.00    -0.116 N 
ATOM     26  O   UNL d   1      26.284  -8.217   2.562  0.00  0.00    -0.532 OA
ATOM     27  O   UNL d   1      24.945  -7.868   0.859  0.00  0.00    -0.532 OA
ENDBRANCH  20  25
ENDBRANCH   1  18
BRANCH   1  28
ATOM     28  C   UNL d   1      27.425 -12.962   0.336  0.00  0.00     0.246 C 
ATOM     29  N   UNL d   1      28.515 -13.091   1.149  0.00  0.00    -0.351 N 
ATOM     30  H   UNL d   1      29.412 -13.222   0.687  0.00  0.00     0.163 HD
ATOM     31  O   UNL d   1      26.290 -13.273   0.723  0.00  0.00    -0.271 OA
BRANCH  29  32
ATOM     32  C   UNL d   1      28.447 -13.452   2.561  0.00  0.00     0.022 C 
ATOM     33  C   UNL d   1      27.592 -12.445   3.356  0.00  0.00     0.037 C 
ATOM     34  C   UNL d   1      29.885 -13.373   3.027  0.00  0.00     0.037 C 
ATOM     35  C   UNL d   1      27.780 -14.825   2.790  0.00  0.00     0.037 C 
ENDBRANCH  29  32
ENDBRANCH   1  28
TORSDOF 7
ENDMDL
MODEL 9
REMARK VINA RESULT:    -7.600      3.009      6.843
REMARK INTER + INTRA:         -12.870
REMARK INTER:                  -9.688
REMARK INTRA:                  -3.182
REMARK CONF_INDEPENDENT:        2.088
REMARK UNBOUND:                -3.182
REMARK  7 active torsions:
REMARK  status: ('A' for Active; 'I' for Inactive)
REMARK    1  A    between atoms: C_2  and  N_5 
REMARK       I    between atoms: N_5  and  C_6 
REMARK    2  A    between atoms: C_8  and  C_6 
REMARK    3  A    between atoms: C_8  and  N_19 
REMARK    4  A    between atoms: C_8  and  C_9 
REMARK    5  A    between atoms: C_11  and  N_12 
REMARK       I    between atoms: N_19  and  C_20 
REMARK    6  A    between atoms: N_19  and  C_28 
REMARK    7  A    between atoms: C_20  and  C_22 
ROOT
ATOM      1  C   UNL d   1      26.694 -12.763   0.199  0.00  0.00     0.220 C 
ENDROOT
BRANCH   1   2
ATOM      2  N   UNL d   1      27.057 -14.049   0.955  0.00  0.00    -0.299 N 
ATOM      3  C   UNL d   1      27.764 -14.131   2.194  0.00  0.00     0.229 C 
ATOM      4  O   UNL d   1      28.232 -15.199   2.614  0.00  0.00    -0.273 OA
BRANCH   3   5
ATOM      5  C   UNL d   1      28.018 -12.926   3.125  0.00  0.00     0.078 C 
ATOM      6  C   UNL d   1      27.547 -13.138   4.562  0.00  0.00     0.014 C 
ATOM      7  C   UNL d   1      27.781 -11.899   5.436  0.00  0.00     0.001 C 
ATOM      8  C   UNL d   1      29.219 -11.405   5.347  0.00  0.00     0.000 C 
ATOM      9  C   UNL d   1      29.645 -11.140   3.913  0.00  0.00     0.001 C 
ATOM     10  C   UNL d   1      29.432 -12.351   2.999  0.00  0.00     0.014 C 
ENDBRANCH   3   5
BRANCH   2  11
ATOM     11  C   UNL d   1      26.762 -15.359   0.254  0.00  0.00     0.040 C 
ATOM     12  C   UNL d   1      27.718 -16.350  -0.015  0.00  0.00     0.030 C 
ATOM     13  C   UNL d   1      27.385 -17.711  -0.111  0.00  0.00     0.004 C 
ATOM     14  C   UNL d   1      26.095 -18.069  -0.402  0.00  0.00     0.024 C 
ATOM     15  C   UNL d   1      25.170 -17.050  -0.536  0.00  0.00     0.036 C 
ATOM     16 CL   UNL d   1      23.650 -17.422  -1.245  0.00  0.00    -0.084 Cl
ATOM     17  C   UNL d   1      25.474 -15.729  -0.144  0.00  0.00     0.053 C 
ENDBRANCH   2  11
ENDBRANCH   1   2
BRANCH   1  18
ATOM     18  C   UNL d   1      27.411 -11.455   0.597  0.00  0.00    -0.002 A 
ATOM     19  C   UNL d   1      26.656 -10.482   1.341  0.00  0.00     0.047 A 
ATOM     20  C   UNL d   1      27.142  -9.194   1.576  0.00  0.00     0.103 A 
ATOM     21  C   UNL d   1      28.385  -8.832   1.049  0.00  0.00     0.038 A 
ATOM     22  C   UNL d   1      29.152  -9.781   0.342  0.00  0.00     0.027 A 
ATOM     23  C   UNL d   1      28.685 -11.089   0.129  0.00  0.00     0.043 A 
ATOM     24 CL   UNL d   1      29.596 -12.109  -0.927  0.00  0.00    -0.084 Cl
BRANCH  20  25
ATOM     25  N   UNL d   1      26.248  -8.167   2.153  0.00  0.00    -0.116 N 
ATOM     26  O   UNL d   1      26.627  -7.602   3.200  0.00  0.00    -0.532 OA
ATOM     27  O   UNL d   1      25.159  -7.980   1.614  0.00  0.00    -0.532 OA
ENDBRANCH  20  25
ENDBRANCH   1  18
BRANCH   1  28
ATOM     28  C   UNL d   1      26.723 -12.744  -1.370  0.00  0.00     0.246 C 
ATOM     29  N   UNL d   1      27.122 -13.870  -2.032  0.00  0.00    -0.351 N 
ATOM     30  H   UNL d   1      27.795 -14.464  -1.553  0.00  0.00     0.163 HD
ATOM     31  O   UNL d   1      26.324 -11.743  -1.979  0.00  0.00    -0.271 OA
BRANCH  29  32
ATOM     32  C   UNL d   1      26.982 -14.067  -3.471  0.00  0.00     0.022 C 
ATOM     33  C   UNL d   1      25.513 -14.322  -3.862  0.00  0.00     0.037 C 
ATOM     34  C   UNL d   1      27.802 -15.308  -3.751  0.00  0.00     0.037 C 
ATOM     35  C   UNL d   1      27.412 -12.827  -4.283  0.00  0.00     0.037 C 
ENDBRANCH  29  32
ENDBRANCH   1  28
TORSDOF 7
ENDMDL
