MODEL 1
REMARK VINA RESULT:   -29.523      0.000      0.000
REMARK INTER + INTRA:         -34.008
REMARK INTER:                 -31.910
REMARK INTRA:                  -2.098
REMARK CONF_INDEPENDENT:        2.386
REMARK UNBOUND:                -2.098
REMARK  8 active torsions:
REMARK  status: ('A' for Active; 'I' for Inactive)
REMARK    1  A    between atoms: N_2  and  C_27 
REMARK    2  A    between atoms: N_2  and  C_3 
REMARK    3  A    between atoms: C_3  and  C_4 
REMARK    4  A    between atoms: C_5  and  C_6 
REMARK       I    between atoms: C_6  and  N_8 
REMARK    5  A    between atoms: N_8  and  N_9 
REMARK    6  A    between atoms: C_10  and  C_11 
REMARK    7  A    between atoms: N_20  and  C_21 
REMARK    8  A    between atoms: C_25  and  N_26 
ROOT
ATOM      1  C   UNL d   1      24.475 -17.174  -0.710  0.00  0.00     0.096 C 
ATOM      2  C   UNL d   1      25.688 -17.676  -0.073  0.00  0.00     0.170 C 
ATOM      3  N   UNL d   1      25.229 -18.530   0.925  0.00  0.00    -0.152 NA
ATOM      4  N   UNL d   1      23.901 -18.572   0.945  0.00  0.00     0.012 NA
ATOM      5  N   UNL d   1      23.396 -17.877  -0.089  0.00  0.00    -0.215 N 
ENDROOT
BRANCH   2   6
ATOM      6  C   UNL d   1      27.348 -17.396  -0.069  0.00  0.00     0.293 C 
ATOM      7  O   UNL d   1      27.753 -16.252  -0.059  0.00  0.00    -0.264 OA
ATOM      8  N   UNL d   1      28.320 -18.499  -0.146  0.00  0.00    -0.242 N 
ATOM      9  H   UNL d   1      28.057 -19.407   0.157  0.00  0.00     0.192 HD
BRANCH   8  10
ATOM     10  N   UNL d   1      29.647 -18.477  -0.624  0.00  0.00    -0.183 NA
ATOM     11  C   UNL d   1      30.080 -17.427  -1.296  0.00  0.00     0.150 C 
BRANCH  11  12
ATOM     12  C   UNL d   1      31.236 -17.469  -2.224  0.00  0.00    -0.014 A 
ATOM     13  C   UNL d   1      32.453 -17.125  -1.644  0.00  0.00     0.013 A 
ATOM     14  C   UNL d   1      33.613 -17.112  -2.403  0.00  0.00     0.004 A 
ATOM     15  C   UNL d   1      33.565 -17.471  -3.748  0.00  0.00     0.042 A 
ATOM     16  C   UNL d   1      32.363 -17.895  -4.307  0.00  0.00     0.117 A 
ATOM     17  F   UNL d   1      32.335 -18.251  -5.599  0.00  0.00    -0.206 F 
ATOM     18  C   UNL d   1      31.187 -17.933  -3.550  0.00  0.00     0.055 A 
ENDBRANCH  11  12
ENDBRANCH   8  10
ENDBRANCH   2   6
BRANCH   1  19
ATOM     19  C   UNL d   1      24.037 -16.070  -1.682  0.00  0.00     0.296 C 
BRANCH  19  20
ATOM     20  N   UNL d   1      25.060 -15.013  -2.019  0.00  0.00    -0.065 N 
ATOM     21  C   UNL d   1      25.620 -14.620  -0.722  0.00  0.00     0.270 C 
ATOM     22  H   UNL d   1      24.576 -14.155  -2.322  0.00  0.00     0.280 HD
BRANCH  20  23
ATOM     23  C   UNL d   1      25.946 -15.477  -3.225  0.00  0.00     0.188 C 
ATOM     24  C   UNL d   1      25.676 -14.724  -4.530  0.00  0.00     0.033 C 
ATOM     25  C   UNL d   1      26.573 -15.173  -5.685  0.00  0.00     0.002 C 
ATOM     26  C   UNL d   1      28.054 -15.109  -5.307  0.00  0.00     0.000 C 
ATOM     27  C   UNL d   1      28.319 -15.935  -4.061  0.00  0.00     0.002 C 
ATOM     28  C   UNL d   1      27.463 -15.460  -2.907  0.00  0.00     0.033 C 
ENDBRANCH  20  23
ENDBRANCH  19  20
ENDBRANCH   1  19
BRANCH   5  29
ATOM     29  C   UNL d   1      21.999 -17.903  -0.466  0.00  0.00     0.219 A 
ATOM     30  N   UNL d   1      21.408 -16.827  -0.994  0.00  0.00    -0.082 NA
ATOM     31  O   UNL d   1      20.095 -17.248  -1.270  0.00  0.00    -0.103 OA
ATOM     32  N   UNL d   1      19.905 -18.575  -0.895  0.00  0.00    -0.089 NA
ATOM     33  C   UNL d   1      21.074 -18.971  -0.401  0.00  0.00     0.180 A 
BRANCH  33  34
ATOM     34  N   UNL d   1      21.297 -20.212   0.091  0.00  0.00    -0.282 NA
ATOM     35  H   UNL d   1      20.505 -20.627   0.589  0.00  0.00     0.126 HD
ATOM     36  H   UNL d   1      22.157 -20.400   0.591  0.00  0.00     0.126 HD
ENDBRANCH  33  34
ENDBRANCH   5  29
TORSDOF 8
ENDMDL
MODEL 2
REMARK VINA RESULT:   -29.364      2.554      3.050
REMARK INTER + INTRA:         -33.816
REMARK INTER:                 -31.750
REMARK INTRA:                  -2.066
REMARK CONF_INDEPENDENT:        2.386
REMARK UNBOUND:                -2.066
REMARK  8 active torsions:
REMARK  status: ('A' for Active; 'I' for Inactive)
REMARK    1  A    between atoms: N_2  and  C_27 
REMARK    2  A    between atoms: N_2  and  C_3 
REMARK    3  A    between atoms: C_3  and  C_4 
REMARK    4  A    between atoms: C_5  and  C_6 
REMARK       I    between atoms: C_6  and  N_8 
REMARK    5  A    between atoms: N_8  and  N_9 
REMARK    6  A    between atoms: C_10  and  C_11 
REMARK    7  A    between atoms: N_20  and  C_21 
REMARK    8  A    between atoms: C_25  and  N_26 
ROOT
ATOM      1  C   UNL d   1      24.393 -16.882  -0.832  0.00  0.00     0.096 C 
ATOM      2  C   UNL d   1      25.677 -17.384  -0.356  0.00  0.00     0.170 C 
ATOM      3  N   UNL d   1      25.345 -18.422   0.509  0.00  0.00    -0.152 NA
ATOM      4  N   UNL d   1      24.028 -18.572   0.595  0.00  0.00     0.012 NA
ATOM      5  N   UNL d   1      23.409 -17.759  -0.279  0.00  0.00    -0.215 N 
ENDROOT
BRANCH   2   6
ATOM      6  C   UNL d   1      27.311 -16.979  -0.395  0.00  0.00     0.293 C 
ATOM      7  O   UNL d   1      28.105 -17.775  -0.855  0.00  0.00    -0.264 OA
ATOM      8  N   UNL d   1      27.810 -15.716   0.174  0.00  0.00    -0.242 N 
ATOM      9  H   UNL d   1      27.198 -14.940   0.259  0.00  0.00     0.192 HD
BRANCH   8  10
ATOM     10  N   UNL d   1      29.099 -15.416   0.664  0.00  0.00    -0.183 NA
ATOM     11  C   UNL d   1      30.148 -16.038   0.163  0.00  0.00     0.150 C 
BRANCH  11  12
ATOM     12  C   UNL d   1      31.441 -16.168   0.877  0.00  0.00    -0.014 A 
ATOM     13  C   UNL d   1      31.957 -14.969   1.356  0.00  0.00     0.013 A 
ATOM     14  C   UNL d   1      33.167 -14.946   2.034  0.00  0.00     0.004 A 
ATOM     15  C   UNL d   1      33.857 -16.134   2.259  0.00  0.00     0.042 A 
ATOM     16  C   UNL d   1      33.300 -17.343   1.852  0.00  0.00     0.117 A 
ATOM     17  F   UNL d   1      33.969 -18.481   2.089  0.00  0.00    -0.206 F 
ATOM     18  C   UNL d   1      32.072 -17.386   1.185  0.00  0.00     0.055 A 
ENDBRANCH  11  12
ENDBRANCH   8  10
ENDBRANCH   2   6
BRANCH   1  19
ATOM     19  C   UNL d   1      23.816 -15.672  -1.580  0.00  0.00     0.296 C 
BRANCH  19  20
ATOM     20  N   UNL d   1      24.620 -15.143  -2.742  0.00  0.00    -0.065 N 
ATOM     21  C   UNL d   1      23.786 -14.078  -3.308  0.00  0.00     0.270 C 
ATOM     22  H   UNL d   1      24.628 -15.844  -3.498  0.00  0.00     0.280 HD
BRANCH  20  23
ATOM     23  C   UNL d   1      26.112 -14.923  -2.319  0.00  0.00     0.188 C 
ATOM     24  C   UNL d   1      27.135 -15.500  -3.300  0.00  0.00     0.033 C 
ATOM     25  C   UNL d   1      28.585 -15.248  -2.882  0.00  0.00     0.002 C 
ATOM     26  C   UNL d   1      28.846 -13.763  -2.619  0.00  0.00     0.000 C 
ATOM     27  C   UNL d   1      27.880 -13.231  -1.577  0.00  0.00     0.002 C 
ATOM     28  C   UNL d   1      26.446 -13.441  -2.014  0.00  0.00     0.033 C 
ENDBRANCH  20  23
ENDBRANCH  19  20
ENDBRANCH   1  19
BRANCH   5  29
ATOM     29  C   UNL d   1      21.994 -17.833  -0.579  0.00  0.00     0.219 A 
ATOM     30  N   UNL d   1      21.337 -16.775  -1.064  0.00  0.00    -0.082 NA
ATOM     31  O   UNL d   1      20.027 -17.241  -1.271  0.00  0.00    -0.103 OA
ATOM     32  N   UNL d   1      19.905 -18.576  -0.895  0.00  0.00    -0.089 NA
ATOM     33  C   UNL d   1      21.113 -18.933  -0.470  0.00  0.00     0.180 A 
BRANCH  33  34
ATOM     34  N   UNL d   1      21.406 -20.168  -0.000  0.00  0.00    -0.282 NA
ATOM     35  H   UNL d   1      20.724 -20.552   0.659  0.00  0.00     0.126 HD
ATOM     36  H   UNL d   1      22.346 -20.366   0.320  0.00  0.00     0.126 HD
ENDBRANCH  33  34
ENDBRANCH   5  29
TORSDOF 8
ENDMDL
MODEL 3
REMARK VINA RESULT:   -29.264      1.829      2.502
REMARK INTER + INTRA:         -33.913
REMARK INTER:                 -31.651
REMARK INTRA:                  -2.262
REMARK CONF_INDEPENDENT:        2.386
REMARK UNBOUND:                -2.262
REMARK  8 active torsions:
REMARK  status: ('A' for Active; 'I' for Inactive)
REMARK    1  A    between atoms: N_2  and  C_27 
REMARK    2  A    between atoms: N_2  and  C_3 
REMARK    3  A    between atoms: C_3  and  C_4 
REMARK    4  A    between atoms: C_5  and  C_6 
REMARK       I    between atoms: C_6  and  N_8 
REMARK    5  A    between atoms: N_8  and  N_9 
REMARK    6  A    between atoms: C_10  and  C_11 
REMARK    7  A    between atoms: N_20  and  C_21 
REMARK    8  A    between atoms: C_25  and  N_26 
ROOT
ATOM      1  C   UNL d   1      24.403 -17.003  -0.557  0.00  0.00     0.096 C 
ATOM      2  C   UNL d   1      25.631 -17.489   0.061  0.00  0.00     0.170 C 
ATOM      3  N   UNL d   1      25.205 -18.446   0.977  0.00  0.00    -0.152 NA
ATOM      4  N   UNL d   1      23.882 -18.562   0.967  0.00  0.00     0.012 NA
ATOM      5  N   UNL d   1      23.355 -17.812  -0.017  0.00  0.00    -0.215 N 
ENDROOT
BRANCH   2   6
ATOM      6  C   UNL d   1      27.273 -17.120   0.123  0.00  0.00     0.293 C 
ATOM      7  O   UNL d   1      27.620 -16.050   0.579  0.00  0.00    -0.264 OA
ATOM      8  N   UNL d   1      28.292 -18.030  -0.426  0.00  0.00    -0.242 N 
ATOM      9  H   UNL d   1      28.093 -18.999  -0.506  0.00  0.00     0.192 HD
BRANCH   8  10
ATOM     10  N   UNL d   1      29.586 -17.726  -0.899  0.00  0.00    -0.183 NA
ATOM     11  C   UNL d   1      30.407 -17.022  -0.144  0.00  0.00     0.150 C 
BRANCH  11  12
ATOM     12  C   UNL d   1      31.559 -16.257  -0.681  0.00  0.00    -0.014 A 
ATOM     13  C   UNL d   1      31.995 -16.677  -1.934  0.00  0.00     0.013 A 
ATOM     14  C   UNL d   1      33.072 -16.055  -2.547  0.00  0.00     0.004 A 
ATOM     15  C   UNL d   1      33.706 -14.988  -1.916  0.00  0.00     0.042 A 
ATOM     16  C   UNL d   1      33.218 -14.515  -0.701  0.00  0.00     0.117 A 
ATOM     17  F   UNL d   1      33.829 -13.477  -0.113  0.00  0.00    -0.206 F 
ATOM     18  C   UNL d   1      32.120 -15.118  -0.079  0.00  0.00     0.055 A 
ENDBRANCH  11  12
ENDBRANCH   8  10
ENDBRANCH   2   6
BRANCH   1  19
ATOM     19  C   UNL d   1      23.918 -15.847  -1.444  0.00  0.00     0.296 C 
BRANCH  19  20
ATOM     20  N   UNL d   1      24.892 -15.322  -2.471  0.00  0.00    -0.065 N 
ATOM     21  C   UNL d   1      24.141 -14.288  -3.190  0.00  0.00     0.270 C 
ATOM     22  H   UNL d   1      25.037 -16.038  -3.199  0.00  0.00     0.280 HD
BRANCH  20  23
ATOM     23  C   UNL d   1      26.289 -15.060  -1.814  0.00  0.00     0.188 C 
ATOM     24  C   UNL d   1      27.476 -15.264  -2.758  0.00  0.00     0.033 C 
ATOM     25  C   UNL d   1      28.828 -14.974  -2.105  0.00  0.00     0.002 C 
ATOM     26  C   UNL d   1      28.860 -13.582  -1.469  0.00  0.00     0.000 C 
ATOM     27  C   UNL d   1      27.729 -13.430  -0.468  0.00  0.00     0.002 C 
ATOM     28  C   UNL d   1      26.389 -13.674  -1.128  0.00  0.00     0.033 C 
ENDBRANCH  20  23
ENDBRANCH  19  20
ENDBRANCH   1  19
BRANCH   5  29
ATOM     29  C   UNL d   1      21.967 -17.883  -0.424  0.00  0.00     0.219 A 
ATOM     30  N   UNL d   1      21.354 -16.827  -0.967  0.00  0.00    -0.082 NA
ATOM     31  O   UNL d   1      20.062 -17.290  -1.270  0.00  0.00    -0.103 OA
ATOM     32  N   UNL d   1      19.905 -18.621  -0.895  0.00  0.00    -0.089 NA
ATOM     33  C   UNL d   1      21.075 -18.979  -0.376  0.00  0.00     0.180 A 
BRANCH  33  34
ATOM     34  N   UNL d   1      21.327 -20.211   0.125  0.00  0.00    -0.282 NA
ATOM     35  H   UNL d   1      20.784 -20.458   0.956  0.00  0.00     0.126 HD
ATOM     36  H   UNL d   1      22.286 -20.516   0.234  0.00  0.00     0.126 HD
ENDBRANCH  33  34
ENDBRANCH   5  29
TORSDOF 8
ENDMDL
MODEL 4
REMARK VINA RESULT:   -29.233      2.459      2.742
REMARK INTER + INTRA:         -33.551
REMARK INTER:                 -31.619
REMARK INTRA:                  -1.932
REMARK CONF_INDEPENDENT:        2.386
REMARK UNBOUND:                -1.932
REMARK  8 active torsions:
REMARK  status: ('A' for Active; 'I' for Inactive)
REMARK    1  A    between atoms: N_2  and  C_27 
REMARK    2  A    between atoms: N_2  and  C_3 
REMARK    3  A    between atoms: C_3  and  C_4 
REMARK    4  A    between atoms: C_5  and  C_6 
REMARK       I    between atoms: C_6  and  N_8 
REMARK    5  A    between atoms: N_8  and  N_9 
REMARK    6  A    between atoms: C_10  and  C_11 
REMARK    7  A    between atoms: N_20  and  C_21 
REMARK    8  A    between atoms: C_25  and  N_26 
ROOT
ATOM      1  C   UNL d   1      24.505 -17.299  -1.007  0.00  0.00     0.096 C 
ATOM      2  C   UNL d   1      25.738 -17.797  -0.406  0.00  0.00     0.170 C 
ATOM      3  N   UNL d   1      25.312 -18.571   0.669  0.00  0.00    -0.152 NA
ATOM      4  N   UNL d   1      23.987 -18.571   0.765  0.00  0.00     0.012 NA
ATOM      5  N   UNL d   1      23.444 -17.927  -0.283  0.00  0.00    -0.215 N 
ENDROOT
BRANCH   2   6
ATOM      6  C   UNL d   1      27.403 -17.570  -0.511  0.00  0.00     0.293 C 
ATOM      7  O   UNL d   1      28.094 -17.818   0.455  0.00  0.00    -0.264 OA
ATOM      8  N   UNL d   1      28.034 -17.013  -1.720  0.00  0.00    -0.242 N 
ATOM      9  H   UNL d   1      27.576 -17.098  -2.596  0.00  0.00     0.192 HD
BRANCH   8  10
ATOM     10  N   UNL d   1      29.258 -16.321  -1.839  0.00  0.00    -0.183 NA
ATOM     11  C   UNL d   1      29.308 -15.033  -1.561  0.00  0.00     0.150 C 
BRANCH  11  12
ATOM     12  C   UNL d   1      30.359 -14.125  -2.080  0.00  0.00    -0.014 A 
ATOM     13  C   UNL d   1      30.191 -13.749  -3.409  0.00  0.00     0.013 A 
ATOM     14  C   UNL d   1      31.109 -12.910  -4.023  0.00  0.00     0.004 A 
ATOM     15  C   UNL d   1      32.193 -12.421  -3.298  0.00  0.00     0.042 A 
ATOM     16  C   UNL d   1      32.315 -12.731  -1.946  0.00  0.00     0.117 A 
ATOM     17  F   UNL d   1      33.356 -12.240  -1.258  0.00  0.00    -0.206 F 
ATOM     18  C   UNL d   1      31.387 -13.559  -1.306  0.00  0.00     0.055 A 
ENDBRANCH  11  12
ENDBRANCH   8  10
ENDBRANCH   2   6
BRANCH   1  19
ATOM     19  C   UNL d   1      24.043 -16.245  -2.023  0.00  0.00     0.296 C 
BRANCH  19  20
ATOM     20  N   UNL d   1      24.747 -14.911  -1.989  0.00  0.00    -0.065 N 
ATOM     21  C   UNL d   1      25.629 -14.994  -0.820  0.00  0.00     0.270 C 
ATOM     22  H   UNL d   1      24.076 -14.179  -1.710  0.00  0.00     0.280 HD
BRANCH  20  23
ATOM     23  C   UNL d   1      25.260 -14.528  -3.419  0.00  0.00     0.188 C 
ATOM     24  C   UNL d   1      25.860 -13.123  -3.515  0.00  0.00     0.033 C 
ATOM     25  C   UNL d   1      26.382 -12.782  -4.912  0.00  0.00     0.002 C 
ATOM     26  C   UNL d   1      27.363 -13.839  -5.422  0.00  0.00     0.000 C 
ATOM     27  C   UNL d   1      26.719 -15.214  -5.403  0.00  0.00     0.002 C 
ATOM     28  C   UNL d   1      26.244 -15.568  -4.011  0.00  0.00     0.033 C 
ENDBRANCH  20  23
ENDBRANCH  19  20
ENDBRANCH   1  19
BRANCH   5  29
ATOM     29  C   UNL d   1      22.027 -17.933  -0.581  0.00  0.00     0.219 A 
ATOM     30  N   UNL d   1      21.420 -16.845  -1.065  0.00  0.00    -0.082 NA
ATOM     31  O   UNL d   1      20.090 -17.249  -1.270  0.00  0.00    -0.103 OA
ATOM     32  N   UNL d   1      19.904 -18.576  -0.895  0.00  0.00    -0.089 NA
ATOM     33  C   UNL d   1      21.094 -18.990  -0.471  0.00  0.00     0.180 A 
BRANCH  33  34
ATOM     34  N   UNL d   1      21.330 -20.238  -0.002  0.00  0.00    -0.282 NA
ATOM     35  H   UNL d   1      20.582 -20.628   0.578  0.00  0.00     0.126 HD
ATOM     36  H   UNL d   1      22.231 -20.453   0.405  0.00  0.00     0.126 HD
ENDBRANCH  33  34
ENDBRANCH   5  29
TORSDOF 8
ENDMDL
MODEL 5
REMARK VINA RESULT:   -29.206      3.156      3.734
REMARK INTER + INTRA:         -33.649
REMARK INTER:                 -31.593
REMARK INTRA:                  -2.056
REMARK CONF_INDEPENDENT:        2.386
REMARK UNBOUND:                -2.056
REMARK  8 active torsions:
REMARK  status: ('A' for Active; 'I' for Inactive)
REMARK    1  A    between atoms: N_2  and  C_27 
REMARK    2  A    between atoms: N_2  and  C_3 
REMARK    3  A    between atoms: C_3  and  C_4 
REMARK    4  A    between atoms: C_5  and  C_6 
REMARK       I    between atoms: C_6  and  N_8 
REMARK    5  A    between atoms: N_8  and  N_9 
REMARK    6  A    between atoms: C_10  and  C_11 
REMARK    7  A    between atoms: N_20  and  C_21 
REMARK    8  A    between atoms: C_25  and  N_26 
ROOT
ATOM      1  C   UNL d   1      24.399 -16.904  -0.805  0.00  0.00     0.096 C 
ATOM      2  C   UNL d   1      25.676 -17.406  -0.310  0.00  0.00     0.170 C 
ATOM      3  N   UNL d   1      25.331 -18.430   0.565  0.00  0.00    -0.152 NA
ATOM      4  N   UNL d   1      24.012 -18.572   0.641  0.00  0.00     0.012 NA
ATOM      5  N   UNL d   1      23.405 -17.768  -0.250  0.00  0.00    -0.215 N 
ENDROOT
BRANCH   2   6
ATOM      6  C   UNL d   1      27.312 -17.009  -0.340  0.00  0.00     0.293 C 
ATOM      7  O   UNL d   1      28.089 -17.754  -0.902  0.00  0.00    -0.264 OA
ATOM      8  N   UNL d   1      27.834 -15.821   0.355  0.00  0.00    -0.242 N 
ATOM      9  H   UNL d   1      27.230 -15.055   0.538  0.00  0.00     0.192 HD
BRANCH   8  10
ATOM     10  N   UNL d   1      29.135 -15.585   0.847  0.00  0.00    -0.183 NA
ATOM     11  C   UNL d   1      29.380 -14.493   1.545  0.00  0.00     0.150 C 
BRANCH  11  12
ATOM     12  C   UNL d   1      30.735 -13.909   1.702  0.00  0.00    -0.014 A 
ATOM     13  C   UNL d   1      31.632 -14.716   2.394  0.00  0.00     0.013 A 
ATOM     14  C   UNL d   1      32.931 -14.285   2.622  0.00  0.00     0.004 A 
ATOM     15  C   UNL d   1      33.346 -13.049   2.133  0.00  0.00     0.042 A 
ATOM     16  C   UNL d   1      32.473 -12.279   1.370  0.00  0.00     0.117 A 
ATOM     17  F   UNL d   1      32.892 -11.098   0.894  0.00  0.00    -0.206 F 
ATOM     18  C   UNL d   1      31.166 -12.708   1.114  0.00  0.00     0.055 A 
ENDBRANCH  11  12
ENDBRANCH   8  10
ENDBRANCH   2   6
BRANCH   1  19
ATOM     19  C   UNL d   1      23.835 -15.701  -1.575  0.00  0.00     0.296 C 
BRANCH  19  20
ATOM     20  N   UNL d   1      24.674 -15.163  -2.708  0.00  0.00    -0.065 N 
ATOM     21  C   UNL d   1      23.866 -14.080  -3.279  0.00  0.00     0.270 C 
ATOM     22  H   UNL d   1      24.695 -15.852  -3.474  0.00  0.00     0.280 HD
BRANCH  20  23
ATOM     23  C   UNL d   1      26.157 -14.965  -2.243  0.00  0.00     0.188 C 
ATOM     24  C   UNL d   1      27.202 -15.345  -3.295  0.00  0.00     0.033 C 
ATOM     25  C   UNL d   1      28.641 -15.117  -2.830  0.00  0.00     0.002 C 
ATOM     26  C   UNL d   1      28.852 -13.685  -2.331  0.00  0.00     0.000 C 
ATOM     27  C   UNL d   1      27.865 -13.357  -1.226  0.00  0.00     0.002 C 
ATOM     28  C   UNL d   1      26.441 -13.541  -1.702  0.00  0.00     0.033 C 
ENDBRANCH  20  23
ENDBRANCH  19  20
ENDBRANCH   1  19
BRANCH   5  29
ATOM     29  C   UNL d   1      21.993 -17.839  -0.562  0.00  0.00     0.219 A 
ATOM     30  N   UNL d   1      21.342 -16.779  -1.052  0.00  0.00    -0.082 NA
ATOM     31  O   UNL d   1      20.033 -17.243  -1.270  0.00  0.00    -0.103 OA
ATOM     32  N   UNL d   1      19.905 -18.578  -0.897  0.00  0.00    -0.089 NA
ATOM     33  C   UNL d   1      21.108 -18.938  -0.462  0.00  0.00     0.180 A 
BRANCH  33  34
ATOM     34  N   UNL d   1      21.396 -20.173   0.009  0.00  0.00    -0.282 NA
ATOM     35  H   UNL d   1      20.773 -20.508   0.749  0.00  0.00     0.126 HD
ATOM     36  H   UNL d   1      22.355 -20.409   0.230  0.00  0.00     0.126 HD
ENDBRANCH  33  34
ENDBRANCH   5  29
TORSDOF 8
ENDMDL
