MODEL 1
REMARK VINA RESULT:    -9.313      0.000      0.000
REMARK INTER + INTRA:         -12.316
REMARK INTER:                 -11.102
REMARK INTRA:                  -1.214
REMARK CONF_INDEPENDENT:        1.790
REMARK UNBOUND:                -1.214
REMARK  6 active torsions:
REMARK  status: ('A' for Active; 'I' for Inactive)
REMARK    1  A    between atoms: O_2  and  C_3 
REMARK    2  A    between atoms: C_6  and  N_7 
REMARK       I    between atoms: N_7  and  C_8 
REMARK    3  A    between atoms: C_12  and  N_13 
REMARK       I    between atoms: N_13  and  C_14 
REMARK    4  A    between atoms: C_14  and  C_16 
REMARK    5  A    between atoms: N_23  and  C_24 
REMARK    6  A    between atoms: C_24  and  C_25 
ROOT
ATOM      1  C   UNL d   1      25.910 -14.594  -2.777  0.00  0.00     0.077 C 
ATOM      2  C   UNL d   1      27.159 -15.182  -2.722  0.00  0.00     0.110 C 
ATOM      3  N   UNL d   1      27.135 -16.215  -1.832  0.00  0.00    -0.354 N 
ATOM      4  C   UNL d   1      28.334 -16.868  -1.367  0.00  0.00     0.156 C 
ATOM      5  C   UNL d   1      25.843 -16.425  -1.433  0.00  0.00     0.131 C 
ATOM      6  C   UNL d   1      25.296 -17.378  -0.502  0.00  0.00     0.281 C 
ATOM      7  O   UNL d   1      25.995 -18.158   0.140  0.00  0.00    -0.265 OA
ATOM      8  N   UNL d   1      23.896 -17.297  -0.372  0.00  0.00    -0.260 N 
ATOM      9  C   UNL d   1      23.120 -16.347  -1.042  0.00  0.00     0.330 C 
ATOM     10  O   UNL d   1      21.927 -16.095  -0.899  0.00  0.00    -0.246 OA
ATOM     11  N   UNL d   1      23.727 -15.548  -1.960  0.00  0.00    -0.305 N 
ATOM     12  C   UNL d   1      25.075 -15.497  -2.095  0.00  0.00     0.086 C 
ATOM     13  H   UNL d   1      23.098 -14.950  -2.474  0.00  0.00     0.171 HD
ENDROOT
BRANCH   1  14
ATOM     14  C   UNL d   1      25.728 -13.348  -3.514  0.00  0.00     0.260 C 
ATOM     15  N   UNL d   1      26.684 -12.365  -3.300  0.00  0.00    -0.320 N 
ATOM     16  H   UNL d   1      27.635 -12.659  -3.126  0.00  0.00     0.169 HD
ATOM     17  O   UNL d   1      24.764 -13.205  -4.236  0.00  0.00    -0.267 OA
BRANCH  15  18
ATOM     18  C   UNL d   1      26.429 -10.988  -3.533  0.00  0.00     0.070 C 
ATOM     19  C   UNL d   1      26.255 -10.204  -2.393  0.00  0.00     0.062 C 
ATOM     20  C   UNL d   1      25.903  -8.857  -2.410  0.00  0.00     0.037 C 
ATOM     21  C   UNL d   1      25.977  -8.208  -3.641  0.00  0.00     0.032 C 
ATOM     22  C   UNL d   1      26.186  -8.962  -4.813  0.00  0.00     0.041 C 
ATOM     23  C   UNL d   1      26.330 -10.362  -4.772  0.00  0.00     0.095 C 
BRANCH  20  24
ATOM     24  N   UNL d   1      25.491  -8.146  -1.258  0.00  0.00    -0.327 N 
ATOM     25  C   UNL d   1      25.865  -8.239   0.059  0.00  0.00     0.218 C 
ATOM     26  C   UNL d   1      26.936  -9.180   0.556  0.00  0.00     0.117 C 
ATOM     27  O   UNL d   1      25.294  -7.514   0.882  0.00  0.00    -0.274 OA
ATOM     28  H   UNL d   1      24.701  -7.513  -1.363  0.00  0.00     0.169 HD
ENDBRANCH  20  24
BRANCH  23  29
ATOM     29  O   UNL d   1      26.413 -10.977  -5.989  0.00  0.00    -0.354 OA
ATOM     30  C   UNL d   1      27.523 -11.851  -6.193  0.00  0.00     0.210 C 
ENDBRANCH  23  29
ENDBRANCH  15  18
ENDBRANCH   1  14
BRANCH   8  31
ATOM     31  C   UNL d   1      23.308 -18.231   0.595  0.00  0.00     0.175 C 
BRANCH  31  32
ATOM     32  C   UNL d   1      21.908 -18.706   0.307  0.00  0.00    -0.040 A 
ATOM     33  C   UNL d   1      21.499 -19.017  -0.994  0.00  0.00     0.009 A 
ATOM     34  C   UNL d   1      20.217 -19.521  -1.216  0.00  0.00     0.001 A 
ATOM     35  C   UNL d   1      19.392 -19.839  -0.136  0.00  0.00     0.000 A 
ATOM     36  C   UNL d   1      19.807 -19.574   1.165  0.00  0.00     0.001 A 
ATOM     37  C   UNL d   1      21.030 -18.951   1.379  0.00  0.00     0.009 A 
ENDBRANCH  31  32
ENDBRANCH   8  31
TORSDOF 6
ENDMDL
MODEL 2
REMARK VINA RESULT:    -9.202      3.427      5.237
REMARK INTER + INTRA:         -12.338
REMARK INTER:                 -10.992
REMARK INTRA:                  -1.346
REMARK CONF_INDEPENDENT:        1.790
REMARK UNBOUND:                -1.346
REMARK  6 active torsions:
REMARK  status: ('A' for Active; 'I' for Inactive)
REMARK    1  A    between atoms: O_2  and  C_3 
REMARK    2  A    between atoms: C_6  and  N_7 
REMARK       I    between atoms: N_7  and  C_8 
REMARK    3  A    between atoms: C_12  and  N_13 
REMARK       I    between atoms: N_13  and  C_14 
REMARK    4  A    between atoms: C_14  and  C_16 
REMARK    5  A    between atoms: N_23  and  C_24 
REMARK    6  A    between atoms: C_24  and  C_25 
ROOT
ATOM      1  C   UNL d   1      26.261 -10.362  -2.999  0.00  0.00     0.077 C 
ATOM      2  C   UNL d   1      27.396 -10.141  -2.241  0.00  0.00     0.110 C 
ATOM      3  N   UNL d   1      27.828 -11.324  -1.717  0.00  0.00    -0.354 N 
ATOM      4  C   UNL d   1      28.836 -11.397  -0.689  0.00  0.00     0.156 C 
ATOM      5  C   UNL d   1      27.097 -12.343  -2.264  0.00  0.00     0.131 C 
ATOM      6  C   UNL d   1      27.155 -13.764  -2.032  0.00  0.00     0.281 C 
ATOM      7  O   UNL d   1      27.905 -14.273  -1.203  0.00  0.00    -0.265 OA
ATOM      8  N   UNL d   1      26.241 -14.499  -2.813  0.00  0.00    -0.260 N 
ATOM      9  C   UNL d   1      25.331 -13.901  -3.689  0.00  0.00     0.330 C 
ATOM     10  O   UNL d   1      24.406 -14.424  -4.306  0.00  0.00    -0.246 OA
ATOM     11  N   UNL d   1      25.417 -12.560  -3.894  0.00  0.00    -0.305 N 
ATOM     12  C   UNL d   1      26.204 -11.761  -3.132  0.00  0.00     0.086 C 
ATOM     13  H   UNL d   1      24.794 -12.205  -4.605  0.00  0.00     0.171 HD
ENDROOT
BRANCH   1  14
ATOM     14  C   UNL d   1      25.499  -9.227  -3.508  0.00  0.00     0.260 C 
ATOM     15  N   UNL d   1      24.795  -9.441  -4.684  0.00  0.00    -0.320 N 
ATOM     16  H   UNL d   1      24.407 -10.361  -4.843  0.00  0.00     0.169 HD
ATOM     17  O   UNL d   1      25.534  -8.163  -2.927  0.00  0.00    -0.267 OA
BRANCH  15  18
ATOM     18  C   UNL d   1      24.413  -8.382  -5.550  0.00  0.00     0.070 C 
ATOM     19  C   UNL d   1      23.166  -7.814  -5.295  0.00  0.00     0.062 C 
ATOM     20  C   UNL d   1      22.571  -6.834  -6.086  0.00  0.00     0.037 C 
ATOM     21  C   UNL d   1      23.385  -6.220  -7.036  0.00  0.00     0.032 C 
ATOM     22  C   UNL d   1      24.666  -6.745  -7.297  0.00  0.00     0.041 C 
ATOM     23  C   UNL d   1      25.152  -7.876  -6.615  0.00  0.00     0.095 C 
BRANCH  20  24
ATOM     24  N   UNL d   1      21.215  -6.449  -5.959  0.00  0.00    -0.327 N 
ATOM     25  C   UNL d   1      20.242  -6.200  -6.894  0.00  0.00     0.218 C 
ATOM     26  C   UNL d   1      20.453  -6.364  -8.380  0.00  0.00     0.117 C 
ATOM     27  O   UNL d   1      19.133  -5.820  -6.498  0.00  0.00    -0.274 OA
ATOM     28  H   UNL d   1      20.891  -6.199  -5.027  0.00  0.00     0.169 HD
ENDBRANCH  20  24
BRANCH  23  29
ATOM     29  O   UNL d   1      26.360  -8.345  -7.046  0.00  0.00    -0.354 OA
ATOM     30  C   UNL d   1      26.466  -9.752  -7.258  0.00  0.00     0.210 C 
ENDBRANCH  23  29
ENDBRANCH  15  18
ENDBRANCH   1  14
BRANCH   8  31
ATOM     31  C   UNL d   1      26.248 -15.947  -2.577  0.00  0.00     0.175 C 
BRANCH  31  32
ATOM     32  C   UNL d   1      25.185 -16.484  -1.654  0.00  0.00    -0.040 A 
ATOM     33  C   UNL d   1      23.893 -15.949  -1.645  0.00  0.00     0.009 A 
ATOM     34  C   UNL d   1      22.914 -16.516  -0.829  0.00  0.00     0.001 A 
ATOM     35  C   UNL d   1      23.181 -17.691  -0.125  0.00  0.00     0.000 A 
ATOM     36  C   UNL d   1      24.452 -18.256  -0.162  0.00  0.00     0.001 A 
ATOM     37  C   UNL d   1      25.464 -17.619  -0.870  0.00  0.00     0.009 A 
ENDBRANCH  31  32
ENDBRANCH   8  31
TORSDOF 6
ENDMDL
MODEL 3
REMARK VINA RESULT:    -8.911      2.674      9.819
REMARK INTER + INTRA:         -11.685
REMARK INTER:                 -10.701
REMARK INTRA:                  -0.983
REMARK CONF_INDEPENDENT:        1.790
REMARK UNBOUND:                -0.983
REMARK  6 active torsions:
REMARK  status: ('A' for Active; 'I' for Inactive)
REMARK    1  A    between atoms: O_2  and  C_3 
REMARK    2  A    between atoms: C_6  and  N_7 
REMARK       I    between atoms: N_7  and  C_8 
REMARK    3  A    between atoms: C_12  and  N_13 
REMARK       I    between atoms: N_13  and  C_14 
REMARK    4  A    between atoms: C_14  and  C_16 
REMARK    5  A    between atoms: N_23  and  C_24 
REMARK    6  A    between atoms: C_24  and  C_25 
ROOT
ATOM      1  C   UNL d   1      25.584 -13.868  -3.625  0.00  0.00     0.077 C 
ATOM      2  C   UNL d   1      25.147 -12.577  -3.854  0.00  0.00     0.110 C 
ATOM      3  N   UNL d   1      26.060 -11.920  -4.624  0.00  0.00    -0.354 N 
ATOM      4  C   UNL d   1      26.019 -10.493  -4.832  0.00  0.00     0.156 C 
ATOM      5  C   UNL d   1      27.003 -12.814  -5.052  0.00  0.00     0.131 C 
ATOM      6  C   UNL d   1      28.173 -12.619  -5.869  0.00  0.00     0.281 C 
ATOM      7  O   UNL d   1      28.522 -11.515  -6.280  0.00  0.00    -0.265 OA
ATOM      8  N   UNL d   1      28.894 -13.805  -6.113  0.00  0.00    -0.260 N 
ATOM      9  C   UNL d   1      28.536 -15.041  -5.568  0.00  0.00     0.330 C 
ATOM     10  O   UNL d   1      29.159 -16.099  -5.596  0.00  0.00    -0.246 OA
ATOM     11  N   UNL d   1      27.367 -15.130  -4.878  0.00  0.00    -0.305 N 
ATOM     12  C   UNL d   1      26.652 -14.034  -4.524  0.00  0.00     0.086 C 
ATOM     13  H   UNL d   1      27.121 -16.066  -4.591  0.00  0.00     0.171 HD
ENDROOT
BRANCH   1  14
ATOM     14  C   UNL d   1      24.875 -14.713  -2.669  0.00  0.00     0.260 C 
ATOM     15  N   UNL d   1      25.665 -15.415  -1.770  0.00  0.00    -0.320 N 
ATOM     16  H   UNL d   1      26.519 -14.980  -1.450  0.00  0.00     0.169 HD
ATOM     17  O   UNL d   1      23.666 -14.798  -2.715  0.00  0.00    -0.267 OA
BRANCH  15  18
ATOM     18  C   UNL d   1      25.219 -16.597  -1.122  0.00  0.00     0.070 C 
ATOM     19  C   UNL d   1      24.121 -17.228  -1.705  0.00  0.00     0.062 C 
ATOM     20  C   UNL d   1      23.476 -18.340  -1.168  0.00  0.00     0.037 C 
ATOM     21  C   UNL d   1      24.127 -18.997  -0.126  0.00  0.00     0.032 C 
ATOM     22  C   UNL d   1      25.261 -18.407   0.467  0.00  0.00     0.041 C 
ATOM     23  C   UNL d   1      25.761 -17.167   0.026  0.00  0.00     0.095 C 
BRANCH  20  24
ATOM     24  N   UNL d   1      22.227 -18.814  -1.634  0.00  0.00    -0.327 N 
ATOM     25  C   UNL d   1      21.122 -19.287  -0.971  0.00  0.00     0.218 C 
ATOM     26  C   UNL d   1      21.012 -19.339   0.533  0.00  0.00     0.117 C 
ATOM     27  O   UNL d   1      20.166 -19.692  -1.643  0.00  0.00    -0.274 OA
ATOM     28  H   UNL d   1      22.126 -18.943  -2.638  0.00  0.00     0.169 HD
ENDBRANCH  20  24
BRANCH  23  29
ATOM     29  O   UNL d   1      26.794 -16.658   0.762  0.00  0.00    -0.354 OA
ATOM     30  C   UNL d   1      28.097 -16.746   0.187  0.00  0.00     0.210 C 
ENDBRANCH  23  29
ENDBRANCH  15  18
ENDBRANCH   1  14
BRANCH   8  31
ATOM     31  C   UNL d   1      30.112 -13.638  -6.914  0.00  0.00     0.175 C 
BRANCH  31  32
ATOM     32  C   UNL d   1      29.994 -12.783  -8.149  0.00  0.00    -0.040 A 
ATOM     33  C   UNL d   1      28.775 -12.643  -8.822  0.00  0.00     0.009 A 
ATOM     34  C   UNL d   1      28.686 -11.788  -9.921  0.00  0.00     0.001 A 
ATOM     35  C   UNL d   1      29.766 -10.977 -10.269  0.00  0.00     0.000 A 
ATOM     36  C   UNL d   1      30.969 -11.078  -9.578  0.00  0.00     0.001 A 
ATOM     37  C   UNL d   1      31.101 -12.023  -8.568  0.00  0.00     0.009 A 
ENDBRANCH  31  32
ENDBRANCH   8  31
TORSDOF 6
ENDMDL
MODEL 4
REMARK VINA RESULT:    -8.901      3.851      9.528
REMARK INTER + INTRA:         -11.788
REMARK INTER:                 -10.690
REMARK INTRA:                  -1.098
REMARK CONF_INDEPENDENT:        1.790
REMARK UNBOUND:                -1.098
REMARK  6 active torsions:
REMARK  status: ('A' for Active; 'I' for Inactive)
REMARK    1  A    between atoms: O_2  and  C_3 
REMARK    2  A    between atoms: C_6  and  N_7 
REMARK       I    between atoms: N_7  and  C_8 
REMARK    3  A    between atoms: C_12  and  N_13 
REMARK       I    between atoms: N_13  and  C_14 
REMARK    4  A    between atoms: C_14  and  C_16 
REMARK    5  A    between atoms: N_23  and  C_24 
REMARK    6  A    between atoms: C_24  and  C_25 
ROOT
ATOM      1  C   UNL d   1      26.240 -14.481  -3.995  0.00  0.00     0.077 C 
ATOM      2  C   UNL d   1      25.757 -13.402  -4.712  0.00  0.00     0.110 C 
ATOM      3  N   UNL d   1      26.730 -12.946  -5.552  0.00  0.00    -0.354 N 
ATOM      4  C   UNL d   1      26.626 -11.688  -6.251  0.00  0.00     0.156 C 
ATOM      5  C   UNL d   1      27.783 -13.818  -5.524  0.00  0.00     0.131 C 
ATOM      6  C   UNL d   1      29.047 -13.780  -6.215  0.00  0.00     0.281 C 
ATOM      7  O   UNL d   1      29.379 -12.848  -6.944  0.00  0.00    -0.265 OA
ATOM      8  N   UNL d   1      29.872 -14.888  -5.940  0.00  0.00    -0.260 N 
ATOM      9  C   UNL d   1      29.520 -15.898  -5.041  0.00  0.00     0.330 C 
ATOM     10  O   UNL d   1      30.209 -16.825  -4.623  0.00  0.00    -0.246 OA
ATOM     11  N   UNL d   1      28.270 -15.881  -4.506  0.00  0.00    -0.305 N 
ATOM     12  C   UNL d   1      27.438 -14.819  -4.647  0.00  0.00     0.086 C 
ATOM     13  H   UNL d   1      28.046 -16.685  -3.940  0.00  0.00     0.171 HD
ENDROOT
BRANCH   1  14
ATOM     14  C   UNL d   1      25.454 -15.027  -2.893  0.00  0.00     0.260 C 
ATOM     15  N   UNL d   1      26.137 -15.832  -1.994  0.00  0.00    -0.320 N 
ATOM     16  H   UNL d   1      27.104 -15.610  -1.799  0.00  0.00     0.169 HD
ATOM     17  O   UNL d   1      24.265 -14.796  -2.824  0.00  0.00    -0.267 OA
BRANCH  15  18
ATOM     18  C   UNL d   1      25.485 -16.796  -1.182  0.00  0.00     0.070 C 
ATOM     19  C   UNL d   1      24.405 -17.452  -1.772  0.00  0.00     0.062 C 
ATOM     20  C   UNL d   1      23.578 -18.358  -1.113  0.00  0.00     0.037 C 
ATOM     21  C   UNL d   1      24.016 -18.813   0.130  0.00  0.00     0.032 C 
ATOM     22  C   UNL d   1      25.125 -18.198   0.743  0.00  0.00     0.041 C 
ATOM     23  C   UNL d   1      25.812 -17.134   0.128  0.00  0.00     0.095 C 
BRANCH  20  24
ATOM     24  N   UNL d   1      22.352 -18.822  -1.645  0.00  0.00    -0.327 N 
ATOM     25  C   UNL d   1      21.207 -19.283  -1.044  0.00  0.00     0.218 C 
ATOM     26  C   UNL d   1      21.014 -19.328   0.453  0.00  0.00     0.117 C 
ATOM     27  O   UNL d   1      20.286 -19.681  -1.766  0.00  0.00    -0.274 OA
ATOM     28  H   UNL d   1      22.305 -18.953  -2.653  0.00  0.00     0.169 HD
ENDBRANCH  20  24
BRANCH  23  29
ATOM     29  O   UNL d   1      26.794 -16.558   0.882  0.00  0.00    -0.354 OA
ATOM     30  C   UNL d   1      28.090 -16.471   0.292  0.00  0.00     0.210 C 
ENDBRANCH  23  29
ENDBRANCH  15  18
ENDBRANCH   1  14
BRANCH   8  31
ATOM     31  C   UNL d   1      31.183 -14.864  -6.600  0.00  0.00     0.175 C 
BRANCH  31  32
ATOM     32  C   UNL d   1      31.683 -16.174  -7.151  0.00  0.00    -0.040 A 
ATOM     33  C   UNL d   1      33.052 -16.430  -7.286  0.00  0.00     0.009 A 
ATOM     34  C   UNL d   1      33.482 -17.679  -7.733  0.00  0.00     0.001 A 
ATOM     35  C   UNL d   1      32.563 -18.713  -7.918  0.00  0.00     0.000 A 
ATOM     36  C   UNL d   1      31.203 -18.480  -7.745  0.00  0.00     0.001 A 
ATOM     37  C   UNL d   1      30.763 -17.201  -7.427  0.00  0.00     0.009 A 
ENDBRANCH  31  32
ENDBRANCH   8  31
TORSDOF 6
ENDMDL
MODEL 5
REMARK VINA RESULT:    -8.884      3.325      9.513
REMARK INTER + INTRA:         -11.961
REMARK INTER:                 -10.674
REMARK INTRA:                  -1.287
REMARK CONF_INDEPENDENT:        1.790
REMARK UNBOUND:                -1.287
REMARK  6 active torsions:
REMARK  status: ('A' for Active; 'I' for Inactive)
REMARK    1  A    between atoms: O_2  and  C_3 
REMARK    2  A    between atoms: C_6  and  N_7 
REMARK       I    between atoms: N_7  and  C_8 
REMARK    3  A    between atoms: C_12  and  N_13 
REMARK       I    between atoms: N_13  and  C_14 
REMARK    4  A    between atoms: C_14  and  C_16 
REMARK    5  A    between atoms: N_23  and  C_24 
REMARK    6  A    between atoms: C_24  and  C_25 
ROOT
ATOM      1  C   UNL d   1      25.630 -13.965  -3.899  0.00  0.00     0.077 C 
ATOM      2  C   UNL d   1      25.156 -12.720  -4.268  0.00  0.00     0.110 C 
ATOM      3  N   UNL d   1      26.040 -12.134  -5.125  0.00  0.00    -0.354 N 
ATOM      4  C   UNL d   1      25.958 -10.742  -5.495  0.00  0.00     0.156 C 
ATOM      5  C   UNL d   1      27.000 -13.049  -5.463  0.00  0.00     0.131 C 
ATOM      6  C   UNL d   1      28.153 -12.920  -6.318  0.00  0.00     0.281 C 
ATOM      7  O   UNL d   1      28.466 -11.863  -6.859  0.00  0.00    -0.265 OA
ATOM      8  N   UNL d   1      28.900 -14.108  -6.436  0.00  0.00    -0.260 N 
ATOM      9  C   UNL d   1      28.583 -15.282  -5.746  0.00  0.00     0.330 C 
ATOM     10  O   UNL d   1      29.234 -16.320  -5.663  0.00  0.00    -0.246 OA
ATOM     11  N   UNL d   1      27.428 -15.319  -5.030  0.00  0.00    -0.305 N 
ATOM     12  C   UNL d   1      26.689 -14.207  -4.793  0.00  0.00     0.086 C 
ATOM     13  H   UNL d   1      27.211 -16.221  -4.633  0.00  0.00     0.171 HD
ENDROOT
BRANCH   1  14
ATOM     14  C   UNL d   1      24.958 -14.711  -2.840  0.00  0.00     0.260 C 
ATOM     15  N   UNL d   1      25.778 -15.441  -1.992  0.00  0.00    -0.320 N 
ATOM     16  H   UNL d   1      26.692 -15.067  -1.778  0.00  0.00     0.169 HD
ATOM     17  O   UNL d   1      23.748 -14.697  -2.763  0.00  0.00    -0.267 OA
BRANCH  15  18
ATOM     18  C   UNL d   1      25.309 -16.556  -1.249  0.00  0.00     0.070 C 
ATOM     19  C   UNL d   1      24.230 -17.242  -1.804  0.00  0.00     0.062 C 
ATOM     20  C   UNL d   1      23.566 -18.298  -1.186  0.00  0.00     0.037 C 
ATOM     21  C   UNL d   1      24.181 -18.851  -0.064  0.00  0.00     0.032 C 
ATOM     22  C   UNL d   1      25.295 -18.206   0.506  0.00  0.00     0.041 C 
ATOM     23  C   UNL d   1      25.812 -17.012  -0.034  0.00  0.00     0.095 C 
BRANCH  20  24
ATOM     24  N   UNL d   1      22.331 -18.816  -1.645  0.00  0.00    -0.327 N 
ATOM     25  C   UNL d   1      21.207 -19.233  -0.976  0.00  0.00     0.218 C 
ATOM     26  C   UNL d   1      21.051 -19.152   0.523  0.00  0.00     0.117 C 
ATOM     27  O   UNL d   1      20.272 -19.700  -1.639  0.00  0.00    -0.274 OA
ATOM     28  H   UNL d   1      22.261 -19.034  -2.636  0.00  0.00     0.169 HD
ENDBRANCH  20  24
BRANCH  23  29
ATOM     29  O   UNL d   1      26.821 -16.435   0.683  0.00  0.00    -0.354 OA
ATOM     30  C   UNL d   1      28.152 -16.676   0.230  0.00  0.00     0.210 C 
ENDBRANCH  23  29
ENDBRANCH  15  18
ENDBRANCH   1  14
BRANCH   8  31
ATOM     31  C   UNL d   1      30.102 -14.005  -7.272  0.00  0.00     0.175 C 
BRANCH  31  32
ATOM     32  C   UNL d   1      31.293 -14.820  -6.843  0.00  0.00    -0.040 A 
ATOM     33  C   UNL d   1      31.923 -14.595  -5.614  0.00  0.00     0.009 A 
ATOM     34  C   UNL d   1      32.980 -15.415  -5.217  0.00  0.00     0.001 A 
ATOM     35  C   UNL d   1      33.323 -16.534  -5.976  0.00  0.00     0.000 A 
ATOM     36  C   UNL d   1      32.673 -16.791  -7.179  0.00  0.00     0.001 A 
ATOM     37  C   UNL d   1      31.710 -15.902  -7.640  0.00  0.00     0.009 A 
ENDBRANCH  31  32
ENDBRANCH   8  31
TORSDOF 6
ENDMDL
MODEL 6
REMARK VINA RESULT:    -8.673      2.220      9.375
REMARK INTER + INTRA:         -11.720
REMARK INTER:                 -10.463
REMARK INTRA:                  -1.257
REMARK CONF_INDEPENDENT:        1.790
REMARK UNBOUND:                -1.257
REMARK  6 active torsions:
REMARK  status: ('A' for Active; 'I' for Inactive)
REMARK    1  A    between atoms: O_2  and  C_3 
REMARK    2  A    between atoms: C_6  and  N_7 
REMARK       I    between atoms: N_7  and  C_8 
REMARK    3  A    between atoms: C_12  and  N_13 
REMARK       I    between atoms: N_13  and  C_14 
REMARK    4  A    between atoms: C_14  and  C_16 
REMARK    5  A    between atoms: N_23  and  C_24 
REMARK    6  A    between atoms: C_24  and  C_25 
ROOT
ATOM      1  C   UNL d   1      26.499 -13.677  -4.603  0.00  0.00     0.077 C 
ATOM      2  C   UNL d   1      27.408 -13.911  -5.618  0.00  0.00     0.110 C 
ATOM      3  N   UNL d   1      27.740 -12.729  -6.210  0.00  0.00    -0.354 N 
ATOM      4  C   UNL d   1      28.471 -12.659  -7.451  0.00  0.00     0.156 C 
ATOM      5  C   UNL d   1      27.198 -11.703  -5.484  0.00  0.00     0.131 C 
ATOM      6  C   UNL d   1      27.246 -10.279  -5.698  0.00  0.00     0.281 C 
ATOM      7  O   UNL d   1      27.790  -9.771  -6.675  0.00  0.00    -0.265 OA
ATOM      8  N   UNL d   1      26.575  -9.538  -4.706  0.00  0.00    -0.260 N 
ATOM      9  C   UNL d   1      25.884 -10.132  -3.645  0.00  0.00     0.330 C 
ATOM     10  O   UNL d   1      25.155  -9.599  -2.813  0.00  0.00    -0.246 OA
ATOM     11  N   UNL d   1      25.972 -11.480  -3.491  0.00  0.00    -0.305 N 
ATOM     12  C   UNL d   1      26.524 -12.282  -4.435  0.00  0.00     0.086 C 
ATOM     13  H   UNL d   1      25.529 -11.835  -2.656  0.00  0.00     0.171 HD
ENDROOT
BRANCH   1  14
ATOM     14  C   UNL d   1      25.846 -14.803  -3.943  0.00  0.00     0.260 C 
ATOM     15  N   UNL d   1      25.660 -14.686  -2.574  0.00  0.00    -0.320 N 
ATOM     16  H   UNL d   1      25.476 -13.766  -2.198  0.00  0.00     0.169 HD
ATOM     17  O   UNL d   1      25.531 -15.783  -4.586  0.00  0.00    -0.267 OA
BRANCH  15  18
ATOM     18  C   UNL d   1      25.498 -15.812  -1.725  0.00  0.00     0.070 C 
ATOM     19  C   UNL d   1      24.507 -16.717  -2.104  0.00  0.00     0.062 C 
ATOM     20  C   UNL d   1      24.128 -17.829  -1.357  0.00  0.00     0.037 C 
ATOM     21  C   UNL d   1      24.964 -18.184  -0.300  0.00  0.00     0.032 C 
ATOM     22  C   UNL d   1      25.999 -17.312   0.091  0.00  0.00     0.041 C 
ATOM     23  C   UNL d   1      26.217 -16.087  -0.566  0.00  0.00     0.095 C 
BRANCH  20  24
ATOM     24  N   UNL d   1      22.966 -18.590  -1.628  0.00  0.00    -0.327 N 
ATOM     25  C   UNL d   1      21.919 -18.980  -0.831  0.00  0.00     0.218 C 
ATOM     26  C   UNL d   1      21.780 -18.575   0.617  0.00  0.00     0.117 C 
ATOM     27  O   UNL d   1      21.044 -19.700  -1.325  0.00  0.00    -0.274 OA
ATOM     28  H   UNL d   1      22.908 -19.037  -2.541  0.00  0.00     0.169 HD
ENDBRANCH  20  24
BRANCH  23  29
ATOM     29  O   UNL d   1      27.179 -15.290  -0.012  0.00  0.00    -0.354 OA
ATOM     30  C   UNL d   1      28.302 -15.948   0.570  0.00  0.00     0.210 C 
ENDBRANCH  23  29
ENDBRANCH  15  18
ENDBRANCH   1  14
BRANCH   8  31
ATOM     31  C   UNL d   1      26.573  -8.086  -4.911  0.00  0.00     0.175 C 
BRANCH  31  32
ATOM     32  C   UNL d   1      25.231  -7.403  -4.884  0.00  0.00    -0.040 A 
ATOM     33  C   UNL d   1      25.097  -6.079  -4.452  0.00  0.00     0.009 A 
ATOM     34  C   UNL d   1      23.850  -5.455  -4.506  0.00  0.00     0.001 A 
ATOM     35  C   UNL d   1      22.770  -6.099  -5.110  0.00  0.00     0.000 A 
ATOM     36  C   UNL d   1      22.904  -7.401  -5.582  0.00  0.00     0.001 A 
ATOM     37  C   UNL d   1      24.109  -8.070  -5.409  0.00  0.00     0.009 A 
ENDBRANCH  31  32
ENDBRANCH   8  31
TORSDOF 6
ENDMDL
MODEL 7
REMARK VINA RESULT:    -8.555      5.981      8.108
REMARK INTER + INTRA:         -11.691
REMARK INTER:                 -10.345
REMARK INTRA:                  -1.346
REMARK CONF_INDEPENDENT:        1.790
REMARK UNBOUND:                -1.346
REMARK  6 active torsions:
REMARK  status: ('A' for Active; 'I' for Inactive)
REMARK    1  A    between atoms: O_2  and  C_3 
REMARK    2  A    between atoms: C_6  and  N_7 
REMARK       I    between atoms: N_7  and  C_8 
REMARK    3  A    between atoms: C_12  and  N_13 
REMARK       I    between atoms: N_13  and  C_14 
REMARK    4  A    between atoms: C_14  and  C_16 
REMARK    5  A    between atoms: N_23  and  C_24 
REMARK    6  A    between atoms: C_24  and  C_25 
ROOT
ATOM      1  C   UNL d   1      30.274 -14.716   2.015  0.00  0.00     0.077 C 
ATOM      2  C   UNL d   1      31.387 -15.262   1.404  0.00  0.00     0.110 C 
ATOM      3  N   UNL d   1      30.999 -15.967   0.303  0.00  0.00    -0.354 N 
ATOM      4  C   UNL d   1      31.889 -16.854  -0.405  0.00  0.00     0.156 C 
ATOM      5  C   UNL d   1      29.667 -15.745   0.083  0.00  0.00     0.131 C 
ATOM      6  C   UNL d   1      28.789 -16.266  -0.934  0.00  0.00     0.281 C 
ATOM      7  O   UNL d   1      29.154 -17.084  -1.774  0.00  0.00    -0.265 OA
ATOM      8  N   UNL d   1      27.470 -15.779  -0.840  0.00  0.00    -0.260 N 
ATOM      9  C   UNL d   1      27.044 -14.916   0.174  0.00  0.00     0.330 C 
ATOM     10  O   UNL d   1      25.902 -14.545   0.433  0.00  0.00    -0.246 OA
ATOM     11  N   UNL d   1      27.974 -14.421   1.034  0.00  0.00    -0.305 N 
ATOM     12  C   UNL d   1      29.245 -14.891   1.074  0.00  0.00     0.086 C 
ATOM     13  H   UNL d   1      27.619 -13.734   1.682  0.00  0.00     0.171 HD
ENDROOT
BRANCH   1  14
ATOM     14  C   UNL d   1      30.406 -14.075   3.319  0.00  0.00     0.260 C 
ATOM     15  N   UNL d   1      29.607 -14.582   4.334  0.00  0.00    -0.320 N 
ATOM     16  H   UNL d   1      29.408 -15.573   4.329  0.00  0.00     0.169 HD
ATOM     17  O   UNL d   1      31.157 -13.132   3.459  0.00  0.00    -0.267 OA
BRANCH  15  18
ATOM     18  C   UNL d   1      29.252 -13.822   5.479  0.00  0.00     0.070 C 
ATOM     19  C   UNL d   1      29.462 -14.446   6.708  0.00  0.00     0.062 C 
ATOM     20  C   UNL d   1      29.090 -13.909   7.938  0.00  0.00     0.037 C 
ATOM     21  C   UNL d   1      28.718 -12.566   7.945  0.00  0.00     0.032 C 
ATOM     22  C   UNL d   1      28.529 -11.891   6.723  0.00  0.00     0.041 C 
ATOM     23  C   UNL d   1      28.715 -12.538   5.487  0.00  0.00     0.095 C 
BRANCH  20  24
ATOM     24  N   UNL d   1      29.084 -14.653   9.141  0.00  0.00    -0.327 N 
ATOM     25  C   UNL d   1      28.581 -14.375  10.388  0.00  0.00     0.218 C 
ATOM     26  C   UNL d   1      27.817 -13.115  10.715  0.00  0.00     0.117 C 
ATOM     27  O   UNL d   1      28.765 -15.200  11.290  0.00  0.00    -0.274 OA
ATOM     28  H   UNL d   1      29.631 -15.511   9.158  0.00  0.00     0.169 HD
ENDBRANCH  20  24
BRANCH  23  29
ATOM     29  O   UNL d   1      28.389 -11.799   4.385  0.00  0.00    -0.354 OA
ATOM     30  C   UNL d   1      27.405 -12.349   3.511  0.00  0.00     0.210 C 
ENDBRANCH  23  29
ENDBRANCH  15  18
ENDBRANCH   1  14
BRANCH   8  31
ATOM     31  C   UNL d   1      26.539 -16.316  -1.839  0.00  0.00     0.175 C 
BRANCH  31  32
ATOM     32  C   UNL d   1      25.266 -16.926  -1.314  0.00  0.00    -0.040 A 
ATOM     33  C   UNL d   1      25.286 -18.078  -0.519  0.00  0.00     0.009 A 
ATOM     34  C   UNL d   1      24.094 -18.575   0.008  0.00  0.00     0.001 A 
ATOM     35  C   UNL d   1      22.906 -17.859  -0.143  0.00  0.00     0.000 A 
ATOM     36  C   UNL d   1      22.884 -16.689  -0.895  0.00  0.00     0.001 A 
ATOM     37  C   UNL d   1      24.044 -16.263  -1.530  0.00  0.00     0.009 A 
ENDBRANCH  31  32
ENDBRANCH   8  31
TORSDOF 6
ENDMDL
MODEL 8
REMARK VINA RESULT:    -8.488      4.354      8.996
REMARK INTER + INTRA:         -11.810
REMARK INTER:                 -10.278
REMARK INTRA:                  -1.532
REMARK CONF_INDEPENDENT:        1.790
REMARK UNBOUND:                -1.532
REMARK  6 active torsions:
REMARK  status: ('A' for Active; 'I' for Inactive)
REMARK    1  A    between atoms: O_2  and  C_3 
REMARK    2  A    between atoms: C_6  and  N_7 
REMARK       I    between atoms: N_7  and  C_8 
REMARK    3  A    between atoms: C_12  and  N_13 
REMARK       I    between atoms: N_13  and  C_14 
REMARK    4  A    between atoms: C_14  and  C_16 
REMARK    5  A    between atoms: N_23  and  C_24 
REMARK    6  A    between atoms: C_24  and  C_25 
ROOT
ATOM      1  C   UNL d   1      28.618 -16.766  -0.982  0.00  0.00     0.077 C 
ATOM      2  C   UNL d   1      29.689 -17.061  -0.159  0.00  0.00     0.110 C 
ATOM      3  N   UNL d   1      30.800 -17.274  -0.921  0.00  0.00    -0.354 N 
ATOM      4  C   UNL d   1      32.014 -17.840  -0.386  0.00  0.00     0.156 C 
ATOM      5  C   UNL d   1      30.515 -16.948  -2.219  0.00  0.00     0.131 C 
ATOM      6  C   UNL d   1      31.338 -17.010  -3.401  0.00  0.00     0.281 C 
ATOM      7  O   UNL d   1      32.486 -17.447  -3.390  0.00  0.00    -0.265 OA
ATOM      8  N   UNL d   1      30.684 -16.563  -4.565  0.00  0.00    -0.260 N 
ATOM      9  C   UNL d   1      29.348 -16.150  -4.581  0.00  0.00     0.330 C 
ATOM     10  O   UNL d   1      28.643 -15.878  -5.549  0.00  0.00    -0.246 OA
ATOM     11  N   UNL d   1      28.688 -16.052  -3.396  0.00  0.00    -0.305 N 
ATOM     12  C   UNL d   1      29.204 -16.535  -2.239  0.00  0.00     0.086 C 
ATOM     13  H   UNL d   1      27.760 -15.661  -3.466  0.00  0.00     0.171 HD
ENDROOT
BRANCH   1  14
ATOM     14  C   UNL d   1      27.275 -16.685  -0.419  0.00  0.00     0.260 C 
ATOM     15  N   UNL d   1      26.300 -17.442  -1.051  0.00  0.00    -0.320 N 
ATOM     16  H   UNL d   1      26.575 -18.328  -1.453  0.00  0.00     0.169 HD
ATOM     17  O   UNL d   1      27.056 -15.957   0.526  0.00  0.00    -0.267 OA
BRANCH  15  18
ATOM     18  C   UNL d   1      24.916 -17.136  -0.962  0.00  0.00     0.070 C 
ATOM     19  C   UNL d   1      24.150 -18.018  -0.201  0.00  0.00     0.062 C 
ATOM     20  C   UNL d   1      22.765 -17.947  -0.071  0.00  0.00     0.037 C 
ATOM     21  C   UNL d   1      22.155 -16.780  -0.528  0.00  0.00     0.032 C 
ATOM     22  C   UNL d   1      22.905 -15.848  -1.271  0.00  0.00     0.041 C 
ATOM     23  C   UNL d   1      24.266 -16.062  -1.562  0.00  0.00     0.095 C 
BRANCH  20  24
ATOM     24  N   UNL d   1      21.983 -18.981   0.495  0.00  0.00    -0.327 N 
ATOM     25  C   UNL d   1      20.846 -19.614   0.058  0.00  0.00     0.218 C 
ATOM     26  C   UNL d   1      20.190 -19.325  -1.271  0.00  0.00     0.117 C 
ATOM     27  O   UNL d   1      20.331 -20.466   0.793  0.00  0.00    -0.274 OA
ATOM     28  H   UNL d   1      22.209 -19.265   1.446  0.00  0.00     0.169 HD
ENDBRANCH  20  24
BRANCH  23  29
ATOM     29  O   UNL d   1      24.840 -15.135  -2.385  0.00  0.00    -0.354 OA
ATOM     30  C   UNL d   1      25.532 -15.633  -3.529  0.00  0.00     0.210 C 
ENDBRANCH  23  29
ENDBRANCH  15  18
ENDBRANCH   1  14
BRANCH   8  31
ATOM     31  C   UNL d   1      31.481 -16.645  -5.794  0.00  0.00     0.175 C 
BRANCH  31  32
ATOM     32  C   UNL d   1      31.326 -17.898  -6.615  0.00  0.00    -0.040 A 
ATOM     33  C   UNL d   1      30.777 -19.063  -6.067  0.00  0.00     0.009 A 
ATOM     34  C   UNL d   1      30.584 -20.184  -6.875  0.00  0.00     0.001 A 
ATOM     35  C   UNL d   1      30.810 -20.106  -8.249  0.00  0.00     0.000 A 
ATOM     36  C   UNL d   1      31.315 -18.938  -8.811  0.00  0.00     0.001 A 
ATOM     37  C   UNL d   1      31.632 -17.864  -7.988  0.00  0.00     0.009 A 
ENDBRANCH  31  32
ENDBRANCH   8  31
TORSDOF 6
ENDMDL
MODEL 9
REMARK VINA RESULT:    -8.146      4.808      8.196
REMARK INTER + INTRA:         -11.492
REMARK INTER:                  -9.936
REMARK INTRA:                  -1.556
REMARK CONF_INDEPENDENT:        1.790
REMARK UNBOUND:                -1.556
REMARK  6 active torsions:
REMARK  status: ('A' for Active; 'I' for Inactive)
REMARK    1  A    between atoms: O_2  and  C_3 
REMARK    2  A    between atoms: C_6  and  N_7 
REMARK       I    between atoms: N_7  and  C_8 
REMARK    3  A    between atoms: C_12  and  N_13 
REMARK       I    between atoms: N_13  and  C_14 
REMARK    4  A    between atoms: C_14  and  C_16 
REMARK    5  A    between atoms: N_23  and  C_24 
REMARK    6  A    between atoms: C_24  and  C_25 
ROOT
ATOM      1  C   UNL d   1      28.992 -15.843  -4.477  0.00  0.00     0.077 C 
ATOM      2  C   UNL d   1      28.505 -14.727  -5.131  0.00  0.00     0.110 C 
ATOM      3  N   UNL d   1      27.340 -14.330  -4.544  0.00  0.00    -0.354 N 
ATOM      4  C   UNL d   1      26.462 -13.353  -5.141  0.00  0.00     0.156 C 
ATOM      5  C   UNL d   1      27.146 -15.063  -3.405  0.00  0.00     0.131 C 
ATOM      6  C   UNL d   1      26.069 -15.037  -2.449  0.00  0.00     0.281 C 
ATOM      7  O   UNL d   1      25.081 -14.319  -2.579  0.00  0.00    -0.265 OA
ATOM      8  N   UNL d   1      26.242 -15.940  -1.382  0.00  0.00    -0.260 N 
ATOM      9  C   UNL d   1      27.329 -16.814  -1.290  0.00  0.00     0.330 C 
ATOM     10  O   UNL d   1      27.509 -17.729  -0.491  0.00  0.00    -0.246 OA
ATOM     11  N   UNL d   1      28.330 -16.699  -2.203  0.00  0.00    -0.305 N 
ATOM     12  C   UNL d   1      28.216 -15.920  -3.307  0.00  0.00     0.086 C 
ATOM     13  H   UNL d   1      29.126 -17.294  -2.027  0.00  0.00     0.171 HD
ENDROOT
BRANCH   1  14
ATOM     14  C   UNL d   1      30.128 -16.570  -5.034  0.00  0.00     0.260 C 
ATOM     15  N   UNL d   1      30.051 -16.882  -6.383  0.00  0.00    -0.320 N 
ATOM     16  H   UNL d   1      29.582 -16.229  -6.995  0.00  0.00     0.169 HD
ATOM     17  O   UNL d   1      31.050 -16.896  -4.317  0.00  0.00    -0.267 OA
BRANCH  15  18
ATOM     18  C   UNL d   1      30.786 -17.950  -6.963  0.00  0.00     0.070 C 
ATOM     19  C   UNL d   1      30.550 -19.212  -6.421  0.00  0.00     0.062 C 
ATOM     20  C   UNL d   1      31.238 -20.367  -6.783  0.00  0.00     0.037 C 
ATOM     21  C   UNL d   1      32.029 -20.288  -7.928  0.00  0.00     0.032 C 
ATOM     22  C   UNL d   1      32.263 -19.035  -8.526  0.00  0.00     0.041 C 
ATOM     23  C   UNL d   1      31.712 -17.852  -7.998  0.00  0.00     0.095 C 
BRANCH  20  24
ATOM     24  N   UNL d   1      31.161 -21.579  -6.057  0.00  0.00    -0.327 N 
ATOM     25  C   UNL d   1      31.241 -21.849  -4.714  0.00  0.00     0.218 C 
ATOM     26  C   UNL d   1      31.384 -20.781  -3.656  0.00  0.00     0.117 C 
ATOM     27  O   UNL d   1      31.192 -23.031  -4.351  0.00  0.00    -0.274 OA
ATOM     28  H   UNL d   1      31.150 -22.442  -6.597  0.00  0.00     0.169 HD
ENDBRANCH  20  24
BRANCH  23  29
ATOM     29  O   UNL d   1      32.112 -16.697  -8.609  0.00  0.00    -0.354 OA
ATOM     30  C   UNL d   1      32.791 -15.742  -7.795  0.00  0.00     0.210 C 
ENDBRANCH  23  29
ENDBRANCH  15  18
ENDBRANCH   1  14
BRANCH   8  31
ATOM     31  C   UNL d   1      25.147 -15.965  -0.406  0.00  0.00     0.175 C 
BRANCH  31  32
ATOM     32  C   UNL d   1      24.092 -17.021  -0.605  0.00  0.00    -0.040 A 
ATOM     33  C   UNL d   1      24.371 -18.376  -0.396  0.00  0.00     0.009 A 
ATOM     34  C   UNL d   1      23.352 -19.321  -0.522  0.00  0.00     0.001 A 
ATOM     35  C   UNL d   1      22.035 -18.909  -0.723  0.00  0.00     0.000 A 
ATOM     36  C   UNL d   1      21.739 -17.560  -0.889  0.00  0.00     0.001 A 
ATOM     37  C   UNL d   1      22.772 -16.630  -0.895  0.00  0.00     0.009 A 
ENDBRANCH  31  32
ENDBRANCH   8  31
TORSDOF 6
ENDMDL
