MODEL 1
REMARK VINA RESULT:    -9.612      0.000      0.000
REMARK INTER + INTRA:         -11.883
REMARK INTER:                 -11.103
REMARK INTRA:                  -0.780
REMARK CONF_INDEPENDENT:        1.492
REMARK UNBOUND:                -0.780
REMARK  5 active torsions:
REMARK  status: ('A' for Active; 'I' for Inactive)
REMARK    1  A    between atoms: C_2  and  C_4 
REMARK    2  A    between atoms: C_4  and  C_5 
REMARK       I    between atoms: C_5  and  N_7 
REMARK    3  A    between atoms: N_7  and  N_8 
REMARK       I    between atoms: N_8  and  C_9 
REMARK    4  A    between atoms: C_9  and  C_11 
REMARK    5  A    between atoms: C_14  and  C_15 
ROOT
ATOM      1  C   UNL d   1      24.146 -17.319  -0.839  0.00  0.00     0.145 A 
ATOM      2  C   UNL d   1      25.319 -17.706  -0.211  0.00  0.00     0.046 A 
ATOM      3  C   UNL d   1      26.395 -17.123  -0.919  0.00  0.00     0.041 A 
ATOM      4  C   UNL d   1      25.851 -16.386  -1.950  0.00  0.00     0.086 A 
ATOM      5  O   UNL d   1      24.477 -16.506  -1.921  0.00  0.00    -0.304 OA
ENDROOT
BRANCH   1   6
ATOM      6  C   UNL d   1      22.754 -17.680  -0.541  0.00  0.00     0.293 C 
ATOM      7  N   UNL d   1      22.566 -18.951   0.011  0.00  0.00    -0.262 N 
ATOM      8  H   UNL d   1      23.339 -19.541   0.318  0.00  0.00     0.190 HD
ATOM      9  O   UNL d   1      21.780 -16.958  -0.790  0.00  0.00    -0.264 OA
BRANCH   7  10
ATOM     10  N   UNL d   1      21.258 -19.451   0.314  0.00  0.00    -0.267 N 
ATOM     11  C   UNL d   1      20.356 -19.589  -0.732  0.00  0.00     0.236 C 
ATOM     12  O   UNL d   1      20.699 -19.326  -1.887  0.00  0.00    -0.272 OA
ATOM     13  H   UNL d   1      21.074 -19.722   1.278  0.00  0.00     0.190 HD
BRANCH  11  14
ATOM     14  C   UNL d   1      18.941 -20.072  -0.361  0.00  0.00     0.108 C 
BRANCH  14  15
ATOM     15  C   UNL d   1      18.905 -20.934   0.928  0.00  0.00    -0.014 C 
ATOM     16  C   UNL d   1      18.935 -20.075   2.201  0.00  0.00     0.010 C 
ATOM     17  C   UNL d   1      17.654 -21.818   0.983  0.00  0.00     0.010 C 
ENDBRANCH  14  15
ENDBRANCH  11  14
ENDBRANCH   7  10
ENDBRANCH   1   6
BRANCH   4  18
ATOM     18  C   UNL d   1      26.503 -15.575  -2.986  0.00  0.00    -0.002 A 
ATOM     19  C   UNL d   1      25.721 -14.880  -3.931  0.00  0.00     0.016 A 
ATOM     20  C   UNL d   1      26.306 -14.216  -5.021  0.00  0.00     0.024 A 
ATOM     21  C   UNL d   1      27.686 -14.252  -5.190  0.00  0.00     0.034 A 
ATOM     22 CL   UNL d   1      28.407 -13.454  -6.536  0.00  0.00    -0.084 Cl
ATOM     23  C   UNL d   1      28.480 -14.942  -4.275  0.00  0.00     0.024 A 
ATOM     24  C   UNL d   1      27.892 -15.599  -3.180  0.00  0.00     0.016 A 
ENDBRANCH   4  18
TORSDOF 5
ENDMDL
MODEL 2
REMARK VINA RESULT:    -9.465      1.107      1.248
REMARK INTER + INTRA:         -11.814
REMARK INTER:                 -10.956
REMARK INTRA:                  -0.858
REMARK CONF_INDEPENDENT:        1.492
REMARK UNBOUND:                -0.858
REMARK  5 active torsions:
REMARK  status: ('A' for Active; 'I' for Inactive)
REMARK    1  A    between atoms: C_2  and  C_4 
REMARK    2  A    between atoms: C_4  and  C_5 
REMARK       I    between atoms: C_5  and  N_7 
REMARK    3  A    between atoms: N_7  and  N_8 
REMARK       I    between atoms: N_8  and  C_9 
REMARK    4  A    between atoms: C_9  and  C_11 
REMARK    5  A    between atoms: C_14  and  C_15 
ROOT
ATOM      1  C   UNL d   1      24.367 -17.580  -1.248  0.00  0.00     0.145 A 
ATOM      2  C   UNL d   1      25.473 -17.481  -0.419  0.00  0.00     0.046 A 
ATOM      3  C   UNL d   1      26.312 -16.472  -0.945  0.00  0.00     0.041 A 
ATOM      4  C   UNL d   1      25.691 -15.974  -2.072  0.00  0.00     0.086 A 
ATOM      5  O   UNL d   1      24.506 -16.650  -2.276  0.00  0.00    -0.304 OA
ENDROOT
BRANCH   1   6
ATOM      6  C   UNL d   1      23.221 -18.497  -1.184  0.00  0.00     0.293 C 
ATOM      7  N   UNL d   1      22.467 -18.438  -0.009  0.00  0.00    -0.262 N 
ATOM      8  H   UNL d   1      22.606 -17.721   0.703  0.00  0.00     0.190 HD
ATOM      9  O   UNL d   1      22.937 -19.315  -2.068  0.00  0.00    -0.264 OA
BRANCH   7  10
ATOM     10  N   UNL d   1      21.346 -19.304   0.206  0.00  0.00    -0.267 N 
ATOM     11  C   UNL d   1      20.168 -19.024  -0.473  0.00  0.00     0.236 C 
ATOM     12  O   UNL d   1      20.116 -18.082  -1.265  0.00  0.00    -0.272 OA
ATOM     13  H   UNL d   1      21.488 -20.109   0.813  0.00  0.00     0.190 HD
BRANCH  11  14
ATOM     14  C   UNL d   1      18.967 -19.941  -0.172  0.00  0.00     0.108 C 
BRANCH  14  15
ATOM     15  C   UNL d   1      19.195 -20.874   1.046  0.00  0.00    -0.014 C 
ATOM     16  C   UNL d   1      19.371 -20.087   2.353  0.00  0.00     0.010 C 
ATOM     17  C   UNL d   1      18.032 -21.854   1.235  0.00  0.00     0.010 C 
ENDBRANCH  14  15
ENDBRANCH  11  14
ENDBRANCH   7  10
ENDBRANCH   1   6
BRANCH   4  18
ATOM     18  C   UNL d   1      26.111 -14.916  -3.000  0.00  0.00    -0.002 A 
ATOM     19  C   UNL d   1      25.503 -13.646  -2.940  0.00  0.00     0.016 A 
ATOM     20  C   UNL d   1      25.771 -12.658  -3.901  0.00  0.00     0.024 A 
ATOM     21  C   UNL d   1      26.642 -12.935  -4.949  0.00  0.00     0.034 A 
ATOM     22 CL   UNL d   1      26.960 -11.733  -6.141  0.00  0.00    -0.084 Cl
ATOM     23  C   UNL d   1      27.247 -14.188  -5.037  0.00  0.00     0.024 A 
ATOM     24  C   UNL d   1      26.983 -15.173  -4.068  0.00  0.00     0.016 A 
ENDBRANCH   4  18
TORSDOF 5
ENDMDL
MODEL 3
REMARK VINA RESULT:    -8.579      1.475      2.036
REMARK INTER + INTRA:         -11.779
REMARK INTER:                 -10.070
REMARK INTRA:                  -1.709
REMARK CONF_INDEPENDENT:        1.492
REMARK UNBOUND:                -1.709
REMARK  5 active torsions:
REMARK  status: ('A' for Active; 'I' for Inactive)
REMARK    1  A    between atoms: C_2  and  C_4 
REMARK    2  A    between atoms: C_4  and  C_5 
REMARK       I    between atoms: C_5  and  N_7 
REMARK    3  A    between atoms: N_7  and  N_8 
REMARK       I    between atoms: N_8  and  C_9 
REMARK    4  A    between atoms: C_9  and  C_11 
REMARK    5  A    between atoms: C_14  and  C_15 
ROOT
ATOM      1  C   UNL d   1      25.164 -17.044  -0.847  0.00  0.00     0.145 A 
ATOM      2  C   UNL d   1      26.173 -16.434  -0.119  0.00  0.00     0.046 A 
ATOM      3  C   UNL d   1      26.669 -15.361  -0.894  0.00  0.00     0.041 A 
ATOM      4  C   UNL d   1      25.943 -15.336  -2.066  0.00  0.00     0.086 A 
ATOM      5  O   UNL d   1      25.026 -16.367  -2.057  0.00  0.00    -0.304 OA
ENDROOT
BRANCH   1   6
ATOM      6  C   UNL d   1      24.355 -18.227  -0.527  0.00  0.00     0.293 C 
ATOM      7  N   UNL d   1      22.971 -18.056  -0.626  0.00  0.00    -0.262 N 
ATOM      8  H   UNL d   1      22.544 -17.219  -1.023  0.00  0.00     0.190 HD
ATOM      9  O   UNL d   1      24.824 -19.307  -0.145  0.00  0.00    -0.264 OA
BRANCH   7  10
ATOM     10  N   UNL d   1      22.059 -19.114  -0.304  0.00  0.00    -0.267 N 
ATOM     11  C   UNL d   1      20.728 -18.955  -0.659  0.00  0.00     0.236 C 
ATOM     12  O   UNL d   1      20.362 -17.949  -1.270  0.00  0.00    -0.272 OA
ATOM     13  H   UNL d   1      22.449 -19.949   0.128  0.00  0.00     0.190 HD
BRANCH  11  14
ATOM     14  C   UNL d   1      19.766 -20.086  -0.244  0.00  0.00     0.108 C 
BRANCH  14  15
ATOM     15  C   UNL d   1      19.096 -19.848   1.134  0.00  0.00    -0.014 C 
ATOM     16  C   UNL d   1      18.142 -20.988   1.519  0.00  0.00     0.010 C 
ATOM     17  C   UNL d   1      20.135 -19.701   2.251  0.00  0.00     0.010 C 
ENDBRANCH  14  15
ENDBRANCH  11  14
ENDBRANCH   7  10
ENDBRANCH   1   6
BRANCH   4  18
ATOM     18  C   UNL d   1      26.032 -14.433  -3.221  0.00  0.00    -0.002 A 
ATOM     19  C   UNL d   1      26.985 -14.675  -4.231  0.00  0.00     0.016 A 
ATOM     20  C   UNL d   1      27.199 -13.757  -5.272  0.00  0.00     0.024 A 
ATOM     21  C   UNL d   1      26.471 -12.573  -5.307  0.00  0.00     0.034 A 
ATOM     22 CL   UNL d   1      26.742 -11.435  -6.572  0.00  0.00    -0.084 Cl
ATOM     23  C   UNL d   1      25.531 -12.305  -4.313  0.00  0.00     0.024 A 
ATOM     24  C   UNL d   1      25.313 -13.230  -3.276  0.00  0.00     0.016 A 
ENDBRANCH   4  18
TORSDOF 5
ENDMDL
MODEL 4
REMARK VINA RESULT:    -8.477      4.065      9.147
REMARK INTER + INTRA:         -10.864
REMARK INTER:                  -9.969
REMARK INTRA:                  -0.895
REMARK CONF_INDEPENDENT:        1.492
REMARK UNBOUND:                -0.895
REMARK  5 active torsions:
REMARK  status: ('A' for Active; 'I' for Inactive)
REMARK    1  A    between atoms: C_2  and  C_4 
REMARK    2  A    between atoms: C_4  and  C_5 
REMARK       I    between atoms: C_5  and  N_7 
REMARK    3  A    between atoms: N_7  and  N_8 
REMARK       I    between atoms: N_8  and  C_9 
REMARK    4  A    between atoms: C_9  and  C_11 
REMARK    5  A    between atoms: C_14  and  C_15 
ROOT
ATOM      1  C   UNL d   1      24.944 -16.462  -1.694  0.00  0.00     0.145 A 
ATOM      2  C   UNL d   1      25.637 -17.154  -0.713  0.00  0.00     0.046 A 
ATOM      3  C   UNL d   1      24.712 -17.989  -0.045  0.00  0.00     0.041 A 
ATOM      4  C   UNL d   1      23.485 -17.795  -0.642  0.00  0.00     0.086 A 
ATOM      5  O   UNL d   1      23.608 -16.856  -1.645  0.00  0.00    -0.304 OA
ENDROOT
BRANCH   1   6
ATOM      6  C   UNL d   1      25.415 -15.439  -2.636  0.00  0.00     0.293 C 
ATOM      7  N   UNL d   1      26.748 -15.558  -3.039  0.00  0.00    -0.262 N 
ATOM      8  H   UNL d   1      27.325 -16.369  -2.813  0.00  0.00     0.190 HD
ATOM      9  O   UNL d   1      24.725 -14.491  -3.033  0.00  0.00    -0.264 OA
BRANCH   7  10
ATOM     10  N   UNL d   1      27.351 -14.606  -3.923  0.00  0.00    -0.267 N 
ATOM     11  C   UNL d   1      27.075 -14.711  -5.279  0.00  0.00     0.236 C 
ATOM     12  O   UNL d   1      26.299 -15.576  -5.690  0.00  0.00    -0.272 OA
ATOM     13  H   UNL d   1      27.916 -13.871  -3.502  0.00  0.00     0.190 HD
BRANCH  11  14
ATOM     14  C   UNL d   1      27.788 -13.707  -6.206  0.00  0.00     0.108 C 
BRANCH  14  15
ATOM     15  C   UNL d   1      29.049 -14.294  -6.894  0.00  0.00    -0.014 C 
ATOM     16  C   UNL d   1      30.209 -13.289  -6.929  0.00  0.00     0.010 C 
ATOM     17  C   UNL d   1      29.540 -15.562  -6.187  0.00  0.00     0.010 C 
ENDBRANCH  14  15
ENDBRANCH  11  14
ENDBRANCH   7  10
ENDBRANCH   1   6
BRANCH   4  18
ATOM     18  C   UNL d   1      22.180 -18.405  -0.355  0.00  0.00    -0.002 A 
ATOM     19  C   UNL d   1      21.780 -18.615   0.981  0.00  0.00     0.016 A 
ATOM     20  C   UNL d   1      20.610 -19.325   1.293  0.00  0.00     0.024 A 
ATOM     21  C   UNL d   1      19.830 -19.853   0.270  0.00  0.00     0.034 A 
ATOM     22 CL   UNL d   1      18.404 -20.741   0.649  0.00  0.00    -0.084 Cl
ATOM     23  C   UNL d   1      20.211 -19.669  -1.059  0.00  0.00     0.024 A 
ATOM     24  C   UNL d   1      21.379 -18.950  -1.369  0.00  0.00     0.016 A 
ENDBRANCH   4  18
TORSDOF 5
ENDMDL
MODEL 5
REMARK VINA RESULT:    -8.380      2.733      3.032
REMARK INTER + INTRA:         -10.735
REMARK INTER:                  -9.872
REMARK INTRA:                  -0.863
REMARK CONF_INDEPENDENT:        1.492
REMARK UNBOUND:                -0.863
REMARK  5 active torsions:
REMARK  status: ('A' for Active; 'I' for Inactive)
REMARK    1  A    between atoms: C_2  and  C_4 
REMARK    2  A    between atoms: C_4  and  C_5 
REMARK       I    between atoms: C_5  and  N_7 
REMARK    3  A    between atoms: N_7  and  N_8 
REMARK       I    between atoms: N_8  and  C_9 
REMARK    4  A    between atoms: C_9  and  C_11 
REMARK    5  A    between atoms: C_14  and  C_15 
ROOT
ATOM      1  C   UNL d   1      24.856 -17.612  -0.485  0.00  0.00     0.145 A 
ATOM      2  C   UNL d   1      26.131 -18.062  -0.180  0.00  0.00     0.046 A 
ATOM      3  C   UNL d   1      26.959 -16.927  -0.026  0.00  0.00     0.041 A 
ATOM      4  C   UNL d   1      26.167 -15.816  -0.227  0.00  0.00     0.086 A 
ATOM      5  O   UNL d   1      24.881 -16.219  -0.520  0.00  0.00    -0.304 OA
ENDROOT
BRANCH   1   6
ATOM      6  C   UNL d   1      23.637 -18.372  -0.788  0.00  0.00     0.293 C 
ATOM      7  N   UNL d   1      22.887 -18.776   0.320  0.00  0.00    -0.262 N 
ATOM      8  H   UNL d   1      23.085 -18.458   1.269  0.00  0.00     0.190 HD
ATOM      9  O   UNL d   1      23.285 -18.694  -1.930  0.00  0.00    -0.264 OA
BRANCH   7  10
ATOM     10  N   UNL d   1      21.696 -19.559   0.174  0.00  0.00    -0.267 N 
ATOM     11  C   UNL d   1      20.604 -18.971  -0.449  0.00  0.00     0.236 C 
ATOM     12  O   UNL d   1      20.685 -17.825  -0.895  0.00  0.00    -0.272 OA
ATOM     13  H   UNL d   1      21.730 -20.525   0.494  0.00  0.00     0.190 HD
BRANCH  11  14
ATOM     14  C   UNL d   1      19.322 -19.821  -0.536  0.00  0.00     0.108 C 
BRANCH  14  15
ATOM     15  C   UNL d   1      19.140 -20.784   0.667  0.00  0.00    -0.014 C 
ATOM     16  C   UNL d   1      19.255 -20.056   2.014  0.00  0.00     0.010 C 
ATOM     17  C   UNL d   1      17.782 -21.493   0.625  0.00  0.00     0.010 C 
ENDBRANCH  14  15
ENDBRANCH  11  14
ENDBRANCH   7  10
ENDBRANCH   1   6
BRANCH   4  18
ATOM     18  C   UNL d   1      26.504 -14.387  -0.182  0.00  0.00    -0.002 A 
ATOM     19  C   UNL d   1      26.861 -13.711  -1.366  0.00  0.00     0.016 A 
ATOM     20  C   UNL d   1      27.330 -12.388  -1.343  0.00  0.00     0.024 A 
ATOM     21  C   UNL d   1      27.463 -11.725  -0.127  0.00  0.00     0.034 A 
ATOM     22 CL   UNL d   1      28.054 -10.108  -0.091  0.00  0.00    -0.084 Cl
ATOM     23  C   UNL d   1      27.127 -12.376   1.059  0.00  0.00     0.024 A 
ATOM     24  C   UNL d   1      26.650 -13.699   1.031  0.00  0.00     0.016 A 
ENDBRANCH   4  18
TORSDOF 5
ENDMDL
MODEL 6
REMARK VINA RESULT:    -8.239      3.265      3.934
REMARK INTER + INTRA:         -10.930
REMARK INTER:                  -9.731
REMARK INTRA:                  -1.199
REMARK CONF_INDEPENDENT:        1.492
REMARK UNBOUND:                -1.199
REMARK  5 active torsions:
REMARK  status: ('A' for Active; 'I' for Inactive)
REMARK    1  A    between atoms: C_2  and  C_4 
REMARK    2  A    between atoms: C_4  and  C_5 
REMARK       I    between atoms: C_5  and  N_7 
REMARK    3  A    between atoms: N_7  and  N_8 
REMARK       I    between atoms: N_8  and  C_9 
REMARK    4  A    between atoms: C_9  and  C_11 
REMARK    5  A    between atoms: C_14  and  C_15 
ROOT
ATOM      1  C   UNL d   1      24.642 -17.197  -1.350  0.00  0.00     0.145 A 
ATOM      2  C   UNL d   1      25.421 -16.692  -2.379  0.00  0.00     0.046 A 
ATOM      3  C   UNL d   1      26.296 -15.732  -1.821  0.00  0.00     0.041 A 
ATOM      4  C   UNL d   1      26.038 -15.685  -0.467  0.00  0.00     0.086 A 
ATOM      5  O   UNL d   1      25.021 -16.567  -0.166  0.00  0.00    -0.304 OA
ENDROOT
BRANCH   1   6
ATOM      6  C   UNL d   1      23.551 -18.178  -1.388  0.00  0.00     0.293 C 
ATOM      7  N   UNL d   1      22.845 -18.342  -0.193  0.00  0.00    -0.262 N 
ATOM      8  H   UNL d   1      22.976 -17.734   0.616  0.00  0.00     0.190 HD
ATOM      9  O   UNL d   1      23.272 -18.868  -2.377  0.00  0.00    -0.264 OA
BRANCH   7  10
ATOM     10  N   UNL d   1      21.781 -19.295  -0.075  0.00  0.00    -0.267 N 
ATOM     11  C   UNL d   1      20.541 -18.953  -0.596  0.00  0.00     0.236 C 
ATOM     12  O   UNL d   1      20.386 -17.878  -1.177  0.00  0.00    -0.272 OA
ATOM     13  H   UNL d   1      22.006 -20.195   0.345  0.00  0.00     0.190 HD
BRANCH  11  14
ATOM     14  C   UNL d   1      19.407 -19.978  -0.399  0.00  0.00     0.108 C 
BRANCH  14  15
ATOM     15  C   UNL d   1      19.431 -20.661   0.994  0.00  0.00    -0.014 C 
ATOM     16  C   UNL d   1      19.834 -19.686   2.110  0.00  0.00     0.010 C 
ATOM     17  C   UNL d   1      18.066 -21.257   1.355  0.00  0.00     0.010 C 
ENDBRANCH  14  15
ENDBRANCH  11  14
ENDBRANCH   7  10
ENDBRANCH   1   6
BRANCH   4  18
ATOM     18  C   UNL d   1      26.653 -14.873   0.590  0.00  0.00    -0.002 A 
ATOM     19  C   UNL d   1      26.279 -13.523   0.749  0.00  0.00     0.016 A 
ATOM     20  C   UNL d   1      26.947 -12.677   1.649  0.00  0.00     0.024 A 
ATOM     21  C   UNL d   1      28.013 -13.168   2.394  0.00  0.00     0.034 A 
ATOM     22 CL   UNL d   1      28.848 -12.130   3.486  0.00  0.00    -0.084 Cl
ATOM     23  C   UNL d   1      28.410 -14.497   2.247  0.00  0.00     0.024 A 
ATOM     24  C   UNL d   1      27.734 -15.344   1.350  0.00  0.00     0.016 A 
ENDBRANCH   4  18
TORSDOF 5
ENDMDL
MODEL 7
REMARK VINA RESULT:    -7.726      1.495      2.213
REMARK INTER + INTRA:         -10.770
REMARK INTER:                  -9.218
REMARK INTRA:                  -1.553
REMARK CONF_INDEPENDENT:        1.492
REMARK UNBOUND:                -1.553
REMARK  5 active torsions:
REMARK  status: ('A' for Active; 'I' for Inactive)
REMARK    1  A    between atoms: C_2  and  C_4 
REMARK    2  A    between atoms: C_4  and  C_5 
REMARK       I    between atoms: C_5  and  N_7 
REMARK    3  A    between atoms: N_7  and  N_8 
REMARK       I    between atoms: N_8  and  C_9 
REMARK    4  A    between atoms: C_9  and  C_11 
REMARK    5  A    between atoms: C_14  and  C_15 
ROOT
ATOM      1  C   UNL d   1      25.051 -16.511  -1.782  0.00  0.00     0.145 A 
ATOM      2  C   UNL d   1      24.503 -15.277  -2.094  0.00  0.00     0.046 A 
ATOM      3  C   UNL d   1      25.381 -14.634  -2.997  0.00  0.00     0.041 A 
ATOM      4  C   UNL d   1      26.434 -15.496  -3.222  0.00  0.00     0.086 A 
ATOM      5  O   UNL d   1      26.252 -16.643  -2.477  0.00  0.00    -0.304 OA
ENDROOT
BRANCH   1   6
ATOM      6  C   UNL d   1      24.573 -17.549  -0.861  0.00  0.00     0.293 C 
ATOM      7  N   UNL d   1      23.196 -17.792  -0.890  0.00  0.00    -0.262 N 
ATOM      8  H   UNL d   1      22.576 -17.385  -1.590  0.00  0.00     0.190 HD
ATOM      9  O   UNL d   1      25.297 -18.157  -0.063  0.00  0.00    -0.264 OA
BRANCH   7  10
ATOM     10  N   UNL d   1      22.586 -18.750  -0.015  0.00  0.00    -0.267 N 
ATOM     11  C   UNL d   1      21.217 -18.949  -0.123  0.00  0.00     0.236 C 
ATOM     12  O   UNL d   1      20.566 -18.345  -0.977  0.00  0.00    -0.272 OA
ATOM     13  H   UNL d   1      23.200 -19.268   0.609  0.00  0.00     0.190 HD
BRANCH  11  14
ATOM     14  C   UNL d   1      20.587 -19.942   0.873  0.00  0.00     0.108 C 
BRANCH  14  15
ATOM     15  C   UNL d   1      19.037 -19.879   0.905  0.00  0.00    -0.014 C 
ATOM     16  C   UNL d   1      18.408 -20.450  -0.373  0.00  0.00     0.010 C 
ATOM     17  C   UNL d   1      18.465 -20.649   2.101  0.00  0.00     0.010 C 
ENDBRANCH  14  15
ENDBRANCH  11  14
ENDBRANCH   7  10
ENDBRANCH   1   6
BRANCH   4  18
ATOM     18  C   UNL d   1      27.621 -15.345  -4.072  0.00  0.00    -0.002 A 
ATOM     19  C   UNL d   1      27.525 -14.660  -5.301  0.00  0.00     0.016 A 
ATOM     20  C   UNL d   1      28.597 -14.621  -6.206  0.00  0.00     0.024 A 
ATOM     21  C   UNL d   1      29.781 -15.284  -5.900  0.00  0.00     0.034 A 
ATOM     22 CL   UNL d   1      31.094 -15.256  -7.015  0.00  0.00    -0.084 Cl
ATOM     23  C   UNL d   1      29.898 -15.978  -4.696  0.00  0.00     0.024 A 
ATOM     24  C   UNL d   1      28.824 -16.008  -3.788  0.00  0.00     0.016 A 
ENDBRANCH   4  18
TORSDOF 5
ENDMDL
MODEL 8
REMARK VINA RESULT:    -7.658      4.603      9.195
REMARK INTER + INTRA:         -10.798
REMARK INTER:                  -9.150
REMARK INTRA:                  -1.649
REMARK CONF_INDEPENDENT:        1.492
REMARK UNBOUND:                -1.649
REMARK  5 active torsions:
REMARK  status: ('A' for Active; 'I' for Inactive)
REMARK    1  A    between atoms: C_2  and  C_4 
REMARK    2  A    between atoms: C_4  and  C_5 
REMARK       I    between atoms: C_5  and  N_7 
REMARK    3  A    between atoms: N_7  and  N_8 
REMARK       I    between atoms: N_8  and  C_9 
REMARK    4  A    between atoms: C_9  and  C_11 
REMARK    5  A    between atoms: C_14  and  C_15 
ROOT
ATOM      1  C   UNL d   1      24.913 -17.618  -0.044  0.00  0.00     0.145 A 
ATOM      2  C   UNL d   1      24.391 -16.564  -0.776  0.00  0.00     0.046 A 
ATOM      3  C   UNL d   1      22.999 -16.774  -0.896  0.00  0.00     0.041 A 
ATOM      4  C   UNL d   1      22.705 -17.943  -0.225  0.00  0.00     0.086 A 
ATOM      5  O   UNL d   1      23.868 -18.477   0.292  0.00  0.00    -0.304 OA
ENDROOT
BRANCH   1   6
ATOM      6  C   UNL d   1      26.304 -17.912   0.325  0.00  0.00     0.293 C 
ATOM      7  N   UNL d   1      27.276 -17.433  -0.557  0.00  0.00    -0.262 N 
ATOM      8  H   UNL d   1      27.060 -16.806  -1.332  0.00  0.00     0.190 HD
ATOM      9  O   UNL d   1      26.634 -18.576   1.316  0.00  0.00    -0.264 OA
BRANCH   7  10
ATOM     10  N   UNL d   1      28.671 -17.681  -0.343  0.00  0.00    -0.267 N 
ATOM     11  C   UNL d   1      29.575 -17.130  -1.239  0.00  0.00     0.236 C 
ATOM     12  O   UNL d   1      29.179 -16.415  -2.161  0.00  0.00    -0.272 OA
ATOM     13  H   UNL d   1      28.927 -18.214   0.486  0.00  0.00     0.190 HD
BRANCH  11  14
ATOM     14  C   UNL d   1      31.062 -17.467  -1.011  0.00  0.00     0.108 C 
BRANCH  14  15
ATOM     15  C   UNL d   1      31.779 -16.471  -0.063  0.00  0.00    -0.014 C 
ATOM     16  C   UNL d   1      30.870 -15.304   0.348  0.00  0.00     0.010 C 
ATOM     17  C   UNL d   1      32.273 -17.160   1.214  0.00  0.00     0.010 C 
ENDBRANCH  14  15
ENDBRANCH  11  14
ENDBRANCH   7  10
ENDBRANCH   1   6
BRANCH   4  18
ATOM     18  C   UNL d   1      21.422 -18.629  -0.024  0.00  0.00    -0.002 A 
ATOM     19  C   UNL d   1      21.031 -19.025   1.271  0.00  0.00     0.016 A 
ATOM     20  C   UNL d   1      19.886 -19.809   1.483  0.00  0.00     0.024 A 
ATOM     21  C   UNL d   1      19.123 -20.223   0.397  0.00  0.00     0.034 A 
ATOM     22 CL   UNL d   1      17.727 -21.200   0.650  0.00  0.00    -0.084 Cl
ATOM     23  C   UNL d   1      19.495 -19.854  -0.895  0.00  0.00     0.024 A 
ATOM     24  C   UNL d   1      20.638 -19.061  -1.104  0.00  0.00     0.016 A 
ENDBRANCH   4  18
TORSDOF 5
ENDMDL
MODEL 9
REMARK VINA RESULT:    -7.251      4.459      9.058
REMARK INTER + INTRA:         -10.745
REMARK INTER:                  -8.742
REMARK INTRA:                  -2.002
REMARK CONF_INDEPENDENT:        1.492
REMARK UNBOUND:                -2.002
REMARK  5 active torsions:
REMARK  status: ('A' for Active; 'I' for Inactive)
REMARK    1  A    between atoms: C_2  and  C_4 
REMARK    2  A    between atoms: C_4  and  C_5 
REMARK       I    between atoms: C_5  and  N_7 
REMARK    3  A    between atoms: N_7  and  N_8 
REMARK       I    between atoms: N_8  and  C_9 
REMARK    4  A    between atoms: C_9  and  C_11 
REMARK    5  A    between atoms: C_14  and  C_15 
ROOT
ATOM      1  C   UNL d   1      27.737 -16.415  -1.226  0.00  0.00     0.145 A 
ATOM      2  C   UNL d   1      27.983 -16.822   0.075  0.00  0.00     0.046 A 
ATOM      3  C   UNL d   1      26.772 -17.324   0.602  0.00  0.00     0.041 A 
ATOM      4  C   UNL d   1      25.823 -17.223  -0.393  0.00  0.00     0.086 A 
ATOM      5  O   UNL d   1      26.395 -16.658  -1.514  0.00  0.00    -0.304 OA
ENDROOT
BRANCH   1   6
ATOM      6  C   UNL d   1      28.634 -15.781  -2.201  0.00  0.00     0.293 C 
ATOM      7  N   UNL d   1      28.094 -15.580  -3.475  0.00  0.00    -0.262 N 
ATOM      8  H   UNL d   1      27.109 -15.731  -3.689  0.00  0.00     0.190 HD
ATOM      9  O   UNL d   1      29.809 -15.473  -1.965  0.00  0.00    -0.264 OA
BRANCH   7  10
ATOM     10  N   UNL d   1      28.870 -15.009  -4.536  0.00  0.00    -0.267 N 
ATOM     11  C   UNL d   1      28.271 -14.873  -5.780  0.00  0.00     0.236 C 
ATOM     12  O   UNL d   1      27.094 -15.200  -5.942  0.00  0.00    -0.272 OA
ATOM     13  H   UNL d   1      29.809 -14.688  -4.306  0.00  0.00     0.190 HD
BRANCH  11  14
ATOM     14  C   UNL d   1      29.154 -14.310  -6.910  0.00  0.00     0.108 C 
BRANCH  14  15
ATOM     15  C   UNL d   1      30.513 -15.044  -7.052  0.00  0.00    -0.014 C 
ATOM     16  C   UNL d   1      31.610 -14.403  -6.190  0.00  0.00     0.010 C 
ATOM     17  C   UNL d   1      30.402 -16.521  -6.658  0.00  0.00     0.010 C 
ENDBRANCH  14  15
ENDBRANCH  11  14
ENDBRANCH   7  10
ENDBRANCH   1   6
BRANCH   4  18
ATOM     18  C   UNL d   1      24.403 -17.599  -0.396  0.00  0.00    -0.002 A 
ATOM     19  C   UNL d   1      24.032 -18.949  -0.228  0.00  0.00     0.016 A 
ATOM     20  C   UNL d   1      22.700 -19.367  -0.370  0.00  0.00     0.024 A 
ATOM     21  C   UNL d   1      21.718 -18.439  -0.701  0.00  0.00     0.034 A 
ATOM     22 CL   UNL d   1      20.085 -18.950  -0.895  0.00  0.00    -0.084 Cl
ATOM     23  C   UNL d   1      22.061 -17.101  -0.884  0.00  0.00     0.024 A 
ATOM     24  C   UNL d   1      23.395 -16.683  -0.732  0.00  0.00     0.016 A 
ENDBRANCH   4  18
TORSDOF 5
ENDMDL
