MODEL 1
REMARK VINA RESULT:    -8.183      0.000      0.000
REMARK INTER + INTRA:         -11.592
REMARK INTER:                 -10.271
REMARK INTRA:                  -1.322
REMARK CONF_INDEPENDENT:        2.088
REMARK UNBOUND:                -1.322
REMARK  7 active torsions:
REMARK  status: ('A' for Active; 'I' for Inactive)
REMARK    1  A    between atoms: C_4  and  C_5 
REMARK    2  A    between atoms: C_6  and  C_7 
REMARK       I    between atoms: C_7  and  N_9 
REMARK    3  A    between atoms: N_9  and  C_10 
REMARK    4  A    between atoms: C_11  and  C_10 
REMARK    5  A    between atoms: C_11  and  C_13 
REMARK    6  A    between atoms: C_11  and  O_12 
REMARK    7  A    between atoms: C_16  and  N_17 
ROOT
ATOM      1  C   UNL d   1      26.620 -15.577  -2.770  0.00  0.00     0.223 C 
ATOM      2  O   UNL d   1      25.699 -16.297  -3.155  0.00  0.00    -0.273 OA
ATOM      3  N   UNL d   1      27.491 -15.952  -1.771  0.00  0.00    -0.358 N 
ATOM      4  H   UNL d   1      28.169 -15.295  -1.400  0.00  0.00     0.162 HD
ENDROOT
BRANCH   3   5
ATOM      5  C   UNL d   1      27.289 -17.208  -1.060  0.00  0.00     0.159 C 
BRANCH   5   6
ATOM      6  C   UNL d   1      26.254 -17.152   0.097  0.00  0.00     0.169 C 
BRANCH   6   7
ATOM      7  C   UNL d   1      24.845 -17.537  -0.326  0.00  0.00    -0.028 C 
ATOM      8  C   UNL d   1      23.872 -16.561  -0.602  0.00  0.00     0.012 C 
ATOM      9  C   UNL d   1      22.538 -16.909  -0.791  0.00  0.00     0.037 C 
ATOM     10  C   UNL d   1      22.186 -18.256  -0.870  0.00  0.00     0.102 C 
ATOM     11  C   UNL d   1      23.148 -19.254  -0.667  0.00  0.00     0.037 C 
ATOM     12  C   UNL d   1      24.471 -18.891  -0.389  0.00  0.00     0.012 C 
BRANCH  10  13
ATOM     13  N   UNL d   1      20.817 -18.614  -1.254  0.00  0.00    -0.116 N 
ATOM     14  O   UNL d   1      20.646 -19.702  -1.823  0.00  0.00    -0.532 OA
ATOM     15  O   UNL d   1      19.910 -17.823  -0.961  0.00  0.00    -0.532 OA
ENDBRANCH  10  13
ENDBRANCH   6   7
BRANCH   6  16
ATOM     16  O   UNL d   1      26.668 -17.968   1.196  0.00  0.00    -0.389 OA
ATOM     17  H   UNL d   1      27.424 -17.514   1.606  0.00  0.00     0.210 HD
ENDBRANCH   6  16
ENDBRANCH   5   6
ENDBRANCH   3   5
BRANCH   1  18
ATOM     18  C   UNL d   1      26.845 -14.222  -3.362  0.00  0.00     0.094 A 
ATOM     19  C   UNL d   1      26.562 -13.967  -4.844  0.00  0.00     0.030 A 
ATOM     20  C   UNL d   1      25.670 -13.349  -3.794  0.00  0.00    -0.027 A 
ATOM     21  C   UNL d   1      25.741 -11.867  -3.528  0.00  0.00     0.016 C 
ATOM     22  C   UNL d   1      24.273 -13.911  -3.680  0.00  0.00     0.016 C 
BRANCH  19  23
ATOM     23  C   UNL d   1      27.503 -13.161  -5.648  0.00  0.00    -0.019 C 
ATOM     24  C   UNL d   1      28.583 -13.659  -6.282  0.00  0.00    -0.091 C 
ATOM     25  C   UNL d   1      29.465 -12.802  -7.148  0.00  0.00     0.042 C 
ATOM     26  C   UNL d   1      28.913 -15.118  -6.160  0.00  0.00     0.042 C 
ENDBRANCH  19  23
ENDBRANCH   1  18
TORSDOF 7
ENDMDL
MODEL 2
REMARK VINA RESULT:    -8.109      5.215      7.432
REMARK INTER + INTRA:         -11.255
REMARK INTER:                 -10.197
REMARK INTRA:                  -1.058
REMARK CONF_INDEPENDENT:        2.088
REMARK UNBOUND:                -1.058
REMARK  7 active torsions:
REMARK  status: ('A' for Active; 'I' for Inactive)
REMARK    1  A    between atoms: C_4  and  C_5 
REMARK    2  A    between atoms: C_6  and  C_7 
REMARK       I    between atoms: C_7  and  N_9 
REMARK    3  A    between atoms: N_9  and  C_10 
REMARK    4  A    between atoms: C_11  and  C_10 
REMARK    5  A    between atoms: C_11  and  C_13 
REMARK    6  A    between atoms: C_11  and  O_12 
REMARK    7  A    between atoms: C_16  and  N_17 
ROOT
ATOM      1  C   UNL d   1      27.953 -13.503   2.552  0.00  0.00     0.223 C 
ATOM      2  O   UNL d   1      27.063 -12.735   2.184  0.00  0.00    -0.273 OA
ATOM      3  N   UNL d   1      28.236 -14.683   1.899  0.00  0.00    -0.358 N 
ATOM      4  H   UNL d   1      28.898 -15.346   2.289  0.00  0.00     0.162 HD
ENDROOT
BRANCH   3   5
ATOM      5  C   UNL d   1      27.410 -15.113   0.778  0.00  0.00     0.159 C 
BRANCH   5   6
ATOM      6  C   UNL d   1      27.258 -16.651   0.622  0.00  0.00     0.169 C 
BRANCH   6   7
ATOM      7  C   UNL d   1      25.895 -17.079   0.101  0.00  0.00    -0.028 C 
ATOM      8  C   UNL d   1      25.002 -16.151  -0.461  0.00  0.00     0.012 C 
ATOM      9  C   UNL d   1      23.686 -16.501  -0.750  0.00  0.00     0.037 C 
ATOM     10  C   UNL d   1      23.292 -17.834  -0.635  0.00  0.00     0.102 C 
ATOM     11  C   UNL d   1      24.182 -18.798  -0.143  0.00  0.00     0.037 C 
ATOM     12  C   UNL d   1      25.477 -18.416   0.229  0.00  0.00     0.012 C 
BRANCH  10  13
ATOM     13  N   UNL d   1      21.965 -18.229  -1.118  0.00  0.00    -0.116 N 
ATOM     14  O   UNL d   1      21.864 -19.325  -1.689  0.00  0.00    -0.532 OA
ATOM     15  O   UNL d   1      21.020 -17.460  -0.900  0.00  0.00    -0.532 OA
ENDBRANCH  10  13
ENDBRANCH   6   7
BRANCH   6  16
ATOM     16  O   UNL d   1      28.285 -17.186  -0.217  0.00  0.00    -0.389 OA
ATOM     17  H   UNL d   1      28.482 -18.075   0.123  0.00  0.00     0.210 HD
ENDBRANCH   6  16
ENDBRANCH   5   6
ENDBRANCH   3   5
BRANCH   1  18
ATOM     18  C   UNL d   1      28.786 -13.204   3.757  0.00  0.00     0.094 A 
ATOM     19  C   UNL d   1      28.129 -12.729   5.055  0.00  0.00     0.030 A 
ATOM     20  C   UNL d   1      28.741 -14.108   4.986  0.00  0.00    -0.027 A 
ATOM     21  C   UNL d   1      30.029 -14.396   5.714  0.00  0.00     0.016 C 
ATOM     22  C   UNL d   1      27.780 -15.274   4.990  0.00  0.00     0.016 C 
BRANCH  19  23
ATOM     23  C   UNL d   1      28.744 -11.637   5.837  0.00  0.00    -0.019 C 
ATOM     24  C   UNL d   1      28.793 -11.599   7.183  0.00  0.00    -0.091 C 
ATOM     25  C   UNL d   1      29.499 -10.498   7.925  0.00  0.00     0.042 C 
ATOM     26  C   UNL d   1      28.159 -12.699   7.984  0.00  0.00     0.042 C 
ENDBRANCH  19  23
ENDBRANCH   1  18
TORSDOF 7
ENDMDL
MODEL 3
REMARK VINA RESULT:    -7.848      1.320      1.741
REMARK INTER + INTRA:         -11.583
REMARK INTER:                  -9.936
REMARK INTRA:                  -1.647
REMARK CONF_INDEPENDENT:        2.088
REMARK UNBOUND:                -1.647
REMARK  7 active torsions:
REMARK  status: ('A' for Active; 'I' for Inactive)
REMARK    1  A    between atoms: C_4  and  C_5 
REMARK    2  A    between atoms: C_6  and  C_7 
REMARK       I    between atoms: C_7  and  N_9 
REMARK    3  A    between atoms: N_9  and  C_10 
REMARK    4  A    between atoms: C_11  and  C_10 
REMARK    5  A    between atoms: C_11  and  C_13 
REMARK    6  A    between atoms: C_11  and  O_12 
REMARK    7  A    between atoms: C_16  and  N_17 
ROOT
ATOM      1  C   UNL d   1      26.861 -14.058  -2.037  0.00  0.00     0.223 C 
ATOM      2  O   UNL d   1      26.368 -13.133  -1.391  0.00  0.00    -0.273 OA
ATOM      3  N   UNL d   1      26.923 -15.350  -1.561  0.00  0.00    -0.358 N 
ATOM      4  H   UNL d   1      27.433 -16.065  -2.067  0.00  0.00     0.162 HD
ENDROOT
BRANCH   3   5
ATOM      5  C   UNL d   1      26.475 -15.650  -0.207  0.00  0.00     0.159 C 
BRANCH   5   6
ATOM      6  C   UNL d   1      26.164 -17.147   0.068  0.00  0.00     0.169 C 
BRANCH   6   7
ATOM      7  C   UNL d   1      24.741 -17.549  -0.290  0.00  0.00    -0.028 C 
ATOM      8  C   UNL d   1      23.730 -16.588  -0.457  0.00  0.00     0.012 C 
ATOM      9  C   UNL d   1      22.395 -16.962  -0.584  0.00  0.00     0.037 C 
ATOM     10  C   UNL d   1      22.072 -18.312  -0.712  0.00  0.00     0.102 C 
ATOM     11  C   UNL d   1      23.068 -19.293  -0.619  0.00  0.00     0.037 C 
ATOM     12  C   UNL d   1      24.397 -18.908  -0.402  0.00  0.00     0.012 C 
BRANCH  10  13
ATOM     13  N   UNL d   1      20.691 -18.688  -1.032  0.00  0.00    -0.116 N 
ATOM     14  O   UNL d   1      20.482 -19.856  -1.393  0.00  0.00    -0.532 OA
ATOM     15  O   UNL d   1      19.813 -17.827  -0.894  0.00  0.00    -0.532 OA
ENDBRANCH  10  13
ENDBRANCH   6   7
BRANCH   6  16
ATOM     16  O   UNL d   1      27.091 -17.998  -0.611  0.00  0.00    -0.389 OA
ATOM     17  H   UNL d   1      27.790 -18.210   0.030  0.00  0.00     0.210 HD
ENDBRANCH   6  16
ENDBRANCH   5   6
ENDBRANCH   3   5
BRANCH   1  18
ATOM     18  C   UNL d   1      27.446 -13.831  -3.395  0.00  0.00     0.094 A 
ATOM     19  C   UNL d   1      27.218 -14.848  -4.516  0.00  0.00     0.030 A 
ATOM     20  C   UNL d   1      26.554 -13.493  -4.586  0.00  0.00    -0.027 A 
ATOM     21  C   UNL d   1      27.041 -12.469  -5.580  0.00  0.00     0.016 C 
ATOM     22  C   UNL d   1      25.058 -13.463  -4.383  0.00  0.00     0.016 C 
BRANCH  19  23
ATOM     23  C   UNL d   1      28.332 -15.223  -5.410  0.00  0.00    -0.019 C 
ATOM     24  C   UNL d   1      29.332 -16.060  -5.071  0.00  0.00    -0.091 C 
ATOM     25  C   UNL d   1      30.400 -16.465  -6.049  0.00  0.00     0.042 C 
ATOM     26  C   UNL d   1      29.379 -16.644  -3.688  0.00  0.00     0.042 C 
ENDBRANCH  19  23
ENDBRANCH   1  18
TORSDOF 7
ENDMDL
MODEL 4
REMARK VINA RESULT:    -7.842      5.088      7.542
REMARK INTER + INTRA:         -11.453
REMARK INTER:                  -9.930
REMARK INTRA:                  -1.523
REMARK CONF_INDEPENDENT:        2.088
REMARK UNBOUND:                -1.523
REMARK  7 active torsions:
REMARK  status: ('A' for Active; 'I' for Inactive)
REMARK    1  A    between atoms: C_4  and  C_5 
REMARK    2  A    between atoms: C_6  and  C_7 
REMARK       I    between atoms: C_7  and  N_9 
REMARK    3  A    between atoms: N_9  and  C_10 
REMARK    4  A    between atoms: C_11  and  C_10 
REMARK    5  A    between atoms: C_11  and  C_13 
REMARK    6  A    between atoms: C_11  and  O_12 
REMARK    7  A    between atoms: C_16  and  N_17 
ROOT
ATOM      1  C   UNL d   1      28.173 -14.849  -0.002  0.00  0.00     0.223 C 
ATOM      2  O   UNL d   1      28.554 -13.788  -0.496  0.00  0.00    -0.273 OA
ATOM      3  N   UNL d   1      28.532 -15.252   1.266  0.00  0.00    -0.358 N 
ATOM      4  H   UNL d   1      28.293 -16.179   1.603  0.00  0.00     0.162 HD
ENDROOT
BRANCH   3   5
ATOM      5  C   UNL d   1      29.470 -14.456   2.047  0.00  0.00     0.159 C 
BRANCH   5   6
ATOM      6  C   UNL d   1      28.914 -13.913   3.393  0.00  0.00     0.169 C 
BRANCH   6   7
ATOM      7  C   UNL d   1      28.058 -12.666   3.239  0.00  0.00    -0.028 C 
ATOM      8  C   UNL d   1      27.273 -12.454   2.093  0.00  0.00     0.012 C 
ATOM      9  C   UNL d   1      26.652 -11.230   1.862  0.00  0.00     0.037 C 
ATOM     10  C   UNL d   1      26.673 -10.254   2.857  0.00  0.00     0.102 C 
ATOM     11  C   UNL d   1      27.391 -10.462   4.042  0.00  0.00     0.037 C 
ATOM     12  C   UNL d   1      28.086 -11.664   4.225  0.00  0.00     0.012 C 
BRANCH  10  13
ATOM     13  N   UNL d   1      25.863  -9.043   2.685  0.00  0.00    -0.116 N 
ATOM     14  O   UNL d   1      26.325  -7.976   3.116  0.00  0.00    -0.532 OA
ATOM     15  O   UNL d   1      24.781  -9.152   2.094  0.00  0.00    -0.532 OA
ENDBRANCH  10  13
ENDBRANCH   6   7
BRANCH   6  16
ATOM     16  O   UNL d   1      28.177 -14.922   4.088  0.00  0.00    -0.389 OA
ATOM     17  H   UNL d   1      28.530 -15.776   3.786  0.00  0.00     0.210 HD
ENDBRANCH   6  16
ENDBRANCH   5   6
ENDBRANCH   3   5
BRANCH   1  18
ATOM     18  C   UNL d   1      27.293 -15.788  -0.764  0.00  0.00     0.094 A 
ATOM     19  C   UNL d   1      25.824 -15.962  -0.374  0.00  0.00     0.030 A 
ATOM     20  C   UNL d   1      26.179 -15.262  -1.664  0.00  0.00    -0.027 A 
ATOM     21  C   UNL d   1      25.937 -15.952  -2.983  0.00  0.00     0.016 C 
ATOM     22  C   UNL d   1      25.934 -13.773  -1.715  0.00  0.00     0.016 C 
BRANCH  19  23
ATOM     23  C   UNL d   1      25.220 -17.309  -0.353  0.00  0.00    -0.019 C 
ATOM     24  C   UNL d   1      23.897 -17.553  -0.448  0.00  0.00    -0.091 C 
ATOM     25  C   UNL d   1      23.345 -18.950  -0.497  0.00  0.00     0.042 C 
ATOM     26  C   UNL d   1      22.933 -16.406  -0.545  0.00  0.00     0.042 C 
ENDBRANCH  19  23
ENDBRANCH   1  18
TORSDOF 7
ENDMDL
MODEL 5
REMARK VINA RESULT:    -7.730      1.532      2.813
REMARK INTER + INTRA:         -10.954
REMARK INTER:                  -9.818
REMARK INTRA:                  -1.136
REMARK CONF_INDEPENDENT:        2.088
REMARK UNBOUND:                -1.136
REMARK  7 active torsions:
REMARK  status: ('A' for Active; 'I' for Inactive)
REMARK    1  A    between atoms: C_4  and  C_5 
REMARK    2  A    between atoms: C_6  and  C_7 
REMARK       I    between atoms: C_7  and  N_9 
REMARK    3  A    between atoms: N_9  and  C_10 
REMARK    4  A    between atoms: C_11  and  C_10 
REMARK    5  A    between atoms: C_11  and  C_13 
REMARK    6  A    between atoms: C_11  and  O_12 
REMARK    7  A    between atoms: C_16  and  N_17 
ROOT
ATOM      1  C   UNL d   1      25.824 -14.603  -3.460  0.00  0.00     0.223 C 
ATOM      2  O   UNL d   1      25.421 -15.476  -4.230  0.00  0.00    -0.273 OA
ATOM      3  N   UNL d   1      26.452 -14.893  -2.269  0.00  0.00    -0.358 N 
ATOM      4  H   UNL d   1      26.673 -14.157  -1.606  0.00  0.00     0.162 HD
ENDROOT
BRANCH   3   5
ATOM      5  C   UNL d   1      26.582 -16.277  -1.830  0.00  0.00     0.159 C 
BRANCH   5   6
ATOM      6  C   UNL d   1      25.837 -16.623  -0.511  0.00  0.00     0.169 C 
BRANCH   6   7
ATOM      7  C   UNL d   1      24.438 -17.178  -0.731  0.00  0.00    -0.028 C 
ATOM      8  C   UNL d   1      23.331 -16.328  -0.898  0.00  0.00     0.012 C 
ATOM      9  C   UNL d   1      22.033 -16.827  -0.895  0.00  0.00     0.037 C 
ATOM     10  C   UNL d   1      21.830 -18.207  -0.892  0.00  0.00     0.102 C 
ATOM     11  C   UNL d   1      22.918 -19.085  -0.795  0.00  0.00     0.037 C 
ATOM     12  C   UNL d   1      24.217 -18.567  -0.708  0.00  0.00     0.012 C 
BRANCH  10  13
ATOM     13  N   UNL d   1      20.473 -18.729  -1.078  0.00  0.00    -0.116 N 
ATOM     14  O   UNL d   1      20.353 -19.927  -1.377  0.00  0.00    -0.532 OA
ATOM     15  O   UNL d   1      19.526 -17.952  -0.896  0.00  0.00    -0.532 OA
ENDBRANCH  10  13
ENDBRANCH   6   7
BRANCH   6  16
ATOM     16  O   UNL d   1      26.598 -17.535   0.284  0.00  0.00    -0.389 OA
ATOM     17  H   UNL d   1      26.538 -17.216   1.201  0.00  0.00     0.210 HD
ENDBRANCH   6  16
ENDBRANCH   5   6
ENDBRANCH   3   5
BRANCH   1  18
ATOM     18  C   UNL d   1      25.641 -13.151  -3.769  0.00  0.00     0.094 A 
ATOM     19  C   UNL d   1      26.698 -12.130  -3.344  0.00  0.00     0.030 A 
ATOM     20  C   UNL d   1      26.515 -12.454  -4.807  0.00  0.00    -0.027 A 
ATOM     21  C   UNL d   1      25.873 -11.445  -5.726  0.00  0.00     0.016 C 
ATOM     22  C   UNL d   1      27.621 -13.243  -5.467  0.00  0.00     0.016 C 
BRANCH  19  23
ATOM     23  C   UNL d   1      26.283 -10.834  -2.770  0.00  0.00    -0.019 C 
ATOM     24  C   UNL d   1      27.082 -10.037  -2.032  0.00  0.00    -0.091 C 
ATOM     25  C   UNL d   1      26.628  -8.692  -1.536  0.00  0.00     0.042 C 
ATOM     26  C   UNL d   1      28.482 -10.475  -1.713  0.00  0.00     0.042 C 
ENDBRANCH  19  23
ENDBRANCH   1  18
TORSDOF 7
ENDMDL
MODEL 6
REMARK VINA RESULT:    -7.560      1.236      2.600
REMARK INTER + INTRA:         -11.528
REMARK INTER:                  -9.648
REMARK INTRA:                  -1.880
REMARK CONF_INDEPENDENT:        2.088
REMARK UNBOUND:                -1.880
REMARK  7 active torsions:
REMARK  status: ('A' for Active; 'I' for Inactive)
REMARK    1  A    between atoms: C_4  and  C_5 
REMARK    2  A    between atoms: C_6  and  C_7 
REMARK       I    between atoms: C_7  and  N_9 
REMARK    3  A    between atoms: N_9  and  C_10 
REMARK    4  A    between atoms: C_11  and  C_10 
REMARK    5  A    between atoms: C_11  and  C_13 
REMARK    6  A    between atoms: C_11  and  O_12 
REMARK    7  A    between atoms: C_16  and  N_17 
ROOT
ATOM      1  C   UNL d   1      26.127 -15.543  -2.995  0.00  0.00     0.223 C 
ATOM      2  O   UNL d   1      25.151 -16.292  -3.036  0.00  0.00    -0.273 OA
ATOM      3  N   UNL d   1      26.653 -15.068  -1.813  0.00  0.00    -0.358 N 
ATOM      4  H   UNL d   1      27.386 -14.367  -1.816  0.00  0.00     0.162 HD
ENDROOT
BRANCH   3   5
ATOM      5  C   UNL d   1      25.998 -15.375  -0.548  0.00  0.00     0.159 C 
BRANCH   5   6
ATOM      6  C   UNL d   1      25.849 -16.890  -0.233  0.00  0.00     0.169 C 
BRANCH   6   7
ATOM      7  C   UNL d   1      24.425 -17.405  -0.381  0.00  0.00    -0.028 C 
ATOM      8  C   UNL d   1      24.135 -18.779  -0.323  0.00  0.00     0.012 C 
ATOM      9  C   UNL d   1      22.874 -19.263  -0.657  0.00  0.00     0.037 C 
ATOM     10  C   UNL d   1      21.837 -18.363  -0.895  0.00  0.00     0.102 C 
ATOM     11  C   UNL d   1      22.079 -16.983  -0.893  0.00  0.00     0.037 C 
ATOM     12  C   UNL d   1      23.373 -16.510  -0.643  0.00  0.00     0.012 C 
BRANCH  10  13
ATOM     13  N   UNL d   1      20.473 -18.874  -1.062  0.00  0.00    -0.116 N 
ATOM     14  O   UNL d   1      19.545 -18.201  -0.590  0.00  0.00    -0.532 OA
ATOM     15  O   UNL d   1      20.326 -19.931  -1.690  0.00  0.00    -0.532 OA
ENDBRANCH  10  13
ENDBRANCH   6   7
BRANCH   6  16
ATOM     16  O   UNL d   1      26.732 -17.671  -1.042  0.00  0.00    -0.389 OA
ATOM     17  H   UNL d   1      26.502 -17.478  -1.966  0.00  0.00     0.210 HD
ENDBRANCH   6  16
ENDBRANCH   5   6
ENDBRANCH   3   5
BRANCH   1  18
ATOM     18  C   UNL d   1      26.805 -15.083  -4.246  0.00  0.00     0.094 A 
ATOM     19  C   UNL d   1      27.661 -13.814  -4.241  0.00  0.00     0.030 A 
ATOM     20  C   UNL d   1      28.322 -15.163  -4.391  0.00  0.00    -0.027 A 
ATOM     21  C   UNL d   1      28.895 -15.575  -5.723  0.00  0.00     0.016 C 
ATOM     22  C   UNL d   1      29.135 -15.651  -3.215  0.00  0.00     0.016 C 
BRANCH  19  23
ATOM     23  C   UNL d   1      27.569 -12.857  -5.363  0.00  0.00    -0.019 C 
ATOM     24  C   UNL d   1      26.690 -11.838  -5.424  0.00  0.00    -0.091 C 
ATOM     25  C   UNL d   1      26.692 -10.849  -6.556  0.00  0.00     0.042 C 
ATOM     26  C   UNL d   1      25.692 -11.646  -4.318  0.00  0.00     0.042 C 
ENDBRANCH  19  23
ENDBRANCH   1  18
TORSDOF 7
ENDMDL
MODEL 7
REMARK VINA RESULT:    -7.335      5.001      7.200
REMARK INTER + INTRA:         -11.186
REMARK INTER:                  -9.423
REMARK INTRA:                  -1.762
REMARK CONF_INDEPENDENT:        2.088
REMARK UNBOUND:                -1.762
REMARK  7 active torsions:
REMARK  status: ('A' for Active; 'I' for Inactive)
REMARK    1  A    between atoms: C_4  and  C_5 
REMARK    2  A    between atoms: C_6  and  C_7 
REMARK       I    between atoms: C_7  and  N_9 
REMARK    3  A    between atoms: N_9  and  C_10 
REMARK    4  A    between atoms: C_11  and  C_10 
REMARK    5  A    between atoms: C_11  and  C_13 
REMARK    6  A    between atoms: C_11  and  O_12 
REMARK    7  A    between atoms: C_16  and  N_17 
ROOT
ATOM      1  C   UNL d   1      27.144 -15.732   0.609  0.00  0.00     0.223 C 
ATOM      2  O   UNL d   1      27.405 -16.640   1.397  0.00  0.00    -0.273 OA
ATOM      3  N   UNL d   1      27.938 -14.614   0.469  0.00  0.00    -0.358 N 
ATOM      4  H   UNL d   1      27.640 -13.834  -0.106  0.00  0.00     0.162 HD
ENDROOT
BRANCH   3   5
ATOM      5  C   UNL d   1      29.093 -14.428   1.338  0.00  0.00     0.159 C 
BRANCH   5   6
ATOM      6  C   UNL d   1      28.770 -13.877   2.755  0.00  0.00     0.169 C 
BRANCH   6   7
ATOM      7  C   UNL d   1      28.148 -12.489   2.742  0.00  0.00    -0.028 C 
ATOM      8  C   UNL d   1      28.346 -11.588   3.802  0.00  0.00     0.012 C 
ATOM      9  C   UNL d   1      27.619 -10.404   3.886  0.00  0.00     0.037 C 
ATOM     10  C   UNL d   1      26.801 -10.027   2.822  0.00  0.00     0.102 C 
ATOM     11  C   UNL d   1      26.635 -10.873   1.718  0.00  0.00     0.037 C 
ATOM     12  C   UNL d   1      27.304 -12.103   1.685  0.00  0.00     0.012 C 
BRANCH  10  13
ATOM     13  N   UNL d   1      26.186  -8.696   2.834  0.00  0.00    -0.116 N 
ATOM     14  O   UNL d   1      25.211  -8.507   2.091  0.00  0.00    -0.532 OA
ATOM     15  O   UNL d   1      26.656  -7.850   3.605  0.00  0.00    -0.532 OA
ENDBRANCH  10  13
ENDBRANCH   6   7
BRANCH   6  16
ATOM     16  O   UNL d   1      27.926 -14.778   3.476  0.00  0.00    -0.389 OA
ATOM     17  H   UNL d   1      28.174 -15.673   3.191  0.00  0.00     0.210 HD
ENDBRANCH   6  16
ENDBRANCH   5   6
ENDBRANCH   3   5
BRANCH   1  18
ATOM     18  C   UNL d   1      25.921 -15.778  -0.252  0.00  0.00     0.094 A 
ATOM     19  C   UNL d   1      26.000 -16.321  -1.681  0.00  0.00     0.030 A 
ATOM     20  C   UNL d   1      25.271 -17.109  -0.619  0.00  0.00    -0.027 A 
ATOM     21  C   UNL d   1      23.765 -17.189  -0.644  0.00  0.00     0.016 C 
ATOM     22  C   UNL d   1      25.929 -18.387  -0.155  0.00  0.00     0.016 C 
BRANCH  19  23
ATOM     23  C   UNL d   1      25.286 -15.630  -2.773  0.00  0.00    -0.019 C 
ATOM     24  C   UNL d   1      25.463 -14.334  -3.098  0.00  0.00    -0.091 C 
ATOM     25  C   UNL d   1      24.763 -13.702  -4.270  0.00  0.00     0.042 C 
ATOM     26  C   UNL d   1      26.411 -13.487  -2.299  0.00  0.00     0.042 C 
ENDBRANCH  19  23
ENDBRANCH   1  18
TORSDOF 7
ENDMDL
MODEL 8
REMARK VINA RESULT:    -7.288      2.482      3.817
REMARK INTER + INTRA:         -11.049
REMARK INTER:                  -9.376
REMARK INTRA:                  -1.672
REMARK CONF_INDEPENDENT:        2.088
REMARK UNBOUND:                -1.672
REMARK  7 active torsions:
REMARK  status: ('A' for Active; 'I' for Inactive)
REMARK    1  A    between atoms: C_4  and  C_5 
REMARK    2  A    between atoms: C_6  and  C_7 
REMARK       I    between atoms: C_7  and  N_9 
REMARK    3  A    between atoms: N_9  and  C_10 
REMARK    4  A    between atoms: C_11  and  C_10 
REMARK    5  A    between atoms: C_11  and  C_13 
REMARK    6  A    between atoms: C_11  and  O_12 
REMARK    7  A    between atoms: C_16  and  N_17 
ROOT
ATOM      1  C   UNL d   1      25.413 -16.559  -1.303  0.00  0.00     0.223 C 
ATOM      2  O   UNL d   1      24.631 -15.624  -1.126  0.00  0.00    -0.273 OA
ATOM      3  N   UNL d   1      25.156 -17.839  -0.864  0.00  0.00    -0.358 N 
ATOM      4  H   UNL d   1      25.865 -18.562  -0.927  0.00  0.00     0.162 HD
ENDROOT
BRANCH   3   5
ATOM      5  C   UNL d   1      23.961 -18.114  -0.077  0.00  0.00     0.159 C 
BRANCH   5   6
ATOM      6  C   UNL d   1      22.618 -17.742  -0.765  0.00  0.00     0.169 C 
BRANCH   6   7
ATOM      7  C   UNL d   1      21.451 -18.621  -0.341  0.00  0.00    -0.028 C 
ATOM      8  C   UNL d   1      20.498 -19.071  -1.270  0.00  0.00     0.012 C 
ATOM      9  C   UNL d   1      19.329 -19.700  -0.855  0.00  0.00     0.037 C 
ATOM     10  C   UNL d   1      19.174 -20.037   0.489  0.00  0.00     0.102 C 
ATOM     11  C   UNL d   1      20.140 -19.663   1.432  0.00  0.00     0.037 C 
ATOM     12  C   UNL d   1      21.271 -18.950   1.014  0.00  0.00     0.012 C 
BRANCH  10  13
ATOM     13  N   UNL d   1      18.030 -20.863   0.889  0.00  0.00    -0.116 N 
ATOM     14  O   UNL d   1      17.393 -21.436  -0.007  0.00  0.00    -0.532 OA
ATOM     15  O   UNL d   1      17.787 -20.965   2.099  0.00  0.00    -0.532 OA
ENDBRANCH  10  13
ENDBRANCH   6   7
BRANCH   6  16
ATOM     16  O   UNL d   1      22.292 -16.367  -0.545  0.00  0.00    -0.389 OA
ATOM     17  H   UNL d   1      23.137 -15.900  -0.426  0.00  0.00     0.210 HD
ENDBRANCH   6  16
ENDBRANCH   5   6
ENDBRANCH   3   5
BRANCH   1  18
ATOM     18  C   UNL d   1      26.717 -16.356  -2.006  0.00  0.00     0.094 A 
ATOM     19  C   UNL d   1      27.256 -14.944  -2.248  0.00  0.00     0.030 A 
ATOM     20  C   UNL d   1      27.944 -15.849  -1.253  0.00  0.00    -0.027 A 
ATOM     21  C   UNL d   1      29.288 -16.446  -1.586  0.00  0.00     0.016 C 
ATOM     22  C   UNL d   1      27.796 -15.485   0.205  0.00  0.00     0.016 C 
BRANCH  19  23
ATOM     23  C   UNL d   1      27.867 -14.600  -3.548  0.00  0.00    -0.019 C 
ATOM     24  C   UNL d   1      27.187 -14.107  -4.602  0.00  0.00    -0.091 C 
ATOM     25  C   UNL d   1      27.875 -13.703  -5.877  0.00  0.00     0.042 C 
ATOM     26  C   UNL d   1      25.701 -13.914  -4.507  0.00  0.00     0.042 C 
ENDBRANCH  19  23
ENDBRANCH   1  18
TORSDOF 7
ENDMDL
MODEL 9
REMARK VINA RESULT:    -7.286      2.768      7.804
REMARK INTER + INTRA:         -10.949
REMARK INTER:                  -9.374
REMARK INTRA:                  -1.575
REMARK CONF_INDEPENDENT:        2.088
REMARK UNBOUND:                -1.575
REMARK  7 active torsions:
REMARK  status: ('A' for Active; 'I' for Inactive)
REMARK    1  A    between atoms: C_4  and  C_5 
REMARK    2  A    between atoms: C_6  and  C_7 
REMARK       I    between atoms: C_7  and  N_9 
REMARK    3  A    between atoms: N_9  and  C_10 
REMARK    4  A    between atoms: C_11  and  C_10 
REMARK    5  A    between atoms: C_11  and  C_13 
REMARK    6  A    between atoms: C_11  and  O_12 
REMARK    7  A    between atoms: C_16  and  N_17 
ROOT
ATOM      1  C   UNL d   1      25.993 -15.067  -0.725  0.00  0.00     0.223 C 
ATOM      2  O   UNL d   1      26.753 -14.278  -0.163  0.00  0.00    -0.273 OA
ATOM      3  N   UNL d   1      25.438 -14.816  -1.961  0.00  0.00    -0.358 N 
ATOM      4  H   UNL d   1      24.732 -15.433  -2.348  0.00  0.00     0.162 HD
ENDROOT
BRANCH   3   5
ATOM      5  C   UNL d   1      25.670 -13.536  -2.618  0.00  0.00     0.159 C 
BRANCH   5   6
ATOM      6  C   UNL d   1      25.643 -13.578  -4.172  0.00  0.00     0.169 C 
BRANCH   6   7
ATOM      7  C   UNL d   1      26.935 -14.089  -4.790  0.00  0.00    -0.028 C 
ATOM      8  C   UNL d   1      27.467 -13.510  -5.955  0.00  0.00     0.012 C 
ATOM      9  C   UNL d   1      28.530 -14.101  -6.631  0.00  0.00     0.037 C 
ATOM     10  C   UNL d   1      29.184 -15.191  -6.058  0.00  0.00     0.102 C 
ATOM     11  C   UNL d   1      28.719 -15.749  -4.860  0.00  0.00     0.037 C 
ATOM     12  C   UNL d   1      27.593 -15.200  -4.234  0.00  0.00     0.012 C 
BRANCH  10  13
ATOM     13  N   UNL d   1      30.416 -15.691  -6.678  0.00  0.00    -0.116 N 
ATOM     14  O   UNL d   1      31.405 -14.943  -6.676  0.00  0.00    -0.532 OA
ATOM     15  O   UNL d   1      30.404 -16.840  -7.139  0.00  0.00    -0.532 OA
ENDBRANCH  10  13
ENDBRANCH   6   7
BRANCH   6  16
ATOM     16  O   UNL d   1      24.540 -14.355  -4.645  0.00  0.00    -0.389 OA
ATOM     17  H   UNL d   1      23.901 -13.726  -5.020  0.00  0.00     0.210 HD
ENDBRANCH   6  16
ENDBRANCH   5   6
ENDBRANCH   3   5
BRANCH   1  18
ATOM     18  C   UNL d   1      25.607 -16.362  -0.084  0.00  0.00     0.094 A 
ATOM     19  C   UNL d   1      25.272 -17.583  -0.945  0.00  0.00     0.030 A 
ATOM     20  C   UNL d   1      26.542 -17.568  -0.129  0.00  0.00    -0.027 A 
ATOM     21  C   UNL d   1      26.655 -18.434   1.101  0.00  0.00     0.016 C 
ATOM     22  C   UNL d   1      27.837 -17.450  -0.896  0.00  0.00     0.016 C 
BRANCH  19  23
ATOM     23  C   UNL d   1      24.123 -18.441  -0.592  0.00  0.00    -0.019 C 
ATOM     24  C   UNL d   1      22.847 -18.013  -0.518  0.00  0.00    -0.091 C 
ATOM     25  C   UNL d   1      21.707 -18.949  -0.227  0.00  0.00     0.042 C 
ATOM     26  C   UNL d   1      22.531 -16.566  -0.763  0.00  0.00     0.042 C 
ENDBRANCH  19  23
ENDBRANCH   1  18
TORSDOF 7
ENDMDL
