MODEL 1
REMARK VINA RESULT:   -32.131      0.000      0.000
REMARK INTER + INTRA:         -36.972
REMARK INTER:                 -35.413
REMARK INTRA:                  -1.559
REMARK CONF_INDEPENDENT:        3.281
REMARK UNBOUND:                -1.559
REMARK  11 active torsions:
REMARK  status: ('A' for Active; 'I' for Inactive)
REMARK    1  A    between atoms: C_2  and  C_3 
REMARK    2  A    between atoms: C_3  and  N_4 
REMARK    3  A    between atoms: C_5  and  O_6 
REMARK    4  A    between atoms: C_9  and  S_10 
REMARK    5  A    between atoms: S_10  and  C_11 
REMARK    6  A    between atoms: C_11  and  C_12 
REMARK       I    between atoms: C_12  and  N_14 
REMARK    7  A    between atoms: N_14  and  C_15 
REMARK    8  A    between atoms: C_16  and  C_15 
REMARK    9  A    between atoms: C_16  and  C_25 
REMARK   10  A    between atoms: C_16  and  C_17 
REMARK   11  A    between atoms: C_20  and  O_21 
ROOT
ATOM      1  C   UNL d   1      26.069 -15.485  -0.534  0.00  0.00     0.071 C 
ENDROOT
BRANCH   1   2
ATOM      2  C   UNL d   1      26.595 -14.259   0.158  0.00  0.00    -0.020 A 
ATOM      3  C   UNL d   1      26.651 -12.993  -0.431  0.00  0.00     0.097 A 
ATOM      4  N   UNL d   1      27.244 -12.155   0.423  0.00  0.00    -0.365 N 
ATOM      5  C   UNL d   1      27.600 -12.813   1.524  0.00  0.00     0.042 A 
ATOM      6  H   UNL d   1      27.432 -11.173   0.360  0.00  0.00     0.165 HD
ATOM      7  C   UNL d   1      28.210 -12.271   2.580  0.00  0.00     0.027 C 
ATOM      8  C   UNL d   1      27.261 -14.135   1.483  0.00  0.00    -0.004 A 
ATOM      9  C   UNL d   1      28.423 -13.220   3.491  0.00  0.00    -0.015 C 
ATOM     10  C   UNL d   1      28.664 -14.075   4.390  0.00  0.00     0.043 C 
ATOM     11  C   UNL d   1      27.780 -14.810   2.849  0.00  0.00    -0.003 C 
ENDBRANCH   1   2
BRANCH   1  12
ATOM     12  C   UNL d   1      26.458 -15.463  -1.998  0.00  0.00    -0.048 C 
ATOM     13  C   UNL d   1      27.772 -15.554  -2.436  0.00  0.00     0.011 C 
ATOM     14  C   UNL d   1      28.069 -15.256  -3.763  0.00  0.00     0.037 C 
ATOM     15  C   UNL d   1      27.089 -15.195  -4.737  0.00  0.00     0.068 C 
ATOM     16  C   UNL d   1      25.789 -15.193  -4.301  0.00  0.00     0.037 C 
ATOM     17  C   UNL d   1      25.473 -15.342  -2.958  0.00  0.00     0.011 C 
BRANCH  15  18
ATOM     18  O   UNL d   1      27.478 -15.174  -6.046  0.00  0.00    -0.356 OA
ATOM     19  C   UNL d   1      28.556 -14.295  -6.391  0.00  0.00     0.210 C 
ENDBRANCH  15  18
ENDBRANCH   1  12
BRANCH   1  20
ATOM     20  C   UNL d   1      26.614 -16.745   0.094  0.00  0.00     0.136 C 
BRANCH  20  21
ATOM     21  N   UNL d   1      25.608 -17.734   0.403  0.00  0.00    -0.359 N 
ATOM     22  C   UNL d   1      24.813 -18.193  -0.615  0.00  0.00     0.227 C 
ATOM     23  O   UNL d   1      24.846 -17.833  -1.773  0.00  0.00    -0.273 OA
ATOM     24  H   UNL d   1      25.500 -18.036   1.375  0.00  0.00     0.162 HD
BRANCH  22  25
ATOM     25  C   UNL d   1      23.753 -19.022  -0.144  0.00  0.00     0.185 C 
BRANCH  25  26
ATOM     26  S   UNL d   1      22.047 -17.956   0.067  0.00  0.00    -0.081 SA
BRANCH  26  27
ATOM     27  C   UNL d   1      20.531 -19.017  -0.107  0.00  0.00     0.193 A 
ATOM     28  N   UNL d   1      19.905 -19.106  -1.270  0.00  0.00    -0.120 NA
ATOM     29  N   UNL d   1      18.776 -19.943  -1.112  0.00  0.00    -0.103 NA
ATOM     30  C   UNL d   1      18.696 -20.383   0.163  0.00  0.00     0.267 A 
ATOM     31  N   UNL d   1      19.831 -19.821   0.869  0.00  0.00    -0.288 N 
BRANCH  30  32
ATOM     32  O   UNL d   1      17.690 -21.218   0.611  0.00  0.00    -0.330 OA
ATOM     33  H   UNL d   1      17.790 -22.199   0.582  0.00  0.00     0.221 HD
ENDBRANCH  30  32
BRANCH  31  34
ATOM     34  C   UNL d   1      20.284 -19.938   2.317  0.00  0.00     0.135 C 
BRANCH  34  35
ATOM     35  C   UNL d   1      19.314 -20.735   3.106  0.00  0.00     0.016 C 
ATOM     36  C   UNL d   1      19.582 -20.812   4.624  0.00  0.00     0.006 C 
ENDBRANCH  34  35
ENDBRANCH  31  34
ENDBRANCH  26  27
ENDBRANCH  25  26
ENDBRANCH  22  25
ENDBRANCH  20  21
ENDBRANCH   1  20
TORSDOF 11
ENDMDL
MODEL 2
REMARK VINA RESULT:   -31.628      1.623      2.067
REMARK INTER + INTRA:         -36.478
REMARK INTER:                 -34.909
REMARK INTRA:                  -1.569
REMARK CONF_INDEPENDENT:        3.281
REMARK UNBOUND:                -1.569
REMARK  11 active torsions:
REMARK  status: ('A' for Active; 'I' for Inactive)
REMARK    1  A    between atoms: C_2  and  C_3 
REMARK    2  A    between atoms: C_3  and  N_4 
REMARK    3  A    between atoms: C_5  and  O_6 
REMARK    4  A    between atoms: C_9  and  S_10 
REMARK    5  A    between atoms: S_10  and  C_11 
REMARK    6  A    between atoms: C_11  and  C_12 
REMARK       I    between atoms: C_12  and  N_14 
REMARK    7  A    between atoms: N_14  and  C_15 
REMARK    8  A    between atoms: C_16  and  C_15 
REMARK    9  A    between atoms: C_16  and  C_25 
REMARK   10  A    between atoms: C_16  and  C_17 
REMARK   11  A    between atoms: C_20  and  O_21 
ROOT
ATOM      1  C   UNL d   1      25.765 -15.299  -1.290  0.00  0.00     0.071 C 
ENDROOT
BRANCH   1   2
ATOM      2  C   UNL d   1      26.851 -15.079  -0.275  0.00  0.00    -0.020 A 
ATOM      3  C   UNL d   1      27.900 -15.975  -0.047  0.00  0.00     0.097 A 
ATOM      4  N   UNL d   1      28.635 -15.515   0.969  0.00  0.00    -0.365 N 
ATOM      5  C   UNL d   1      28.106 -14.385   1.431  0.00  0.00     0.042 A 
ATOM      6  H   UNL d   1      29.471 -15.870   1.391  0.00  0.00     0.165 HD
ATOM      7  C   UNL d   1      28.598 -13.662   2.439  0.00  0.00     0.027 C 
ATOM      8  C   UNL d   1      26.986 -14.007   0.748  0.00  0.00    -0.004 A 
ATOM      9  C   UNL d   1      27.813 -12.603   2.636  0.00  0.00    -0.015 C 
ATOM     10  C   UNL d   1      27.104 -11.587   2.881  0.00  0.00     0.043 C 
ATOM     11  C   UNL d   1      26.436 -12.657   1.430  0.00  0.00    -0.003 C 
ENDBRANCH   1   2
BRANCH   1  12
ATOM     12  C   UNL d   1      25.853 -14.250  -2.380  0.00  0.00    -0.048 C 
ATOM     13  C   UNL d   1      25.409 -14.464  -3.677  0.00  0.00     0.011 C 
ATOM     14  C   UNL d   1      25.767 -13.564  -4.676  0.00  0.00     0.037 C 
ATOM     15  C   UNL d   1      26.262 -12.306  -4.385  0.00  0.00     0.068 C 
ATOM     16  C   UNL d   1      26.618 -12.072  -3.082  0.00  0.00     0.037 C 
ATOM     17  C   UNL d   1      26.403 -13.017  -2.090  0.00  0.00     0.011 C 
BRANCH  15  18
ATOM     18  O   UNL d   1      26.329 -11.387  -5.394  0.00  0.00    -0.356 OA
ATOM     19  C   UNL d   1      27.160 -11.711  -6.515  0.00  0.00     0.210 C 
ENDBRANCH  15  18
ENDBRANCH   1  12
BRANCH   1  20
ATOM     20  C   UNL d   1      25.873 -16.666  -1.921  0.00  0.00     0.136 C 
BRANCH  20  21
ATOM     21  N   UNL d   1      24.720 -17.507  -1.708  0.00  0.00    -0.359 N 
ATOM     22  C   UNL d   1      24.618 -18.182  -0.520  0.00  0.00     0.227 C 
ATOM     23  O   UNL d   1      25.424 -18.170   0.387  0.00  0.00    -0.273 OA
ATOM     24  H   UNL d   1      24.033 -17.598  -2.462  0.00  0.00     0.162 HD
BRANCH  22  25
ATOM     25  C   UNL d   1      23.534 -19.109  -0.513  0.00  0.00     0.185 C 
BRANCH  25  26
ATOM     26  S   UNL d   1      21.844 -18.234   0.172  0.00  0.00    -0.081 SA
BRANCH  26  27
ATOM     27  C   UNL d   1      20.355 -19.327  -0.033  0.00  0.00     0.193 A 
ATOM     28  N   UNL d   1      19.673 -19.325  -1.167  0.00  0.00    -0.120 NA
ATOM     29  N   UNL d   1      18.581 -20.214  -1.040  0.00  0.00    -0.103 NA
ATOM     30  C   UNL d   1      18.580 -20.779   0.188  0.00  0.00     0.267 A 
ATOM     31  N   UNL d   1      19.732 -20.248   0.891  0.00  0.00    -0.288 N 
BRANCH  30  32
ATOM     32  O   UNL d   1      17.625 -21.690   0.599  0.00  0.00    -0.330 OA
ATOM     33  H   UNL d   1      17.619 -22.614   0.253  0.00  0.00     0.221 HD
ENDBRANCH  30  32
BRANCH  31  34
ATOM     34  C   UNL d   1      20.262 -20.489   2.297  0.00  0.00     0.135 C 
BRANCH  34  35
ATOM     35  C   UNL d   1      19.158 -20.451   3.286  0.00  0.00     0.016 C 
ATOM     36  C   UNL d   1      19.529 -20.869   4.725  0.00  0.00     0.006 C 
ENDBRANCH  34  35
ENDBRANCH  31  34
ENDBRANCH  26  27
ENDBRANCH  25  26
ENDBRANCH  22  25
ENDBRANCH  20  21
ENDBRANCH   1  20
TORSDOF 11
ENDMDL
MODEL 3
REMARK VINA RESULT:   -31.146      2.237      4.760
REMARK INTER + INTRA:         -36.094
REMARK INTER:                 -34.427
REMARK INTRA:                  -1.667
REMARK CONF_INDEPENDENT:        3.281
REMARK UNBOUND:                -1.667
REMARK  11 active torsions:
REMARK  status: ('A' for Active; 'I' for Inactive)
REMARK    1  A    between atoms: C_2  and  C_3 
REMARK    2  A    between atoms: C_3  and  N_4 
REMARK    3  A    between atoms: C_5  and  O_6 
REMARK    4  A    between atoms: C_9  and  S_10 
REMARK    5  A    between atoms: S_10  and  C_11 
REMARK    6  A    between atoms: C_11  and  C_12 
REMARK       I    between atoms: C_12  and  N_14 
REMARK    7  A    between atoms: N_14  and  C_15 
REMARK    8  A    between atoms: C_16  and  C_15 
REMARK    9  A    between atoms: C_16  and  C_25 
REMARK   10  A    between atoms: C_16  and  C_17 
REMARK   11  A    between atoms: C_20  and  O_21 
ROOT
ATOM      1  C   UNL d   1      26.759 -16.167  -1.577  0.00  0.00     0.071 C 
ENDROOT
BRANCH   1   2
ATOM      2  C   UNL d   1      26.585 -15.225  -2.735  0.00  0.00    -0.020 A 
ATOM      3  C   UNL d   1      25.462 -14.414  -2.920  0.00  0.00     0.097 A 
ATOM      4  N   UNL d   1      25.595 -13.767  -4.081  0.00  0.00    -0.365 N 
ATOM      5  C   UNL d   1      26.729 -14.133  -4.672  0.00  0.00     0.042 A 
ATOM      6  H   UNL d   1      25.009 -13.088  -4.528  0.00  0.00     0.165 HD
ATOM      7  C   UNL d   1      27.170 -13.670  -5.844  0.00  0.00     0.027 C 
ATOM      8  C   UNL d   1      27.437 -15.044  -3.941  0.00  0.00    -0.004 A 
ATOM      9  C   UNL d   1      28.330 -14.259  -6.133  0.00  0.00    -0.015 C 
ATOM     10  C   UNL d   1      29.426 -14.789  -6.471  0.00  0.00     0.043 C 
ATOM     11  C   UNL d   1      28.755 -15.422  -4.784  0.00  0.00    -0.003 C 
ENDBRANCH   1   2
BRANCH   1  12
ATOM     12  C   UNL d   1      28.132 -15.985  -0.962  0.00  0.00    -0.048 C 
ATOM     13  C   UNL d   1      29.198 -16.835  -1.220  0.00  0.00     0.011 C 
ATOM     14  C   UNL d   1      30.334 -16.765  -0.418  0.00  0.00     0.037 C 
ATOM     15  C   UNL d   1      30.584 -15.681   0.403  0.00  0.00     0.068 C 
ATOM     16  C   UNL d   1      29.552 -14.797   0.585  0.00  0.00     0.037 C 
ATOM     17  C   UNL d   1      28.351 -14.932  -0.096  0.00  0.00     0.011 C 
BRANCH  15  18
ATOM     18  O   UNL d   1      31.833 -15.551   0.942  0.00  0.00    -0.356 OA
ATOM     19  C   UNL d   1      31.947 -14.774   2.140  0.00  0.00     0.210 C 
ENDBRANCH  15  18
ENDBRANCH   1  12
BRANCH   1  20
ATOM     20  C   UNL d   1      25.715 -15.926  -0.513  0.00  0.00     0.136 C 
BRANCH  20  21
ATOM     21  N   UNL d   1      24.593 -16.833  -0.571  0.00  0.00    -0.359 N 
ATOM     22  C   UNL d   1      24.823 -18.167  -0.358  0.00  0.00     0.227 C 
ATOM     23  O   UNL d   1      25.898 -18.687  -0.145  0.00  0.00    -0.273 OA
ATOM     24  H   UNL d   1      23.669 -16.456  -0.801  0.00  0.00     0.162 HD
BRANCH  22  25
ATOM     25  C   UNL d   1      23.671 -18.965  -0.622  0.00  0.00     0.185 C 
BRANCH  25  26
ATOM     26  S   UNL d   1      21.997 -18.060   0.064  0.00  0.00    -0.081 SA
BRANCH  26  27
ATOM     27  C   UNL d   1      20.494 -19.140  -0.109  0.00  0.00     0.193 A 
ATOM     28  N   UNL d   1      19.864 -19.231  -1.269  0.00  0.00    -0.120 NA
ATOM     29  N   UNL d   1      18.747 -20.084  -1.110  0.00  0.00    -0.103 NA
ATOM     30  C   UNL d   1      18.679 -20.532   0.164  0.00  0.00     0.267 A 
ATOM     31  N   UNL d   1      19.810 -19.958   0.867  0.00  0.00    -0.288 N 
BRANCH  30  32
ATOM     32  O   UNL d   1      17.686 -21.383   0.612  0.00  0.00    -0.330 OA
ATOM     33  H   UNL d   1      17.649 -22.323   0.317  0.00  0.00     0.221 HD
ENDBRANCH  30  32
BRANCH  31  34
ATOM     34  C   UNL d   1      20.271 -20.077   2.313  0.00  0.00     0.135 C 
BRANCH  34  35
ATOM     35  C   UNL d   1      19.238 -20.748   3.138  0.00  0.00     0.016 C 
ATOM     36  C   UNL d   1      19.531 -20.824   4.651  0.00  0.00     0.006 C 
ENDBRANCH  34  35
ENDBRANCH  31  34
ENDBRANCH  26  27
ENDBRANCH  25  26
ENDBRANCH  22  25
ENDBRANCH  20  21
ENDBRANCH   1  20
TORSDOF 11
ENDMDL
MODEL 4
REMARK VINA RESULT:   -30.878      1.313      2.089
REMARK INTER + INTRA:         -35.851
REMARK INTER:                 -34.159
REMARK INTRA:                  -1.692
REMARK CONF_INDEPENDENT:        3.281
REMARK UNBOUND:                -1.692
REMARK  11 active torsions:
REMARK  status: ('A' for Active; 'I' for Inactive)
REMARK    1  A    between atoms: C_2  and  C_3 
REMARK    2  A    between atoms: C_3  and  N_4 
REMARK    3  A    between atoms: C_5  and  O_6 
REMARK    4  A    between atoms: C_9  and  S_10 
REMARK    5  A    between atoms: S_10  and  C_11 
REMARK    6  A    between atoms: C_11  and  C_12 
REMARK       I    between atoms: C_12  and  N_14 
REMARK    7  A    between atoms: N_14  and  C_15 
REMARK    8  A    between atoms: C_16  and  C_15 
REMARK    9  A    between atoms: C_16  and  C_25 
REMARK   10  A    between atoms: C_16  and  C_17 
REMARK   11  A    between atoms: C_20  and  O_21 
ROOT
ATOM      1  C   UNL d   1      26.014 -14.864  -0.798  0.00  0.00     0.071 C 
ENDROOT
BRANCH   1   2
ATOM      2  C   UNL d   1      26.828 -13.856  -0.036  0.00  0.00    -0.020 A 
ATOM      3  C   UNL d   1      26.941 -13.835   1.356  0.00  0.00     0.097 A 
ATOM      4  N   UNL d   1      27.667 -12.770   1.706  0.00  0.00    -0.365 N 
ATOM      5  C   UNL d   1      28.009 -12.083   0.618  0.00  0.00     0.042 A 
ATOM      6  H   UNL d   1      27.976 -12.448   2.603  0.00  0.00     0.165 HD
ATOM      7  C   UNL d   1      28.741 -10.968   0.613  0.00  0.00     0.027 C 
ATOM      8  C   UNL d   1      27.542 -12.649  -0.533  0.00  0.00    -0.004 A 
ATOM      9  C   UNL d   1      28.880 -10.547  -0.644  0.00  0.00    -0.015 C 
ATOM     10  C   UNL d   1      29.040 -10.090  -1.811  0.00  0.00     0.043 C 
ATOM     11  C   UNL d   1      27.994 -11.703  -1.755  0.00  0.00    -0.003 C 
ENDBRANCH   1   2
BRANCH   1  12
ATOM     12  C   UNL d   1      26.592 -15.056  -2.185  0.00  0.00    -0.048 C 
ATOM     13  C   UNL d   1      27.954 -15.156  -2.433  0.00  0.00     0.011 C 
ATOM     14  C   UNL d   1      28.416 -15.059  -3.743  0.00  0.00     0.037 C 
ATOM     15  C   UNL d   1      27.572 -15.198  -4.829  0.00  0.00     0.068 C 
ATOM     16  C   UNL d   1      26.226 -15.186  -4.567  0.00  0.00     0.037 C 
ATOM     17  C   UNL d   1      25.739 -15.134  -3.269  0.00  0.00     0.011 C 
BRANCH  15  18
ATOM     18  O   UNL d   1      28.129 -15.367  -6.065  0.00  0.00    -0.356 OA
ATOM     19  C   UNL d   1      29.474 -14.906  -6.241  0.00  0.00     0.210 C 
ENDBRANCH  15  18
ENDBRANCH   1  12
BRANCH   1  20
ATOM     20  C   UNL d   1      25.994 -16.198  -0.092  0.00  0.00     0.136 C 
BRANCH  20  21
ATOM     21  N   UNL d   1      24.819 -16.992  -0.364  0.00  0.00    -0.359 N 
ATOM     22  C   UNL d   1      24.833 -18.317  -0.013  0.00  0.00     0.227 C 
ATOM     23  O   UNL d   1      25.758 -18.918   0.493  0.00  0.00    -0.273 OA
ATOM     24  H   UNL d   1      24.027 -16.549  -0.838  0.00  0.00     0.162 HD
BRANCH  22  25
ATOM     25  C   UNL d   1      23.692 -19.019  -0.498  0.00  0.00     0.185 C 
BRANCH  25  26
ATOM     26  S   UNL d   1      21.984 -18.080   0.045  0.00  0.00    -0.081 SA
BRANCH  26  27
ATOM     27  C   UNL d   1      20.497 -19.184  -0.106  0.00  0.00     0.193 A 
ATOM     28  N   UNL d   1      19.878 -19.317  -1.267  0.00  0.00    -0.120 NA
ATOM     29  N   UNL d   1      18.770 -20.179  -1.092  0.00  0.00    -0.103 NA
ATOM     30  C   UNL d   1      18.697 -20.589   0.194  0.00  0.00     0.267 A 
ATOM     31  N   UNL d   1      19.815 -19.981   0.889  0.00  0.00    -0.288 N 
BRANCH  30  32
ATOM     32  O   UNL d   1      17.711 -21.439   0.660  0.00  0.00    -0.330 OA
ATOM     33  H   UNL d   1      17.339 -22.151   0.088  0.00  0.00     0.221 HD
ENDBRANCH  30  32
BRANCH  31  34
ATOM     34  C   UNL d   1      20.266 -20.050   2.341  0.00  0.00     0.135 C 
BRANCH  34  35
ATOM     35  C   UNL d   1      19.141 -20.449   3.219  0.00  0.00     0.016 C 
ATOM     36  C   UNL d   1      19.529 -20.927   4.635  0.00  0.00     0.006 C 
ENDBRANCH  34  35
ENDBRANCH  31  34
ENDBRANCH  26  27
ENDBRANCH  25  26
ENDBRANCH  22  25
ENDBRANCH  20  21
ENDBRANCH   1  20
TORSDOF 11
ENDMDL
MODEL 5
REMARK VINA RESULT:   -30.856      2.711      3.694
REMARK INTER + INTRA:         -35.800
REMARK INTER:                 -34.137
REMARK INTRA:                  -1.662
REMARK CONF_INDEPENDENT:        3.281
REMARK UNBOUND:                -1.662
REMARK  11 active torsions:
REMARK  status: ('A' for Active; 'I' for Inactive)
REMARK    1  A    between atoms: C_2  and  C_3 
REMARK    2  A    between atoms: C_3  and  N_4 
REMARK    3  A    between atoms: C_5  and  O_6 
REMARK    4  A    between atoms: C_9  and  S_10 
REMARK    5  A    between atoms: S_10  and  C_11 
REMARK    6  A    between atoms: C_11  and  C_12 
REMARK       I    between atoms: C_12  and  N_14 
REMARK    7  A    between atoms: N_14  and  C_15 
REMARK    8  A    between atoms: C_16  and  C_15 
REMARK    9  A    between atoms: C_16  and  C_25 
REMARK   10  A    between atoms: C_16  and  C_17 
REMARK   11  A    between atoms: C_20  and  O_21 
ROOT
ATOM      1  C   UNL d   1      26.412 -15.954  -2.683  0.00  0.00     0.071 C 
ENDROOT
BRANCH   1   2
ATOM      2  C   UNL d   1      26.001 -14.607  -3.209  0.00  0.00    -0.020 A 
ATOM      3  C   UNL d   1      25.186 -14.422  -4.329  0.00  0.00     0.097 A 
ATOM      4  N   UNL d   1      25.086 -13.111  -4.566  0.00  0.00    -0.365 N 
ATOM      5  C   UNL d   1      25.812 -12.437  -3.678  0.00  0.00     0.042 A 
ATOM      6  H   UNL d   1      24.570 -12.605  -5.259  0.00  0.00     0.165 HD
ATOM      7  C   UNL d   1      25.925 -11.108  -3.628  0.00  0.00     0.027 C 
ATOM      8  C   UNL d   1      26.440 -13.251  -2.781  0.00  0.00    -0.004 A 
ATOM      9  C   UNL d   1      26.735 -10.780  -2.622  0.00  0.00    -0.015 C 
ATOM     10  C   UNL d   1      27.502 -10.404  -1.691  0.00  0.00     0.043 C 
ATOM     11  C   UNL d   1      27.304 -12.314  -1.798  0.00  0.00    -0.003 C 
ENDBRANCH   1   2
BRANCH   1  12
ATOM     12  C   UNL d   1      27.923 -16.048  -2.624  0.00  0.00    -0.048 C 
ATOM     13  C   UNL d   1      28.741 -15.824  -3.722  0.00  0.00     0.011 C 
ATOM     14  C   UNL d   1      30.082 -16.191  -3.659  0.00  0.00     0.037 C 
ATOM     15  C   UNL d   1      30.711 -16.461  -2.457  0.00  0.00     0.068 C 
ATOM     16  C   UNL d   1      29.903 -16.596  -1.358  0.00  0.00     0.037 C 
ATOM     17  C   UNL d   1      28.534 -16.377  -1.431  0.00  0.00     0.011 C 
BRANCH  15  18
ATOM     18  O   UNL d   1      32.075 -16.542  -2.443  0.00  0.00    -0.356 OA
ATOM     19  C   UNL d   1      32.772 -15.636  -1.580  0.00  0.00     0.210 C 
ENDBRANCH  15  18
ENDBRANCH   1  12
BRANCH   1  20
ATOM     20  C   UNL d   1      25.857 -16.194  -1.299  0.00  0.00     0.136 C 
BRANCH  20  21
ATOM     21  N   UNL d   1      24.686 -17.038  -1.272  0.00  0.00    -0.359 N 
ATOM     22  C   UNL d   1      24.731 -18.188  -0.528  0.00  0.00     0.227 C 
ATOM     23  O   UNL d   1      25.679 -18.599   0.107  0.00  0.00    -0.273 OA
ATOM     24  H   UNL d   1      23.873 -16.768  -1.833  0.00  0.00     0.162 HD
BRANCH  22  25
ATOM     25  C   UNL d   1      23.585 -19.011  -0.733  0.00  0.00     0.185 C 
BRANCH  25  26
ATOM     26  S   UNL d   1      21.950 -18.197   0.137  0.00  0.00    -0.081 SA
BRANCH  26  27
ATOM     27  C   UNL d   1      20.443 -19.268  -0.061  0.00  0.00     0.193 A 
ATOM     28  N   UNL d   1      19.781 -19.286  -1.206  0.00  0.00    -0.120 NA
ATOM     29  N   UNL d   1      18.669 -20.150  -1.070  0.00  0.00    -0.103 NA
ATOM     30  C   UNL d   1      18.637 -20.677   0.174  0.00  0.00     0.267 A 
ATOM     31  N   UNL d   1      19.788 -20.147   0.881  0.00  0.00    -0.288 N 
BRANCH  30  32
ATOM     32  O   UNL d   1      17.657 -21.557   0.596  0.00  0.00    -0.330 OA
ATOM     33  H   UNL d   1      17.417 -22.349   0.059  0.00  0.00     0.221 HD
ENDBRANCH  30  32
BRANCH  31  34
ATOM     34  C   UNL d   1      20.289 -20.356   2.302  0.00  0.00     0.135 C 
BRANCH  34  35
ATOM     35  C   UNL d   1      19.153 -20.540   3.236  0.00  0.00     0.016 C 
ATOM     36  C   UNL d   1      19.529 -20.830   4.705  0.00  0.00     0.006 C 
ENDBRANCH  34  35
ENDBRANCH  31  34
ENDBRANCH  26  27
ENDBRANCH  25  26
ENDBRANCH  22  25
ENDBRANCH  20  21
ENDBRANCH   1  20
TORSDOF 11
ENDMDL
MODEL 6
REMARK VINA RESULT:   -30.716      2.223      3.070
REMARK INTER + INTRA:         -35.721
REMARK INTER:                 -33.997
REMARK INTRA:                  -1.724
REMARK CONF_INDEPENDENT:        3.281
REMARK UNBOUND:                -1.724
REMARK  11 active torsions:
REMARK  status: ('A' for Active; 'I' for Inactive)
REMARK    1  A    between atoms: C_2  and  C_3 
REMARK    2  A    between atoms: C_3  and  N_4 
REMARK    3  A    between atoms: C_5  and  O_6 
REMARK    4  A    between atoms: C_9  and  S_10 
REMARK    5  A    between atoms: S_10  and  C_11 
REMARK    6  A    between atoms: C_11  and  C_12 
REMARK       I    between atoms: C_12  and  N_14 
REMARK    7  A    between atoms: N_14  and  C_15 
REMARK    8  A    between atoms: C_16  and  C_15 
REMARK    9  A    between atoms: C_16  and  C_25 
REMARK   10  A    between atoms: C_16  and  C_17 
REMARK   11  A    between atoms: C_20  and  O_21 
ROOT
ATOM      1  C   UNL d   1      25.853 -15.261  -1.177  0.00  0.00     0.071 C 
ENDROOT
BRANCH   1   2
ATOM      2  C   UNL d   1      27.137 -15.489  -0.429  0.00  0.00    -0.020 A 
ATOM      3  C   UNL d   1      27.371 -15.045   0.875  0.00  0.00     0.097 A 
ATOM      4  N   UNL d   1      28.631 -15.342   1.203  0.00  0.00    -0.365 N 
ATOM      5  C   UNL d   1      29.237 -15.929   0.174  0.00  0.00     0.042 A 
ATOM      6  H   UNL d   1      29.140 -15.204   2.055  0.00  0.00     0.165 HD
ATOM      7  C   UNL d   1      30.500 -16.359   0.169  0.00  0.00     0.027 C 
ATOM      8  C   UNL d   1      28.419 -16.073  -0.909  0.00  0.00    -0.004 A 
ATOM      9  C   UNL d   1      30.774 -16.885  -1.024  0.00  0.00    -0.015 C 
ATOM     10  C   UNL d   1      31.100 -17.387  -2.137  0.00  0.00     0.043 C 
ATOM     11  C   UNL d   1      29.284 -16.758  -2.081  0.00  0.00    -0.003 C 
ENDBRANCH   1   2
BRANCH   1  12
ATOM     12  C   UNL d   1      26.030 -14.143  -2.183  0.00  0.00    -0.048 C 
ATOM     13  C   UNL d   1      27.082 -13.240  -2.138  0.00  0.00     0.011 C 
ATOM     14  C   UNL d   1      27.028 -12.092  -2.923  0.00  0.00     0.037 C 
ATOM     15  C   UNL d   1      26.145 -11.968  -3.980  0.00  0.00     0.068 C 
ATOM     16  C   UNL d   1      25.158 -12.916  -4.069  0.00  0.00     0.037 C 
ATOM     17  C   UNL d   1      25.107 -13.996  -3.200  0.00  0.00     0.011 C 
BRANCH  15  18
ATOM     18  O   UNL d   1      26.334 -10.946  -4.866  0.00  0.00    -0.356 OA
ATOM     19  C   UNL d   1      25.841  -9.656  -4.486  0.00  0.00     0.210 C 
ENDBRANCH  15  18
ENDBRANCH   1  12
BRANCH   1  20
ATOM     20  C   UNL d   1      25.418 -16.508  -1.908  0.00  0.00     0.136 C 
BRANCH  20  21
ATOM     21  N   UNL d   1      24.398 -17.268  -1.224  0.00  0.00    -0.359 N 
ATOM     22  C   UNL d   1      24.791 -18.196  -0.296  0.00  0.00     0.227 C 
ATOM     23  O   UNL d   1      25.934 -18.475   0.004  0.00  0.00    -0.273 OA
ATOM     24  H   UNL d   1      23.418 -17.112  -1.476  0.00  0.00     0.162 HD
BRANCH  22  25
ATOM     25  C   UNL d   1      23.705 -18.995   0.167  0.00  0.00     0.185 C 
BRANCH  25  26
ATOM     26  S   UNL d   1      21.967 -17.963   0.080  0.00  0.00    -0.081 SA
BRANCH  26  27
ATOM     27  C   UNL d   1      20.495 -19.083  -0.104  0.00  0.00     0.193 A 
ATOM     28  N   UNL d   1      19.879 -19.193  -1.270  0.00  0.00    -0.120 NA
ATOM     29  N   UNL d   1      18.783 -20.075  -1.120  0.00  0.00    -0.103 NA
ATOM     30  C   UNL d   1      18.714 -20.522   0.154  0.00  0.00     0.267 A 
ATOM     31  N   UNL d   1      19.824 -19.918   0.867  0.00  0.00    -0.288 N 
BRANCH  30  32
ATOM     32  O   UNL d   1      17.740 -21.398   0.595  0.00  0.00    -0.330 OA
ATOM     33  H   UNL d   1      17.975 -22.297   0.927  0.00  0.00     0.221 HD
ENDBRANCH  30  32
BRANCH  31  34
ATOM     34  C   UNL d   1      20.273 -20.022   2.317  0.00  0.00     0.135 C 
BRANCH  34  35
ATOM     35  C   UNL d   1      19.308 -20.821   3.108  0.00  0.00     0.016 C 
ATOM     36  C   UNL d   1      19.530 -20.825   4.636  0.00  0.00     0.006 C 
ENDBRANCH  34  35
ENDBRANCH  31  34
ENDBRANCH  26  27
ENDBRANCH  25  26
ENDBRANCH  22  25
ENDBRANCH  20  21
ENDBRANCH   1  20
TORSDOF 11
ENDMDL
MODEL 7
REMARK VINA RESULT:   -30.588      2.086      4.925
REMARK INTER + INTRA:         -35.552
REMARK INTER:                 -33.869
REMARK INTRA:                  -1.683
REMARK CONF_INDEPENDENT:        3.281
REMARK UNBOUND:                -1.683
REMARK  11 active torsions:
REMARK  status: ('A' for Active; 'I' for Inactive)
REMARK    1  A    between atoms: C_2  and  C_3 
REMARK    2  A    between atoms: C_3  and  N_4 
REMARK    3  A    between atoms: C_5  and  O_6 
REMARK    4  A    between atoms: C_9  and  S_10 
REMARK    5  A    between atoms: S_10  and  C_11 
REMARK    6  A    between atoms: C_11  and  C_12 
REMARK       I    between atoms: C_12  and  N_14 
REMARK    7  A    between atoms: N_14  and  C_15 
REMARK    8  A    between atoms: C_16  and  C_15 
REMARK    9  A    between atoms: C_16  and  C_25 
REMARK   10  A    between atoms: C_16  and  C_17 
REMARK   11  A    between atoms: C_20  and  O_21 
ROOT
ATOM      1  C   UNL d   1      26.801 -15.885  -0.653  0.00  0.00     0.071 C 
ENDROOT
BRANCH   1   2
ATOM      2  C   UNL d   1      27.304 -15.591  -2.038  0.00  0.00    -0.020 A 
ATOM      3  C   UNL d   1      28.443 -16.177  -2.596  0.00  0.00     0.097 A 
ATOM      4  N   UNL d   1      28.650 -15.637  -3.800  0.00  0.00    -0.365 N 
ATOM      5  C   UNL d   1      27.723 -14.713  -4.043  0.00  0.00     0.042 A 
ATOM      6  H   UNL d   1      29.345 -15.826  -4.496  0.00  0.00     0.165 HD
ATOM      7  C   UNL d   1      27.636 -13.988  -5.160  0.00  0.00     0.027 C 
ATOM      8  C   UNL d   1      26.829 -14.580  -3.021  0.00  0.00    -0.004 A 
ATOM      9  C   UNL d   1      26.598 -13.159  -5.057  0.00  0.00    -0.015 C 
ATOM     10  C   UNL d   1      25.635 -12.342  -5.018  0.00  0.00     0.043 C 
ATOM     11  C   UNL d   1      25.797 -13.414  -3.430  0.00  0.00    -0.003 C 
ENDBRANCH   1   2
BRANCH   1  12
ATOM     12  C   UNL d   1      27.481 -14.975   0.351  0.00  0.00    -0.048 C 
ATOM     13  C   UNL d   1      27.767 -15.360   1.653  0.00  0.00     0.011 C 
ATOM     14  C   UNL d   1      28.139 -14.393   2.582  0.00  0.00     0.037 C 
ATOM     15  C   UNL d   1      28.554 -13.131   2.199  0.00  0.00     0.068 C 
ATOM     16  C   UNL d   1      28.348 -12.789   0.888  0.00  0.00     0.037 C 
ATOM     17  C   UNL d   1      27.837 -13.696  -0.029  0.00  0.00     0.011 C 
BRANCH  15  18
ATOM     18  O   UNL d   1      29.161 -12.338   3.131  0.00  0.00    -0.356 OA
ATOM     19  C   UNL d   1      28.831 -12.578   4.505  0.00  0.00     0.210 C 
ENDBRANCH  15  18
ENDBRANCH   1  12
BRANCH   1  20
ATOM     20  C   UNL d   1      25.308 -15.681  -0.558  0.00  0.00     0.136 C 
BRANCH  20  21
ATOM     21  N   UNL d   1      24.554 -16.904  -0.412  0.00  0.00    -0.359 N 
ATOM     22  C   UNL d   1      24.377 -17.696  -1.517  0.00  0.00     0.227 C 
ATOM     23  O   UNL d   1      24.774 -17.463  -2.640  0.00  0.00    -0.273 OA
ATOM     24  H   UNL d   1      24.150 -17.125   0.503  0.00  0.00     0.162 HD
BRANCH  22  25
ATOM     25  C   UNL d   1      23.470 -18.769  -1.276  0.00  0.00     0.185 C 
BRANCH  25  26
ATOM     26  S   UNL d   1      22.065 -18.232   0.078  0.00  0.00    -0.081 SA
BRANCH  26  27
ATOM     27  C   UNL d   1      20.519 -19.253  -0.074  0.00  0.00     0.193 A 
ATOM     28  N   UNL d   1      19.875 -19.325  -1.227  0.00  0.00    -0.120 NA
ATOM     29  N   UNL d   1      18.726 -20.131  -1.053  0.00  0.00    -0.103 NA
ATOM     30  C   UNL d   1      18.652 -20.569   0.224  0.00  0.00     0.267 A 
ATOM     31  N   UNL d   1      19.813 -20.037   0.914  0.00  0.00    -0.288 N 
BRANCH  30  32
ATOM     32  O   UNL d   1      17.631 -21.376   0.688  0.00  0.00    -0.330 OA
ATOM     33  H   UNL d   1      17.071 -21.898   0.065  0.00  0.00     0.221 HD
ENDBRANCH  30  32
BRANCH  31  34
ATOM     34  C   UNL d   1      20.282 -20.166   2.355  0.00  0.00     0.135 C 
BRANCH  34  35
ATOM     35  C   UNL d   1      19.196 -20.694   3.215  0.00  0.00     0.016 C 
ATOM     36  C   UNL d   1      19.529 -20.825   4.716  0.00  0.00     0.006 C 
ENDBRANCH  34  35
ENDBRANCH  31  34
ENDBRANCH  26  27
ENDBRANCH  25  26
ENDBRANCH  22  25
ENDBRANCH  20  21
ENDBRANCH   1  20
TORSDOF 11
ENDMDL
MODEL 8
REMARK VINA RESULT:   -29.992      2.721      4.484
REMARK INTER + INTRA:         -34.918
REMARK INTER:                 -33.273
REMARK INTRA:                  -1.645
REMARK CONF_INDEPENDENT:        3.281
REMARK UNBOUND:                -1.645
REMARK  11 active torsions:
REMARK  status: ('A' for Active; 'I' for Inactive)
REMARK    1  A    between atoms: C_2  and  C_3 
REMARK    2  A    between atoms: C_3  and  N_4 
REMARK    3  A    between atoms: C_5  and  O_6 
REMARK    4  A    between atoms: C_9  and  S_10 
REMARK    5  A    between atoms: S_10  and  C_11 
REMARK    6  A    between atoms: C_11  and  C_12 
REMARK       I    between atoms: C_12  and  N_14 
REMARK    7  A    between atoms: N_14  and  C_15 
REMARK    8  A    between atoms: C_16  and  C_15 
REMARK    9  A    between atoms: C_16  and  C_25 
REMARK   10  A    between atoms: C_16  and  C_17 
REMARK   11  A    between atoms: C_20  and  O_21 
ROOT
ATOM      1  C   UNL d   1      26.133 -14.425  -2.328  0.00  0.00     0.071 C 
ENDROOT
BRANCH   1   2
ATOM      2  C   UNL d   1      27.463 -15.125  -2.333  0.00  0.00    -0.020 A 
ATOM      3  C   UNL d   1      28.193 -15.422  -1.179  0.00  0.00     0.097 A 
ATOM      4  N   UNL d   1      29.356 -15.968  -1.544  0.00  0.00    -0.365 N 
ATOM      5  C   UNL d   1      29.433 -16.017  -2.872  0.00  0.00     0.042 A 
ATOM      6  H   UNL d   1      30.115 -16.328  -0.998  0.00  0.00     0.165 HD
ATOM      7  C   UNL d   1      30.461 -16.510  -3.564  0.00  0.00     0.027 C 
ATOM      8  C   UNL d   1      28.321 -15.515  -3.484  0.00  0.00    -0.004 A 
ATOM      9  C   UNL d   1      30.203 -16.391  -4.866  0.00  0.00    -0.015 C 
ATOM     10  C   UNL d   1      30.024 -16.296  -6.113  0.00  0.00     0.043 C 
ATOM     11  C   UNL d   1      28.563 -15.601  -5.073  0.00  0.00    -0.003 C 
ENDBRANCH   1   2
BRANCH   1  12
ATOM     12  C   UNL d   1      26.286 -13.015  -2.862  0.00  0.00    -0.048 C 
ATOM     13  C   UNL d   1      26.741 -11.956  -2.090  0.00  0.00     0.011 C 
ATOM     14  C   UNL d   1      26.597 -10.656  -2.566  0.00  0.00     0.037 C 
ATOM     15  C   UNL d   1      26.329 -10.389  -3.896  0.00  0.00     0.068 C 
ATOM     16  C   UNL d   1      25.964 -11.456  -4.675  0.00  0.00     0.037 C 
ATOM     17  C   UNL d   1      25.957 -12.751  -4.177  0.00  0.00     0.011 C 
BRANCH  15  18
ATOM     18  O   UNL d   1      26.475  -9.106  -4.341  0.00  0.00    -0.356 OA
ATOM     19  C   UNL d   1      25.535  -8.138  -3.859  0.00  0.00     0.210 C 
ENDBRANCH  15  18
ENDBRANCH   1  12
BRANCH   1  20
ATOM     20  C   UNL d   1      25.125 -15.159  -3.180  0.00  0.00     0.136 C 
BRANCH  20  21
ATOM     21  N   UNL d   1      24.808 -16.486  -2.706  0.00  0.00    -0.359 N 
ATOM     22  C   UNL d   1      24.508 -16.649  -1.379  0.00  0.00     0.227 C 
ATOM     23  O   UNL d   1      24.505 -15.782  -0.530  0.00  0.00    -0.273 OA
ATOM     24  H   UNL d   1      24.847 -17.266  -3.369  0.00  0.00     0.162 HD
BRANCH  22  25
ATOM     25  C   UNL d   1      24.394 -18.022  -1.013  0.00  0.00     0.185 C 
BRANCH  25  26
ATOM     26  S   UNL d   1      23.166 -18.242   0.580  0.00  0.00    -0.081 SA
BRANCH  26  27
ATOM     27  C   UNL d   1      21.476 -18.838   0.087  0.00  0.00     0.193 A 
ATOM     28  N   UNL d   1      21.106 -18.824  -1.183  0.00  0.00    -0.120 NA
ATOM     29  N   UNL d   1      19.775 -19.293  -1.271  0.00  0.00    -0.103 NA
ATOM     30  C   UNL d   1      19.308 -19.604  -0.041  0.00  0.00     0.267 A 
ATOM     31  N   UNL d   1      20.387 -19.341   0.893  0.00  0.00    -0.288 N 
BRANCH  30  32
ATOM     32  O   UNL d   1      18.032 -20.086   0.183  0.00  0.00    -0.330 OA
ATOM     33  H   UNL d   1      17.442 -20.335  -0.568  0.00  0.00     0.221 HD
ENDBRANCH  30  32
BRANCH  31  34
ATOM     34  C   UNL d   1      20.476 -19.483   2.405  0.00  0.00     0.135 C 
BRANCH  34  35
ATOM     35  C   UNL d   1      19.487 -20.470   2.898  0.00  0.00     0.016 C 
ATOM     36  C   UNL d   1      19.583 -20.830   4.395  0.00  0.00     0.006 C 
ENDBRANCH  34  35
ENDBRANCH  31  34
ENDBRANCH  26  27
ENDBRANCH  25  26
ENDBRANCH  22  25
ENDBRANCH  20  21
ENDBRANCH   1  20
TORSDOF 11
ENDMDL
MODEL 9
REMARK VINA RESULT:   -29.537      2.621      3.995
REMARK INTER + INTRA:         -34.784
REMARK INTER:                 -32.818
REMARK INTRA:                  -1.965
REMARK CONF_INDEPENDENT:        3.281
REMARK UNBOUND:                -1.965
REMARK  11 active torsions:
REMARK  status: ('A' for Active; 'I' for Inactive)
REMARK    1  A    between atoms: C_2  and  C_3 
REMARK    2  A    between atoms: C_3  and  N_4 
REMARK    3  A    between atoms: C_5  and  O_6 
REMARK    4  A    between atoms: C_9  and  S_10 
REMARK    5  A    between atoms: S_10  and  C_11 
REMARK    6  A    between atoms: C_11  and  C_12 
REMARK       I    between atoms: C_12  and  N_14 
REMARK    7  A    between atoms: N_14  and  C_15 
REMARK    8  A    between atoms: C_16  and  C_15 
REMARK    9  A    between atoms: C_16  and  C_25 
REMARK   10  A    between atoms: C_16  and  C_17 
REMARK   11  A    between atoms: C_20  and  O_21 
ROOT
ATOM      1  C   UNL d   1      28.799 -14.501  -3.076  0.00  0.00     0.071 C 
ENDROOT
BRANCH   1   2
ATOM      2  C   UNL d   1      28.819 -14.782  -1.600  0.00  0.00    -0.020 A 
ATOM      3  C   UNL d   1      29.541 -15.824  -1.013  0.00  0.00     0.097 A 
ATOM      4  N   UNL d   1      29.274 -15.838   0.295  0.00  0.00    -0.365 N 
ATOM      5  C   UNL d   1      28.397 -14.880   0.586  0.00  0.00     0.042 A 
ATOM      6  H   UNL d   1      29.625 -16.418   1.033  0.00  0.00     0.165 HD
ATOM      7  C   UNL d   1      27.923 -14.617   1.805  0.00  0.00     0.027 C 
ATOM      8  C   UNL d   1      28.026 -14.154  -0.508  0.00  0.00    -0.004 A 
ATOM      9  C   UNL d   1      27.062 -13.603   1.725  0.00  0.00    -0.015 C 
ATOM     10  C   UNL d   1      26.228 -12.654   1.714  0.00  0.00     0.043 C 
ATOM     11  C   UNL d   1      26.945 -13.065  -0.022  0.00  0.00    -0.003 C 
ENDBRANCH   1   2
BRANCH   1  12
ATOM     12  C   UNL d   1      29.723 -15.459  -3.800  0.00  0.00    -0.048 C 
ATOM     13  C   UNL d   1      29.269 -16.562  -4.509  0.00  0.00     0.011 C 
ATOM     14  C   UNL d   1      30.180 -17.534  -4.911  0.00  0.00     0.037 C 
ATOM     15  C   UNL d   1      31.543 -17.298  -4.929  0.00  0.00     0.068 C 
ATOM     16  C   UNL d   1      31.977 -16.159  -4.301  0.00  0.00     0.037 C 
ATOM     17  C   UNL d   1      31.086 -15.244  -3.759  0.00  0.00     0.011 C 
BRANCH  15  18
ATOM     18  O   UNL d   1      32.345 -18.185  -5.589  0.00  0.00    -0.356 OA
ATOM     19  C   UNL d   1      31.730 -18.992  -6.600  0.00  0.00     0.210 C 
ENDBRANCH  15  18
ENDBRANCH   1  12
BRANCH   1  20
ATOM     20  C   UNL d   1      27.407 -14.648  -3.643  0.00  0.00     0.136 C 
BRANCH  20  21
ATOM     21  N   UNL d   1      26.652 -15.740  -3.076  0.00  0.00    -0.359 N 
ATOM     22  C   UNL d   1      25.313 -15.555  -2.846  0.00  0.00     0.227 C 
ATOM     23  O   UNL d   1      24.682 -14.539  -3.049  0.00  0.00    -0.273 OA
ATOM     24  H   UNL d   1      27.145 -16.604  -2.834  0.00  0.00     0.162 HD
BRANCH  22  25
ATOM     25  C   UNL d   1      24.732 -16.637  -2.122  0.00  0.00     0.185 C 
BRANCH  25  26
ATOM     26  S   UNL d   1      23.005 -16.065  -1.237  0.00  0.00    -0.081 SA
BRANCH  26  27
ATOM     27  C   UNL d   1      21.845 -17.493  -0.974  0.00  0.00     0.193 A 
ATOM     28  N   UNL d   1      20.551 -17.356  -1.210  0.00  0.00    -0.120 NA
ATOM     29  N   UNL d   1      19.904 -18.574  -0.897  0.00  0.00    -0.103 NA
ATOM     30  C   UNL d   1      20.805 -19.483  -0.460  0.00  0.00     0.267 A 
ATOM     31  N   UNL d   1      22.102 -18.836  -0.504  0.00  0.00    -0.288 N 
BRANCH  30  32
ATOM     32  O   UNL d   1      20.459 -20.765  -0.078  0.00  0.00    -0.330 OA
ATOM     33  H   UNL d   1      19.580 -21.148  -0.312  0.00  0.00     0.221 HD
ENDBRANCH  30  32
BRANCH  31  34
ATOM     34  C   UNL d   1      23.493 -19.328  -0.133  0.00  0.00     0.135 C 
BRANCH  34  35
ATOM     35  C   UNL d   1      24.268 -18.255   0.534  0.00  0.00     0.016 C 
ATOM     36  C   UNL d   1      25.804 -18.386   0.459  0.00  0.00     0.006 C 
ENDBRANCH  34  35
ENDBRANCH  31  34
ENDBRANCH  26  27
ENDBRANCH  25  26
ENDBRANCH  22  25
ENDBRANCH  20  21
ENDBRANCH   1  20
TORSDOF 11
ENDMDL
