MODEL 1
REMARK VINA RESULT:    -8.249      0.000      0.000
REMARK INTER + INTRA:          -9.787
REMARK INTER:                  -9.144
REMARK INTRA:                  -0.643
REMARK CONF_INDEPENDENT:        0.895
REMARK UNBOUND:                -0.643
REMARK  3 active torsions:
REMARK  status: ('A' for Active; 'I' for Inactive)
REMARK       I    between atoms: N_1  and  C_2 
REMARK    1  A    between atoms: C_2  and  C_4 
REMARK       I    between atoms: N_7  and  C_8 
REMARK    2  A    between atoms: C_8  and  C_10 
REMARK    3  A    between atoms: C_13  and  N_14 
ROOT
ATOM      1  C   UNL d   1      26.687 -17.161  -0.586  0.00  0.00     0.032 A 
ATOM      2  C   UNL d   1      26.032 -16.567  -1.665  0.00  0.00     0.019 A 
ATOM      3  C   UNL d   1      24.717 -16.943  -1.963  0.00  0.00     0.032 A 
ATOM      4  C   UNL d   1      24.080 -17.948  -1.227  0.00  0.00     0.059 A 
ATOM      5  C   UNL d   1      24.750 -18.464  -0.123  0.00  0.00     0.032 A 
ATOM      6  C   UNL d   1      26.041 -18.104   0.195  0.00  0.00     0.019 A 
ENDROOT
BRANCH   1   7
ATOM      7  C   UNL d   1      28.030 -16.735  -0.160  0.00  0.00     0.253 C 
ATOM      8  N   UNL d   1      28.207 -15.393   0.152  0.00  0.00    -0.348 N 
ATOM      9  C   UNL d   1      29.518 -14.881   0.544  0.00  0.00     0.127 C 
ATOM     10  C   UNL d   1      27.112 -14.446   0.313  0.00  0.00     0.127 C 
ATOM     11  C   UNL d   1      29.446 -14.253   1.938  0.00  0.00     0.034 C 
ATOM     12  C   UNL d   1      28.265 -13.255   2.120  0.00  0.00     0.081 C 
ATOM     13  C   UNL d   1      27.000 -14.073   1.801  0.00  0.00     0.034 C 
ATOM     14  O   UNL d   1      28.919 -17.577  -0.159  0.00  0.00    -0.267 OA
BRANCH  12  15
ATOM     15  C   UNL d   1      27.995 -11.987   1.263  0.00  0.00     0.219 C 
ATOM     16  N   UNL d   1      28.838 -11.512   0.343  0.00  0.00    -0.370 N 
ATOM     17  H   UNL d   1      28.470 -10.675  -0.106  0.00  0.00     0.159 HD
ATOM     18  H   UNL d   1      29.774 -11.815   0.153  0.00  0.00     0.159 HD
ATOM     19  O   UNL d   1      26.969 -11.306   1.396  0.00  0.00    -0.273 OA
ENDBRANCH  12  15
ENDBRANCH   1   7
BRANCH   4  20
ATOM     20  N   UNL d   1      22.815 -18.360  -1.645  0.00  0.00    -0.225 NA
ATOM     21  C   UNL d   1      21.942 -18.899  -0.884  0.00  0.00     0.163 C 
ATOM     22  N   UNL d   1      21.854 -19.249   0.450  0.00  0.00    -0.362 N 
ATOM     23  S   UNL d   1      20.391 -19.325  -1.675  0.00  0.00    -0.084 SA
ATOM     24  C   UNL d   1      20.505 -19.300   0.921  0.00  0.00     0.112 C 
ATOM     25  H   UNL d   1      22.594 -19.194   1.121  0.00  0.00     0.162 HD
ATOM     26  C   UNL d   1      20.203 -19.955   2.246  0.00  0.00     0.166 C 
ATOM     27  C   UNL d   1      19.849 -20.148  -0.162  0.00  0.00     0.093 C 
ATOM     28  S   UNL d   1      18.515 -20.544   1.961  0.00  0.00     0.147 S 
ATOM     29  O   UNL d   1      17.592 -19.700   2.673  0.00  0.00    -0.228 OA
ATOM     30  O   UNL d   1      18.524 -21.992   2.105  0.00  0.00    -0.228 OA
ATOM     31  C   UNL d   1      18.405 -20.161   0.202  0.00  0.00     0.158 C 
ENDBRANCH   4  20
TORSDOF 3
ENDMDL
MODEL 2
REMARK VINA RESULT:    -7.842      3.038      5.097
REMARK INTER + INTRA:          -9.389
REMARK INTER:                  -8.737
REMARK INTRA:                  -0.652
REMARK CONF_INDEPENDENT:        0.895
REMARK UNBOUND:                -0.652
REMARK  3 active torsions:
REMARK  status: ('A' for Active; 'I' for Inactive)
REMARK       I    between atoms: N_1  and  C_2 
REMARK    1  A    between atoms: C_2  and  C_4 
REMARK       I    between atoms: N_7  and  C_8 
REMARK    2  A    between atoms: C_8  and  C_10 
REMARK    3  A    between atoms: C_13  and  N_14 
ROOT
ATOM      1  C   UNL d   1      27.677 -12.126  -0.633  0.00  0.00     0.032 A 
ATOM      2  C   UNL d   1      28.477 -12.923   0.185  0.00  0.00     0.019 A 
ATOM      3  C   UNL d   1      28.264 -14.307   0.217  0.00  0.00     0.032 A 
ATOM      4  C   UNL d   1      27.221 -14.884  -0.516  0.00  0.00     0.059 A 
ATOM      5  C   UNL d   1      26.493 -14.056  -1.364  0.00  0.00     0.032 A 
ATOM      6  C   UNL d   1      26.690 -12.694  -1.418  0.00  0.00     0.019 A 
ENDROOT
BRANCH   1   7
ATOM      7  C   UNL d   1      27.918 -10.682  -0.788  0.00  0.00     0.253 C 
ATOM      8  N   UNL d   1      27.691  -9.873   0.319  0.00  0.00    -0.348 N 
ATOM      9  C   UNL d   1      27.868  -8.425   0.237  0.00  0.00     0.127 C 
ATOM     10  C   UNL d   1      27.466 -10.382   1.664  0.00  0.00     0.127 C 
ATOM     11  C   UNL d   1      28.912  -7.960   1.256  0.00  0.00     0.034 C 
ATOM     12  C   UNL d   1      28.685  -8.519   2.691  0.00  0.00     0.081 C 
ATOM     13  C   UNL d   1      28.695 -10.050   2.528  0.00  0.00     0.034 C 
ATOM     14  O   UNL d   1      28.251 -10.277  -1.894  0.00  0.00    -0.267 OA
BRANCH  12  15
ATOM     15  C   UNL d   1      27.405  -8.343   3.553  0.00  0.00     0.219 C 
ATOM     16  N   UNL d   1      27.168  -9.011   4.684  0.00  0.00    -0.370 N 
ATOM     17  H   UNL d   1      26.274  -8.747   5.095  0.00  0.00     0.159 HD
ATOM     18  H   UNL d   1      27.694  -9.771   5.072  0.00  0.00     0.159 HD
ATOM     19  O   UNL d   1      26.491  -7.573   3.230  0.00  0.00    -0.273 OA
ENDBRANCH  12  15
ENDBRANCH   1   7
BRANCH   4  20
ATOM     20  N   UNL d   1      26.986 -16.248  -0.353  0.00  0.00    -0.225 NA
ATOM     21  C   UNL d   1      25.827 -16.787  -0.348  0.00  0.00     0.163 C 
ATOM     22  N   UNL d   1      24.521 -16.356  -0.485  0.00  0.00    -0.362 N 
ATOM     23  S   UNL d   1      25.808 -18.566  -0.130  0.00  0.00    -0.084 SA
ATOM     24  C   UNL d   1      23.647 -17.384  -0.960  0.00  0.00     0.112 C 
ATOM     25  H   UNL d   1      24.221 -15.404  -0.550  0.00  0.00     0.162 HD
ATOM     26  C   UNL d   1      22.154 -17.189  -0.876  0.00  0.00     0.166 C 
ATOM     27  C   UNL d   1      24.006 -18.529  -0.020  0.00  0.00     0.093 C 
ATOM     28  S   UNL d   1      21.592 -18.901  -0.711  0.00  0.00     0.147 S 
ATOM     29  O   UNL d   1      21.018 -19.334  -1.957  0.00  0.00    -0.228 OA
ATOM     30  O   UNL d   1      20.887 -19.013   0.558  0.00  0.00    -0.228 OA
ATOM     31  C   UNL d   1      23.207 -19.682  -0.520  0.00  0.00     0.158 C 
ENDBRANCH   4  20
TORSDOF 3
ENDMDL
MODEL 3
REMARK VINA RESULT:    -7.676      5.729      8.528
REMARK INTER + INTRA:          -9.263
REMARK INTER:                  -8.571
REMARK INTRA:                  -0.692
REMARK CONF_INDEPENDENT:        0.895
REMARK UNBOUND:                -0.692
REMARK  3 active torsions:
REMARK  status: ('A' for Active; 'I' for Inactive)
REMARK       I    between atoms: N_1  and  C_2 
REMARK    1  A    between atoms: C_2  and  C_4 
REMARK       I    between atoms: N_7  and  C_8 
REMARK    2  A    between atoms: C_8  and  C_10 
REMARK    3  A    between atoms: C_13  and  N_14 
ROOT
ATOM      1  C   UNL d   1      28.539 -12.529   4.745  0.00  0.00     0.032 A 
ATOM      2  C   UNL d   1      29.402 -13.587   4.463  0.00  0.00     0.019 A 
ATOM      3  C   UNL d   1      29.107 -14.450   3.400  0.00  0.00     0.032 A 
ATOM      4  C   UNL d   1      27.930 -14.292   2.660  0.00  0.00     0.059 A 
ATOM      5  C   UNL d   1      27.135 -13.184   2.939  0.00  0.00     0.032 A 
ATOM      6  C   UNL d   1      27.409 -12.319   3.974  0.00  0.00     0.019 A 
ENDROOT
BRANCH   1   7
ATOM      7  C   UNL d   1      28.846 -11.530   5.782  0.00  0.00     0.253 C 
ATOM      8  N   UNL d   1      28.654 -11.902   7.106  0.00  0.00    -0.348 N 
ATOM      9  C   UNL d   1      28.897 -10.957   8.193  0.00  0.00     0.127 C 
ATOM     10  C   UNL d   1      28.403 -13.271   7.536  0.00  0.00     0.127 C 
ATOM     11  C   UNL d   1      29.959 -11.508   9.148  0.00  0.00     0.034 C 
ATOM     12  C   UNL d   1      29.704 -12.978   9.594  0.00  0.00     0.081 C 
ATOM     13  C   UNL d   1      29.644 -13.786   8.285  0.00  0.00     0.034 C 
ATOM     14  O   UNL d   1      29.199 -10.417   5.412  0.00  0.00    -0.267 OA
BRANCH  12  15
ATOM     15  C   UNL d   1      28.431 -13.514  10.306  0.00  0.00     0.219 C 
ATOM     16  N   UNL d   1      27.631 -12.766  11.070  0.00  0.00    -0.370 N 
ATOM     17  H   UNL d   1      26.852 -13.309  11.439  0.00  0.00     0.159 HD
ATOM     18  H   UNL d   1      27.781 -11.825  11.381  0.00  0.00     0.159 HD
ATOM     19  O   UNL d   1      28.079 -14.698  10.228  0.00  0.00    -0.273 OA
ENDBRANCH  12  15
ENDBRANCH   1   7
BRANCH   4  20
ATOM     20  N   UNL d   1      27.635 -15.250   1.692  0.00  0.00    -0.225 NA
ATOM     21  C   UNL d   1      27.100 -14.994   0.560  0.00  0.00     0.163 C 
ATOM     22  N   UNL d   1      26.659 -13.867  -0.108  0.00  0.00    -0.362 N 
ATOM     23  S   UNL d   1      26.838 -16.411  -0.505  0.00  0.00    -0.084 SA
ATOM     24  C   UNL d   1      26.664 -14.029  -1.529  0.00  0.00     0.112 C 
ATOM     25  H   UNL d   1      26.616 -12.942   0.268  0.00  0.00     0.162 HD
ATOM     26  C   UNL d   1      25.935 -13.033  -2.394  0.00  0.00     0.166 C 
ATOM     27  C   UNL d   1      25.943 -15.365  -1.673  0.00  0.00     0.093 C 
ATOM     28  S   UNL d   1      25.482 -14.070  -3.807  0.00  0.00     0.147 S 
ATOM     29  O   UNL d   1      26.330 -13.747  -4.923  0.00  0.00    -0.228 OA
ATOM     30  O   UNL d   1      24.030 -14.075  -3.902  0.00  0.00    -0.228 OA
ATOM     31  C   UNL d   1      26.000 -15.660  -3.132  0.00  0.00     0.158 C 
ENDBRANCH   4  20
TORSDOF 3
ENDMDL
MODEL 4
REMARK VINA RESULT:    -7.442      6.317      8.568
REMARK INTER + INTRA:          -9.028
REMARK INTER:                  -8.337
REMARK INTRA:                  -0.691
REMARK CONF_INDEPENDENT:        0.895
REMARK UNBOUND:                -0.691
REMARK  3 active torsions:
REMARK  status: ('A' for Active; 'I' for Inactive)
REMARK       I    between atoms: N_1  and  C_2 
REMARK    1  A    between atoms: C_2  and  C_4 
REMARK       I    between atoms: N_7  and  C_8 
REMARK    2  A    between atoms: C_8  and  C_10 
REMARK    3  A    between atoms: C_13  and  N_14 
ROOT
ATOM      1  C   UNL d   1      28.461 -13.733   4.302  0.00  0.00     0.032 A 
ATOM      2  C   UNL d   1      27.211 -13.337   3.828  0.00  0.00     0.019 A 
ATOM      3  C   UNL d   1      27.101 -12.813   2.534  0.00  0.00     0.032 A 
ATOM      4  C   UNL d   1      28.239 -12.632   1.740  0.00  0.00     0.059 A 
ATOM      5  C   UNL d   1      29.452 -13.101   2.233  0.00  0.00     0.032 A 
ATOM      6  C   UNL d   1      29.583 -13.626   3.500  0.00  0.00     0.019 A 
ENDROOT
BRANCH   1   7
ATOM      7  C   UNL d   1      28.625 -14.384   5.612  0.00  0.00     0.253 C 
ATOM      8  N   UNL d   1      29.120 -13.609   6.654  0.00  0.00    -0.348 N 
ATOM      9  C   UNL d   1      29.351 -14.189   7.975  0.00  0.00     0.127 C 
ATOM     10  C   UNL d   1      29.257 -12.161   6.594  0.00  0.00     0.127 C 
ATOM     11  C   UNL d   1      28.527 -13.448   9.031  0.00  0.00     0.034 C 
ATOM     12  C   UNL d   1      28.655 -11.898   8.957  0.00  0.00     0.081 C 
ATOM     13  C   UNL d   1      28.211 -11.529   7.529  0.00  0.00     0.034 C 
ATOM     14  O   UNL d   1      28.368 -15.578   5.690  0.00  0.00    -0.267 OA
BRANCH  12  15
ATOM     15  C   UNL d   1      29.973 -11.080   9.054  0.00  0.00     0.219 C 
ATOM     16  N   UNL d   1      30.038  -9.814   9.473  0.00  0.00    -0.370 N 
ATOM     17  H   UNL d   1      30.994  -9.465   9.464  0.00  0.00     0.159 HD
ATOM     18  H   UNL d   1      29.277  -9.192   9.670  0.00  0.00     0.159 HD
ATOM     19  O   UNL d   1      31.069 -11.551   8.721  0.00  0.00    -0.273 OA
ENDBRANCH  12  15
ENDBRANCH   1   7
BRANCH   4  20
ATOM     20  N   UNL d   1      28.081 -12.000   0.508  0.00  0.00    -0.225 NA
ATOM     21  C   UNL d   1      27.756 -12.595  -0.575  0.00  0.00     0.163 C 
ATOM     22  N   UNL d   1      27.458 -13.890  -0.956  0.00  0.00    -0.362 N 
ATOM     23  S   UNL d   1      27.610 -11.542  -2.018  0.00  0.00    -0.084 SA
ATOM     24  C   UNL d   1      26.630 -13.947  -2.121  0.00  0.00     0.112 C 
ATOM     25  H   UNL d   1      27.526 -14.702  -0.376  0.00  0.00     0.162 HD
ATOM     26  C   UNL d   1      26.462 -15.256  -2.851  0.00  0.00     0.166 C 
ATOM     27  C   UNL d   1      27.376 -13.002  -3.055  0.00  0.00     0.093 C 
ATOM     28  S   UNL d   1      26.174 -14.672  -4.540  0.00  0.00     0.147 S 
ATOM     29  O   UNL d   1      24.780 -14.824  -4.863  0.00  0.00    -0.228 OA
ATOM     30  O   UNL d   1      27.235 -15.210  -5.378  0.00  0.00    -0.228 OA
ATOM     31  C   UNL d   1      26.513 -12.923  -4.267  0.00  0.00     0.158 C 
ENDBRANCH   4  20
TORSDOF 3
ENDMDL
MODEL 5
REMARK VINA RESULT:    -7.390      4.104      5.786
REMARK INTER + INTRA:          -8.935
REMARK INTER:                  -8.285
REMARK INTRA:                  -0.650
REMARK CONF_INDEPENDENT:        0.895
REMARK UNBOUND:                -0.650
REMARK  3 active torsions:
REMARK  status: ('A' for Active; 'I' for Inactive)
REMARK       I    between atoms: N_1  and  C_2 
REMARK    1  A    between atoms: C_2  and  C_4 
REMARK       I    between atoms: N_7  and  C_8 
REMARK    2  A    between atoms: C_8  and  C_10 
REMARK    3  A    between atoms: C_13  and  N_14 
ROOT
ATOM      1  C   UNL d   1      27.852 -12.116  -0.910  0.00  0.00     0.032 A 
ATOM      2  C   UNL d   1      28.347 -13.068  -1.802  0.00  0.00     0.019 A 
ATOM      3  C   UNL d   1      27.993 -14.413  -1.639  0.00  0.00     0.032 A 
ATOM      4  C   UNL d   1      27.198 -14.814  -0.560  0.00  0.00     0.059 A 
ATOM      5  C   UNL d   1      26.677 -13.820   0.264  0.00  0.00     0.032 A 
ATOM      6  C   UNL d   1      27.006 -12.491   0.118  0.00  0.00     0.019 A 
ENDROOT
BRANCH   1   7
ATOM      7  C   UNL d   1      28.105 -10.677  -1.089  0.00  0.00     0.253 C 
ATOM      8  N   UNL d   1      27.690 -10.097  -2.281  0.00  0.00    -0.348 N 
ATOM      9  C   UNL d   1      27.939  -8.683  -2.553  0.00  0.00     0.127 C 
ATOM     10  C   UNL d   1      26.823 -10.758  -3.246  0.00  0.00     0.127 C 
ATOM     11  C   UNL d   1      26.618  -7.950  -2.799  0.00  0.00     0.034 C 
ATOM     12  C   UNL d   1      25.680  -8.665  -3.815  0.00  0.00     0.081 C 
ATOM     13  C   UNL d   1      25.448 -10.068  -3.225  0.00  0.00     0.034 C 
ATOM     14  O   UNL d   1      28.711 -10.093  -0.200  0.00  0.00    -0.267 OA
BRANCH  12  15
ATOM     15  C   UNL d   1      26.030  -9.038  -5.282  0.00  0.00     0.219 C 
ATOM     16  N   UNL d   1      25.432 -10.015  -5.968  0.00  0.00    -0.370 N 
ATOM     17  H   UNL d   1      25.808 -10.094  -6.912  0.00  0.00     0.159 HD
ATOM     18  H   UNL d   1      24.782 -10.697  -5.627  0.00  0.00     0.159 HD
ATOM     19  O   UNL d   1      26.921  -8.458  -5.917  0.00  0.00    -0.273 OA
ENDBRANCH  12  15
ENDBRANCH   1   7
BRANCH   4  20
ATOM     20  N   UNL d   1      26.976 -16.179  -0.385  0.00  0.00    -0.225 NA
ATOM     21  C   UNL d   1      25.822 -16.729  -0.375  0.00  0.00     0.163 C 
ATOM     22  N   UNL d   1      24.512 -16.312  -0.514  0.00  0.00    -0.362 N 
ATOM     23  S   UNL d   1      25.821 -18.506  -0.142  0.00  0.00    -0.084 SA
ATOM     24  C   UNL d   1      23.647 -17.352  -0.979  0.00  0.00     0.112 C 
ATOM     25  H   UNL d   1      24.203 -15.364  -0.586  0.00  0.00     0.162 HD
ATOM     26  C   UNL d   1      22.153 -17.170  -0.894  0.00  0.00     0.166 C 
ATOM     27  C   UNL d   1      24.019 -18.486  -0.030  0.00  0.00     0.093 C 
ATOM     28  S   UNL d   1      21.608 -18.887  -0.715  0.00  0.00     0.147 S 
ATOM     29  O   UNL d   1      21.036 -19.335  -1.956  0.00  0.00    -0.228 OA
ATOM     30  O   UNL d   1      20.905 -18.995   0.556  0.00  0.00    -0.228 OA
ATOM     31  C   UNL d   1      23.230 -19.650  -0.520  0.00  0.00     0.158 C 
ENDBRANCH   4  20
TORSDOF 3
ENDMDL
MODEL 6
REMARK VINA RESULT:    -7.335      4.619      6.067
REMARK INTER + INTRA:          -8.785
REMARK INTER:                  -8.230
REMARK INTRA:                  -0.555
REMARK CONF_INDEPENDENT:        0.895
REMARK UNBOUND:                -0.555
REMARK  3 active torsions:
REMARK  status: ('A' for Active; 'I' for Inactive)
REMARK       I    between atoms: N_1  and  C_2 
REMARK    1  A    between atoms: C_2  and  C_4 
REMARK       I    between atoms: N_7  and  C_8 
REMARK    2  A    between atoms: C_8  and  C_10 
REMARK    3  A    between atoms: C_13  and  N_14 
ROOT
ATOM      1  C   UNL d   1      26.189 -12.003  -4.092  0.00  0.00     0.032 A 
ATOM      2  C   UNL d   1      25.062 -12.800  -3.896  0.00  0.00     0.019 A 
ATOM      3  C   UNL d   1      25.179 -13.990  -3.167  0.00  0.00     0.032 A 
ATOM      4  C   UNL d   1      26.424 -14.411  -2.688  0.00  0.00     0.059 A 
ATOM      5  C   UNL d   1      27.505 -13.552  -2.854  0.00  0.00     0.032 A 
ATOM      6  C   UNL d   1      27.412 -12.374  -3.561  0.00  0.00     0.019 A 
ENDROOT
BRANCH   1   7
ATOM      7  C   UNL d   1      26.111 -10.694  -4.760  0.00  0.00     0.253 C 
ATOM      8  N   UNL d   1      26.076  -9.564  -3.952  0.00  0.00    -0.348 N 
ATOM      9  C   UNL d   1      25.958  -8.229  -4.535  0.00  0.00     0.127 C 
ATOM     10  C   UNL d   1      26.352  -9.581  -2.523  0.00  0.00     0.127 C 
ATOM     11  C   UNL d   1      27.154  -7.365  -4.126  0.00  0.00     0.034 C 
ATOM     12  C   UNL d   1      27.463  -7.396  -2.601  0.00  0.00     0.081 C 
ATOM     13  C   UNL d   1      27.699  -8.882  -2.273  0.00  0.00     0.034 C 
ATOM     14  O   UNL d   1      26.025 -10.683  -5.981  0.00  0.00    -0.267 OA
BRANCH  12  15
ATOM     15  C   UNL d   1      26.482  -7.016  -1.457  0.00  0.00     0.219 C 
ATOM     16  N   UNL d   1      25.152  -7.054  -1.569  0.00  0.00    -0.370 N 
ATOM     17  H   UNL d   1      24.695  -6.769  -0.705  0.00  0.00     0.159 HD
ATOM     18  H   UNL d   1      24.609  -7.214  -2.397  0.00  0.00     0.159 HD
ATOM     19  O   UNL d   1      26.876  -6.622  -0.352  0.00  0.00    -0.273 OA
ENDBRANCH  12  15
ENDBRANCH   1   7
BRANCH   4  20
ATOM     20  N   UNL d   1      26.497 -15.660  -2.072  0.00  0.00    -0.225 NA
ATOM     21  C   UNL d   1      25.496 -16.283  -1.580  0.00  0.00     0.163 C 
ATOM     22  N   UNL d   1      24.137 -16.061  -1.460  0.00  0.00    -0.362 N 
ATOM     23  S   UNL d   1      25.866 -17.880  -0.854  0.00  0.00    -0.084 SA
ATOM     24  C   UNL d   1      23.387 -17.274  -1.343  0.00  0.00     0.112 C 
ATOM     25  H   UNL d   1      23.655 -15.222  -1.713  0.00  0.00     0.162 HD
ATOM     26  C   UNL d   1      21.947 -17.217  -0.899  0.00  0.00     0.166 C 
ATOM     27  C   UNL d   1      24.168 -17.996  -0.251  0.00  0.00     0.093 C 
ATOM     28  S   UNL d   1      21.775 -18.826  -0.086  0.00  0.00     0.147 S 
ATOM     29  O   UNL d   1      21.015 -19.706  -0.933  0.00  0.00    -0.228 OA
ATOM     30  O   UNL d   1      21.424 -18.580   1.305  0.00  0.00    -0.228 OA
ATOM     31  C   UNL d   1      23.507 -19.326  -0.142  0.00  0.00     0.158 C 
ENDBRANCH   4  20
TORSDOF 3
ENDMDL
MODEL 7
REMARK VINA RESULT:    -7.169      5.640      6.966
REMARK INTER + INTRA:          -8.792
REMARK INTER:                  -8.064
REMARK INTRA:                  -0.728
REMARK CONF_INDEPENDENT:        0.895
REMARK UNBOUND:                -0.728
REMARK  3 active torsions:
REMARK  status: ('A' for Active; 'I' for Inactive)
REMARK       I    between atoms: N_1  and  C_2 
REMARK    1  A    between atoms: C_2  and  C_4 
REMARK       I    between atoms: N_7  and  C_8 
REMARK    2  A    between atoms: C_8  and  C_10 
REMARK    3  A    between atoms: C_13  and  N_14 
ROOT
ATOM      1  C   UNL d   1      26.122 -11.638  -3.365  0.00  0.00     0.032 A 
ATOM      2  C   UNL d   1      25.308 -12.661  -3.850  0.00  0.00     0.019 A 
ATOM      3  C   UNL d   1      25.357 -13.923  -3.246  0.00  0.00     0.032 A 
ATOM      4  C   UNL d   1      26.254 -14.179  -2.203  0.00  0.00     0.059 A 
ATOM      5  C   UNL d   1      26.999 -13.110  -1.714  0.00  0.00     0.032 A 
ATOM      6  C   UNL d   1      26.962 -11.859  -2.287  0.00  0.00     0.019 A 
ENDROOT
BRANCH   1   7
ATOM      7  C   UNL d   1      26.042 -10.265  -3.891  0.00  0.00     0.253 C 
ATOM      8  N   UNL d   1      26.733  -9.987  -5.063  0.00  0.00    -0.348 N 
ATOM      9  C   UNL d   1      26.738  -8.640  -5.629  0.00  0.00     0.127 C 
ATOM     10  C   UNL d   1      27.322 -11.008  -5.919  0.00  0.00     0.127 C 
ATOM     11  C   UNL d   1      26.167  -8.660  -7.050  0.00  0.00     0.034 C 
ATOM     12  C   UNL d   1      26.780  -9.762  -7.961  0.00  0.00     0.081 C 
ATOM     13  C   UNL d   1      26.509 -11.086  -7.223  0.00  0.00     0.034 C 
ATOM     14  O   UNL d   1      25.419  -9.441  -3.234  0.00  0.00    -0.267 OA
BRANCH  12  15
ATOM     15  C   UNL d   1      28.286  -9.941  -8.299  0.00  0.00     0.219 C 
ATOM     16  N   UNL d   1      29.229  -9.040  -8.012  0.00  0.00    -0.370 N 
ATOM     17  H   UNL d   1      30.150  -9.352  -8.316  0.00  0.00     0.159 HD
ATOM     18  H   UNL d   1      29.104  -8.110  -7.659  0.00  0.00     0.159 HD
ATOM     19  O   UNL d   1      28.717 -10.941  -8.889  0.00  0.00    -0.273 OA
ENDBRANCH  12  15
ENDBRANCH   1   7
BRANCH   4  20
ATOM     20  N   UNL d   1      26.339 -15.484  -1.721  0.00  0.00    -0.225 NA
ATOM     21  C   UNL d   1      25.339 -16.180  -1.335  0.00  0.00     0.163 C 
ATOM     22  N   UNL d   1      23.971 -16.002  -1.242  0.00  0.00    -0.362 N 
ATOM     23  S   UNL d   1      25.726 -17.835  -0.770  0.00  0.00    -0.084 SA
ATOM     24  C   UNL d   1      23.249 -17.237  -1.282  0.00  0.00     0.112 C 
ATOM     25  H   UNL d   1      23.476 -15.152  -1.422  0.00  0.00     0.162 HD
ATOM     26  C   UNL d   1      21.794 -17.261  -0.888  0.00  0.00     0.166 C 
ATOM     27  C   UNL d   1      24.012 -18.054  -0.246  0.00  0.00     0.093 C 
ATOM     28  S   UNL d   1      21.637 -18.950  -0.258  0.00  0.00     0.147 S 
ATOM     29  O   UNL d   1      20.930 -19.752  -1.221  0.00  0.00    -0.228 OA
ATOM     30  O   UNL d   1      21.232 -18.863   1.137  0.00  0.00    -0.228 OA
ATOM     31  C   UNL d   1      23.382 -19.402  -0.303  0.00  0.00     0.158 C 
ENDBRANCH   4  20
TORSDOF 3
ENDMDL
MODEL 8
REMARK VINA RESULT:    -7.104      5.954      9.830
REMARK INTER + INTRA:          -8.453
REMARK INTER:                  -7.999
REMARK INTRA:                  -0.455
REMARK CONF_INDEPENDENT:        0.895
REMARK UNBOUND:                -0.455
REMARK  3 active torsions:
REMARK  status: ('A' for Active; 'I' for Inactive)
REMARK       I    between atoms: N_1  and  C_2 
REMARK    1  A    between atoms: C_2  and  C_4 
REMARK       I    between atoms: N_7  and  C_8 
REMARK    2  A    between atoms: C_8  and  C_10 
REMARK    3  A    between atoms: C_13  and  N_14 
ROOT
ATOM      1  C   UNL d   1      26.779 -15.013  -2.365  0.00  0.00     0.032 A 
ATOM      2  C   UNL d   1      26.813 -13.634  -2.156  0.00  0.00     0.019 A 
ATOM      3  C   UNL d   1      26.603 -12.770  -3.237  0.00  0.00     0.032 A 
ATOM      4  C   UNL d   1      26.418 -13.276  -4.529  0.00  0.00     0.059 A 
ATOM      5  C   UNL d   1      26.329 -14.657  -4.674  0.00  0.00     0.032 A 
ATOM      6  C   UNL d   1      26.525 -15.527  -3.625  0.00  0.00     0.019 A 
ENDROOT
BRANCH   1   7
ATOM      7  C   UNL d   1      26.891 -15.971  -1.253  0.00  0.00     0.253 C 
ATOM      8  N   UNL d   1      25.716 -16.536  -0.774  0.00  0.00    -0.348 N 
ATOM      9  C   UNL d   1      25.736 -17.465   0.353  0.00  0.00     0.127 C 
ATOM     10  C   UNL d   1      24.429 -16.425  -1.448  0.00  0.00     0.127 C 
ATOM     11  C   UNL d   1      25.138 -18.813  -0.060  0.00  0.00     0.034 C 
ATOM     12  C   UNL d   1      23.772 -18.697  -0.798  0.00  0.00     0.081 C 
ATOM     13  C   UNL d   1      24.054 -17.803  -2.020  0.00  0.00     0.034 C 
ATOM     14  O   UNL d   1      28.004 -16.170  -0.785  0.00  0.00    -0.267 OA
BRANCH  12  15
ATOM     15  C   UNL d   1      22.488 -18.015  -0.250  0.00  0.00     0.219 C 
ATOM     16  N   UNL d   1      21.846 -18.406   0.854  0.00  0.00    -0.370 N 
ATOM     17  H   UNL d   1      21.030 -17.825   1.038  0.00  0.00     0.159 HD
ATOM     18  H   UNL d   1      22.016 -19.225   1.406  0.00  0.00     0.159 HD
ATOM     19  O   UNL d   1      21.950 -17.059  -0.825  0.00  0.00    -0.273 OA
ENDBRANCH  12  15
ENDBRANCH   1   7
BRANCH   4  20
ATOM     20  N   UNL d   1      26.330 -12.365  -5.580  0.00  0.00    -0.225 NA
ATOM     21  C   UNL d   1      25.903 -11.167  -5.466  0.00  0.00     0.163 C 
ATOM     22  N   UNL d   1      25.429 -10.365  -4.444  0.00  0.00    -0.362 N 
ATOM     23  S   UNL d   1      25.904 -10.202  -6.976  0.00  0.00    -0.084 SA
ATOM     24  C   UNL d   1      25.609  -8.971  -4.707  0.00  0.00     0.112 C 
ATOM     25  H   UNL d   1      25.252 -10.657  -3.504  0.00  0.00     0.162 HD
ATOM     26  C   UNL d   1      24.885  -7.955  -3.860  0.00  0.00     0.166 C 
ATOM     27  C   UNL d   1      25.046  -8.865  -6.119  0.00  0.00     0.093 C 
ATOM     28  S   UNL d   1      24.699  -6.594  -5.039  0.00  0.00     0.147 S 
ATOM     29  O   UNL d   1      25.631  -5.549  -4.708  0.00  0.00    -0.228 OA
ATOM     30  O   UNL d   1      23.275  -6.350  -5.208  0.00  0.00    -0.228 OA
ATOM     31  C   UNL d   1      25.295  -7.450  -6.511  0.00  0.00     0.158 C 
ENDBRANCH   4  20
TORSDOF 3
ENDMDL
MODEL 9
REMARK VINA RESULT:    -7.090      5.286      7.467
REMARK INTER + INTRA:          -8.673
REMARK INTER:                  -7.985
REMARK INTRA:                  -0.687
REMARK CONF_INDEPENDENT:        0.895
REMARK UNBOUND:                -0.687
REMARK  3 active torsions:
REMARK  status: ('A' for Active; 'I' for Inactive)
REMARK       I    between atoms: N_1  and  C_2 
REMARK    1  A    between atoms: C_2  and  C_4 
REMARK       I    between atoms: N_7  and  C_8 
REMARK    2  A    between atoms: C_8  and  C_10 
REMARK    3  A    between atoms: C_13  and  N_14 
ROOT
ATOM      1  C   UNL d   1      32.573 -17.158   1.119  0.00  0.00     0.032 A 
ATOM      2  C   UNL d   1      31.936 -16.004   1.574  0.00  0.00     0.019 A 
ATOM      3  C   UNL d   1      30.746 -15.589   0.963  0.00  0.00     0.032 A 
ATOM      4  C   UNL d   1      30.227 -16.289  -0.132  0.00  0.00     0.059 A 
ATOM      5  C   UNL d   1      30.864 -17.467  -0.507  0.00  0.00     0.032 A 
ATOM      6  C   UNL d   1      32.031 -17.898   0.083  0.00  0.00     0.019 A 
ENDROOT
BRANCH   1   7
ATOM      7  C   UNL d   1      33.769 -17.700   1.784  0.00  0.00     0.253 C 
ATOM      8  N   UNL d   1      33.571 -18.584   2.837  0.00  0.00    -0.348 N 
ATOM      9  C   UNL d   1      34.703 -19.137   3.576  0.00  0.00     0.127 C 
ATOM     10  C   UNL d   1      32.284 -19.184   3.161  0.00  0.00     0.127 C 
ATOM     11  C   UNL d   1      34.696 -20.665   3.493  0.00  0.00     0.034 C 
ATOM     12  C   UNL d   1      33.317 -21.308   3.819  0.00  0.00     0.081 C 
ATOM     13  C   UNL d   1      32.336 -20.681   2.811  0.00  0.00     0.034 C 
ATOM     14  O   UNL d   1      34.862 -17.297   1.405  0.00  0.00    -0.267 OA
BRANCH  12  15
ATOM     15  C   UNL d   1      32.508 -21.129   5.135  0.00  0.00     0.219 C 
ATOM     16  N   UNL d   1      33.044 -21.195   6.356  0.00  0.00    -0.370 N 
ATOM     17  H   UNL d   1      32.343 -21.048   7.080  0.00  0.00     0.159 HD
ATOM     18  H   UNL d   1      33.975 -21.469   6.605  0.00  0.00     0.159 HD
ATOM     19  O   UNL d   1      31.286 -20.932   5.138  0.00  0.00    -0.273 OA
ENDBRANCH  12  15
ENDBRANCH   1   7
BRANCH   4  20
ATOM     20  N   UNL d   1      29.105 -15.762  -0.769  0.00  0.00    -0.225 NA
ATOM     21  C   UNL d   1      27.951 -16.310  -0.774  0.00  0.00     0.163 C 
ATOM     22  N   UNL d   1      27.382 -17.454  -0.245  0.00  0.00    -0.362 N 
ATOM     23  S   UNL d   1      26.677 -15.415  -1.662  0.00  0.00    -0.084 SA
ATOM     24  C   UNL d   1      25.969 -17.334  -0.059  0.00  0.00     0.112 C 
ATOM     25  H   UNL d   1      27.869 -18.180   0.240  0.00  0.00     0.162 HD
ATOM     26  C   UNL d   1      25.147 -18.569   0.212  0.00  0.00     0.166 C 
ATOM     27  C   UNL d   1      25.541 -16.797  -1.420  0.00  0.00     0.093 C 
ATOM     28  S   UNL d   1      23.556 -18.087  -0.504  0.00  0.00     0.147 S 
ATOM     29  O   UNL d   1      22.633 -17.781   0.556  0.00  0.00    -0.228 OA
ATOM     30  O   UNL d   1      23.246 -19.034  -1.564  0.00  0.00    -0.228 OA
ATOM     31  C   UNL d   1      24.081 -16.543  -1.274  0.00  0.00     0.158 C 
ENDBRANCH   4  20
TORSDOF 3
ENDMDL
