MODEL 1
REMARK VINA RESULT:   -31.812      0.000      0.000
REMARK INTER + INTRA:         -35.143
REMARK INTER:                 -34.497
REMARK INTRA:                  -0.646
REMARK CONF_INDEPENDENT:        2.685
REMARK UNBOUND:                -0.646
REMARK  9 active torsions:
REMARK  status: ('A' for Active; 'I' for Inactive)
REMARK    1  A    between atoms: C_2  and  C_3 
REMARK    2  A    between atoms: C_3  and  O_5 
REMARK    3  A    between atoms: O_5  and  C_6 
REMARK    4  A    between atoms: C_10  and  N_11 
REMARK       I    between atoms: N_11  and  C_12 
REMARK       I    between atoms: C_12  and  N_14 
REMARK    5  A    between atoms: N_14  and  C_15 
REMARK    6  A    between atoms: C_15  and  C_16 
REMARK    7  A    between atoms: C_16  and  C_17 
REMARK    8  A    between atoms: C_17  and  C_18 
REMARK    9  A    between atoms: C_21  and  N_22 
ROOT
ATOM      1  C   UNL d   1      20.502 -19.316   0.067  0.00  0.00     0.079 A 
ATOM      2  N   UNL d   1      19.901 -19.325  -1.133  0.00  0.00    -0.176 NA
ATOM      3  N   UNL d   1      18.776 -20.038  -0.925  0.00  0.00    -0.261 N 
ATOM      4  C   UNL d   1      18.641 -20.491   0.361  0.00  0.00     0.138 A 
ATOM      5  C   UNL d   1      19.765 -20.054   1.020  0.00  0.00     0.115 A 
ATOM      6  C   UNL d   1      20.098 -20.280   2.388  0.00  0.00     0.105 C 
ATOM      7  N   UNL d   1      20.387 -20.453   3.493  0.00  0.00    -0.191 NA
ATOM      8  H   UNL d   1      18.134 -20.171  -1.698  0.00  0.00     0.191 HD
ENDROOT
BRANCH   4   9
ATOM      9  N   UNL d   1      17.572 -21.202   0.766  0.00  0.00    -0.383 N 
ATOM     10  H   UNL d   1      17.049 -21.845   0.177  0.00  0.00     0.157 HD
ATOM     11  H   UNL d   1      17.203 -21.118   1.713  0.00  0.00     0.157 HD
ENDBRANCH   4   9
BRANCH   1  12
ATOM     12  C   UNL d   1      21.774 -18.559   0.293  0.00  0.00     0.064 C 
BRANCH  12  13
ATOM     13  C   UNL d   1      22.830 -18.904  -0.761  0.00  0.00     0.026 C 
BRANCH  13  14
ATOM     14  C   UNL d   1      24.237 -18.872  -0.195  0.00  0.00     0.125 C 
BRANCH  14  15
ATOM     15  N   UNL d   1      24.827 -17.524  -0.215  0.00  0.00    -0.343 N 
ATOM     16  C   UNL d   1      24.908 -16.885  -1.425  0.00  0.00     0.320 C 
ATOM     17  N   UNL d   1      25.456 -15.599  -1.430  0.00  0.00    -0.309 N 
ATOM     18  O   UNL d   1      24.488 -17.518  -2.387  0.00  0.00    -0.247 OA
ATOM     19  H   UNL d   1      25.778 -15.207  -0.560  0.00  0.00     0.170 HD
ATOM     20  H   UNL d   1      25.155 -17.098   0.636  0.00  0.00     0.164 HD
BRANCH  17  21
ATOM     21  C   UNL d   1      25.628 -14.786  -2.610  0.00  0.00     0.039 A 
ATOM     22  C   UNL d   1      25.161 -13.489  -2.768  0.00  0.00     0.030 A 
ATOM     23  C   UNL d   1      25.474 -12.772  -3.956  0.00  0.00     0.005 A 
ATOM     24  C   UNL d   1      26.160 -13.374  -5.035  0.00  0.00     0.037 A 
ATOM     25  C   UNL d   1      26.649 -14.657  -4.883  0.00  0.00     0.071 A 
ATOM     26  C   UNL d   1      26.392 -15.261  -3.662  0.00  0.00     0.066 A 
BRANCH  25  27
ATOM     27  O   UNL d   1      27.522 -15.205  -5.792  0.00  0.00    -0.346 OA
BRANCH  27  28
ATOM     28  C   UNL d   1      28.816 -14.564  -6.020  0.00  0.00     0.124 C 
ATOM     29  C   UNL d   1      28.983 -13.712  -7.281  0.00  0.00     0.040 C 
BRANCH  28  30
ATOM     30  C   UNL d   1      29.892 -15.664  -6.123  0.00  0.00     0.027 C 
ATOM     31  C   UNL d   1      29.664 -16.775  -5.096  0.00  0.00     0.007 C 
ENDBRANCH  28  30
ENDBRANCH  27  28
ENDBRANCH  25  27
ENDBRANCH  17  21
ENDBRANCH  14  15
ENDBRANCH  13  14
ENDBRANCH  12  13
ENDBRANCH   1  12
TORSDOF 9
ENDMDL
MODEL 2
REMARK VINA RESULT:   -30.789      1.840      3.284
REMARK INTER + INTRA:         -34.070
REMARK INTER:                 -33.474
REMARK INTRA:                  -0.596
REMARK CONF_INDEPENDENT:        2.685
REMARK UNBOUND:                -0.596
REMARK  9 active torsions:
REMARK  status: ('A' for Active; 'I' for Inactive)
REMARK    1  A    between atoms: C_2  and  C_3 
REMARK    2  A    between atoms: C_3  and  O_5 
REMARK    3  A    between atoms: O_5  and  C_6 
REMARK    4  A    between atoms: C_10  and  N_11 
REMARK       I    between atoms: N_11  and  C_12 
REMARK       I    between atoms: C_12  and  N_14 
REMARK    5  A    between atoms: N_14  and  C_15 
REMARK    6  A    between atoms: C_15  and  C_16 
REMARK    7  A    between atoms: C_16  and  C_17 
REMARK    8  A    between atoms: C_17  and  C_18 
REMARK    9  A    between atoms: C_21  and  N_22 
ROOT
ATOM      1  C   UNL d   1      20.466 -19.311   0.190  0.00  0.00     0.079 A 
ATOM      2  N   UNL d   1      19.902 -19.325  -1.027  0.00  0.00    -0.176 NA
ATOM      3  N   UNL d   1      18.786 -20.064  -0.857  0.00  0.00    -0.261 N 
ATOM      4  C   UNL d   1      18.623 -20.528   0.422  0.00  0.00     0.138 A 
ATOM      5  C   UNL d   1      19.717 -20.072   1.117  0.00  0.00     0.115 A 
ATOM      6  C   UNL d   1      20.015 -20.299   2.493  0.00  0.00     0.105 C 
ATOM      7  N   UNL d   1      20.274 -20.473   3.605  0.00  0.00    -0.191 NA
ATOM      8  H   UNL d   1      18.170 -20.205  -1.649  0.00  0.00     0.191 HD
ENDROOT
BRANCH   4   9
ATOM      9  N   UNL d   1      17.557 -21.264   0.790  0.00  0.00    -0.383 N 
ATOM     10  H   UNL d   1      17.102 -21.208   1.697  0.00  0.00     0.157 HD
ATOM     11  H   UNL d   1      17.146 -21.956   0.164  0.00  0.00     0.157 HD
ENDBRANCH   4   9
BRANCH   1  12
ATOM     12  C   UNL d   1      21.714 -18.529   0.459  0.00  0.00     0.064 C 
BRANCH  12  13
ATOM     13  C   UNL d   1      22.675 -18.574  -0.733  0.00  0.00     0.026 C 
BRANCH  13  14
ATOM     14  C   UNL d   1      24.123 -18.694  -0.298  0.00  0.00     0.125 C 
BRANCH  14  15
ATOM     15  N   UNL d   1      24.822 -17.399  -0.289  0.00  0.00    -0.343 N 
ATOM     16  C   UNL d   1      24.979 -16.755  -1.488  0.00  0.00     0.320 C 
ATOM     17  N   UNL d   1      25.631 -15.518  -1.467  0.00  0.00    -0.309 N 
ATOM     18  O   UNL d   1      24.527 -17.339  -2.467  0.00  0.00    -0.247 OA
ATOM     19  H   UNL d   1      25.968 -15.164  -0.585  0.00  0.00     0.170 HD
ATOM     20  H   UNL d   1      25.168 -17.012   0.573  0.00  0.00     0.164 HD
BRANCH  17  21
ATOM     21  C   UNL d   1      25.892 -14.708  -2.632  0.00  0.00     0.039 A 
ATOM     22  C   UNL d   1      26.253 -15.191  -3.882  0.00  0.00     0.030 A 
ATOM     23  C   UNL d   1      26.399 -14.283  -4.967  0.00  0.00     0.005 A 
ATOM     24  C   UNL d   1      26.291 -12.884  -4.793  0.00  0.00     0.037 A 
ATOM     25  C   UNL d   1      25.911 -12.392  -3.560  0.00  0.00     0.071 A 
ATOM     26  C   UNL d   1      25.689 -13.340  -2.573  0.00  0.00     0.066 A 
BRANCH  25  27
ATOM     27  O   UNL d   1      25.557 -11.075  -3.390  0.00  0.00    -0.346 OA
BRANCH  27  28
ATOM     28  C   UNL d   1      25.864 -10.109  -4.444  0.00  0.00     0.124 C 
ATOM     29  C   UNL d   1      27.228  -9.416  -4.408  0.00  0.00     0.040 C 
BRANCH  28  30
ATOM     30  C   UNL d   1      24.825  -8.971  -4.378  0.00  0.00     0.027 C 
ATOM     31  C   UNL d   1      24.347  -8.561  -5.772  0.00  0.00     0.007 C 
ENDBRANCH  28  30
ENDBRANCH  27  28
ENDBRANCH  25  27
ENDBRANCH  17  21
ENDBRANCH  14  15
ENDBRANCH  13  14
ENDBRANCH  12  13
ENDBRANCH   1  12
TORSDOF 9
ENDMDL
