MODEL 1
REMARK VINA RESULT:   -31.590      0.000      0.000
REMARK INTER + INTRA:         -34.091
REMARK INTER:                 -33.379
REMARK INTRA:                  -0.711
REMARK CONF_INDEPENDENT:        1.790
REMARK UNBOUND:                -0.711
REMARK  6 active torsions:
REMARK  status: ('A' for Active; 'I' for Inactive)
REMARK    1  A    between atoms: N_1  and  C_2 
REMARK    2  A    between atoms: C_7  and  N_8 
REMARK       I    between atoms: N_8  and  C_9 
REMARK    3  A    between atoms: C_9  and  C_11 
REMARK    4  A    between atoms: C_14  and  C_15 
REMARK    5  A    between atoms: C_15  and  S_16 
REMARK    6  A    between atoms: S_16  and  C_17 
ROOT
ATOM      1  C   UNL d   1      26.999 -16.117  -0.085  0.00  0.00     0.032 A 
ATOM      2  C   UNL d   1      27.033 -17.349   0.605  0.00  0.00     0.017 A 
ATOM      3  C   UNL d   1      26.015 -18.283   0.447  0.00  0.00     0.009 A 
ATOM      4  C   UNL d   1      24.906 -17.957  -0.341  0.00  0.00    -0.049 A 
ATOM      5  C   UNL d   1      24.933 -16.736  -1.059  0.00  0.00     0.009 A 
ATOM      6  C   UNL d   1      25.964 -15.818  -0.944  0.00  0.00     0.017 A 
ENDROOT
BRANCH   1   7
ATOM      7  C   UNL d   1      28.238 -15.362  -0.164  0.00  0.00     0.256 C 
ATOM      8  N   UNL d   1      29.163 -15.376   0.867  0.00  0.00    -0.321 N 
ATOM      9  H   UNL d   1      28.957 -15.969   1.665  0.00  0.00     0.169 HD
ATOM     10  O   UNL d   1      28.263 -14.725  -1.224  0.00  0.00    -0.267 OA
BRANCH   8  11
ATOM     11  C   UNL d   1      30.436 -14.693   0.904  0.00  0.00     0.061 A 
ATOM     12  C   UNL d   1      30.982 -14.250  -0.323  0.00  0.00     0.032 A 
ATOM     13  C   UNL d   1      32.197 -13.539  -0.367  0.00  0.00     0.002 A 
ATOM     14  C   UNL d   1      32.892 -13.259   0.803  0.00  0.00     0.002 A 
ATOM     15  C   UNL d   1      32.380 -13.702   2.009  0.00  0.00     0.031 A 
ATOM     16  C   UNL d   1      31.175 -14.411   2.082  0.00  0.00     0.052 A 
BRANCH  16  17
ATOM     17  N   UNL d   1      30.841 -14.842   3.347  0.00  0.00    -0.397 N 
ATOM     18  H   UNL d   1      30.097 -15.469   3.574  0.00  0.00     0.156 HD
ATOM     19  H   UNL d   1      31.473 -14.618   4.109  0.00  0.00     0.156 HD
ENDBRANCH  16  17
ENDBRANCH   8  11
ENDBRANCH   1   7
BRANCH   4  20
ATOM     20  C   UNL d   1      23.695 -18.887  -0.357  0.00  0.00     0.119 C 
BRANCH  20  21
ATOM     21  S   UNL d   1      22.172 -17.966  -0.803  0.00  0.00    -0.106 SA
BRANCH  21  22
ATOM     22  C   UNL d   1      20.848 -19.006  -0.315  0.00  0.00     0.093 A 
ATOM     23  C   UNL d   1      20.778 -19.325   1.039  0.00  0.00     0.039 A 
ATOM     24  C   UNL d   1      19.684 -20.036   1.505  0.00  0.00     0.004 A 
ATOM     25  C   UNL d   1      18.683 -20.380   0.608  0.00  0.00     0.019 A 
ATOM     26  C   UNL d   1      18.824 -19.997  -0.720  0.00  0.00     0.118 A 
ATOM     27  N   UNL d   1      19.891 -19.325  -1.207  0.00  0.00    -0.254 NA
ENDBRANCH  21  22
ENDBRANCH  20  21
ENDBRANCH   4  20
TORSDOF 6
ENDMDL
MODEL 2
REMARK VINA RESULT:   -30.912      1.868      2.352
REMARK INTER + INTRA:         -34.086
REMARK INTER:                 -32.702
REMARK INTRA:                  -1.384
REMARK CONF_INDEPENDENT:        1.790
REMARK UNBOUND:                -1.384
REMARK  6 active torsions:
REMARK  status: ('A' for Active; 'I' for Inactive)
REMARK    1  A    between atoms: N_1  and  C_2 
REMARK    2  A    between atoms: C_7  and  N_8 
REMARK       I    between atoms: N_8  and  C_9 
REMARK    3  A    between atoms: C_9  and  C_11 
REMARK    4  A    between atoms: C_14  and  C_15 
REMARK    5  A    between atoms: C_15  and  S_16 
REMARK    6  A    between atoms: S_16  and  C_17 
ROOT
ATOM      1  C   UNL d   1      26.810 -16.159   0.177  0.00  0.00     0.032 A 
ATOM      2  C   UNL d   1      25.672 -15.605  -0.450  0.00  0.00     0.017 A 
ATOM      3  C   UNL d   1      24.557 -16.390  -0.725  0.00  0.00     0.009 A 
ATOM      4  C   UNL d   1      24.603 -17.761  -0.450  0.00  0.00    -0.049 A 
ATOM      5  C   UNL d   1      25.739 -18.268   0.228  0.00  0.00     0.009 A 
ATOM      6  C   UNL d   1      26.837 -17.486   0.547  0.00  0.00     0.017 A 
ENDROOT
BRANCH   1   7
ATOM      7  C   UNL d   1      27.769 -15.232   0.756  0.00  0.00     0.256 C 
ATOM      8  N   UNL d   1      27.370 -14.211   1.603  0.00  0.00    -0.321 N 
ATOM      9  H   UNL d   1      26.383 -14.160   1.833  0.00  0.00     0.169 HD
ATOM     10  O   UNL d   1      28.900 -15.496   0.332  0.00  0.00    -0.267 OA
BRANCH   8  11
ATOM     11  C   UNL d   1      28.218 -13.243   2.260  0.00  0.00     0.061 A 
ATOM     12  C   UNL d   1      27.781 -11.898   2.291  0.00  0.00     0.032 A 
ATOM     13  C   UNL d   1      28.529 -10.903   2.949  0.00  0.00     0.002 A 
ATOM     14  C   UNL d   1      29.723 -11.223   3.583  0.00  0.00     0.002 A 
ATOM     15  C   UNL d   1      30.172 -12.530   3.545  0.00  0.00     0.031 A 
ATOM     16  C   UNL d   1      29.450 -13.539   2.899  0.00  0.00     0.052 A 
BRANCH  16  17
ATOM     17  N   UNL d   1      30.069 -14.769   2.891  0.00  0.00    -0.397 N 
ATOM     18  H   UNL d   1      30.858 -15.031   3.445  0.00  0.00     0.156 HD
ATOM     19  H   UNL d   1      29.620 -15.526   2.384  0.00  0.00     0.156 HD
ENDBRANCH  16  17
ENDBRANCH   8  11
ENDBRANCH   1   7
BRANCH   4  20
ATOM     20  C   UNL d   1      23.470 -18.664  -0.932  0.00  0.00     0.119 C 
BRANCH  20  21
ATOM     21  S   UNL d   1      21.867 -17.774  -0.895  0.00  0.00    -0.106 SA
BRANCH  21  22
ATOM     22  C   UNL d   1      20.704 -18.947  -0.306  0.00  0.00     0.093 A 
ATOM     23  C   UNL d   1      20.822 -19.317   1.031  0.00  0.00     0.039 A 
ATOM     24  C   UNL d   1      19.857 -20.142   1.586  0.00  0.00     0.004 A 
ATOM     25  C   UNL d   1      18.791 -20.545   0.794  0.00  0.00     0.019 A 
ATOM     26  C   UNL d   1      18.741 -20.104  -0.522  0.00  0.00     0.118 A 
ATOM     27  N   UNL d   1      19.680 -19.321  -1.096  0.00  0.00    -0.254 NA
ENDBRANCH  21  22
ENDBRANCH  20  21
ENDBRANCH   4  20
TORSDOF 6
ENDMDL
MODEL 3
REMARK VINA RESULT:   -30.601      1.151      1.996
REMARK INTER + INTRA:         -33.751
REMARK INTER:                 -32.391
REMARK INTRA:                  -1.360
REMARK CONF_INDEPENDENT:        1.790
REMARK UNBOUND:                -1.360
REMARK  6 active torsions:
REMARK  status: ('A' for Active; 'I' for Inactive)
REMARK    1  A    between atoms: N_1  and  C_2 
REMARK    2  A    between atoms: C_7  and  N_8 
REMARK       I    between atoms: N_8  and  C_9 
REMARK    3  A    between atoms: C_9  and  C_11 
REMARK    4  A    between atoms: C_14  and  C_15 
REMARK    5  A    between atoms: C_15  and  S_16 
REMARK    6  A    between atoms: S_16  and  C_17 
ROOT
ATOM      1  C   UNL d   1      26.798 -16.002  -0.021  0.00  0.00     0.032 A 
ATOM      2  C   UNL d   1      25.554 -15.531  -0.496  0.00  0.00     0.017 A 
ATOM      3  C   UNL d   1      24.468 -16.392  -0.626  0.00  0.00     0.009 A 
ATOM      4  C   UNL d   1      24.642 -17.754  -0.360  0.00  0.00    -0.049 A 
ATOM      5  C   UNL d   1      25.888 -18.179   0.165  0.00  0.00     0.009 A 
ATOM      6  C   UNL d   1      26.963 -17.321   0.341  0.00  0.00     0.017 A 
ENDROOT
BRANCH   1   7
ATOM      7  C   UNL d   1      27.758 -15.009   0.431  0.00  0.00     0.256 C 
ATOM      8  N   UNL d   1      28.483 -15.180   1.599  0.00  0.00    -0.321 N 
ATOM      9  H   UNL d   1      28.344 -16.048   2.106  0.00  0.00     0.169 HD
ATOM     10  O   UNL d   1      27.752 -14.049  -0.348  0.00  0.00    -0.267 OA
BRANCH   8  11
ATOM     11  C   UNL d   1      29.479 -14.287   2.145  0.00  0.00     0.061 A 
ATOM     12  C   UNL d   1      29.463 -14.057   3.540  0.00  0.00     0.032 A 
ATOM     13  C   UNL d   1      30.426 -13.235   4.156  0.00  0.00     0.002 A 
ATOM     14  C   UNL d   1      31.417 -12.624   3.399  0.00  0.00     0.002 A 
ATOM     15  C   UNL d   1      31.435 -12.824   2.031  0.00  0.00     0.031 A 
ATOM     16  C   UNL d   1      30.491 -13.637   1.393  0.00  0.00     0.052 A 
BRANCH  16  17
ATOM     17  N   UNL d   1      30.603 -13.674   0.021  0.00  0.00    -0.397 N 
ATOM     18  H   UNL d   1      29.863 -13.512  -0.632  0.00  0.00     0.156 HD
ATOM     19  H   UNL d   1      31.533 -13.742  -0.380  0.00  0.00     0.156 HD
ENDBRANCH  16  17
ENDBRANCH   8  11
ENDBRANCH   1   7
BRANCH   4  20
ATOM     20  C   UNL d   1      23.521 -18.735  -0.692  0.00  0.00     0.119 C 
BRANCH  20  21
ATOM     21  S   UNL d   1      21.922 -17.856  -0.886  0.00  0.00    -0.106 SA
BRANCH  21  22
ATOM     22  C   UNL d   1      20.709 -18.976  -0.295  0.00  0.00     0.093 A 
ATOM     23  C   UNL d   1      20.797 -19.331   1.048  0.00  0.00     0.039 A 
ATOM     24  C   UNL d   1      19.794 -20.110   1.603  0.00  0.00     0.004 A 
ATOM     25  C   UNL d   1      18.723 -20.483   0.804  0.00  0.00     0.019 A 
ATOM     26  C   UNL d   1      18.706 -20.060  -0.519  0.00  0.00     0.118 A 
ATOM     27  N   UNL d   1      19.681 -19.322  -1.093  0.00  0.00    -0.254 NA
ENDBRANCH  21  22
ENDBRANCH  20  21
ENDBRANCH   4  20
TORSDOF 6
ENDMDL
MODEL 4
REMARK VINA RESULT:   -30.375      3.508      4.134
REMARK INTER + INTRA:         -33.500
REMARK INTER:                 -32.165
REMARK INTRA:                  -1.335
REMARK CONF_INDEPENDENT:        1.790
REMARK UNBOUND:                -1.335
REMARK  6 active torsions:
REMARK  status: ('A' for Active; 'I' for Inactive)
REMARK    1  A    between atoms: N_1  and  C_2 
REMARK    2  A    between atoms: C_7  and  N_8 
REMARK       I    between atoms: N_8  and  C_9 
REMARK    3  A    between atoms: C_9  and  C_11 
REMARK    4  A    between atoms: C_14  and  C_15 
REMARK    5  A    between atoms: C_15  and  S_16 
REMARK    6  A    between atoms: S_16  and  C_17 
ROOT
ATOM      1  C   UNL d   1      26.710 -16.429  -1.874  0.00  0.00     0.032 A 
ATOM      2  C   UNL d   1      26.929 -17.337  -0.816  0.00  0.00     0.017 A 
ATOM      3  C   UNL d   1      25.865 -18.003  -0.216  0.00  0.00     0.009 A 
ATOM      4  C   UNL d   1      24.559 -17.702  -0.616  0.00  0.00    -0.049 A 
ATOM      5  C   UNL d   1      24.382 -16.827  -1.717  0.00  0.00     0.009 A 
ATOM      6  C   UNL d   1      25.438 -16.192  -2.351  0.00  0.00     0.017 A 
ENDROOT
BRANCH   1   7
ATOM      7  C   UNL d   1      27.859 -16.056  -2.683  0.00  0.00     0.256 C 
ATOM      8  N   UNL d   1      27.757 -15.885  -4.054  0.00  0.00    -0.321 N 
ATOM      9  H   UNL d   1      26.835 -15.992  -4.465  0.00  0.00     0.169 HD
ATOM     10  O   UNL d   1      28.861 -15.983  -1.961  0.00  0.00    -0.267 OA
BRANCH   8  11
ATOM     11  C   UNL d   1      28.809 -15.496  -4.964  0.00  0.00     0.061 A 
ATOM     12  C   UNL d   1      28.452 -14.717  -6.089  0.00  0.00     0.032 A 
ATOM     13  C   UNL d   1      29.424 -14.261  -7.000  0.00  0.00     0.002 A 
ATOM     14  C   UNL d   1      30.765 -14.573  -6.813  0.00  0.00     0.002 A 
ATOM     15  C   UNL d   1      31.127 -15.349  -5.728  0.00  0.00     0.031 A 
ATOM     16  C   UNL d   1      30.182 -15.816  -4.807  0.00  0.00     0.052 A 
BRANCH  16  17
ATOM     17  N   UNL d   1      30.696 -16.634  -3.826  0.00  0.00    -0.397 N 
ATOM     18  H   UNL d   1      30.420 -16.641  -2.865  0.00  0.00     0.156 HD
ATOM     19  H   UNL d   1      31.313 -17.388  -4.108  0.00  0.00     0.156 HD
ENDBRANCH  16  17
ENDBRANCH   8  11
ENDBRANCH   1   7
BRANCH   4  20
ATOM     20  C   UNL d   1      23.380 -18.272   0.170  0.00  0.00     0.119 C 
BRANCH  20  21
ATOM     21  S   UNL d   1      21.787 -17.723  -0.555  0.00  0.00    -0.106 SA
BRANCH  21  22
ATOM     22  C   UNL d   1      20.625 -18.952  -0.092  0.00  0.00     0.093 A 
ATOM     23  C   UNL d   1      20.664 -19.372   1.235  0.00  0.00     0.039 A 
ATOM     24  C   UNL d   1      19.690 -20.246   1.690  0.00  0.00     0.004 A 
ATOM     25  C   UNL d   1      18.694 -20.648   0.813  0.00  0.00     0.019 A 
ATOM     26  C   UNL d   1      18.719 -20.157  -0.486  0.00  0.00     0.118 A 
ATOM     27  N   UNL d   1      19.669 -19.324  -0.965  0.00  0.00    -0.254 NA
ENDBRANCH  21  22
ENDBRANCH  20  21
ENDBRANCH   4  20
TORSDOF 6
ENDMDL
MODEL 5
REMARK VINA RESULT:   -30.281      2.515      3.013
REMARK INTER + INTRA:         -33.416
REMARK INTER:                 -32.071
REMARK INTRA:                  -1.345
REMARK CONF_INDEPENDENT:        1.790
REMARK UNBOUND:                -1.345
REMARK  6 active torsions:
REMARK  status: ('A' for Active; 'I' for Inactive)
REMARK    1  A    between atoms: N_1  and  C_2 
REMARK    2  A    between atoms: C_7  and  N_8 
REMARK       I    between atoms: N_8  and  C_9 
REMARK    3  A    between atoms: C_9  and  C_11 
REMARK    4  A    between atoms: C_14  and  C_15 
REMARK    5  A    between atoms: C_15  and  S_16 
REMARK    6  A    between atoms: S_16  and  C_17 
ROOT
ATOM      1  C   UNL d   1      27.477 -16.918  -0.967  0.00  0.00     0.032 A 
ATOM      2  C   UNL d   1      27.224 -17.755   0.142  0.00  0.00     0.017 A 
ATOM      3  C   UNL d   1      25.929 -18.164   0.447  0.00  0.00     0.009 A 
ATOM      4  C   UNL d   1      24.862 -17.668  -0.310  0.00  0.00    -0.049 A 
ATOM      5  C   UNL d   1      25.160 -16.875  -1.446  0.00  0.00     0.009 A 
ATOM      6  C   UNL d   1      26.450 -16.499  -1.784  0.00  0.00     0.017 A 
ENDROOT
BRANCH   1   7
ATOM      7  C   UNL d   1      28.850 -16.831  -1.438  0.00  0.00     0.256 C 
ATOM      8  N   UNL d   1      29.879 -17.502  -0.799  0.00  0.00    -0.321 N 
ATOM      9  H   UNL d   1      29.629 -18.091  -0.010  0.00  0.00     0.169 HD
ATOM     10  O   UNL d   1      28.902 -16.063  -2.405  0.00  0.00    -0.267 OA
BRANCH   8  11
ATOM     11  C   UNL d   1      31.274 -17.519  -1.175  0.00  0.00     0.061 A 
ATOM     12  C   UNL d   1      32.236 -17.533  -0.138  0.00  0.00     0.032 A 
ATOM     13  C   UNL d   1      33.614 -17.592  -0.422  0.00  0.00     0.002 A 
ATOM     14  C   UNL d   1      34.061 -17.635  -1.736  0.00  0.00     0.002 A 
ATOM     15  C   UNL d   1      33.133 -17.604  -2.761  0.00  0.00     0.031 A 
ATOM     16  C   UNL d   1      31.758 -17.544  -2.509  0.00  0.00     0.052 A 
BRANCH  16  17
ATOM     17  N   UNL d   1      30.974 -17.447  -3.636  0.00  0.00    -0.397 N 
ATOM     18  H   UNL d   1      30.269 -16.757  -3.802  0.00  0.00     0.156 HD
ATOM     19  H   UNL d   1      31.205 -18.034  -4.430  0.00  0.00     0.156 HD
ENDBRANCH  16  17
ENDBRANCH   8  11
ENDBRANCH   1   7
BRANCH   4  20
ATOM     20  C   UNL d   1      23.429 -17.946   0.138  0.00  0.00     0.119 C 
BRANCH  20  21
ATOM     21  S   UNL d   1      22.416 -18.561  -1.262  0.00  0.00    -0.106 SA
BRANCH  21  22
ATOM     22  C   UNL d   1      20.970 -19.225  -0.524  0.00  0.00     0.093 A 
ATOM     23  C   UNL d   1      21.033 -19.475   0.844  0.00  0.00     0.039 A 
ATOM     24  C   UNL d   1      19.883 -19.879   1.505  0.00  0.00     0.004 A 
ATOM     25  C   UNL d   1      18.705 -19.992   0.781  0.00  0.00     0.019 A 
ATOM     26  C   UNL d   1      18.731 -19.697  -0.575  0.00  0.00     0.118 A 
ATOM     27  N   UNL d   1      19.841 -19.325  -1.251  0.00  0.00    -0.254 NA
ENDBRANCH  21  22
ENDBRANCH  20  21
ENDBRANCH   4  20
TORSDOF 6
ENDMDL
MODEL 6
REMARK VINA RESULT:   -29.925      1.513      2.092
REMARK INTER + INTRA:         -33.123
REMARK INTER:                 -31.715
REMARK INTRA:                  -1.408
REMARK CONF_INDEPENDENT:        1.790
REMARK UNBOUND:                -1.408
REMARK  6 active torsions:
REMARK  status: ('A' for Active; 'I' for Inactive)
REMARK    1  A    between atoms: N_1  and  C_2 
REMARK    2  A    between atoms: C_7  and  N_8 
REMARK       I    between atoms: N_8  and  C_9 
REMARK    3  A    between atoms: C_9  and  C_11 
REMARK    4  A    between atoms: C_14  and  C_15 
REMARK    5  A    between atoms: C_15  and  S_16 
REMARK    6  A    between atoms: S_16  and  C_17 
ROOT
ATOM      1  C   UNL d   1      27.276 -16.754  -0.977  0.00  0.00     0.032 A 
ATOM      2  C   UNL d   1      26.404 -15.787  -1.523  0.00  0.00     0.017 A 
ATOM      3  C   UNL d   1      25.029 -15.874  -1.325  0.00  0.00     0.009 A 
ATOM      4  C   UNL d   1      24.506 -16.980  -0.647  0.00  0.00    -0.049 A 
ATOM      5  C   UNL d   1      25.416 -17.900  -0.067  0.00  0.00     0.009 A 
ATOM      6  C   UNL d   1      26.789 -17.798  -0.221  0.00  0.00     0.017 A 
ENDROOT
BRANCH   1   7
ATOM      7  C   UNL d   1      28.688 -16.415  -0.907  0.00  0.00     0.256 C 
ATOM      8  N   UNL d   1      29.342 -16.282   0.307  0.00  0.00    -0.321 N 
ATOM      9  H   UNL d   1      28.803 -16.470   1.146  0.00  0.00     0.169 HD
ATOM     10  O   UNL d   1      29.124 -16.238  -2.050  0.00  0.00    -0.267 OA
BRANCH   8  11
ATOM     11  C   UNL d   1      30.738 -15.974   0.515  0.00  0.00     0.061 A 
ATOM     12  C   UNL d   1      31.058 -14.977   1.466  0.00  0.00     0.032 A 
ATOM     13  C   UNL d   1      32.396 -14.649   1.758  0.00  0.00     0.002 A 
ATOM     14  C   UNL d   1      33.438 -15.299   1.109  0.00  0.00     0.002 A 
ATOM     15  C   UNL d   1      33.141 -16.263   0.163  0.00  0.00     0.031 A 
ATOM     16  C   UNL d   1      31.821 -16.610  -0.147  0.00  0.00     0.052 A 
BRANCH  16  17
ATOM     17  N   UNL d   1      31.695 -17.534  -1.159  0.00  0.00    -0.397 N 
ATOM     18  H   UNL d   1      32.274 -18.338  -1.294  0.00  0.00     0.156 HD
ATOM     19  H   UNL d   1      30.873 -17.484  -1.752  0.00  0.00     0.156 HD
ENDBRANCH  16  17
ENDBRANCH   8  11
ENDBRANCH   1   7
BRANCH   4  20
ATOM     20  C   UNL d   1      22.995 -17.189  -0.600  0.00  0.00     0.119 C 
BRANCH  20  21
ATOM     21  S   UNL d   1      22.535 -18.792  -1.363  0.00  0.00    -0.106 SA
BRANCH  21  22
ATOM     22  C   UNL d   1      21.048 -19.270  -0.564  0.00  0.00     0.093 A 
ATOM     23  C   UNL d   1      21.111 -19.423   0.819  0.00  0.00     0.039 A 
ATOM     24  C   UNL d   1      19.941 -19.673   1.519  0.00  0.00     0.004 A 
ATOM     25  C   UNL d   1      18.746 -19.735   0.817  0.00  0.00     0.019 A 
ATOM     26  C   UNL d   1      18.776 -19.544  -0.558  0.00  0.00     0.118 A 
ATOM     27  N   UNL d   1      19.903 -19.323  -1.270  0.00  0.00    -0.254 NA
ENDBRANCH  21  22
ENDBRANCH  20  21
ENDBRANCH   4  20
TORSDOF 6
ENDMDL
MODEL 7
REMARK VINA RESULT:   -29.578      3.905      4.773
REMARK INTER + INTRA:         -32.081
REMARK INTER:                 -31.368
REMARK INTRA:                  -0.713
REMARK CONF_INDEPENDENT:        1.790
REMARK UNBOUND:                -0.713
REMARK  6 active torsions:
REMARK  status: ('A' for Active; 'I' for Inactive)
REMARK    1  A    between atoms: N_1  and  C_2 
REMARK    2  A    between atoms: C_7  and  N_8 
REMARK       I    between atoms: N_8  and  C_9 
REMARK    3  A    between atoms: C_9  and  C_11 
REMARK    4  A    between atoms: C_14  and  C_15 
REMARK    5  A    between atoms: C_15  and  S_16 
REMARK    6  A    between atoms: S_16  and  C_17 
ROOT
ATOM      1  C   UNL d   1      25.971 -14.669  -1.928  0.00  0.00     0.032 A 
ATOM      2  C   UNL d   1      26.478 -15.481  -0.890  0.00  0.00     0.017 A 
ATOM      3  C   UNL d   1      25.761 -16.580  -0.429  0.00  0.00     0.009 A 
ATOM      4  C   UNL d   1      24.486 -16.828  -0.948  0.00  0.00    -0.049 A 
ATOM      5  C   UNL d   1      24.035 -16.025  -2.024  0.00  0.00     0.009 A 
ATOM      6  C   UNL d   1      24.761 -14.955  -2.521  0.00  0.00     0.017 A 
ENDROOT
BRANCH   1   7
ATOM      7  C   UNL d   1      26.907 -13.781  -2.599  0.00  0.00     0.256 C 
ATOM      8  N   UNL d   1      26.485 -12.867  -3.550  0.00  0.00    -0.321 N 
ATOM      9  H   UNL d   1      25.487 -12.815  -3.731  0.00  0.00     0.169 HD
ATOM     10  O   UNL d   1      28.055 -14.030  -2.214  0.00  0.00    -0.267 OA
BRANCH   8  11
ATOM     11  C   UNL d   1      27.302 -11.918  -4.270  0.00  0.00     0.061 A 
ATOM     12  C   UNL d   1      28.675 -11.847  -3.938  0.00  0.00     0.032 A 
ATOM     13  C   UNL d   1      29.548 -10.979  -4.622  0.00  0.00     0.002 A 
ATOM     14  C   UNL d   1      29.074 -10.166  -5.643  0.00  0.00     0.002 A 
ATOM     15  C   UNL d   1      27.731 -10.211  -5.968  0.00  0.00     0.031 A 
ATOM     16  C   UNL d   1      26.841 -11.064  -5.304  0.00  0.00     0.052 A 
BRANCH  16  17
ATOM     17  N   UNL d   1      25.527 -10.936  -5.697  0.00  0.00    -0.397 N 
ATOM     18  H   UNL d   1      25.145 -11.235  -6.571  0.00  0.00     0.156 HD
ATOM     19  H   UNL d   1      24.849 -10.636  -5.004  0.00  0.00     0.156 HD
ENDBRANCH  16  17
ENDBRANCH   8  11
ENDBRANCH   1   7
BRANCH   4  20
ATOM     20  C   UNL d   1      23.610 -17.904  -0.310  0.00  0.00     0.119 C 
BRANCH  20  21
ATOM     21  S   UNL d   1      22.490 -18.655  -1.553  0.00  0.00    -0.106 SA
BRANCH  21  22
ATOM     22  C   UNL d   1      21.090 -19.191  -0.644  0.00  0.00     0.093 A 
ATOM     23  C   UNL d   1      21.253 -19.303   0.734  0.00  0.00     0.039 A 
ATOM     24  C   UNL d   1      20.149 -19.598   1.518  0.00  0.00     0.004 A 
ATOM     25  C   UNL d   1      18.915 -19.744   0.901  0.00  0.00     0.019 A 
ATOM     26  C   UNL d   1      18.842 -19.588  -0.477  0.00  0.00     0.118 A 
ATOM     27  N   UNL d   1      19.904 -19.325  -1.269  0.00  0.00    -0.254 NA
ENDBRANCH  21  22
ENDBRANCH  20  21
ENDBRANCH   4  20
TORSDOF 6
ENDMDL
MODEL 8
REMARK VINA RESULT:   -29.499      2.014      2.549
REMARK INTER + INTRA:         -32.649
REMARK INTER:                 -31.289
REMARK INTRA:                  -1.360
REMARK CONF_INDEPENDENT:        1.790
REMARK UNBOUND:                -1.360
REMARK  6 active torsions:
REMARK  status: ('A' for Active; 'I' for Inactive)
REMARK    1  A    between atoms: N_1  and  C_2 
REMARK    2  A    between atoms: C_7  and  N_8 
REMARK       I    between atoms: N_8  and  C_9 
REMARK    3  A    between atoms: C_9  and  C_11 
REMARK    4  A    between atoms: C_14  and  C_15 
REMARK    5  A    between atoms: C_15  and  S_16 
REMARK    6  A    between atoms: S_16  and  C_17 
ROOT
ATOM      1  C   UNL d   1      27.069 -16.237  -1.131  0.00  0.00     0.032 A 
ATOM      2  C   UNL d   1      25.889 -16.047  -1.884  0.00  0.00     0.017 A 
ATOM      3  C   UNL d   1      24.742 -16.787  -1.611  0.00  0.00     0.009 A 
ATOM      4  C   UNL d   1      24.792 -17.786  -0.633  0.00  0.00    -0.049 A 
ATOM      5  C   UNL d   1      25.975 -17.909   0.137  0.00  0.00     0.009 A 
ATOM      6  C   UNL d   1      27.109 -17.147  -0.097  0.00  0.00     0.017 A 
ENDROOT
BRANCH   1   7
ATOM      7  C   UNL d   1      28.089 -15.204  -1.218  0.00  0.00     0.256 C 
ATOM      8  N   UNL d   1      27.765 -13.887  -1.501  0.00  0.00    -0.321 N 
ATOM      9  H   UNL d   1      26.780 -13.666  -1.606  0.00  0.00     0.169 HD
ATOM     10  O   UNL d   1      29.203 -15.714  -1.052  0.00  0.00    -0.267 OA
BRANCH   8  11
ATOM     11  C   UNL d   1      28.673 -12.767  -1.592  0.00  0.00     0.061 A 
ATOM     12  C   UNL d   1      28.474 -11.842  -2.643  0.00  0.00     0.032 A 
ATOM     13  C   UNL d   1      29.289 -10.701  -2.775  0.00  0.00     0.002 A 
ATOM     14  C   UNL d   1      30.315 -10.461  -1.871  0.00  0.00     0.002 A 
ATOM     15  C   UNL d   1      30.534 -11.366  -0.848  0.00  0.00     0.031 A 
ATOM     16  C   UNL d   1      29.740 -12.508  -0.693  0.00  0.00     0.052 A 
BRANCH  16  17
ATOM     17  N   UNL d   1      30.132 -13.342   0.330  0.00  0.00    -0.397 N 
ATOM     18  H   UNL d   1      30.177 -14.340   0.287  0.00  0.00     0.156 HD
ATOM     19  H   UNL d   1      30.537 -12.922   1.159  0.00  0.00     0.156 HD
ENDBRANCH  16  17
ENDBRANCH   8  11
ENDBRANCH   1   7
BRANCH   4  20
ATOM     20  C   UNL d   1      23.608 -18.735  -0.466  0.00  0.00     0.119 C 
BRANCH  20  21
ATOM     21  S   UNL d   1      22.023 -17.858  -0.755  0.00  0.00    -0.106 SA
BRANCH  21  22
ATOM     22  C   UNL d   1      20.778 -18.975  -0.231  0.00  0.00     0.093 A 
ATOM     23  C   UNL d   1      20.789 -19.325   1.117  0.00  0.00     0.039 A 
ATOM     24  C   UNL d   1      19.755 -20.102   1.616  0.00  0.00     0.004 A 
ATOM     25  C   UNL d   1      18.733 -20.479   0.759  0.00  0.00     0.019 A 
ATOM     26  C   UNL d   1      18.791 -20.062  -0.565  0.00  0.00     0.118 A 
ATOM     27  N   UNL d   1      19.797 -19.325  -1.085  0.00  0.00    -0.254 NA
ENDBRANCH  21  22
ENDBRANCH  20  21
ENDBRANCH   4  20
TORSDOF 6
ENDMDL
MODEL 9
REMARK VINA RESULT:   -29.393      2.533      3.110
REMARK INTER + INTRA:         -32.453
REMARK INTER:                 -31.183
REMARK INTRA:                  -1.270
REMARK CONF_INDEPENDENT:        1.790
REMARK UNBOUND:                -1.270
REMARK  6 active torsions:
REMARK  status: ('A' for Active; 'I' for Inactive)
REMARK    1  A    between atoms: N_1  and  C_2 
REMARK    2  A    between atoms: C_7  and  N_8 
REMARK       I    between atoms: N_8  and  C_9 
REMARK    3  A    between atoms: C_9  and  C_11 
REMARK    4  A    between atoms: C_14  and  C_15 
REMARK    5  A    between atoms: C_15  and  S_16 
REMARK    6  A    between atoms: S_16  and  C_17 
ROOT
ATOM      1  C   UNL d   1      26.520 -15.494  -1.613  0.00  0.00     0.032 A 
ATOM      2  C   UNL d   1      25.211 -15.381  -2.128  0.00  0.00     0.017 A 
ATOM      3  C   UNL d   1      24.194 -16.219  -1.681  0.00  0.00     0.009 A 
ATOM      4  C   UNL d   1      24.499 -17.237  -0.771  0.00  0.00    -0.049 A 
ATOM      5  C   UNL d   1      25.811 -17.283  -0.236  0.00  0.00     0.009 A 
ATOM      6  C   UNL d   1      26.820 -16.425  -0.642  0.00  0.00     0.017 A 
ENDROOT
BRANCH   1   7
ATOM      7  C   UNL d   1      27.425 -14.379  -1.841  0.00  0.00     0.256 C 
ATOM      8  N   UNL d   1      27.316 -13.198  -1.125  0.00  0.00    -0.321 N 
ATOM      9  H   UNL d   1      26.601 -13.158  -0.405  0.00  0.00     0.169 HD
ATOM     10  O   UNL d   1      28.204 -14.665  -2.758  0.00  0.00    -0.267 OA
BRANCH   8  11
ATOM     11  C   UNL d   1      28.160 -12.030  -1.237  0.00  0.00     0.061 A 
ATOM     12  C   UNL d   1      27.580 -10.770  -0.959  0.00  0.00     0.032 A 
ATOM     13  C   UNL d   1      28.346  -9.589  -1.003  0.00  0.00     0.002 A 
ATOM     14  C   UNL d   1      29.695  -9.636  -1.328  0.00  0.00     0.002 A 
ATOM     15  C   UNL d   1      30.271 -10.859  -1.622  0.00  0.00     0.031 A 
ATOM     16  C   UNL d   1      29.535 -12.049  -1.585  0.00  0.00     0.052 A 
BRANCH  16  17
ATOM     17  N   UNL d   1      30.237 -13.168  -1.972  0.00  0.00    -0.397 N 
ATOM     18  H   UNL d   1      30.769 -13.763  -1.369  0.00  0.00     0.156 HD
ATOM     19  H   UNL d   1      30.110 -13.507  -2.920  0.00  0.00     0.156 HD
ENDBRANCH  16  17
ENDBRANCH   8  11
ENDBRANCH   1   7
BRANCH   4  20
ATOM     20  C   UNL d   1      23.442 -18.284  -0.430  0.00  0.00     0.119 C 
BRANCH  20  21
ATOM     21  S   UNL d   1      21.768 -17.697  -0.897  0.00  0.00    -0.106 SA
BRANCH  21  22
ATOM     22  C   UNL d   1      20.670 -18.934  -0.316  0.00  0.00     0.093 A 
ATOM     23  C   UNL d   1      20.838 -19.339   1.006  0.00  0.00     0.039 A 
ATOM     24  C   UNL d   1      19.921 -20.218   1.559  0.00  0.00     0.004 A 
ATOM     25  C   UNL d   1      18.852 -20.640   0.783  0.00  0.00     0.019 A 
ATOM     26  C   UNL d   1      18.749 -20.163  -0.517  0.00  0.00     0.118 A 
ATOM     27  N   UNL d   1      19.641 -19.325  -1.091  0.00  0.00    -0.254 NA
ENDBRANCH  21  22
ENDBRANCH  20  21
ENDBRANCH   4  20
TORSDOF 6
ENDMDL
