MODEL 1
REMARK VINA RESULT:    -8.401      0.000      0.000
REMARK INTER + INTRA:         -12.925
REMARK INTER:                 -10.489
REMARK INTRA:                  -2.436
REMARK CONF_INDEPENDENT:        2.088
REMARK UNBOUND:                -2.436
REMARK  7 active torsions:
REMARK  status: ('A' for Active; 'I' for Inactive)
REMARK    1  A    between atoms: C_2  and  N_3 
REMARK       I    between atoms: N_3  and  C_4 
REMARK    2  A    between atoms: C_4  and  C_6 
REMARK    3  A    between atoms: C_11  and  N_12 
REMARK       I    between atoms: N_12  and  C_13 
REMARK    4  A    between atoms: C_13  and  C_15 
REMARK       I    between atoms: C_15  and  N_17 
REMARK    5  A    between atoms: N_17  and  C_18 
REMARK    6  A    between atoms: C_18  and  C_19 
REMARK    7  A    between atoms: C_18  and  C_24 
ROOT
ATOM      1  N   UNL d   1      25.396 -16.553  -2.673  0.00  0.00    -0.318 N 
ATOM      2  C   UNL d   1      25.140 -15.249  -3.138  0.00  0.00     0.314 C 
ATOM      3  O   UNL d   1      24.297 -14.445  -2.761  0.00  0.00    -0.262 OA
ATOM      4  H   UNL d   1      26.100 -17.075  -3.187  0.00  0.00     0.169 HD
ENDROOT
BRANCH   1   5
ATOM      5  C   UNL d   1      24.739 -17.194  -1.578  0.00  0.00     0.042 C 
ATOM      6  C   UNL d   1      25.390 -17.637  -0.416  0.00  0.00    -0.035 C 
ATOM      7  C   UNL d   1      24.634 -18.277   0.604  0.00  0.00     0.010 C 
ATOM      8  C   UNL d   1      26.855 -17.403  -0.186  0.00  0.00     0.050 C 
ATOM      9  C   UNL d   1      23.257 -18.515   0.458  0.00  0.00     0.017 C 
ATOM     10  C   UNL d   1      22.615 -18.078  -0.693  0.00  0.00     0.034 C 
ATOM     11  C   UNL d   1      23.363 -17.361  -1.621  0.00  0.00     0.047 C 
BRANCH  10  12
ATOM     12  C   UNL d   1      21.141 -18.211  -0.895  0.00  0.00     0.251 C 
ATOM     13  N   UNL d   1      20.545 -19.462  -0.765  0.00  0.00    -0.357 N 
ATOM     14  H   UNL d   1      19.630 -19.464  -1.198  0.00  0.00     0.162 HD
ATOM     15  O   UNL d   1      20.477 -17.250  -1.270  0.00  0.00    -0.268 OA
BRANCH  13  16
ATOM     16  C   UNL d   1      20.655 -20.312   0.425  0.00  0.00     0.118 C 
ATOM     17  C   UNL d   1      19.610 -19.978   1.470  0.00  0.00     0.026 C 
ENDBRANCH  13  16
ENDBRANCH  10  12
ENDBRANCH   1   5
BRANCH   2  18
ATOM     18  C   UNL d   1      26.046 -14.759  -4.283  0.00  0.00     0.310 C 
ATOM     19  O   UNL d   1      26.681 -15.575  -4.917  0.00  0.00    -0.262 OA
ATOM     20  N   UNL d   1      26.013 -13.372  -4.477  0.00  0.00    -0.343 N 
ATOM     21  H   UNL d   1      25.489 -12.842  -3.784  0.00  0.00     0.163 HD
BRANCH  20  22
ATOM     22  C   UNL d   1      26.706 -12.664  -5.574  0.00  0.00     0.128 C 
BRANCH  22  23
ATOM     23  C   UNL d   1      26.228 -11.187  -5.652  0.00  0.00     0.005 A 
ATOM     24  C   UNL d   1      26.000 -10.397  -6.768  0.00  0.00     0.017 A 
ATOM     25  C   UNL d   1      25.577  -9.075  -6.507  0.00  0.00     0.008 A 
ATOM     26  C   UNL d   1      25.358  -8.882  -5.174  0.00  0.00     0.050 A 
ATOM     27  S   UNL d   1      25.799 -10.245  -4.260  0.00  0.00    -0.104 SA
ENDBRANCH  22  23
BRANCH  22  28
ATOM     28  C   UNL d   1      28.285 -12.755  -5.428  0.00  0.00     0.005 C 
ATOM     29  C   UNL d   1      28.739 -13.089  -4.000  0.00  0.00     0.012 C 
ATOM     30  C   UNL d   1      28.968 -13.846  -6.281  0.00  0.00     0.012 C 
ENDBRANCH  22  28
ENDBRANCH  20  22
ENDBRANCH   2  18
TORSDOF 7
ENDMDL
MODEL 2
REMARK VINA RESULT:    -8.196      1.773      3.197
REMARK INTER + INTRA:         -12.607
REMARK INTER:                 -10.285
REMARK INTRA:                  -2.323
REMARK CONF_INDEPENDENT:        2.088
REMARK UNBOUND:                -2.323
REMARK  7 active torsions:
REMARK  status: ('A' for Active; 'I' for Inactive)
REMARK    1  A    between atoms: C_2  and  N_3 
REMARK       I    between atoms: N_3  and  C_4 
REMARK    2  A    between atoms: C_4  and  C_6 
REMARK    3  A    between atoms: C_11  and  N_12 
REMARK       I    between atoms: N_12  and  C_13 
REMARK    4  A    between atoms: C_13  and  C_15 
REMARK       I    between atoms: C_15  and  N_17 
REMARK    5  A    between atoms: N_17  and  C_18 
REMARK    6  A    between atoms: C_18  and  C_19 
REMARK    7  A    between atoms: C_18  and  C_24 
ROOT
ATOM      1  N   UNL d   1      25.303 -16.616  -2.729  0.00  0.00    -0.318 N 
ATOM      2  C   UNL d   1      26.025 -15.407  -2.693  0.00  0.00     0.314 C 
ATOM      3  O   UNL d   1      26.193 -14.636  -1.756  0.00  0.00    -0.262 OA
ATOM      4  H   UNL d   1      25.231 -17.059  -3.640  0.00  0.00     0.169 HD
ENDROOT
BRANCH   1   5
ATOM      5  C   UNL d   1      24.659 -17.239  -1.617  0.00  0.00     0.042 C 
ATOM      6  C   UNL d   1      25.321 -17.659  -0.453  0.00  0.00    -0.035 C 
ATOM      7  C   UNL d   1      24.577 -18.283   0.585  0.00  0.00     0.010 C 
ATOM      8  C   UNL d   1      26.788 -17.416  -0.241  0.00  0.00     0.050 C 
ATOM      9  C   UNL d   1      23.200 -18.529   0.456  0.00  0.00     0.017 C 
ATOM     10  C   UNL d   1      22.546 -18.114  -0.697  0.00  0.00     0.034 C 
ATOM     11  C   UNL d   1      23.283 -17.411  -1.645  0.00  0.00     0.047 C 
BRANCH  10  12
ATOM     12  C   UNL d   1      21.071 -18.257  -0.884  0.00  0.00     0.251 C 
ATOM     13  N   UNL d   1      20.478 -19.505  -0.715  0.00  0.00    -0.357 N 
ATOM     14  H   UNL d   1      19.560 -19.521  -1.140  0.00  0.00     0.162 HD
ATOM     15  O   UNL d   1      20.401 -17.308  -1.279  0.00  0.00    -0.268 OA
BRANCH  13  16
ATOM     16  C   UNL d   1      20.600 -20.322   0.498  0.00  0.00     0.118 C 
ATOM     17  C   UNL d   1      19.266 -20.872   0.958  0.00  0.00     0.026 C 
ENDBRANCH  13  16
ENDBRANCH  10  12
ENDBRANCH   1   5
BRANCH   2  18
ATOM     18  C   UNL d   1      26.698 -14.991  -4.013  0.00  0.00     0.310 C 
ATOM     19  O   UNL d   1      26.411 -15.588  -5.030  0.00  0.00    -0.262 OA
ATOM     20  N   UNL d   1      27.585 -13.915  -3.882  0.00  0.00    -0.343 N 
ATOM     21  H   UNL d   1      27.765 -13.605  -2.929  0.00  0.00     0.163 HD
BRANCH  20  22
ATOM     22  C   UNL d   1      28.277 -13.259  -5.010  0.00  0.00     0.128 C 
BRANCH  22  23
ATOM     23  C   UNL d   1      29.192 -14.274  -5.749  0.00  0.00     0.005 A 
ATOM     24  C   UNL d   1      30.063 -14.063  -6.807  0.00  0.00     0.017 A 
ATOM     25  C   UNL d   1      30.754 -15.205  -7.270  0.00  0.00     0.008 A 
ATOM     26  C   UNL d   1      30.503 -16.288  -6.477  0.00  0.00     0.050 A 
ATOM     27  S   UNL d   1      29.342 -15.940  -5.287  0.00  0.00    -0.104 SA
ENDBRANCH  22  23
BRANCH  22  28
ATOM     28  C   UNL d   1      27.252 -12.571  -6.010  0.00  0.00     0.005 C 
ATOM     29  C   UNL d   1      25.980 -12.065  -5.314  0.00  0.00     0.012 C 
ATOM     30  C   UNL d   1      27.779 -11.315  -6.740  0.00  0.00     0.012 C 
ENDBRANCH  22  28
ENDBRANCH  20  22
ENDBRANCH   2  18
TORSDOF 7
ENDMDL
MODEL 3
REMARK VINA RESULT:    -8.188      1.507      2.605
REMARK INTER + INTRA:         -12.639
REMARK INTER:                 -10.276
REMARK INTRA:                  -2.362
REMARK CONF_INDEPENDENT:        2.088
REMARK UNBOUND:                -2.362
REMARK  7 active torsions:
REMARK  status: ('A' for Active; 'I' for Inactive)
REMARK    1  A    between atoms: C_2  and  N_3 
REMARK       I    between atoms: N_3  and  C_4 
REMARK    2  A    between atoms: C_4  and  C_6 
REMARK    3  A    between atoms: C_11  and  N_12 
REMARK       I    between atoms: N_12  and  C_13 
REMARK    4  A    between atoms: C_13  and  C_15 
REMARK       I    between atoms: C_15  and  N_17 
REMARK    5  A    between atoms: N_17  and  C_18 
REMARK    6  A    between atoms: C_18  and  C_19 
REMARK    7  A    between atoms: C_18  and  C_24 
ROOT
ATOM      1  N   UNL d   1      25.198 -15.430  -1.459  0.00  0.00    -0.318 N 
ATOM      2  C   UNL d   1      25.404 -15.033  -2.794  0.00  0.00     0.314 C 
ATOM      3  O   UNL d   1      25.221 -15.668  -3.826  0.00  0.00    -0.262 OA
ATOM      4  H   UNL d   1      25.491 -14.764  -0.751  0.00  0.00     0.169 HD
ENDROOT
BRANCH   1   5
ATOM      5  C   UNL d   1      24.646 -16.677  -1.032  0.00  0.00     0.042 C 
ATOM      6  C   UNL d   1      25.403 -17.744  -0.525  0.00  0.00    -0.035 C 
ATOM      7  C   UNL d   1      24.744 -18.946  -0.146  0.00  0.00     0.010 C 
ATOM      8  C   UNL d   1      26.885 -17.637  -0.312  0.00  0.00     0.050 C 
ATOM      9  C   UNL d   1      23.359 -19.107  -0.308  0.00  0.00     0.017 C 
ATOM     10  C   UNL d   1      22.611 -18.050  -0.811  0.00  0.00     0.034 C 
ATOM     11  C   UNL d   1      23.270 -16.853  -1.070  0.00  0.00     0.047 C 
BRANCH  10  12
ATOM     12  C   UNL d   1      21.124 -18.102  -0.936  0.00  0.00     0.251 C 
ATOM     13  N   UNL d   1      20.467 -19.320  -0.783  0.00  0.00    -0.357 N 
ATOM     14  H   UNL d   1      19.532 -19.268  -1.167  0.00  0.00     0.162 HD
ATOM     15  O   UNL d   1      20.494 -17.103  -1.270  0.00  0.00    -0.268 OA
BRANCH  13  16
ATOM     16  C   UNL d   1      20.593 -20.185   0.395  0.00  0.00     0.118 C 
ATOM     17  C   UNL d   1      19.248 -20.662   0.905  0.00  0.00     0.026 C 
ENDBRANCH  13  16
ENDBRANCH  10  12
ENDBRANCH   1   5
BRANCH   2  18
ATOM     18  C   UNL d   1      25.935 -13.602  -2.991  0.00  0.00     0.310 C 
ATOM     19  O   UNL d   1      25.983 -12.859  -2.034  0.00  0.00    -0.262 OA
ATOM     20  N   UNL d   1      26.334 -13.322  -4.305  0.00  0.00    -0.343 N 
ATOM     21  H   UNL d   1      26.130 -14.045  -4.991  0.00  0.00     0.163 HD
BRANCH  20  22
ATOM     22  C   UNL d   1      26.974 -12.061  -4.733  0.00  0.00     0.128 C 
BRANCH  22  23
ATOM     23  C   UNL d   1      27.903 -12.313  -5.953  0.00  0.00     0.005 A 
ATOM     24  C   UNL d   1      28.546 -11.396  -6.771  0.00  0.00     0.017 A 
ATOM     25  C   UNL d   1      29.320 -11.945  -7.817  0.00  0.00     0.008 A 
ATOM     26  C   UNL d   1      29.372 -13.306  -7.730  0.00  0.00     0.050 A 
ATOM     27  S   UNL d   1      28.381 -13.895  -6.483  0.00  0.00    -0.104 SA
ENDBRANCH  22  23
BRANCH  22  28
ATOM     28  C   UNL d   1      25.903 -10.931  -5.044  0.00  0.00     0.005 C 
ATOM     29  C   UNL d   1      26.374  -9.527  -4.640  0.00  0.00     0.012 C 
ATOM     30  C   UNL d   1      25.529 -10.763  -6.534  0.00  0.00     0.012 C 
ENDBRANCH  22  28
ENDBRANCH  20  22
ENDBRANCH   2  18
TORSDOF 7
ENDMDL
MODEL 4
REMARK VINA RESULT:    -8.021      3.857      8.688
REMARK INTER + INTRA:         -11.572
REMARK INTER:                 -10.109
REMARK INTRA:                  -1.463
REMARK CONF_INDEPENDENT:        2.088
REMARK UNBOUND:                -1.463
REMARK  7 active torsions:
REMARK  status: ('A' for Active; 'I' for Inactive)
REMARK    1  A    between atoms: C_2  and  N_3 
REMARK       I    between atoms: N_3  and  C_4 
REMARK    2  A    between atoms: C_4  and  C_6 
REMARK    3  A    between atoms: C_11  and  N_12 
REMARK       I    between atoms: N_12  and  C_13 
REMARK    4  A    between atoms: C_13  and  C_15 
REMARK       I    between atoms: C_15  and  N_17 
REMARK    5  A    between atoms: N_17  and  C_18 
REMARK    6  A    between atoms: C_18  and  C_19 
REMARK    7  A    between atoms: C_18  and  C_24 
ROOT
ATOM      1  N   UNL d   1      28.118 -15.425  -4.429  0.00  0.00    -0.318 N 
ATOM      2  C   UNL d   1      26.739 -15.379  -4.709  0.00  0.00     0.314 C 
ATOM      3  O   UNL d   1      26.159 -15.579  -5.770  0.00  0.00    -0.262 OA
ATOM      4  H   UNL d   1      28.387 -15.148  -3.490  0.00  0.00     0.169 HD
ENDROOT
BRANCH   1   5
ATOM      5  C   UNL d   1      29.147 -15.796  -5.348  0.00  0.00     0.042 C 
ATOM      6  C   UNL d   1      29.721 -14.924  -6.286  0.00  0.00    -0.035 C 
ATOM      7  C   UNL d   1      30.729 -15.410  -7.163  0.00  0.00     0.010 C 
ATOM      8  C   UNL d   1      29.346 -13.472  -6.355  0.00  0.00     0.050 C 
ATOM      9  C   UNL d   1      31.134 -16.755  -7.142  0.00  0.00     0.017 C 
ATOM     10  C   UNL d   1      30.564 -17.617  -6.214  0.00  0.00     0.034 C 
ATOM     11  C   UNL d   1      29.660 -17.084  -5.301  0.00  0.00     0.047 C 
BRANCH  10  12
ATOM     12  C   UNL d   1      30.995 -19.039  -6.063  0.00  0.00     0.251 C 
ATOM     13  N   UNL d   1      30.985 -19.877  -7.175  0.00  0.00    -0.357 N 
ATOM     14  H   UNL d   1      31.016 -20.847  -6.886  0.00  0.00     0.162 HD
ATOM     15  O   UNL d   1      31.258 -19.493  -4.954  0.00  0.00    -0.268 OA
BRANCH  13  16
ATOM     16  C   UNL d   1      31.687 -19.594  -8.431  0.00  0.00     0.118 C 
ATOM     17  C   UNL d   1      30.777 -19.704  -9.637  0.00  0.00     0.026 C 
ENDBRANCH  13  16
ENDBRANCH  10  12
ENDBRANCH   1   5
BRANCH   2  18
ATOM     18  C   UNL d   1      25.827 -15.030  -3.520  0.00  0.00     0.310 C 
ATOM     19  O   UNL d   1      24.782 -14.450  -3.733  0.00  0.00    -0.262 OA
ATOM     20  N   UNL d   1      26.323 -15.457  -2.281  0.00  0.00    -0.343 N 
ATOM     21  H   UNL d   1      27.263 -15.846  -2.293  0.00  0.00     0.163 HD
BRANCH  20  22
ATOM     22  C   UNL d   1      25.592 -15.339  -1.002  0.00  0.00     0.128 C 
BRANCH  22  23
ATOM     23  C   UNL d   1      24.636 -16.549  -0.811  0.00  0.00     0.005 A 
ATOM     24  C   UNL d   1      23.255 -16.601  -0.918  0.00  0.00     0.017 A 
ATOM     25  C   UNL d   1      22.667 -17.862  -0.672  0.00  0.00     0.008 A 
ATOM     26  C   UNL d   1      23.620 -18.823  -0.492  0.00  0.00     0.050 A 
ATOM     27  S   UNL d   1      25.185 -18.163  -0.486  0.00  0.00    -0.104 SA
ENDBRANCH  22  23
BRANCH  22  28
ATOM     28  C   UNL d   1      26.582 -15.184   0.230  0.00  0.00     0.005 C 
ATOM     29  C   UNL d   1      27.898 -15.953   0.045  0.00  0.00     0.012 C 
ATOM     30  C   UNL d   1      27.053 -13.744   0.525  0.00  0.00     0.012 C 
ENDBRANCH  22  28
ENDBRANCH  20  22
ENDBRANCH   2  18
TORSDOF 7
ENDMDL
MODEL 5
REMARK VINA RESULT:    -7.955      2.700      9.232
REMARK INTER + INTRA:         -12.404
REMARK INTER:                 -10.043
REMARK INTRA:                  -2.361
REMARK CONF_INDEPENDENT:        2.088
REMARK UNBOUND:                -2.361
REMARK  7 active torsions:
REMARK  status: ('A' for Active; 'I' for Inactive)
REMARK    1  A    between atoms: C_2  and  N_3 
REMARK       I    between atoms: N_3  and  C_4 
REMARK    2  A    between atoms: C_4  and  C_6 
REMARK    3  A    between atoms: C_11  and  N_12 
REMARK       I    between atoms: N_12  and  C_13 
REMARK    4  A    between atoms: C_13  and  C_15 
REMARK       I    between atoms: C_15  and  N_17 
REMARK    5  A    between atoms: N_17  and  C_18 
REMARK    6  A    between atoms: C_18  and  C_19 
REMARK    7  A    between atoms: C_18  and  C_24 
ROOT
ATOM      1  N   UNL d   1      26.561 -12.873  -3.485  0.00  0.00    -0.318 N 
ATOM      2  C   UNL d   1      25.945 -14.136  -3.382  0.00  0.00     0.314 C 
ATOM      3  O   UNL d   1      25.423 -14.814  -4.258  0.00  0.00    -0.262 OA
ATOM      4  H   UNL d   1      26.862 -12.457  -2.610  0.00  0.00     0.169 HD
ENDROOT
BRANCH   1   5
ATOM      5  C   UNL d   1      26.768 -12.140  -4.694  0.00  0.00     0.042 C 
ATOM      6  C   UNL d   1      26.264 -10.852  -4.932  0.00  0.00    -0.035 C 
ATOM      7  C   UNL d   1      26.521 -10.224  -6.182  0.00  0.00     0.010 C 
ATOM      8  C   UNL d   1      25.510 -10.086  -3.884  0.00  0.00     0.050 C 
ATOM      9  C   UNL d   1      27.231 -10.880  -7.201  0.00  0.00     0.017 C 
ATOM     10  C   UNL d   1      27.727 -12.156  -6.964  0.00  0.00     0.034 C 
ATOM     11  C   UNL d   1      27.551 -12.696  -5.694  0.00  0.00     0.047 C 
BRANCH  10  12
ATOM     12  C   UNL d   1      28.565 -12.893  -7.957  0.00  0.00     0.251 C 
ATOM     13  N   UNL d   1      28.157 -12.949  -9.287  0.00  0.00    -0.357 N 
ATOM     14  H   UNL d   1      28.639 -13.695  -9.773  0.00  0.00     0.162 HD
ATOM     15  O   UNL d   1      29.548 -13.528  -7.589  0.00  0.00    -0.268 OA
BRANCH  13  16
ATOM     16  C   UNL d   1      27.866 -11.773 -10.113  0.00  0.00     0.118 C 
ATOM     17  C   UNL d   1      26.379 -11.530 -10.266  0.00  0.00     0.026 C 
ENDBRANCH  13  16
ENDBRANCH  10  12
ENDBRANCH   1   5
BRANCH   2  18
ATOM     18  C   UNL d   1      25.921 -14.754  -1.973  0.00  0.00     0.310 C 
ATOM     19  O   UNL d   1      26.292 -14.082  -1.033  0.00  0.00    -0.262 OA
ATOM     20  N   UNL d   1      25.435 -16.067  -1.938  0.00  0.00    -0.343 N 
ATOM     21  H   UNL d   1      25.259 -16.496  -2.845  0.00  0.00     0.163 HD
BRANCH  20  22
ATOM     22  C   UNL d   1      25.213 -16.845  -0.702  0.00  0.00     0.128 C 
BRANCH  22  23
ATOM     23  C   UNL d   1      23.846 -17.582  -0.765  0.00  0.00     0.005 A 
ATOM     24  C   UNL d   1      23.581 -18.942  -0.745  0.00  0.00     0.017 A 
ATOM     25  C   UNL d   1      22.218 -19.304  -0.830  0.00  0.00     0.008 A 
ATOM     26  C   UNL d   1      21.413 -18.201  -0.790  0.00  0.00     0.050 A 
ATOM     27  S   UNL d   1      22.316 -16.763  -0.793  0.00  0.00    -0.104 SA
ENDBRANCH  22  23
BRANCH  22  28
ATOM     28  C   UNL d   1      26.403 -17.856  -0.419  0.00  0.00     0.005 C 
ATOM     29  C   UNL d   1      27.788 -17.201  -0.522  0.00  0.00     0.012 C 
ATOM     30  C   UNL d   1      26.416 -18.489   0.990  0.00  0.00     0.012 C 
ENDBRANCH  22  28
ENDBRANCH  20  22
ENDBRANCH   2  18
TORSDOF 7
ENDMDL
MODEL 6
REMARK VINA RESULT:    -7.676      2.821      9.024
REMARK INTER + INTRA:         -12.234
REMARK INTER:                  -9.764
REMARK INTRA:                  -2.470
REMARK CONF_INDEPENDENT:        2.088
REMARK UNBOUND:                -2.470
REMARK  7 active torsions:
REMARK  status: ('A' for Active; 'I' for Inactive)
REMARK    1  A    between atoms: C_2  and  N_3 
REMARK       I    between atoms: N_3  and  C_4 
REMARK    2  A    between atoms: C_4  and  C_6 
REMARK    3  A    between atoms: C_11  and  N_12 
REMARK       I    between atoms: N_12  and  C_13 
REMARK    4  A    between atoms: C_13  and  C_15 
REMARK       I    between atoms: C_15  and  N_17 
REMARK    5  A    between atoms: N_17  and  C_18 
REMARK    6  A    between atoms: C_18  and  C_19 
REMARK    7  A    between atoms: C_18  and  C_24 
ROOT
ATOM      1  N   UNL d   1      26.263 -12.586  -3.126  0.00  0.00    -0.318 N 
ATOM      2  C   UNL d   1      25.684 -13.869  -3.092  0.00  0.00     0.314 C 
ATOM      3  O   UNL d   1      25.040 -14.450  -3.956  0.00  0.00    -0.262 OA
ATOM      4  H   UNL d   1      26.691 -12.271  -2.261  0.00  0.00     0.169 HD
ENDROOT
BRANCH   1   5
ATOM      5  C   UNL d   1      26.272 -11.702  -4.249  0.00  0.00     0.042 C 
ATOM      6  C   UNL d   1      26.938 -11.964  -5.456  0.00  0.00    -0.035 C 
ATOM      7  C   UNL d   1      26.890 -11.001  -6.501  0.00  0.00     0.010 C 
ATOM      8  C   UNL d   1      27.655 -13.260  -5.703  0.00  0.00     0.050 C 
ATOM      9  C   UNL d   1      26.226  -9.775  -6.339  0.00  0.00     0.017 C 
ATOM     10  C   UNL d   1      25.568  -9.516  -5.144  0.00  0.00     0.034 C 
ATOM     11  C   UNL d   1      25.545 -10.523  -4.184  0.00  0.00     0.047 C 
BRANCH  10  12
ATOM     12  C   UNL d   1      24.766  -8.277  -4.916  0.00  0.00     0.251 C 
ATOM     13  N   UNL d   1      24.955  -7.546  -3.746  0.00  0.00    -0.357 N 
ATOM     14  H   UNL d   1      24.174  -6.921  -3.589  0.00  0.00     0.162 HD
ATOM     15  O   UNL d   1      23.878  -7.960  -5.702  0.00  0.00    -0.268 OA
BRANCH  13  16
ATOM     16  C   UNL d   1      26.250  -7.024  -3.297  0.00  0.00     0.118 C 
ATOM     17  C   UNL d   1      26.669  -7.597  -1.959  0.00  0.00     0.026 C 
ENDBRANCH  13  16
ENDBRANCH  10  12
ENDBRANCH   1   5
BRANCH   2  18
ATOM     18  C   UNL d   1      25.886 -14.657  -1.785  0.00  0.00     0.310 C 
ATOM     19  O   UNL d   1      26.550 -14.162  -0.899  0.00  0.00    -0.262 OA
ATOM     20  N   UNL d   1      25.235 -15.898  -1.766  0.00  0.00    -0.343 N 
ATOM     21  H   UNL d   1      24.801 -16.181  -2.641  0.00  0.00     0.163 HD
BRANCH  20  22
ATOM     22  C   UNL d   1      25.183 -16.797  -0.594  0.00  0.00     0.128 C 
BRANCH  22  23
ATOM     23  C   UNL d   1      23.844 -17.586  -0.576  0.00  0.00     0.005 A 
ATOM     24  C   UNL d   1      23.631 -18.949  -0.441  0.00  0.00     0.017 A 
ATOM     25  C   UNL d   1      22.281 -19.364  -0.475  0.00  0.00     0.008 A 
ATOM     26  C   UNL d   1      21.436 -18.293  -0.514  0.00  0.00     0.050 A 
ATOM     27  S   UNL d   1      22.285 -16.828  -0.650  0.00  0.00    -0.104 SA
ENDBRANCH  22  23
BRANCH  22  28
ATOM     28  C   UNL d   1      26.433 -17.777  -0.548  0.00  0.00     0.005 C 
ATOM     29  C   UNL d   1      27.762 -17.071  -0.849  0.00  0.00     0.012 C 
ATOM     30  C   UNL d   1      26.693 -18.454   0.815  0.00  0.00     0.012 C 
ENDBRANCH  22  28
ENDBRANCH  20  22
ENDBRANCH   2  18
TORSDOF 7
ENDMDL
MODEL 7
REMARK VINA RESULT:    -7.402      5.836      8.649
REMARK INTER + INTRA:         -11.986
REMARK INTER:                  -9.490
REMARK INTRA:                  -2.496
REMARK CONF_INDEPENDENT:        2.088
REMARK UNBOUND:                -2.496
REMARK  7 active torsions:
REMARK  status: ('A' for Active; 'I' for Inactive)
REMARK    1  A    between atoms: C_2  and  N_3 
REMARK       I    between atoms: N_3  and  C_4 
REMARK    2  A    between atoms: C_4  and  C_6 
REMARK    3  A    between atoms: C_11  and  N_12 
REMARK       I    between atoms: N_12  and  C_13 
REMARK    4  A    between atoms: C_13  and  C_15 
REMARK       I    between atoms: C_15  and  N_17 
REMARK    5  A    between atoms: N_17  and  C_18 
REMARK    6  A    between atoms: C_18  and  C_19 
REMARK    7  A    between atoms: C_18  and  C_24 
ROOT
ATOM      1  N   UNL d   1      27.865 -14.320   2.795  0.00  0.00    -0.318 N 
ATOM      2  C   UNL d   1      27.032 -14.141   1.673  0.00  0.00     0.314 C 
ATOM      3  O   UNL d   1      26.264 -13.222   1.419  0.00  0.00    -0.262 OA
ATOM      4  H   UNL d   1      28.366 -15.201   2.837  0.00  0.00     0.169 HD
ENDROOT
BRANCH   1   5
ATOM      5  C   UNL d   1      28.034 -13.390   3.866  0.00  0.00     0.042 C 
ATOM      6  C   UNL d   1      28.310 -13.754   5.193  0.00  0.00    -0.035 C 
ATOM      7  C   UNL d   1      28.443 -12.739   6.181  0.00  0.00     0.010 C 
ATOM      8  C   UNL d   1      28.529 -15.184   5.596  0.00  0.00     0.050 C 
ATOM      9  C   UNL d   1      28.263 -11.382   5.868  0.00  0.00     0.017 C 
ATOM     10  C   UNL d   1      27.989 -11.023   4.554  0.00  0.00     0.034 C 
ATOM     11  C   UNL d   1      27.972 -12.031   3.596  0.00  0.00     0.047 C 
BRANCH  10  12
ATOM     12  C   UNL d   1      27.867  -9.601   4.116  0.00  0.00     0.251 C 
ATOM     13  N   UNL d   1      27.702  -9.315   2.764  0.00  0.00    -0.357 N 
ATOM     14  H   UNL d   1      27.920  -8.344   2.578  0.00  0.00     0.162 HD
ATOM     15  O   UNL d   1      28.011  -8.688   4.923  0.00  0.00    -0.268 OA
BRANCH  13  16
ATOM     16  C   UNL d   1      26.634  -9.868   1.925  0.00  0.00     0.118 C 
ATOM     17  C   UNL d   1      25.256  -9.575   2.480  0.00  0.00     0.026 C 
ENDBRANCH  13  16
ENDBRANCH  10  12
ENDBRANCH   1   5
BRANCH   2  18
ATOM     18  C   UNL d   1      27.091 -15.257   0.614  0.00  0.00     0.310 C 
ATOM     19  O   UNL d   1      28.016 -16.041   0.641  0.00  0.00    -0.262 OA
ATOM     20  N   UNL d   1      26.014 -15.245  -0.281  0.00  0.00    -0.343 N 
ATOM     21  H   UNL d   1      25.382 -14.451  -0.201  0.00  0.00     0.163 HD
BRANCH  20  22
ATOM     22  C   UNL d   1      25.780 -16.268  -1.322  0.00  0.00     0.128 C 
BRANCH  22  23
ATOM     23  C   UNL d   1      24.526 -17.118  -0.974  0.00  0.00     0.005 A 
ATOM     24  C   UNL d   1      24.443 -18.455  -0.617  0.00  0.00     0.017 A 
ATOM     25  C   UNL d   1      23.142 -18.944  -0.370  0.00  0.00     0.008 A 
ATOM     26  C   UNL d   1      22.220 -17.939  -0.419  0.00  0.00     0.050 A 
ATOM     27  S   UNL d   1      22.920 -16.466  -0.895  0.00  0.00    -0.104 SA
ENDBRANCH  22  23
BRANCH  22  28
ATOM     28  C   UNL d   1      25.659 -15.622  -2.767  0.00  0.00     0.005 C 
ATOM     29  C   UNL d   1      24.838 -14.325  -2.779  0.00  0.00     0.012 C 
ATOM     30  C   UNL d   1      26.993 -15.202  -3.421  0.00  0.00     0.012 C 
ENDBRANCH  22  28
ENDBRANCH  20  22
ENDBRANCH   2  18
TORSDOF 7
ENDMDL
MODEL 8
REMARK VINA RESULT:    -7.261      3.703      5.751
REMARK INTER + INTRA:         -11.804
REMARK INTER:                  -9.349
REMARK INTRA:                  -2.455
REMARK CONF_INDEPENDENT:        2.088
REMARK UNBOUND:                -2.455
REMARK  7 active torsions:
REMARK  status: ('A' for Active; 'I' for Inactive)
REMARK    1  A    between atoms: C_2  and  N_3 
REMARK       I    between atoms: N_3  and  C_4 
REMARK    2  A    between atoms: C_4  and  C_6 
REMARK    3  A    between atoms: C_11  and  N_12 
REMARK       I    between atoms: N_12  and  C_13 
REMARK    4  A    between atoms: C_13  and  C_15 
REMARK       I    between atoms: C_15  and  N_17 
REMARK    5  A    between atoms: N_17  and  C_18 
REMARK    6  A    between atoms: C_18  and  C_19 
REMARK    7  A    between atoms: C_18  and  C_24 
ROOT
ATOM      1  N   UNL d   1      27.742 -15.565  -3.238  0.00  0.00    -0.318 N 
ATOM      2  C   UNL d   1      28.083 -15.507  -4.604  0.00  0.00     0.314 C 
ATOM      3  O   UNL d   1      27.355 -15.574  -5.586  0.00  0.00    -0.262 OA
ATOM      4  H   UNL d   1      28.522 -15.566  -2.588  0.00  0.00     0.169 HD
ENDROOT
BRANCH   1   5
ATOM      5  C   UNL d   1      26.417 -15.648  -2.711  0.00  0.00     0.042 C 
ATOM      6  C   UNL d   1      25.396 -14.727  -2.991  0.00  0.00    -0.035 C 
ATOM      7  C   UNL d   1      24.116 -14.903  -2.395  0.00  0.00     0.010 C 
ATOM      8  C   UNL d   1      25.591 -13.591  -3.953  0.00  0.00     0.050 C 
ATOM      9  C   UNL d   1      23.863 -15.952  -1.496  0.00  0.00     0.017 C 
ATOM     10  C   UNL d   1      24.876 -16.862  -1.218  0.00  0.00     0.034 C 
ATOM     11  C   UNL d   1      26.080 -16.723  -1.901  0.00  0.00     0.047 C 
BRANCH  10  12
ATOM     12  C   UNL d   1      24.671 -18.055  -0.344  0.00  0.00     0.251 C 
ATOM     13  N   UNL d   1      23.383 -18.547  -0.152  0.00  0.00    -0.357 N 
ATOM     14  H   UNL d   1      23.353 -19.150   0.661  0.00  0.00     0.162 HD
ATOM     15  O   UNL d   1      25.612 -18.536   0.279  0.00  0.00    -0.268 OA
BRANCH  13  16
ATOM     16  C   UNL d   1      22.478 -18.944  -1.236  0.00  0.00     0.118 C 
ATOM     17  C   UNL d   1      21.028 -18.959  -0.798  0.00  0.00     0.026 C 
ENDBRANCH  13  16
ENDBRANCH  10  12
ENDBRANCH   1   5
BRANCH   2  18
ATOM     18  C   UNL d   1      29.582 -15.335  -4.910  0.00  0.00     0.310 C 
ATOM     19  O   UNL d   1      30.340 -15.078  -3.999  0.00  0.00    -0.262 OA
ATOM     20  N   UNL d   1      29.909 -15.521  -6.260  0.00  0.00    -0.343 N 
ATOM     21  H   UNL d   1      29.120 -15.640  -6.892  0.00  0.00     0.163 HD
BRANCH  20  22
ATOM     22  C   UNL d   1      31.286 -15.516  -6.795  0.00  0.00     0.128 C 
BRANCH  22  23
ATOM     23  C   UNL d   1      31.606 -16.873  -7.481  0.00  0.00     0.005 A 
ATOM     24  C   UNL d   1      32.585 -17.175  -8.415  0.00  0.00     0.017 A 
ATOM     25  C   UNL d   1      32.614 -18.514  -8.862  0.00  0.00     0.008 A 
ATOM     26  C   UNL d   1      31.722 -19.283  -8.172  0.00  0.00     0.050 A 
ATOM     27  S   UNL d   1      30.780 -18.353  -7.108  0.00  0.00    -0.104 SA
ENDBRANCH  22  23
BRANCH  22  28
ATOM     28  C   UNL d   1      31.530 -14.296  -7.782  0.00  0.00     0.005 C 
ATOM     29  C   UNL d   1      30.446 -13.214  -7.681  0.00  0.00     0.012 C 
ATOM     30  C   UNL d   1      32.838 -13.508  -7.552  0.00  0.00     0.012 C 
ENDBRANCH  22  28
ENDBRANCH  20  22
ENDBRANCH   2  18
TORSDOF 7
ENDMDL
MODEL 9
REMARK VINA RESULT:    -6.886      6.103      8.842
REMARK INTER + INTRA:         -11.456
REMARK INTER:                  -8.974
REMARK INTRA:                  -2.482
REMARK CONF_INDEPENDENT:        2.088
REMARK UNBOUND:                -2.482
REMARK  7 active torsions:
REMARK  status: ('A' for Active; 'I' for Inactive)
REMARK    1  A    between atoms: C_2  and  N_3 
REMARK       I    between atoms: N_3  and  C_4 
REMARK    2  A    between atoms: C_4  and  C_6 
REMARK    3  A    between atoms: C_11  and  N_12 
REMARK       I    between atoms: N_12  and  C_13 
REMARK    4  A    between atoms: C_13  and  C_15 
REMARK       I    between atoms: C_15  and  N_17 
REMARK    5  A    between atoms: N_17  and  C_18 
REMARK    6  A    between atoms: C_18  and  C_19 
REMARK    7  A    between atoms: C_18  and  C_24 
ROOT
ATOM      1  N   UNL d   1      28.610 -14.826   2.132  0.00  0.00    -0.318 N 
ATOM      2  C   UNL d   1      27.602 -14.470   1.215  0.00  0.00     0.314 C 
ATOM      3  O   UNL d   1      27.010 -13.404   1.092  0.00  0.00    -0.262 OA
ATOM      4  H   UNL d   1      28.908 -15.796   2.105  0.00  0.00     0.169 HD
ENDROOT
BRANCH   1   5
ATOM      5  C   UNL d   1      29.212 -13.956   3.092  0.00  0.00     0.042 C 
ATOM      6  C   UNL d   1      30.189 -12.997   2.786  0.00  0.00    -0.035 C 
ATOM      7  C   UNL d   1      30.729 -12.196   3.830  0.00  0.00     0.010 C 
ATOM      8  C   UNL d   1      30.644 -12.746   1.378  0.00  0.00     0.050 C 
ATOM      9  C   UNL d   1      30.339 -12.372   5.168  0.00  0.00     0.017 C 
ATOM     10  C   UNL d   1      29.371 -13.323   5.469  0.00  0.00     0.034 C 
ATOM     11  C   UNL d   1      28.787 -14.013   4.412  0.00  0.00     0.047 C 
BRANCH  10  12
ATOM     12  C   UNL d   1      28.834 -13.518   6.849  0.00  0.00     0.251 C 
ATOM     13  N   UNL d   1      29.480 -14.395   7.715  0.00  0.00    -0.357 N 
ATOM     14  H   UNL d   1      28.870 -14.646   8.483  0.00  0.00     0.162 HD
ATOM     15  O   UNL d   1      27.779 -12.989   7.184  0.00  0.00    -0.268 OA
BRANCH  13  16
ATOM     16  C   UNL d   1      30.901 -14.312   8.070  0.00  0.00     0.118 C 
ATOM     17  C   UNL d   1      31.328 -12.898   8.408  0.00  0.00     0.026 C 
ENDBRANCH  13  16
ENDBRANCH  10  12
ENDBRANCH   1   5
BRANCH   2  18
ATOM     18  C   UNL d   1      27.181 -15.570   0.225  0.00  0.00     0.310 C 
ATOM     19  O   UNL d   1      27.562 -16.706   0.415  0.00  0.00    -0.262 OA
ATOM     20  N   UNL d   1      26.356 -15.115  -0.812  0.00  0.00    -0.343 N 
ATOM     21  H   UNL d   1      26.219 -14.107  -0.856  0.00  0.00     0.163 HD
BRANCH  20  22
ATOM     22  C   UNL d   1      25.731 -15.986  -1.828  0.00  0.00     0.128 C 
BRANCH  22  23
ATOM     23  C   UNL d   1      24.630 -16.872  -1.180  0.00  0.00     0.005 A 
ATOM     24  C   UNL d   1      24.725 -18.158  -0.673  0.00  0.00     0.017 A 
ATOM     25  C   UNL d   1      23.530 -18.703  -0.153  0.00  0.00     0.008 A 
ATOM     26  C   UNL d   1      22.527 -17.776  -0.150  0.00  0.00     0.050 A 
ATOM     27  S   UNL d   1      23.008 -16.327  -0.894  0.00  0.00    -0.104 SA
ENDBRANCH  22  23
BRANCH  22  28
ATOM     28  C   UNL d   1      25.155 -15.150  -3.049  0.00  0.00     0.005 C 
ATOM     29  C   UNL d   1      25.207 -13.633  -2.817  0.00  0.00     0.012 C 
ATOM     30  C   UNL d   1      25.905 -15.328  -4.388  0.00  0.00     0.012 C 
ENDBRANCH  22  28
ENDBRANCH  20  22
ENDBRANCH   2  18
TORSDOF 7
ENDMDL
