MODEL 1
REMARK VINA RESULT:    -7.660      0.000      0.000
REMARK INTER + INTRA:         -13.357
REMARK INTER:                 -10.942
REMARK INTRA:                  -2.415
REMARK CONF_INDEPENDENT:        3.281
REMARK UNBOUND:                -2.415
REMARK  11 active torsions:
REMARK  status: ('A' for Active; 'I' for Inactive)
REMARK    1  A    between atoms: C_2  and  O_3 
REMARK    2  A    between atoms: O_3  and  C_4 
REMARK    3  A    between atoms: C_9  and  C_10 
REMARK    4  A    between atoms: C_10  and  N_11 
REMARK       I    between atoms: N_11  and  C_12 
REMARK       I    between atoms: C_12  and  N_14 
REMARK    5  A    between atoms: N_14  and  C_15 
REMARK    6  A    between atoms: C_16  and  C_15 
REMARK    7  A    between atoms: C_16  and  C_18 
REMARK    8  A    between atoms: C_16  and  O_17 
REMARK    9  A    between atoms: C_18  and  O_19 
REMARK   10  A    between atoms: O_19  and  C_20 
REMARK   11  A    between atoms: C_23  and  N_24 
ROOT
ATOM      1  N   UNL d   1      27.826 -14.874   2.810  0.00  0.00    -0.339 N 
ATOM      2  C   UNL d   1      27.892 -14.762   1.438  0.00  0.00     0.316 C 
ATOM      3  O   UNL d   1      27.203 -13.960   0.802  0.00  0.00    -0.247 OA
ATOM      4  N   UNL d   1      28.841 -15.556   0.837  0.00  0.00    -0.341 N 
ATOM      5  H   UNL d   1      28.346 -15.594   3.291  0.00  0.00     0.164 HD
ATOM      6  H   UNL d   1      29.406 -16.190   1.370  0.00  0.00     0.164 HD
ENDROOT
BRANCH   4   7
ATOM      7  C   UNL d   1      29.049 -15.662  -0.604  0.00  0.00     0.158 C 
BRANCH   7   8
ATOM      8  C   UNL d   1      27.810 -16.189  -1.384  0.00  0.00     0.160 C 
BRANCH   8   9
ATOM      9  C   UNL d   1      27.039 -17.259  -0.600  0.00  0.00     0.209 C 
BRANCH   9  10
ATOM     10  O   UNL d   1      25.899 -16.664   0.004  0.00  0.00    -0.349 OA
BRANCH  10  11
ATOM     11  C   UNL d   1      24.694 -17.210  -0.335  0.00  0.00     0.069 A 
ATOM     12  C   UNL d   1      23.645 -16.299  -0.477  0.00  0.00     0.039 A 
ATOM     13  C   UNL d   1      22.338 -16.752  -0.675  0.00  0.00     0.039 A 
ATOM     14  C   UNL d   1      22.102 -18.124  -0.810  0.00  0.00     0.103 A 
ATOM     15  C   UNL d   1      23.150 -19.043  -0.669  0.00  0.00     0.039 A 
ATOM     16  C   UNL d   1      24.446 -18.580  -0.423  0.00  0.00     0.039 A 
BRANCH  14  17
ATOM     17  N   UNL d   1      20.759 -18.603  -1.161  0.00  0.00    -0.116 N 
ATOM     18  O   UNL d   1      20.663 -19.726  -1.676  0.00  0.00    -0.532 OA
ATOM     19  O   UNL d   1      19.798 -17.867  -0.895  0.00  0.00    -0.532 OA
ENDBRANCH  14  17
ENDBRANCH  10  11
ENDBRANCH   9  10
ENDBRANCH   8   9
BRANCH   8  20
ATOM     20  O   UNL d   1      26.890 -15.146  -1.714  0.00  0.00    -0.392 OA
ATOM     21  H   UNL d   1      26.375 -14.963  -0.908  0.00  0.00     0.210 HD
ENDBRANCH   8  20
ENDBRANCH   7   8
ENDBRANCH   4   7
BRANCH   1  22
ATOM     22  C   UNL d   1      27.291 -13.813   3.668  0.00  0.00     0.165 C 
BRANCH  22  23
ATOM     23  C   UNL d   1      28.116 -13.434   4.898  0.00  0.00    -0.007 A 
ATOM     24  C   UNL d   1      28.960 -14.432   5.452  0.00  0.00     0.011 A 
ATOM     25  C   UNL d   1      29.823 -14.170   6.527  0.00  0.00     0.001 A 
ATOM     26  C   UNL d   1      29.871 -12.895   7.075  0.00  0.00     0.003 A 
ATOM     27  C   UNL d   1      28.992 -11.921   6.604  0.00  0.00     0.037 A 
ATOM     28  C   UNL d   1      28.109 -12.188   5.539  0.00  0.00     0.076 A 
BRANCH  28  29
ATOM     29  O   UNL d   1      27.447 -11.088   5.080  0.00  0.00    -0.351 OA
BRANCH  29  30
ATOM     30  C   UNL d   1      28.101 -10.290   4.099  0.00  0.00     0.171 C 
ATOM     31  C   UNL d   1      27.127  -9.163   3.831  0.00  0.00     0.034 C 
ENDBRANCH  29  30
ENDBRANCH  28  29
ENDBRANCH  22  23
ENDBRANCH   1  22
TORSDOF 11
ENDMDL
MODEL 2
REMARK VINA RESULT:    -7.591      2.923      8.252
REMARK INTER + INTRA:         -12.585
REMARK INTER:                 -10.873
REMARK INTRA:                  -1.712
REMARK CONF_INDEPENDENT:        3.281
REMARK UNBOUND:                -1.712
REMARK  11 active torsions:
REMARK  status: ('A' for Active; 'I' for Inactive)
REMARK    1  A    between atoms: C_2  and  O_3 
REMARK    2  A    between atoms: O_3  and  C_4 
REMARK    3  A    between atoms: C_9  and  C_10 
REMARK    4  A    between atoms: C_10  and  N_11 
REMARK       I    between atoms: N_11  and  C_12 
REMARK       I    between atoms: C_12  and  N_14 
REMARK    5  A    between atoms: N_14  and  C_15 
REMARK    6  A    between atoms: C_16  and  C_15 
REMARK    7  A    between atoms: C_16  and  C_18 
REMARK    8  A    between atoms: C_16  and  O_17 
REMARK    9  A    between atoms: C_18  and  O_19 
REMARK   10  A    between atoms: O_19  and  C_20 
REMARK   11  A    between atoms: C_23  and  N_24 
ROOT
ATOM      1  N   UNL d   1      29.090 -16.392   0.217  0.00  0.00    -0.339 N 
ATOM      2  C   UNL d   1      29.286 -15.066   0.539  0.00  0.00     0.316 C 
ATOM      3  O   UNL d   1      29.174 -14.157  -0.288  0.00  0.00    -0.247 OA
ATOM      4  N   UNL d   1      29.536 -14.825   1.870  0.00  0.00    -0.341 N 
ATOM      5  H   UNL d   1      29.266 -17.116   0.899  0.00  0.00     0.164 HD
ATOM      6  H   UNL d   1      29.606 -15.573   2.533  0.00  0.00     0.164 HD
ENDROOT
BRANCH   4   7
ATOM      7  C   UNL d   1      29.843 -13.514   2.436  0.00  0.00     0.158 C 
BRANCH   7   8
ATOM      8  C   UNL d   1      30.260 -13.556   3.934  0.00  0.00     0.160 C 
BRANCH   8   9
ATOM      9  C   UNL d   1      29.175 -12.989   4.859  0.00  0.00     0.209 C 
BRANCH   9  10
ATOM     10  O   UNL d   1      27.919 -13.053   4.198  0.00  0.00    -0.349 OA
BRANCH  10  11
ATOM     11  C   UNL d   1      27.459 -11.877   3.680  0.00  0.00     0.069 A 
ATOM     12  C   UNL d   1      27.565 -10.770   4.526  0.00  0.00     0.039 A 
ATOM     13  C   UNL d   1      26.995  -9.547   4.163  0.00  0.00     0.039 A 
ATOM     14  C   UNL d   1      26.385  -9.419   2.910  0.00  0.00     0.103 A 
ATOM     15  C   UNL d   1      26.276 -10.525   2.058  0.00  0.00     0.039 A 
ATOM     16  C   UNL d   1      26.809 -11.757   2.452  0.00  0.00     0.039 A 
BRANCH  14  17
ATOM     17  N   UNL d   1      25.910  -8.105   2.460  0.00  0.00    -0.116 N 
ATOM     18  O   UNL d   1      26.315  -7.106   3.071  0.00  0.00    -0.532 OA
ATOM     19  O   UNL d   1      25.155  -8.072   1.478  0.00  0.00    -0.532 OA
ENDBRANCH  14  17
ENDBRANCH  10  11
ENDBRANCH   9  10
ENDBRANCH   8   9
BRANCH   8  20
ATOM     20  O   UNL d   1      30.560 -14.881   4.380  0.00  0.00    -0.392 OA
ATOM     21  H   UNL d   1      31.529 -14.939   4.451  0.00  0.00     0.210 HD
ENDBRANCH   8  20
ENDBRANCH   7   8
ENDBRANCH   4   7
BRANCH   1  22
ATOM     22  C   UNL d   1      28.337 -16.819  -0.966  0.00  0.00     0.165 C 
BRANCH  22  23
ATOM     23  C   UNL d   1      26.840 -17.068  -0.781  0.00  0.00    -0.007 A 
ATOM     24  C   UNL d   1      26.448 -17.963   0.248  0.00  0.00     0.011 A 
ATOM     25  C   UNL d   1      25.100 -18.200   0.562  0.00  0.00     0.001 A 
ATOM     26  C   UNL d   1      24.104 -17.540  -0.146  0.00  0.00     0.003 A 
ATOM     27  C   UNL d   1      24.461 -16.722  -1.216  0.00  0.00     0.037 A 
ATOM     28  C   UNL d   1      25.812 -16.499  -1.546  0.00  0.00     0.076 A 
BRANCH  28  29
ATOM     29  O   UNL d   1      25.999 -15.540  -2.496  0.00  0.00    -0.351 OA
BRANCH  29  30
ATOM     30  C   UNL d   1      24.898 -14.692  -2.800  0.00  0.00     0.171 C 
ATOM     31  C   UNL d   1      25.487 -13.629  -3.703  0.00  0.00     0.034 C 
ENDBRANCH  29  30
ENDBRANCH  28  29
ENDBRANCH  22  23
ENDBRANCH   1  22
TORSDOF 11
ENDMDL
MODEL 3
REMARK VINA RESULT:    -7.282      2.864      8.602
REMARK INTER + INTRA:         -12.436
REMARK INTER:                 -10.564
REMARK INTRA:                  -1.872
REMARK CONF_INDEPENDENT:        3.281
REMARK UNBOUND:                -1.872
REMARK  11 active torsions:
REMARK  status: ('A' for Active; 'I' for Inactive)
REMARK    1  A    between atoms: C_2  and  O_3 
REMARK    2  A    between atoms: O_3  and  C_4 
REMARK    3  A    between atoms: C_9  and  C_10 
REMARK    4  A    between atoms: C_10  and  N_11 
REMARK       I    between atoms: N_11  and  C_12 
REMARK       I    between atoms: C_12  and  N_14 
REMARK    5  A    between atoms: N_14  and  C_15 
REMARK    6  A    between atoms: C_16  and  C_15 
REMARK    7  A    between atoms: C_16  and  C_18 
REMARK    8  A    between atoms: C_16  and  O_17 
REMARK    9  A    between atoms: C_18  and  O_19 
REMARK   10  A    between atoms: O_19  and  C_20 
REMARK   11  A    between atoms: C_23  and  N_24 
ROOT
ATOM      1  N   UNL d   1      28.528 -15.170   1.365  0.00  0.00    -0.339 N 
ATOM      2  C   UNL d   1      27.792 -14.524   2.335  0.00  0.00     0.316 C 
ATOM      3  O   UNL d   1      26.895 -13.721   2.064  0.00  0.00    -0.247 OA
ATOM      4  N   UNL d   1      28.077 -14.902   3.627  0.00  0.00    -0.341 N 
ATOM      5  H   UNL d   1      29.306 -15.762   1.622  0.00  0.00     0.164 HD
ATOM      6  H   UNL d   1      28.797 -15.571   3.829  0.00  0.00     0.164 HD
ENDROOT
BRANCH   4   7
ATOM      7  C   UNL d   1      27.479 -14.310   4.820  0.00  0.00     0.158 C 
BRANCH   7   8
ATOM      8  C   UNL d   1      28.492 -13.549   5.722  0.00  0.00     0.160 C 
BRANCH   8   9
ATOM      9  C   UNL d   1      29.329 -12.535   4.933  0.00  0.00     0.209 C 
BRANCH   9  10
ATOM     10  O   UNL d   1      29.110 -11.235   5.463  0.00  0.00    -0.349 OA
BRANCH  10  11
ATOM     11  C   UNL d   1      28.273 -10.433   4.743  0.00  0.00     0.069 A 
ATOM     12  C   UNL d   1      27.524 -11.081   3.758  0.00  0.00     0.039 A 
ATOM     13  C   UNL d   1      26.745 -10.344   2.863  0.00  0.00     0.039 A 
ATOM     14  C   UNL d   1      26.659  -8.956   3.011  0.00  0.00     0.103 A 
ATOM     15  C   UNL d   1      27.407  -8.300   3.997  0.00  0.00     0.039 A 
ATOM     16  C   UNL d   1      28.220  -9.044   4.857  0.00  0.00     0.039 A 
BRANCH  14  17
ATOM     17  N   UNL d   1      25.734  -8.187   2.169  0.00  0.00    -0.116 N 
ATOM     18  O   UNL d   1      25.722  -6.955   2.302  0.00  0.00    -0.532 OA
ATOM     19  O   UNL d   1      25.040  -8.814   1.356  0.00  0.00    -0.532 OA
ENDBRANCH  14  17
ENDBRANCH  10  11
ENDBRANCH   9  10
ENDBRANCH   8   9
BRANCH   8  20
ATOM     20  O   UNL d   1      27.851 -12.845   6.788  0.00  0.00    -0.392 OA
ATOM     21  H   UNL d   1      27.501 -12.020   6.407  0.00  0.00     0.210 HD
ENDBRANCH   8  20
ENDBRANCH   7   8
ENDBRANCH   4   7
BRANCH   1  22
ATOM     22  C   UNL d   1      28.068 -15.312  -0.019  0.00  0.00     0.165 C 
BRANCH  22  23
ATOM     23  C   UNL d   1      26.836 -16.185  -0.254  0.00  0.00    -0.007 A 
ATOM     24  C   UNL d   1      26.717 -17.370   0.519  0.00  0.00     0.011 A 
ATOM     25  C   UNL d   1      25.588 -18.200   0.447  0.00  0.00     0.001 A 
ATOM     26  C   UNL d   1      24.540 -17.864  -0.400  0.00  0.00     0.003 A 
ATOM     27  C   UNL d   1      24.670 -16.754  -1.232  0.00  0.00     0.037 A 
ATOM     28  C   UNL d   1      25.811 -15.930  -1.176  0.00  0.00     0.076 A 
BRANCH  28  29
ATOM     29  O   UNL d   1      25.709 -14.790  -1.917  0.00  0.00    -0.351 OA
BRANCH  29  30
ATOM     30  C   UNL d   1      25.734 -14.924  -3.334  0.00  0.00     0.171 C 
ATOM     31  C   UNL d   1      24.877 -13.778  -3.829  0.00  0.00     0.034 C 
ENDBRANCH  29  30
ENDBRANCH  28  29
ENDBRANCH  22  23
ENDBRANCH   1  22
TORSDOF 11
ENDMDL
MODEL 4
REMARK VINA RESULT:    -7.197      1.541      2.249
REMARK INTER + INTRA:         -12.663
REMARK INTER:                 -10.479
REMARK INTRA:                  -2.184
REMARK CONF_INDEPENDENT:        3.281
REMARK UNBOUND:                -2.184
REMARK  11 active torsions:
REMARK  status: ('A' for Active; 'I' for Inactive)
REMARK    1  A    between atoms: C_2  and  O_3 
REMARK    2  A    between atoms: O_3  and  C_4 
REMARK    3  A    between atoms: C_9  and  C_10 
REMARK    4  A    between atoms: C_10  and  N_11 
REMARK       I    between atoms: N_11  and  C_12 
REMARK       I    between atoms: C_12  and  N_14 
REMARK    5  A    between atoms: N_14  and  C_15 
REMARK    6  A    between atoms: C_16  and  C_15 
REMARK    7  A    between atoms: C_16  and  C_18 
REMARK    8  A    between atoms: C_16  and  O_17 
REMARK    9  A    between atoms: C_18  and  O_19 
REMARK   10  A    between atoms: O_19  and  C_20 
REMARK   11  A    between atoms: C_23  and  N_24 
ROOT
ATOM      1  N   UNL d   1      27.977 -14.757   3.227  0.00  0.00    -0.339 N 
ATOM      2  C   UNL d   1      27.756 -14.717   1.868  0.00  0.00     0.316 C 
ATOM      3  O   UNL d   1      26.886 -14.006   1.356  0.00  0.00    -0.247 OA
ATOM      4  N   UNL d   1      28.630 -15.467   1.116  0.00  0.00    -0.341 N 
ATOM      5  H   UNL d   1      28.644 -15.408   3.619  0.00  0.00     0.164 HD
ATOM      6  H   UNL d   1      29.343 -16.026   1.546  0.00  0.00     0.164 HD
ENDROOT
BRANCH   4   7
ATOM      7  C   UNL d   1      28.553 -15.636  -0.332  0.00  0.00     0.158 C 
BRANCH   7   8
ATOM      8  C   UNL d   1      27.905 -16.978  -0.778  0.00  0.00     0.160 C 
BRANCH   8   9
ATOM      9  C   UNL d   1      26.657 -17.326   0.044  0.00  0.00     0.209 C 
BRANCH   9  10
ATOM     10  O   UNL d   1      25.575 -16.512  -0.383  0.00  0.00    -0.349 OA
BRANCH  10  11
ATOM     11  C   UNL d   1      24.389 -17.157  -0.586  0.00  0.00     0.069 A 
ATOM     12  C   UNL d   1      23.290 -16.327  -0.821  0.00  0.00     0.039 A 
ATOM     13  C   UNL d   1      22.003 -16.865  -0.896  0.00  0.00     0.039 A 
ATOM     14  C   UNL d   1      21.833 -18.251  -0.814  0.00  0.00     0.103 A 
ATOM     15  C   UNL d   1      22.931 -19.088  -0.578  0.00  0.00     0.039 A 
ATOM     16  C   UNL d   1      24.209 -18.534  -0.457  0.00  0.00     0.039 A 
BRANCH  14  17
ATOM     17  N   UNL d   1      20.506 -18.838  -1.034  0.00  0.00    -0.116 N 
ATOM     18  O   UNL d   1      19.519 -18.101  -0.894  0.00  0.00    -0.532 OA
ATOM     19  O   UNL d   1      20.452 -20.029  -1.375  0.00  0.00    -0.532 OA
ENDBRANCH  14  17
ENDBRANCH  10  11
ENDBRANCH   9  10
ENDBRANCH   8   9
BRANCH   8  20
ATOM     20  O   UNL d   1      27.527 -16.969  -2.156  0.00  0.00    -0.392 OA
ATOM     21  H   UNL d   1      26.744 -16.395  -2.228  0.00  0.00     0.210 HD
ENDBRANCH   8  20
ENDBRANCH   7   8
ENDBRANCH   4   7
BRANCH   1  22
ATOM     22  C   UNL d   1      27.535 -13.696   4.136  0.00  0.00     0.165 C 
BRANCH  22  23
ATOM     23  C   UNL d   1      28.392 -13.445   5.377  0.00  0.00    -0.007 A 
ATOM     24  C   UNL d   1      27.815 -12.683   6.427  0.00  0.00     0.011 A 
ATOM     25  C   UNL d   1      28.477 -12.464   7.644  0.00  0.00     0.001 A 
ATOM     26  C   UNL d   1      29.738 -13.008   7.848  0.00  0.00     0.003 A 
ATOM     27  C   UNL d   1      30.360 -13.688   6.803  0.00  0.00     0.037 A 
ATOM     28  C   UNL d   1      29.706 -13.892   5.573  0.00  0.00     0.076 A 
BRANCH  28  29
ATOM     29  O   UNL d   1      30.371 -14.724   4.722  0.00  0.00    -0.351 OA
BRANCH  29  30
ATOM     30  C   UNL d   1      30.709 -14.215   3.436  0.00  0.00     0.171 C 
ATOM     31  C   UNL d   1      32.116 -14.721   3.196  0.00  0.00     0.034 C 
ENDBRANCH  29  30
ENDBRANCH  28  29
ENDBRANCH  22  23
ENDBRANCH   1  22
TORSDOF 11
ENDMDL
MODEL 5
REMARK VINA RESULT:    -7.188      2.649      8.609
REMARK INTER + INTRA:         -12.141
REMARK INTER:                 -10.469
REMARK INTRA:                  -1.672
REMARK CONF_INDEPENDENT:        3.281
REMARK UNBOUND:                -1.672
REMARK  11 active torsions:
REMARK  status: ('A' for Active; 'I' for Inactive)
REMARK    1  A    between atoms: C_2  and  O_3 
REMARK    2  A    between atoms: O_3  and  C_4 
REMARK    3  A    between atoms: C_9  and  C_10 
REMARK    4  A    between atoms: C_10  and  N_11 
REMARK       I    between atoms: N_11  and  C_12 
REMARK       I    between atoms: C_12  and  N_14 
REMARK    5  A    between atoms: N_14  and  C_15 
REMARK    6  A    between atoms: C_16  and  C_15 
REMARK    7  A    between atoms: C_16  and  C_18 
REMARK    8  A    between atoms: C_16  and  O_17 
REMARK    9  A    between atoms: C_18  and  O_19 
REMARK   10  A    between atoms: O_19  and  C_20 
REMARK   11  A    between atoms: C_23  and  N_24 
ROOT
ATOM      1  N   UNL d   1      28.541 -16.463   0.548  0.00  0.00    -0.339 N 
ATOM      2  C   UNL d   1      28.599 -15.124   0.868  0.00  0.00     0.316 C 
ATOM      3  O   UNL d   1      27.886 -14.278   0.322  0.00  0.00    -0.247 OA
ATOM      4  N   UNL d   1      29.455 -14.812   1.899  0.00  0.00    -0.341 N 
ATOM      5  H   UNL d   1      29.193 -17.117   0.958  0.00  0.00     0.164 HD
ATOM      6  H   UNL d   1      30.015 -15.514   2.345  0.00  0.00     0.164 HD
ENDROOT
BRANCH   4   7
ATOM      7  C   UNL d   1      29.736 -13.458   2.368  0.00  0.00     0.158 C 
BRANCH   7   8
ATOM      8  C   UNL d   1      30.404 -13.402   3.772  0.00  0.00     0.160 C 
BRANCH   8   9
ATOM      9  C   UNL d   1      29.560 -12.624   4.790  0.00  0.00     0.209 C 
BRANCH   9  10
ATOM     10  O   UNL d   1      28.190 -12.711   4.425  0.00  0.00    -0.349 OA
BRANCH  10  11
ATOM     11  C   UNL d   1      27.612 -11.549   4.003  0.00  0.00     0.069 A 
ATOM     12  C   UNL d   1      26.946 -11.624   2.778  0.00  0.00     0.039 A 
ATOM     13  C   UNL d   1      26.444 -10.468   2.175  0.00  0.00     0.039 A 
ATOM     14  C   UNL d   1      26.544  -9.245   2.847  0.00  0.00     0.103 A 
ATOM     15  C   UNL d   1      27.211  -9.163   4.075  0.00  0.00     0.039 A 
ATOM     16  C   UNL d   1      27.752 -10.319   4.647  0.00  0.00     0.039 A 
BRANCH  14  17
ATOM     17  N   UNL d   1      25.896  -8.051   2.291  0.00  0.00    -0.116 N 
ATOM     18  O   UNL d   1      26.103  -6.967   2.855  0.00  0.00    -0.532 OA
ATOM     19  O   UNL d   1      25.202  -8.193   1.274  0.00  0.00    -0.532 OA
ENDBRANCH  14  17
ENDBRANCH  10  11
ENDBRANCH   9  10
ENDBRANCH   8   9
BRANCH   8  20
ATOM     20  O   UNL d   1      30.643 -14.704   4.314  0.00  0.00    -0.392 OA
ATOM     21  H   UNL d   1      31.529 -14.680   4.717  0.00  0.00     0.210 HD
ENDBRANCH   8  20
ENDBRANCH   7   8
ENDBRANCH   4   7
BRANCH   1  22
ATOM     22  C   UNL d   1      27.386 -17.071  -0.119  0.00  0.00     0.165 C 
BRANCH  22  23
ATOM     23  C   UNL d   1      26.774 -16.298  -1.287  0.00  0.00    -0.007 A 
ATOM     24  C   UNL d   1      27.661 -15.791  -2.273  0.00  0.00     0.011 A 
ATOM     25  C   UNL d   1      27.203 -15.142  -3.429  0.00  0.00     0.001 A 
ATOM     26  C   UNL d   1      25.839 -14.985  -3.634  0.00  0.00     0.003 A 
ATOM     27  C   UNL d   1      24.952 -15.397  -2.642  0.00  0.00     0.037 A 
ATOM     28  C   UNL d   1      25.410 -16.031  -1.471  0.00  0.00     0.076 A 
BRANCH  28  29
ATOM     29  O   UNL d   1      24.415 -16.533  -0.686  0.00  0.00    -0.351 OA
BRANCH  29  30
ATOM     30  C   UNL d   1      23.789 -17.739  -1.109  0.00  0.00     0.171 C 
ATOM     31  C   UNL d   1      22.613 -17.895  -0.169  0.00  0.00     0.034 C 
ENDBRANCH  29  30
ENDBRANCH  28  29
ENDBRANCH  22  23
ENDBRANCH   1  22
TORSDOF 11
ENDMDL
MODEL 6
REMARK VINA RESULT:    -7.179      4.472      9.140
REMARK INTER + INTRA:         -12.705
REMARK INTER:                 -10.460
REMARK INTRA:                  -2.245
REMARK CONF_INDEPENDENT:        3.281
REMARK UNBOUND:                -2.245
REMARK  11 active torsions:
REMARK  status: ('A' for Active; 'I' for Inactive)
REMARK    1  A    between atoms: C_2  and  O_3 
REMARK    2  A    between atoms: O_3  and  C_4 
REMARK    3  A    between atoms: C_9  and  C_10 
REMARK    4  A    between atoms: C_10  and  N_11 
REMARK       I    between atoms: N_11  and  C_12 
REMARK       I    between atoms: C_12  and  N_14 
REMARK    5  A    between atoms: N_14  and  C_15 
REMARK    6  A    between atoms: C_16  and  C_15 
REMARK    7  A    between atoms: C_16  and  C_18 
REMARK    8  A    between atoms: C_16  and  O_17 
REMARK    9  A    between atoms: C_18  and  O_19 
REMARK   10  A    between atoms: O_19  and  C_20 
REMARK   11  A    between atoms: C_23  and  N_24 
ROOT
ATOM      1  N   UNL d   1      25.325 -14.232  -2.513  0.00  0.00    -0.339 N 
ATOM      2  C   UNL d   1      25.296 -13.778  -3.813  0.00  0.00     0.316 C 
ATOM      3  O   UNL d   1      24.807 -14.435  -4.737  0.00  0.00    -0.247 OA
ATOM      4  N   UNL d   1      25.781 -12.503  -3.993  0.00  0.00    -0.341 N 
ATOM      5  H   UNL d   1      25.803 -13.704  -1.796  0.00  0.00     0.164 HD
ATOM      6  H   UNL d   1      26.159 -11.975  -3.228  0.00  0.00     0.164 HD
ENDROOT
BRANCH   4   7
ATOM      7  C   UNL d   1      25.915 -11.836  -5.284  0.00  0.00     0.158 C 
BRANCH   7   8
ATOM      8  C   UNL d   1      26.532 -10.410  -5.197  0.00  0.00     0.160 C 
BRANCH   8   9
ATOM      9  C   UNL d   1      26.046  -9.638  -3.964  0.00  0.00     0.209 C 
BRANCH   9  10
ATOM     10  O   UNL d   1      26.855  -9.983  -2.849  0.00  0.00    -0.349 OA
BRANCH  10  11
ATOM     11  C   UNL d   1      26.612  -9.286  -1.700  0.00  0.00     0.069 A 
ATOM     12  C   UNL d   1      27.304  -9.734  -0.573  0.00  0.00     0.039 A 
ATOM     13  C   UNL d   1      27.026  -9.196   0.686  0.00  0.00     0.039 A 
ATOM     14  C   UNL d   1      26.105  -8.149   0.797  0.00  0.00     0.103 A 
ATOM     15  C   UNL d   1      25.407  -7.696  -0.330  0.00  0.00     0.039 A 
ATOM     16  C   UNL d   1      25.659  -8.274  -1.578  0.00  0.00     0.039 A 
BRANCH  14  17
ATOM     17  N   UNL d   1      25.910  -7.480   2.089  0.00  0.00    -0.116 N 
ATOM     18  O   UNL d   1      25.362  -6.369   2.086  0.00  0.00    -0.532 OA
ATOM     19  O   UNL d   1      26.280  -8.080   3.109  0.00  0.00    -0.532 OA
ENDBRANCH  14  17
ENDBRANCH  10  11
ENDBRANCH   9  10
ENDBRANCH   8   9
BRANCH   8  20
ATOM     20  O   UNL d   1      27.960 -10.436  -5.157  0.00  0.00    -0.392 OA
ATOM     21  H   UNL d   1      28.223 -10.052  -4.301  0.00  0.00     0.210 HD
ENDBRANCH   8  20
ENDBRANCH   7   8
ENDBRANCH   4   7
BRANCH   1  22
ATOM     22  C   UNL d   1      24.437 -15.288  -2.020  0.00  0.00     0.165 C 
BRANCH  22  23
ATOM     23  C   UNL d   1      25.069 -16.378  -1.154  0.00  0.00    -0.007 A 
ATOM     24  C   UNL d   1      26.469 -16.304  -0.929  0.00  0.00     0.011 A 
ATOM     25  C   UNL d   1      27.139 -17.201  -0.082  0.00  0.00     0.001 A 
ATOM     26  C   UNL d   1      26.423 -18.197   0.569  0.00  0.00     0.003 A 
ATOM     27  C   UNL d   1      25.064 -18.343   0.298  0.00  0.00     0.037 A 
ATOM     28  C   UNL d   1      24.393 -17.457  -0.567  0.00  0.00     0.076 A 
BRANCH  28  29
ATOM     29  O   UNL d   1      23.040 -17.621  -0.588  0.00  0.00    -0.351 OA
BRANCH  29  30
ATOM     30  C   UNL d   1      22.538 -18.950  -0.512  0.00  0.00     0.171 C 
ATOM     31  C   UNL d   1      21.079 -18.818  -0.895  0.00  0.00     0.034 C 
ENDBRANCH  29  30
ENDBRANCH  28  29
ENDBRANCH  22  23
ENDBRANCH   1  22
TORSDOF 11
ENDMDL
MODEL 7
REMARK VINA RESULT:    -7.153      5.018      9.105
REMARK INTER + INTRA:         -12.462
REMARK INTER:                 -10.434
REMARK INTRA:                  -2.028
REMARK CONF_INDEPENDENT:        3.281
REMARK UNBOUND:                -2.028
REMARK  11 active torsions:
REMARK  status: ('A' for Active; 'I' for Inactive)
REMARK    1  A    between atoms: C_2  and  O_3 
REMARK    2  A    between atoms: O_3  and  C_4 
REMARK    3  A    between atoms: C_9  and  C_10 
REMARK    4  A    between atoms: C_10  and  N_11 
REMARK       I    between atoms: N_11  and  C_12 
REMARK       I    between atoms: C_12  and  N_14 
REMARK    5  A    between atoms: N_14  and  C_15 
REMARK    6  A    between atoms: C_16  and  C_15 
REMARK    7  A    between atoms: C_16  and  C_18 
REMARK    8  A    between atoms: C_16  and  O_17 
REMARK    9  A    between atoms: C_18  and  O_19 
REMARK   10  A    between atoms: O_19  and  C_20 
REMARK   11  A    between atoms: C_23  and  N_24 
ROOT
ATOM      1  N   UNL d   1      30.143 -16.912  -5.017  0.00  0.00    -0.339 N 
ATOM      2  C   UNL d   1      29.076 -16.355  -4.346  0.00  0.00     0.316 C 
ATOM      3  O   UNL d   1      28.252 -15.621  -4.899  0.00  0.00    -0.247 OA
ATOM      4  N   UNL d   1      28.952 -16.742  -3.031  0.00  0.00    -0.341 N 
ATOM      5  H   UNL d   1      30.842 -17.444  -4.517  0.00  0.00     0.164 HD
ATOM      6  H   UNL d   1      29.620 -17.354  -2.601  0.00  0.00     0.164 HD
ENDROOT
BRANCH   4   7
ATOM      7  C   UNL d   1      27.946 -16.233  -2.104  0.00  0.00     0.158 C 
BRANCH   7   8
ATOM      8  C   UNL d   1      27.958 -16.933  -0.714  0.00  0.00     0.160 C 
BRANCH   8   9
ATOM      9  C   UNL d   1      26.707 -17.789  -0.480  0.00  0.00     0.209 C 
BRANCH   9  10
ATOM     10  O   UNL d   1      25.709 -16.997   0.147  0.00  0.00    -0.349 OA
BRANCH  10  11
ATOM     11  C   UNL d   1      24.417 -17.337  -0.135  0.00  0.00     0.069 A 
ATOM     12  C   UNL d   1      24.145 -18.706  -0.135  0.00  0.00     0.039 A 
ATOM     13  C   UNL d   1      22.899 -19.179  -0.552  0.00  0.00     0.039 A 
ATOM     14  C   UNL d   1      21.898 -18.264  -0.894  0.00  0.00     0.103 A 
ATOM     15  C   UNL d   1      22.164 -16.889  -0.896  0.00  0.00     0.039 A 
ATOM     16  C   UNL d   1      23.430 -16.430  -0.522  0.00  0.00     0.039 A 
BRANCH  14  17
ATOM     17  N   UNL d   1      20.543 -18.742  -1.195  0.00  0.00    -0.116 N 
ATOM     18  O   UNL d   1      20.428 -19.683  -1.994  0.00  0.00    -0.532 OA
ATOM     19  O   UNL d   1      19.596 -18.195  -0.612  0.00  0.00    -0.532 OA
ENDBRANCH  14  17
ENDBRANCH  10  11
ENDBRANCH   9  10
ENDBRANCH   8   9
BRANCH   8  20
ATOM     20  O   UNL d   1      29.099 -17.775  -0.538  0.00  0.00    -0.392 OA
ATOM     21  H   UNL d   1      29.351 -17.713   0.401  0.00  0.00     0.210 HD
ENDBRANCH   8  20
ENDBRANCH   7   8
ENDBRANCH   4   7
BRANCH   1  22
ATOM     22  C   UNL d   1      30.178 -17.054  -6.475  0.00  0.00     0.165 C 
BRANCH  22  23
ATOM     23  C   UNL d   1      30.740 -18.363  -7.031  0.00  0.00    -0.007 A 
ATOM     24  C   UNL d   1      31.210 -18.356  -8.370  0.00  0.00     0.011 A 
ATOM     25  C   UNL d   1      31.823 -19.476  -8.954  0.00  0.00     0.001 A 
ATOM     26  C   UNL d   1      31.987 -20.635  -8.209  0.00  0.00     0.003 A 
ATOM     27  C   UNL d   1      31.459 -20.695  -6.921  0.00  0.00     0.037 A 
ATOM     28  C   UNL d   1      30.825 -19.580  -6.340  0.00  0.00     0.076 A 
BRANCH  28  29
ATOM     29  O   UNL d   1      30.524 -19.738  -5.020  0.00  0.00    -0.351 OA
BRANCH  29  30
ATOM     30  C   UNL d   1      31.037 -20.892  -4.363  0.00  0.00     0.171 C 
ATOM     31  C   UNL d   1      31.583 -20.362  -3.055  0.00  0.00     0.034 C 
ENDBRANCH  29  30
ENDBRANCH  28  29
ENDBRANCH  22  23
ENDBRANCH   1  22
TORSDOF 11
ENDMDL
MODEL 8
REMARK VINA RESULT:    -6.143      1.216      2.645
REMARK INTER + INTRA:         -12.583
REMARK INTER:                  -9.424
REMARK INTRA:                  -3.158
REMARK CONF_INDEPENDENT:        3.281
REMARK UNBOUND:                -3.158
REMARK  11 active torsions:
REMARK  status: ('A' for Active; 'I' for Inactive)
REMARK    1  A    between atoms: C_2  and  O_3 
REMARK    2  A    between atoms: O_3  and  C_4 
REMARK    3  A    between atoms: C_9  and  C_10 
REMARK    4  A    between atoms: C_10  and  N_11 
REMARK       I    between atoms: N_11  and  C_12 
REMARK       I    between atoms: C_12  and  N_14 
REMARK    5  A    between atoms: N_14  and  C_15 
REMARK    6  A    between atoms: C_16  and  C_15 
REMARK    7  A    between atoms: C_16  and  C_18 
REMARK    8  A    between atoms: C_16  and  O_17 
REMARK    9  A    between atoms: C_18  and  O_19 
REMARK   10  A    between atoms: O_19  and  C_20 
REMARK   11  A    between atoms: C_23  and  N_24 
ROOT
ATOM      1  N   UNL d   1      27.178 -13.991   1.827  0.00  0.00    -0.339 N 
ATOM      2  C   UNL d   1      27.551 -14.560   0.629  0.00  0.00     0.316 C 
ATOM      3  O   UNL d   1      27.137 -14.151  -0.459  0.00  0.00    -0.247 OA
ATOM      4  N   UNL d   1      28.482 -15.567   0.731  0.00  0.00    -0.341 N 
ATOM      5  H   UNL d   1      27.474 -14.400   2.703  0.00  0.00     0.164 HD
ATOM      6  H   UNL d   1      28.823 -15.877   1.622  0.00  0.00     0.164 HD
ENDROOT
BRANCH   4   7
ATOM      7  C   UNL d   1      28.976 -16.363  -0.390  0.00  0.00     0.158 C 
BRANCH   7   8
ATOM      8  C   UNL d   1      27.855 -17.069  -1.205  0.00  0.00     0.160 C 
BRANCH   8   9
ATOM      9  C   UNL d   1      26.666 -17.482  -0.327  0.00  0.00     0.209 C 
BRANCH   9  10
ATOM     10  O   UNL d   1      25.548 -16.665  -0.642  0.00  0.00    -0.349 OA
BRANCH  10  11
ATOM     11  C   UNL d   1      24.331 -17.282  -0.602  0.00  0.00     0.069 A 
ATOM     12  C   UNL d   1      24.368 -18.665  -0.411  0.00  0.00     0.039 A 
ATOM     13  C   UNL d   1      23.197 -19.422  -0.499  0.00  0.00     0.039 A 
ATOM     14  C   UNL d   1      21.975 -18.773  -0.702  0.00  0.00     0.103 A 
ATOM     15  C   UNL d   1      21.931 -17.387  -0.895  0.00  0.00     0.039 A 
ATOM     16  C   UNL d   1      23.115 -16.645  -0.851  0.00  0.00     0.039 A 
BRANCH  14  17
ATOM     17  N   UNL d   1      20.724 -19.540  -0.654  0.00  0.00    -0.116 N 
ATOM     18  O   UNL d   1      20.350 -19.965   0.448  0.00  0.00    -0.532 OA
ATOM     19  O   UNL d   1      20.101 -19.693  -1.715  0.00  0.00    -0.532 OA
ENDBRANCH  14  17
ENDBRANCH  10  11
ENDBRANCH   9  10
ENDBRANCH   8   9
BRANCH   8  20
ATOM     20  O   UNL d   1      27.350 -16.249  -2.260  0.00  0.00    -0.392 OA
ATOM     21  H   UNL d   1      26.667 -15.676  -1.867  0.00  0.00     0.210 HD
ENDBRANCH   8  20
ENDBRANCH   7   8
ENDBRANCH   4   7
BRANCH   1  22
ATOM     22  C   UNL d   1      26.630 -12.636   1.927  0.00  0.00     0.165 C 
BRANCH  22  23
ATOM     23  C   UNL d   1      27.172 -11.750   3.048  0.00  0.00    -0.007 A 
ATOM     24  C   UNL d   1      27.070 -10.344   2.878  0.00  0.00     0.011 A 
ATOM     25  C   UNL d   1      27.457  -9.439   3.878  0.00  0.00     0.001 A 
ATOM     26  C   UNL d   1      27.953  -9.917   5.083  0.00  0.00     0.003 A 
ATOM     27  C   UNL d   1      28.142 -11.288   5.242  0.00  0.00     0.037 A 
ATOM     28  C   UNL d   1      27.774 -12.198   4.232  0.00  0.00     0.076 A 
BRANCH  28  29
ATOM     29  O   UNL d   1      27.853 -13.506   4.608  0.00  0.00    -0.351 OA
BRANCH  29  30
ATOM     30  C   UNL d   1      29.066 -13.944   5.211  0.00  0.00     0.171 C 
ATOM     31  C   UNL d   1      29.891 -14.459   4.051  0.00  0.00     0.034 C 
ENDBRANCH  29  30
ENDBRANCH  28  29
ENDBRANCH  22  23
ENDBRANCH   1  22
TORSDOF 11
ENDMDL
MODEL 9
REMARK VINA RESULT:    -5.933      4.411      8.414
REMARK INTER + INTRA:         -12.412
REMARK INTER:                  -9.214
REMARK INTRA:                  -3.198
REMARK CONF_INDEPENDENT:        3.281
REMARK UNBOUND:                -3.198
REMARK  11 active torsions:
REMARK  status: ('A' for Active; 'I' for Inactive)
REMARK    1  A    between atoms: C_2  and  O_3 
REMARK    2  A    between atoms: O_3  and  C_4 
REMARK    3  A    between atoms: C_9  and  C_10 
REMARK    4  A    between atoms: C_10  and  N_11 
REMARK       I    between atoms: N_11  and  C_12 
REMARK       I    between atoms: C_12  and  N_14 
REMARK    5  A    between atoms: N_14  and  C_15 
REMARK    6  A    between atoms: C_16  and  C_15 
REMARK    7  A    between atoms: C_16  and  C_18 
REMARK    8  A    between atoms: C_16  and  O_17 
REMARK    9  A    between atoms: C_18  and  O_19 
REMARK   10  A    between atoms: O_19  and  C_20 
REMARK   11  A    between atoms: C_23  and  N_24 
ROOT
ATOM      1  N   UNL d   1      25.637 -14.365  -2.569  0.00  0.00    -0.339 N 
ATOM      2  C   UNL d   1      25.442 -13.837  -3.827  0.00  0.00     0.316 C 
ATOM      3  O   UNL d   1      24.814 -14.431  -4.708  0.00  0.00    -0.247 OA
ATOM      4  N   UNL d   1      25.931 -12.563  -4.002  0.00  0.00    -0.341 N 
ATOM      5  H   UNL d   1      26.221 -13.887  -1.897  0.00  0.00     0.164 HD
ATOM      6  H   UNL d   1      26.423 -12.086  -3.270  0.00  0.00     0.164 HD
ENDROOT
BRANCH   4   7
ATOM      7  C   UNL d   1      25.905 -11.826  -5.263  0.00  0.00     0.158 C 
BRANCH   7   8
ATOM      8  C   UNL d   1      26.607 -10.439  -5.198  0.00  0.00     0.160 C 
BRANCH   8   9
ATOM      9  C   UNL d   1      26.248  -9.661  -3.925  0.00  0.00     0.209 C 
BRANCH   9  10
ATOM     10  O   UNL d   1      27.111 -10.065  -2.872  0.00  0.00    -0.349 OA
BRANCH  10  11
ATOM     11  C   UNL d   1      26.821  -9.557  -1.638  0.00  0.00     0.069 A 
ATOM     12  C   UNL d   1      25.986  -8.438  -1.633  0.00  0.00     0.039 A 
ATOM     13  C   UNL d   1      25.740  -7.745  -0.445  0.00  0.00     0.039 A 
ATOM     14  C   UNL d   1      26.274  -8.229   0.753  0.00  0.00     0.103 A 
ATOM     15  C   UNL d   1      27.112  -9.351   0.755  0.00  0.00     0.039 A 
ATOM     16  C   UNL d   1      27.390 -10.009  -0.447  0.00  0.00     0.039 A 
BRANCH  14  17
ATOM     17  N   UNL d   1      25.907  -7.594   2.025  0.00  0.00    -0.116 N 
ATOM     18  O   UNL d   1      26.329  -8.110   3.070  0.00  0.00    -0.532 OA
ATOM     19  O   UNL d   1      25.220  -6.564   1.977  0.00  0.00    -0.532 OA
ENDBRANCH  14  17
ENDBRANCH  10  11
ENDBRANCH   9  10
ENDBRANCH   8   9
BRANCH   8  20
ATOM     20  O   UNL d   1      28.032 -10.547  -5.251  0.00  0.00    -0.392 OA
ATOM     21  H   UNL d   1      28.344 -10.589  -4.330  0.00  0.00     0.210 HD
ENDBRANCH   8  20
ENDBRANCH   7   8
ENDBRANCH   4   7
BRANCH   1  22
ATOM     22  C   UNL d   1      24.797 -15.431  -2.016  0.00  0.00     0.165 C 
BRANCH  22  23
ATOM     23  C   UNL d   1      25.443 -16.359  -0.988  0.00  0.00    -0.007 A 
ATOM     24  C   UNL d   1      24.816 -17.611  -0.752  0.00  0.00     0.011 A 
ATOM     25  C   UNL d   1      25.368 -18.575   0.106  0.00  0.00     0.001 A 
ATOM     26  C   UNL d   1      26.569 -18.313   0.751  0.00  0.00     0.003 A 
ATOM     27  C   UNL d   1      27.160 -17.060   0.602  0.00  0.00     0.037 A 
ATOM     28  C   UNL d   1      26.597 -16.084  -0.242  0.00  0.00     0.076 A 
BRANCH  28  29
ATOM     29  O   UNL d   1      27.384 -14.984  -0.420  0.00  0.00    -0.351 OA
BRANCH  29  30
ATOM     30  C   UNL d   1      28.032 -14.449   0.728  0.00  0.00     0.171 C 
ATOM     31  C   UNL d   1      27.089 -13.370   1.216  0.00  0.00     0.034 C 
ENDBRANCH  29  30
ENDBRANCH  28  29
ENDBRANCH  22  23
ENDBRANCH   1  22
TORSDOF 11
ENDMDL
