MODEL 1
REMARK VINA RESULT:    -8.359      0.000      0.000
REMARK INTER + INTRA:         -13.051
REMARK INTER:                 -10.745
REMARK INTRA:                  -2.306
REMARK CONF_INDEPENDENT:        2.386
REMARK UNBOUND:                -2.306
REMARK  8 active torsions:
REMARK  status: ('A' for Active; 'I' for Inactive)
REMARK    1  A    between atoms: N_2  and  C_3 
REMARK    2  A    between atoms: C_5  and  C_6 
REMARK    3  A    between atoms: C_6  and  C_7 
REMARK    4  A    between atoms: C_6  and  N_17 
REMARK    5  A    between atoms: C_7  and  C_8 
REMARK       I    between atoms: N_17  and  C_18 
REMARK    6  A    between atoms: C_18  and  C_20 
REMARK    7  A    between atoms: C_25  and  O_26 
REMARK    8  A    between atoms: C_29  and  C_30 
ROOT
ATOM      1  C   UNL d   1      27.256 -14.371  -1.678  0.00  0.00     0.141 C 
ENDROOT
BRANCH   1   2
ATOM      2  C   UNL d   1      27.127 -13.730  -3.087  0.00  0.00     0.062 C 
ATOM      3  C   UNL d   1      26.522 -12.507  -3.264  0.00  0.00     0.073 C 
ATOM      4  C   UNL d   1      26.405 -11.971  -4.521  0.00  0.00     0.106 C 
ATOM      5  N   UNL d   1      26.939 -12.583  -5.579  0.00  0.00    -0.221 NA
ATOM      6  C   UNL d   1      27.570 -13.769  -5.377  0.00  0.00     0.132 C 
ATOM      7  N   UNL d   1      27.606 -14.384  -4.170  0.00  0.00    -0.235 NA
BRANCH   4   8
ATOM      8  N   UNL d   1      25.655 -10.800  -4.688  0.00  0.00    -0.281 NA
ATOM      9  C   UNL d   1      25.553 -10.262  -6.038  0.00  0.00     0.114 C 
ATOM     10  H   UNL d   1      24.776 -10.867  -4.182  0.00  0.00     0.128 HD
ENDBRANCH   4   8
BRANCH   6  11
ATOM     11  C   UNL d   1      28.272 -14.370  -6.586  0.00  0.00     0.057 A 
ATOM     12  C   UNL d   1      29.608 -13.954  -7.140  0.00  0.00     0.013 A 
ATOM     13  C   UNL d   1      29.500 -15.239  -6.394  0.00  0.00     0.013 A 
ENDBRANCH   6  11
ENDBRANCH   1   2
BRANCH   1  14
ATOM     14  C   UNL d   1      26.794 -13.449  -0.562  0.00  0.00     0.072 C 
BRANCH  14  15
ATOM     15  C   UNL d   1      27.286 -13.786   0.781  0.00  0.00    -0.028 A 
ATOM     16  C   UNL d   1      27.780 -14.992   1.221  0.00  0.00     0.096 A 
ATOM     17  N   UNL d   1      28.151 -14.825   2.527  0.00  0.00    -0.365 N 
ATOM     18  C   UNL d   1      27.867 -13.539   2.943  0.00  0.00     0.042 A 
ATOM     19  H   UNL d   1      28.623 -15.523   3.083  0.00  0.00     0.165 HD
ATOM     20  C   UNL d   1      28.091 -12.897   4.167  0.00  0.00     0.030 A 
ATOM     21  C   UNL d   1      27.377 -12.852   1.841  0.00  0.00    -0.002 A 
ATOM     22  C   UNL d   1      27.782 -11.531   4.248  0.00  0.00     0.002 A 
ATOM     23  C   UNL d   1      27.298 -10.826   3.150  0.00  0.00     0.001 A 
ATOM     24  C   UNL d   1      27.110 -11.471   1.933  0.00  0.00     0.014 A 
ENDBRANCH  14  15
ENDBRANCH   1  14
BRANCH   1  25
ATOM     25  N   UNL d   1      26.445 -15.599  -1.491  0.00  0.00    -0.346 N 
ATOM     26  C   UNL d   1      25.134 -15.705  -1.879  0.00  0.00     0.255 C 
ATOM     27  O   UNL d   1      24.584 -14.913  -2.657  0.00  0.00    -0.268 OA
ATOM     28  H   UNL d   1      26.898 -16.437  -1.152  0.00  0.00     0.163 HD
BRANCH  26  29
ATOM     29  C   UNL d   1      24.349 -16.827  -1.309  0.00  0.00     0.065 A 
ATOM     30  C   UNL d   1      22.962 -16.596  -1.215  0.00  0.00     0.020 A 
ATOM     31  C   UNL d   1      22.135 -17.481  -0.519  0.00  0.00     0.001 A 
ATOM     32  C   UNL d   1      22.666 -18.650   0.010  0.00  0.00     0.003 A 
ATOM     33  C   UNL d   1      24.032 -18.901  -0.101  0.00  0.00     0.038 A 
ATOM     34  C   UNL d   1      24.900 -17.983  -0.712  0.00  0.00     0.084 A 
BRANCH  34  35
ATOM     35  O   UNL d   1      26.204 -18.373  -0.517  0.00  0.00    -0.355 OA
ATOM     36  C   UNL d   1      26.698 -18.367   0.797  0.00  0.00     0.210 C 
ENDBRANCH  34  35
ENDBRANCH  26  29
ENDBRANCH   1  25
TORSDOF 8
ENDMDL
MODEL 2
REMARK VINA RESULT:    -8.322      2.490      6.950
REMARK INTER + INTRA:         -13.191
REMARK INTER:                 -10.708
REMARK INTRA:                  -2.483
REMARK CONF_INDEPENDENT:        2.386
REMARK UNBOUND:                -2.483
REMARK  8 active torsions:
REMARK  status: ('A' for Active; 'I' for Inactive)
REMARK    1  A    between atoms: N_2  and  C_3 
REMARK    2  A    between atoms: C_5  and  C_6 
REMARK    3  A    between atoms: C_6  and  C_7 
REMARK    4  A    between atoms: C_6  and  N_17 
REMARK    5  A    between atoms: C_7  and  C_8 
REMARK       I    between atoms: N_17  and  C_18 
REMARK    6  A    between atoms: C_18  and  C_20 
REMARK    7  A    between atoms: C_25  and  O_26 
REMARK    8  A    between atoms: C_29  and  C_30 
ROOT
ATOM      1  C   UNL d   1      27.935 -16.356   0.388  0.00  0.00     0.141 C 
ENDROOT
BRANCH   1   2
ATOM      2  C   UNL d   1      26.656 -16.534  -0.475  0.00  0.00     0.062 C 
ATOM      3  C   UNL d   1      26.499 -15.866  -1.667  0.00  0.00     0.073 C 
ATOM      4  C   UNL d   1      25.352 -16.027  -2.402  0.00  0.00     0.106 C 
ATOM      5  N   UNL d   1      24.407 -16.886  -2.017  0.00  0.00    -0.221 NA
ATOM      6  C   UNL d   1      24.601 -17.568  -0.858  0.00  0.00     0.132 C 
ATOM      7  N   UNL d   1      25.666 -17.351  -0.049  0.00  0.00    -0.235 NA
BRANCH   4   8
ATOM      8  N   UNL d   1      25.157 -15.223  -3.532  0.00  0.00    -0.281 NA
ATOM      9  C   UNL d   1      25.136 -13.781  -3.326  0.00  0.00     0.114 C 
ATOM     10  H   UNL d   1      25.743 -15.541  -4.298  0.00  0.00     0.128 HD
ENDBRANCH   4   8
BRANCH   6  11
ATOM     11  C   UNL d   1      23.560 -18.627  -0.521  0.00  0.00     0.057 A 
ATOM     12  C   UNL d   1      22.273 -18.406   0.227  0.00  0.00     0.013 A 
ATOM     13  C   UNL d   1      22.227 -18.635  -1.245  0.00  0.00     0.013 A 
ENDBRANCH   6  11
ENDBRANCH   1   2
BRANCH   1  14
ATOM     14  C   UNL d   1      29.085 -15.724  -0.378  0.00  0.00     0.072 C 
BRANCH  14  15
ATOM     15  C   UNL d   1      29.706 -16.575  -1.402  0.00  0.00    -0.028 A 
ATOM     16  C   UNL d   1      30.425 -17.733  -1.214  0.00  0.00     0.096 A 
ATOM     17  N   UNL d   1      30.773 -18.199  -2.452  0.00  0.00    -0.365 N 
ATOM     18  C   UNL d   1      30.319 -17.336  -3.431  0.00  0.00     0.042 A 
ATOM     19  H   UNL d   1      31.236 -19.078  -2.625  0.00  0.00     0.165 HD
ATOM     20  C   UNL d   1      30.403 -17.402  -4.827  0.00  0.00     0.030 A 
ATOM     21  C   UNL d   1      29.594 -16.339  -2.793  0.00  0.00    -0.002 A 
ATOM     22  C   UNL d   1      29.741 -16.408  -5.564  0.00  0.00     0.002 A 
ATOM     23  C   UNL d   1      29.003 -15.407  -4.939  0.00  0.00     0.001 A 
ATOM     24  C   UNL d   1      28.905 -15.372  -3.553  0.00  0.00     0.014 A 
ENDBRANCH  14  15
ENDBRANCH   1  14
BRANCH   1  25
ATOM     25  N   UNL d   1      27.757 -15.471   1.567  0.00  0.00    -0.346 N 
ATOM     26  C   UNL d   1      27.153 -14.242   1.503  0.00  0.00     0.255 C 
ATOM     27  O   UNL d   1      26.462 -13.866   0.546  0.00  0.00    -0.268 OA
ATOM     28  H   UNL d   1      27.999 -15.823   2.483  0.00  0.00     0.163 HD
BRANCH  26  29
ATOM     29  C   UNL d   1      27.371 -13.323   2.647  0.00  0.00     0.065 A 
ATOM     30  C   UNL d   1      27.383 -11.953   2.317  0.00  0.00     0.020 A 
ATOM     31  C   UNL d   1      27.772 -10.994   3.255  0.00  0.00     0.001 A 
ATOM     32  C   UNL d   1      28.065 -11.381   4.557  0.00  0.00     0.003 A 
ATOM     33  C   UNL d   1      28.030 -12.731   4.900  0.00  0.00     0.038 A 
ATOM     34  C   UNL d   1      27.733 -13.723   3.953  0.00  0.00     0.084 A 
BRANCH  34  35
ATOM     35  O   UNL d   1      27.957 -14.967   4.494  0.00  0.00    -0.355 OA
ATOM     36  C   UNL d   1      29.200 -15.200   5.106  0.00  0.00     0.210 C 
ENDBRANCH  34  35
ENDBRANCH  26  29
ENDBRANCH   1  25
TORSDOF 8
ENDMDL
MODEL 3
REMARK VINA RESULT:    -8.132      2.530      6.393
REMARK INTER + INTRA:         -12.748
REMARK INTER:                 -10.518
REMARK INTRA:                  -2.230
REMARK CONF_INDEPENDENT:        2.386
REMARK UNBOUND:                -2.230
REMARK  8 active torsions:
REMARK  status: ('A' for Active; 'I' for Inactive)
REMARK    1  A    between atoms: N_2  and  C_3 
REMARK    2  A    between atoms: C_5  and  C_6 
REMARK    3  A    between atoms: C_6  and  C_7 
REMARK    4  A    between atoms: C_6  and  N_17 
REMARK    5  A    between atoms: C_7  and  C_8 
REMARK       I    between atoms: N_17  and  C_18 
REMARK    6  A    between atoms: C_18  and  C_20 
REMARK    7  A    between atoms: C_25  and  O_26 
REMARK    8  A    between atoms: C_29  and  C_30 
ROOT
ATOM      1  C   UNL d   1      26.848 -13.880  -0.611  0.00  0.00     0.141 C 
ENDROOT
BRANCH   1   2
ATOM      2  C   UNL d   1      27.162 -13.345   0.813  0.00  0.00     0.062 C 
ATOM      3  C   UNL d   1      27.806 -14.125   1.744  0.00  0.00     0.073 C 
ATOM      4  C   UNL d   1      28.055 -13.634   3.001  0.00  0.00     0.106 C 
ATOM      5  N   UNL d   1      27.749 -12.376   3.318  0.00  0.00    -0.221 NA
ATOM      6  C   UNL d   1      27.153 -11.608   2.369  0.00  0.00     0.132 C 
ATOM      7  N   UNL d   1      26.788 -12.091   1.157  0.00  0.00    -0.235 NA
BRANCH   4   8
ATOM      8  N   UNL d   1      28.577 -14.500   3.972  0.00  0.00    -0.281 NA
ATOM      9  C   UNL d   1      27.780 -14.707   5.174  0.00  0.00     0.114 C 
ATOM     10  H   UNL d   1      28.931 -15.346   3.537  0.00  0.00     0.128 HD
ENDBRANCH   4   8
BRANCH   6  11
ATOM     11  C   UNL d   1      26.935 -10.145   2.730  0.00  0.00     0.057 A 
ATOM     12  C   UNL d   1      26.525  -9.045   1.787  0.00  0.00     0.013 A 
ATOM     13  C   UNL d   1      25.530  -9.574   2.762  0.00  0.00     0.013 A 
ENDBRANCH   6  11
ENDBRANCH   1   2
BRANCH   1  14
ATOM     14  C   UNL d   1      28.091 -14.049  -1.469  0.00  0.00     0.072 C 
BRANCH  14  15
ATOM     15  C   UNL d   1      28.820 -15.311  -1.285  0.00  0.00    -0.028 A 
ATOM     16  C   UNL d   1      29.061 -15.983  -0.108  0.00  0.00     0.096 A 
ATOM     17  N   UNL d   1      29.741 -17.126  -0.427  0.00  0.00    -0.365 N 
ATOM     18  C   UNL d   1      29.974 -17.179  -1.788  0.00  0.00     0.042 A 
ATOM     19  H   UNL d   1      29.980 -17.854   0.230  0.00  0.00     0.165 HD
ATOM     20  C   UNL d   1      30.595 -18.154  -2.577  0.00  0.00     0.030 A 
ATOM     21  C   UNL d   1      29.349 -16.076  -2.352  0.00  0.00    -0.002 A 
ATOM     22  C   UNL d   1      30.583 -17.965  -3.968  0.00  0.00     0.002 A 
ATOM     23  C   UNL d   1      29.954 -16.869  -4.550  0.00  0.00     0.001 A 
ATOM     24  C   UNL d   1      29.316 -15.925  -3.753  0.00  0.00     0.014 A 
ENDBRANCH  14  15
ENDBRANCH   1  14
BRANCH   1  25
ATOM     25  N   UNL d   1      26.210 -15.220  -0.632  0.00  0.00    -0.346 N 
ATOM     26  C   UNL d   1      25.112 -15.522  -1.396  0.00  0.00     0.255 C 
ATOM     27  O   UNL d   1      24.715 -14.816  -2.334  0.00  0.00    -0.268 OA
ATOM     28  H   UNL d   1      26.657 -15.981  -0.140  0.00  0.00     0.163 HD
BRANCH  26  29
ATOM     29  C   UNL d   1      24.366 -16.756  -1.048  0.00  0.00     0.065 A 
ATOM     30  C   UNL d   1      22.963 -16.618  -1.028  0.00  0.00     0.020 A 
ATOM     31  C   UNL d   1      22.151 -17.637  -0.527  0.00  0.00     0.001 A 
ATOM     32  C   UNL d   1      22.721 -18.839  -0.126  0.00  0.00     0.003 A 
ATOM     33  C   UNL d   1      24.105 -18.995  -0.167  0.00  0.00     0.038 A 
ATOM     34  C   UNL d   1      24.950 -17.953  -0.578  0.00  0.00     0.084 A 
BRANCH  34  35
ATOM     35  O   UNL d   1      26.260 -18.294  -0.340  0.00  0.00    -0.355 OA
ATOM     36  C   UNL d   1      26.731 -18.202   0.980  0.00  0.00     0.210 C 
ENDBRANCH  34  35
ENDBRANCH  26  29
ENDBRANCH   1  25
TORSDOF 8
ENDMDL
MODEL 4
REMARK VINA RESULT:    -7.866      1.824      6.528
REMARK INTER + INTRA:         -12.686
REMARK INTER:                 -10.253
REMARK INTRA:                  -2.433
REMARK CONF_INDEPENDENT:        2.386
REMARK UNBOUND:                -2.433
REMARK  8 active torsions:
REMARK  status: ('A' for Active; 'I' for Inactive)
REMARK    1  A    between atoms: N_2  and  C_3 
REMARK    2  A    between atoms: C_5  and  C_6 
REMARK    3  A    between atoms: C_6  and  C_7 
REMARK    4  A    between atoms: C_6  and  N_17 
REMARK    5  A    between atoms: C_7  and  C_8 
REMARK       I    between atoms: N_17  and  C_18 
REMARK    6  A    between atoms: C_18  and  C_20 
REMARK    7  A    between atoms: C_25  and  O_26 
REMARK    8  A    between atoms: C_29  and  C_30 
ROOT
ATOM      1  C   UNL d   1      27.429 -14.352  -0.379  0.00  0.00     0.141 C 
ENDROOT
BRANCH   1   2
ATOM      2  C   UNL d   1      27.531 -13.792   1.066  0.00  0.00     0.062 C 
ATOM      3  C   UNL d   1      28.198 -14.479   2.053  0.00  0.00     0.073 C 
ATOM      4  C   UNL d   1      28.258 -13.971   3.327  0.00  0.00     0.106 C 
ATOM      5  N   UNL d   1      27.742 -12.776   3.612  0.00  0.00    -0.221 NA
ATOM      6  C   UNL d   1      27.125 -12.094   2.612  0.00  0.00     0.132 C 
ATOM      7  N   UNL d   1      26.946 -12.612   1.373  0.00  0.00    -0.235 NA
BRANCH   4   8
ATOM      8  N   UNL d   1      28.813 -14.761   4.342  0.00  0.00    -0.281 NA
ATOM      9  C   UNL d   1      28.278 -14.589   5.686  0.00  0.00     0.114 C 
ATOM     10  H   UNL d   1      28.902 -15.724   4.032  0.00  0.00     0.128 HD
ENDBRANCH   4   8
BRANCH   6  11
ATOM     11  C   UNL d   1      26.661 -10.683   2.949  0.00  0.00     0.057 A 
ATOM     12  C   UNL d   1      27.491  -9.430   2.874  0.00  0.00     0.013 A 
ATOM     13  C   UNL d   1      26.447  -9.672   1.838  0.00  0.00     0.013 A 
ENDBRANCH   6  11
ENDBRANCH   1   2
BRANCH   1  14
ATOM     14  C   UNL d   1      28.771 -14.783  -0.945  0.00  0.00     0.072 C 
BRANCH  14  15
ATOM     15  C   UNL d   1      28.760 -15.202  -2.353  0.00  0.00    -0.028 A 
ATOM     16  C   UNL d   1      29.309 -16.338  -2.900  0.00  0.00     0.096 A 
ATOM     17  N   UNL d   1      29.019 -16.325  -4.237  0.00  0.00    -0.365 N 
ATOM     18  C   UNL d   1      28.323 -15.177  -4.563  0.00  0.00     0.042 A 
ATOM     19  H   UNL d   1      29.227 -17.077  -4.877  0.00  0.00     0.165 HD
ATOM     20  C   UNL d   1      27.789 -14.739  -5.780  0.00  0.00     0.030 A 
ATOM     21  C   UNL d   1      28.098 -14.486  -3.380  0.00  0.00    -0.002 A 
ATOM     22  C   UNL d   1      27.031 -13.558  -5.768  0.00  0.00     0.002 A 
ATOM     23  C   UNL d   1      26.789 -12.859  -4.589  0.00  0.00     0.001 A 
ATOM     24  C   UNL d   1      27.301 -13.323  -3.384  0.00  0.00     0.014 A 
ENDBRANCH  14  15
ENDBRANCH   1  14
BRANCH   1  25
ATOM     25  N   UNL d   1      26.579 -15.562  -0.506  0.00  0.00    -0.346 N 
ATOM     26  C   UNL d   1      25.400 -15.586  -1.206  0.00  0.00     0.255 C 
ATOM     27  O   UNL d   1      25.066 -14.711  -2.017  0.00  0.00    -0.268 OA
ATOM     28  H   UNL d   1      26.924 -16.441  -0.147  0.00  0.00     0.163 HD
BRANCH  26  29
ATOM     29  C   UNL d   1      24.484 -16.723  -0.947  0.00  0.00     0.065 A 
ATOM     30  C   UNL d   1      23.112 -16.395  -0.944  0.00  0.00     0.020 A 
ATOM     31  C   UNL d   1      22.156 -17.320  -0.520  0.00  0.00     0.001 A 
ATOM     32  C   UNL d   1      22.547 -18.610  -0.182  0.00  0.00     0.003 A 
ATOM     33  C   UNL d   1      23.896 -18.952  -0.206  0.00  0.00     0.038 A 
ATOM     34  C   UNL d   1      24.887 -18.014  -0.538  0.00  0.00     0.084 A 
BRANCH  34  35
ATOM     35  O   UNL d   1      26.131 -18.545  -0.297  0.00  0.00    -0.355 OA
ATOM     36  C   UNL d   1      26.655 -18.422   1.001  0.00  0.00     0.210 C 
ENDBRANCH  34  35
ENDBRANCH  26  29
ENDBRANCH   1  25
TORSDOF 8
ENDMDL
MODEL 5
REMARK VINA RESULT:    -7.761      2.491      6.793
REMARK INTER + INTRA:         -12.972
REMARK INTER:                 -10.147
REMARK INTRA:                  -2.825
REMARK CONF_INDEPENDENT:        2.386
REMARK UNBOUND:                -2.825
REMARK  8 active torsions:
REMARK  status: ('A' for Active; 'I' for Inactive)
REMARK    1  A    between atoms: N_2  and  C_3 
REMARK    2  A    between atoms: C_5  and  C_6 
REMARK    3  A    between atoms: C_6  and  C_7 
REMARK    4  A    between atoms: C_6  and  N_17 
REMARK    5  A    between atoms: C_7  and  C_8 
REMARK       I    between atoms: N_17  and  C_18 
REMARK    6  A    between atoms: C_18  and  C_20 
REMARK    7  A    between atoms: C_25  and  O_26 
REMARK    8  A    between atoms: C_29  and  C_30 
ROOT
ATOM      1  C   UNL d   1      27.931 -16.165   0.586  0.00  0.00     0.141 C 
ENDROOT
BRANCH   1   2
ATOM      2  C   UNL d   1      26.632 -16.326  -0.250  0.00  0.00     0.062 C 
ATOM      3  C   UNL d   1      25.741 -17.342   0.002  0.00  0.00     0.073 C 
ATOM      4  C   UNL d   1      24.610 -17.474  -0.763  0.00  0.00     0.106 C 
ATOM      5  N   UNL d   1      24.315 -16.580  -1.708  0.00  0.00    -0.221 NA
ATOM      6  C   UNL d   1      25.186 -15.558  -1.912  0.00  0.00     0.132 C 
ATOM      7  N   UNL d   1      26.368 -15.460  -1.255  0.00  0.00    -0.235 NA
BRANCH   4   8
ATOM      8  N   UNL d   1      23.800 -18.602  -0.581  0.00  0.00    -0.281 NA
ATOM      9  C   UNL d   1      22.359 -18.388  -0.549  0.00  0.00     0.114 C 
ATOM     10  H   UNL d   1      24.110 -19.361  -1.180  0.00  0.00     0.128 HD
ENDBRANCH   4   8
BRANCH   6  11
ATOM     11  C   UNL d   1      24.751 -14.495  -2.910  0.00  0.00     0.057 A 
ATOM     12  C   UNL d   1      25.556 -13.300  -3.348  0.00  0.00     0.013 A 
ATOM     13  C   UNL d   1      25.385 -14.445  -4.287  0.00  0.00     0.013 A 
ENDBRANCH   6  11
ENDBRANCH   1   2
BRANCH   1  14
ATOM     14  C   UNL d   1      29.061 -15.512  -0.192  0.00  0.00     0.072 C 
BRANCH  14  15
ATOM     15  C   UNL d   1      29.606 -16.305  -1.301  0.00  0.00    -0.028 A 
ATOM     16  C   UNL d   1      30.352 -17.459  -1.227  0.00  0.00     0.096 A 
ATOM     17  N   UNL d   1      30.603 -17.863  -2.509  0.00  0.00    -0.365 N 
ATOM     18  C   UNL d   1      30.060 -16.964  -3.407  0.00  0.00     0.042 A 
ATOM     19  H   UNL d   1      31.062 -18.726  -2.760  0.00  0.00     0.165 HD
ATOM     20  C   UNL d   1      30.030 -16.966  -4.807  0.00  0.00     0.030 A 
ATOM     21  C   UNL d   1      29.377 -16.009  -2.667  0.00  0.00    -0.002 A 
ATOM     22  C   UNL d   1      29.298 -15.950  -5.440  0.00  0.00     0.002 A 
ATOM     23  C   UNL d   1      28.601 -14.990  -4.712  0.00  0.00     0.001 A 
ATOM     24  C   UNL d   1      28.617 -15.020  -3.323  0.00  0.00     0.014 A 
ENDBRANCH  14  15
ENDBRANCH   1  14
BRANCH   1  25
ATOM     25  N   UNL d   1      27.780 -15.309   1.790  0.00  0.00    -0.346 N 
ATOM     26  C   UNL d   1      27.180 -14.076   1.768  0.00  0.00     0.255 C 
ATOM     27  O   UNL d   1      26.473 -13.674   0.834  0.00  0.00    -0.268 OA
ATOM     28  H   UNL d   1      28.037 -15.685   2.691  0.00  0.00     0.163 HD
BRANCH  26  29
ATOM     29  C   UNL d   1      27.424 -13.187   2.930  0.00  0.00     0.065 A 
ATOM     30  C   UNL d   1      27.409 -11.808   2.639  0.00  0.00     0.020 A 
ATOM     31  C   UNL d   1      27.818 -10.871   3.590  0.00  0.00     0.001 A 
ATOM     32  C   UNL d   1      28.156 -11.291   4.871  0.00  0.00     0.003 A 
ATOM     33  C   UNL d   1      28.148 -12.650   5.177  0.00  0.00     0.038 A 
ATOM     34  C   UNL d   1      27.833 -13.619   4.212  0.00  0.00     0.084 A 
BRANCH  34  35
ATOM     35  O   UNL d   1      28.088 -14.874   4.710  0.00  0.00    -0.355 OA
ATOM     36  C   UNL d   1      29.403 -15.165   5.107  0.00  0.00     0.210 C 
ENDBRANCH  34  35
ENDBRANCH  26  29
ENDBRANCH   1  25
TORSDOF 8
ENDMDL
MODEL 6
REMARK VINA RESULT:    -7.616      2.517      7.260
REMARK INTER + INTRA:         -12.950
REMARK INTER:                 -10.002
REMARK INTRA:                  -2.948
REMARK CONF_INDEPENDENT:        2.386
REMARK UNBOUND:                -2.948
REMARK  8 active torsions:
REMARK  status: ('A' for Active; 'I' for Inactive)
REMARK    1  A    between atoms: N_2  and  C_3 
REMARK    2  A    between atoms: C_5  and  C_6 
REMARK    3  A    between atoms: C_6  and  C_7 
REMARK    4  A    between atoms: C_6  and  N_17 
REMARK    5  A    between atoms: C_7  and  C_8 
REMARK       I    between atoms: N_17  and  C_18 
REMARK    6  A    between atoms: C_18  and  C_20 
REMARK    7  A    between atoms: C_25  and  O_26 
REMARK    8  A    between atoms: C_29  and  C_30 
ROOT
ATOM      1  C   UNL d   1      25.586 -15.581  -3.442  0.00  0.00     0.141 C 
ENDROOT
BRANCH   1   2
ATOM      2  C   UNL d   1      25.495 -16.422  -2.139  0.00  0.00     0.062 C 
ATOM      3  C   UNL d   1      26.390 -16.245  -1.110  0.00  0.00     0.073 C 
ATOM      4  C   UNL d   1      26.299 -17.014   0.023  0.00  0.00     0.106 C 
ATOM      5  N   UNL d   1      25.303 -17.886   0.180  0.00  0.00    -0.221 NA
ATOM      6  C   UNL d   1      24.404 -18.015  -0.830  0.00  0.00     0.132 C 
ATOM      7  N   UNL d   1      24.526 -17.357  -2.009  0.00  0.00    -0.235 NA
BRANCH   4   8
ATOM      8  N   UNL d   1      27.310 -16.916   0.988  0.00  0.00    -0.281 NA
ATOM      9  C   UNL d   1      27.780 -15.578   1.323  0.00  0.00     0.114 C 
ATOM     10  H   UNL d   1      27.099 -17.512   1.782  0.00  0.00     0.128 HD
ENDBRANCH   4   8
BRANCH   6  11
ATOM     11  C   UNL d   1      23.215 -18.927  -0.559  0.00  0.00     0.057 A 
ATOM     12  C   UNL d   1      21.983 -18.575   0.230  0.00  0.00     0.013 A 
ATOM     13  C   UNL d   1      21.891 -18.671  -1.254  0.00  0.00     0.013 A 
ENDBRANCH   6  11
ENDBRANCH   1   2
BRANCH   1  14
ATOM     14  C   UNL d   1      24.851 -14.255  -3.345  0.00  0.00     0.072 C 
BRANCH  14  15
ATOM     15  C   UNL d   1      25.690 -13.087  -3.043  0.00  0.00    -0.028 A 
ATOM     16  C   UNL d   1      26.280 -12.759  -1.844  0.00  0.00     0.096 A 
ATOM     17  N   UNL d   1      26.995 -11.610  -2.046  0.00  0.00    -0.365 N 
ATOM     18  C   UNL d   1      26.842 -11.176  -3.349  0.00  0.00     0.042 A 
ATOM     19  H   UNL d   1      27.597 -11.181  -1.360  0.00  0.00     0.165 HD
ATOM     20  C   UNL d   1      27.396 -10.082  -4.025  0.00  0.00     0.030 A 
ATOM     21  C   UNL d   1      26.073 -12.125  -4.008  0.00  0.00    -0.002 A 
ATOM     22  C   UNL d   1      27.127  -9.966  -5.397  0.00  0.00     0.002 A 
ATOM     23  C   UNL d   1      26.365 -10.913  -6.075  0.00  0.00     0.001 A 
ATOM     24  C   UNL d   1      25.848 -12.009  -5.395  0.00  0.00     0.014 A 
ENDBRANCH  14  15
ENDBRANCH   1  14
BRANCH   1  25
ATOM     25  N   UNL d   1      26.968 -15.201  -3.827  0.00  0.00    -0.346 N 
ATOM     26  C   UNL d   1      27.417 -15.195  -5.123  0.00  0.00     0.255 C 
ATOM     27  O   UNL d   1      26.666 -15.231  -6.108  0.00  0.00    -0.268 OA
ATOM     28  H   UNL d   1      27.588 -14.832  -3.119  0.00  0.00     0.163 HD
BRANCH  26  29
ATOM     29  C   UNL d   1      28.885 -15.160  -5.329  0.00  0.00     0.065 A 
ATOM     30  C   UNL d   1      29.300 -15.244  -6.674  0.00  0.00     0.020 A 
ATOM     31  C   UNL d   1      30.646 -15.423  -6.997  0.00  0.00     0.001 A 
ATOM     32  C   UNL d   1      31.603 -15.426  -5.990  0.00  0.00     0.003 A 
ATOM     33  C   UNL d   1      31.206 -15.316  -4.659  0.00  0.00     0.038 A 
ATOM     34  C   UNL d   1      29.852 -15.231  -4.301  0.00  0.00     0.084 A 
BRANCH  34  35
ATOM     35  O   UNL d   1      29.723 -15.331  -2.936  0.00  0.00    -0.355 OA
ATOM     36  C   UNL d   1      29.579 -16.614  -2.385  0.00  0.00     0.210 C 
ENDBRANCH  34  35
ENDBRANCH  26  29
ENDBRANCH   1  25
TORSDOF 8
ENDMDL
MODEL 7
REMARK VINA RESULT:    -7.403      2.326      6.794
REMARK INTER + INTRA:         -13.109
REMARK INTER:                  -9.789
REMARK INTRA:                  -3.320
REMARK CONF_INDEPENDENT:        2.386
REMARK UNBOUND:                -3.320
REMARK  8 active torsions:
REMARK  status: ('A' for Active; 'I' for Inactive)
REMARK    1  A    between atoms: N_2  and  C_3 
REMARK    2  A    between atoms: C_5  and  C_6 
REMARK    3  A    between atoms: C_6  and  C_7 
REMARK    4  A    between atoms: C_6  and  N_17 
REMARK    5  A    between atoms: C_7  and  C_8 
REMARK       I    between atoms: N_17  and  C_18 
REMARK    6  A    between atoms: C_18  and  C_20 
REMARK    7  A    between atoms: C_25  and  O_26 
REMARK    8  A    between atoms: C_29  and  C_30 
ROOT
ATOM      1  C   UNL d   1      25.527 -15.416  -3.462  0.00  0.00     0.141 C 
ENDROOT
BRANCH   1   2
ATOM      2  C   UNL d   1      25.386 -16.330  -2.214  0.00  0.00     0.062 C 
ATOM      3  C   UNL d   1      26.485 -16.718  -1.485  0.00  0.00     0.073 C 
ATOM      4  C   UNL d   1      26.335 -17.541  -0.396  0.00  0.00     0.106 C 
ATOM      5  N   UNL d   1      25.124 -17.914   0.017  0.00  0.00    -0.221 NA
ATOM      6  C   UNL d   1      24.048 -17.484  -0.691  0.00  0.00     0.132 C 
ATOM      7  N   UNL d   1      24.163 -16.766  -1.835  0.00  0.00    -0.235 NA
BRANCH   4   8
ATOM      8  N   UNL d   1      27.481 -18.039   0.235  0.00  0.00    -0.281 NA
ATOM      9  C   UNL d   1      28.759 -17.450  -0.146  0.00  0.00     0.114 C 
ATOM     10  H   UNL d   1      27.326 -18.123   1.235  0.00  0.00     0.128 HD
ENDBRANCH   4   8
BRANCH   6  11
ATOM     11  C   UNL d   1      22.682 -17.828  -0.114  0.00  0.00     0.057 A 
ATOM     12  C   UNL d   1      21.452 -18.203  -0.895  0.00  0.00     0.013 A 
ATOM     13  C   UNL d   1      22.186 -19.261  -0.146  0.00  0.00     0.013 A 
ENDBRANCH   6  11
ENDBRANCH   1   2
BRANCH   1  14
ATOM     14  C   UNL d   1      24.830 -14.076  -3.299  0.00  0.00     0.072 C 
BRANCH  14  15
ATOM     15  C   UNL d   1      25.711 -12.934  -3.018  0.00  0.00    -0.028 A 
ATOM     16  C   UNL d   1      25.878 -11.792  -3.767  0.00  0.00     0.096 A 
ATOM     17  N   UNL d   1      26.767 -10.996  -3.099  0.00  0.00    -0.365 N 
ATOM     18  C   UNL d   1      27.203 -11.627  -1.950  0.00  0.00     0.042 A 
ATOM     19  H   UNL d   1      27.017 -10.058  -3.375  0.00  0.00     0.165 HD
ATOM     20  C   UNL d   1      28.078 -11.203  -0.943  0.00  0.00     0.030 A 
ATOM     21  C   UNL d   1      26.505 -12.823  -1.851  0.00  0.00    -0.002 A 
ATOM     22  C   UNL d   1      28.241 -12.044   0.169  0.00  0.00     0.002 A 
ATOM     23  C   UNL d   1      27.542 -13.241   0.288  0.00  0.00     0.001 A 
ATOM     24  C   UNL d   1      26.655 -13.634  -0.707  0.00  0.00     0.014 A 
ENDBRANCH  14  15
ENDBRANCH   1  14
BRANCH   1  25
ATOM     25  N   UNL d   1      26.927 -15.056  -3.799  0.00  0.00    -0.346 N 
ATOM     26  C   UNL d   1      27.457 -15.185  -5.057  0.00  0.00     0.255 C 
ATOM     27  O   UNL d   1      26.772 -15.342  -6.077  0.00  0.00    -0.268 OA
ATOM     28  H   UNL d   1      27.496 -14.601  -3.099  0.00  0.00     0.163 HD
BRANCH  26  29
ATOM     29  C   UNL d   1      28.935 -15.147  -5.174  0.00  0.00     0.065 A 
ATOM     30  C   UNL d   1      29.446 -15.575  -6.416  0.00  0.00     0.020 A 
ATOM     31  C   UNL d   1      30.816 -15.779  -6.595  0.00  0.00     0.001 A 
ATOM     32  C   UNL d   1      31.699 -15.472  -5.567  0.00  0.00     0.003 A 
ATOM     33  C   UNL d   1      31.206 -15.023  -4.344  0.00  0.00     0.038 A 
ATOM     34  C   UNL d   1      29.828 -14.899  -4.108  0.00  0.00     0.084 A 
BRANCH  34  35
ATOM     35  O   UNL d   1      29.606 -14.632  -2.778  0.00  0.00    -0.355 OA
ATOM     36  C   UNL d   1      30.504 -15.171  -1.843  0.00  0.00     0.210 C 
ENDBRANCH  34  35
ENDBRANCH  26  29
ENDBRANCH   1  25
TORSDOF 8
ENDMDL
MODEL 8
REMARK VINA RESULT:    -6.944      2.554      5.868
REMARK INTER + INTRA:         -12.777
REMARK INTER:                  -9.331
REMARK INTRA:                  -3.446
REMARK CONF_INDEPENDENT:        2.386
REMARK UNBOUND:                -3.446
REMARK  8 active torsions:
REMARK  status: ('A' for Active; 'I' for Inactive)
REMARK    1  A    between atoms: N_2  and  C_3 
REMARK    2  A    between atoms: C_5  and  C_6 
REMARK    3  A    between atoms: C_6  and  C_7 
REMARK    4  A    between atoms: C_6  and  N_17 
REMARK    5  A    between atoms: C_7  and  C_8 
REMARK       I    between atoms: N_17  and  C_18 
REMARK    6  A    between atoms: C_18  and  C_20 
REMARK    7  A    between atoms: C_25  and  O_26 
REMARK    8  A    between atoms: C_29  and  C_30 
ROOT
ATOM      1  C   UNL d   1      27.987 -16.503   0.235  0.00  0.00     0.141 C 
ENDROOT
BRANCH   1   2
ATOM      2  C   UNL d   1      26.752 -16.599  -0.702  0.00  0.00     0.062 C 
ATOM      3  C   UNL d   1      26.713 -15.931  -1.903  0.00  0.00     0.073 C 
ATOM      4  C   UNL d   1      25.603 -16.017  -2.705  0.00  0.00     0.106 C 
ATOM      5  N   UNL d   1      24.580 -16.806  -2.375  0.00  0.00    -0.221 NA
ATOM      6  C   UNL d   1      24.656 -17.492  -1.205  0.00  0.00     0.132 C 
ATOM      7  N   UNL d   1      25.684 -17.343  -0.334  0.00  0.00    -0.235 NA
BRANCH   4   8
ATOM      8  N   UNL d   1      25.531 -15.210  -3.848  0.00  0.00    -0.281 NA
ATOM      9  C   UNL d   1      25.223 -13.800  -3.646  0.00  0.00     0.114 C 
ATOM     10  H   UNL d   1      26.317 -15.397  -4.463  0.00  0.00     0.128 HD
ENDBRANCH   4   8
BRANCH   6  11
ATOM     11  C   UNL d   1      23.527 -18.474  -0.927  0.00  0.00     0.057 A 
ATOM     12  C   UNL d   1      22.710 -18.560   0.334  0.00  0.00     0.013 A 
ATOM     13  C   UNL d   1      22.091 -17.985  -0.893  0.00  0.00     0.013 A 
ENDBRANCH   6  11
ENDBRANCH   1   2
BRANCH   1  14
ATOM     14  C   UNL d   1      29.229 -15.988  -0.471  0.00  0.00     0.072 C 
BRANCH  14  15
ATOM     15  C   UNL d   1      29.512 -14.557  -0.291  0.00  0.00    -0.028 A 
ATOM     16  C   UNL d   1      29.069 -13.507  -1.062  0.00  0.00     0.096 A 
ATOM     17  N   UNL d   1      29.551 -12.359  -0.496  0.00  0.00    -0.365 N 
ATOM     18  C   UNL d   1      30.329 -12.660   0.606  0.00  0.00     0.042 A 
ATOM     19  H   UNL d   1      29.318 -11.426  -0.803  0.00  0.00     0.165 HD
ATOM     20  C   UNL d   1      30.998 -11.831   1.514  0.00  0.00     0.030 A 
ATOM     21  C   UNL d   1      30.267 -14.035   0.786  0.00  0.00    -0.002 A 
ATOM     22  C   UNL d   1      31.627 -12.444   2.608  0.00  0.00     0.002 A 
ATOM     23  C   UNL d   1      31.567 -13.820   2.808  0.00  0.00     0.001 A 
ATOM     24  C   UNL d   1      30.872 -14.625   1.913  0.00  0.00     0.014 A 
ENDBRANCH  14  15
ENDBRANCH   1  14
BRANCH   1  25
ATOM     25  N   UNL d   1      27.812 -15.576   1.381  0.00  0.00    -0.346 N 
ATOM     26  C   UNL d   1      27.031 -14.449   1.328  0.00  0.00     0.255 C 
ATOM     27  O   UNL d   1      26.191 -14.238   0.442  0.00  0.00    -0.268 OA
ATOM     28  H   UNL d   1      28.202 -15.829   2.278  0.00  0.00     0.163 HD
BRANCH  26  29
ATOM     29  C   UNL d   1      27.236 -13.436   2.391  0.00  0.00     0.065 A 
ATOM     30  C   UNL d   1      27.062 -12.098   1.981  0.00  0.00     0.020 A 
ATOM     31  C   UNL d   1      27.416 -11.040   2.821  0.00  0.00     0.001 A 
ATOM     32  C   UNL d   1      27.859 -11.303   4.111  0.00  0.00     0.003 A 
ATOM     33  C   UNL d   1      28.009 -12.620   4.536  0.00  0.00     0.038 A 
ATOM     34  C   UNL d   1      27.751 -13.702   3.680  0.00  0.00     0.084 A 
BRANCH  34  35
ATOM     35  O   UNL d   1      28.161 -14.874   4.271  0.00  0.00    -0.355 OA
ATOM     36  C   UNL d   1      29.275 -14.820   5.124  0.00  0.00     0.210 C 
ENDBRANCH  34  35
ENDBRANCH  26  29
ENDBRANCH   1  25
TORSDOF 8
ENDMDL
MODEL 9
REMARK VINA RESULT:    -6.943      2.734      5.949
REMARK INTER + INTRA:         -12.838
REMARK INTER:                  -9.329
REMARK INTRA:                  -3.509
REMARK CONF_INDEPENDENT:        2.386
REMARK UNBOUND:                -3.509
REMARK  8 active torsions:
REMARK  status: ('A' for Active; 'I' for Inactive)
REMARK    1  A    between atoms: N_2  and  C_3 
REMARK    2  A    between atoms: C_5  and  C_6 
REMARK    3  A    between atoms: C_6  and  C_7 
REMARK    4  A    between atoms: C_6  and  N_17 
REMARK    5  A    between atoms: C_7  and  C_8 
REMARK       I    between atoms: N_17  and  C_18 
REMARK    6  A    between atoms: C_18  and  C_20 
REMARK    7  A    between atoms: C_25  and  O_26 
REMARK    8  A    between atoms: C_29  and  C_30 
ROOT
ATOM      1  C   UNL d   1      27.998 -16.095   0.574  0.00  0.00     0.141 C 
ENDROOT
BRANCH   1   2
ATOM      2  C   UNL d   1      26.729 -16.268  -0.305  0.00  0.00     0.062 C 
ATOM      3  C   UNL d   1      26.698 -15.834  -1.609  0.00  0.00     0.073 C 
ATOM      4  C   UNL d   1      25.559 -15.982  -2.360  0.00  0.00     0.106 C 
ATOM      5  N   UNL d   1      24.494 -16.616  -1.867  0.00  0.00    -0.221 NA
ATOM      6  C   UNL d   1      24.560 -17.077  -0.591  0.00  0.00     0.132 C 
ATOM      7  N   UNL d   1      25.624 -16.848   0.216  0.00  0.00    -0.235 NA
BRANCH   4   8
ATOM      8  N   UNL d   1      25.507 -15.398  -3.631  0.00  0.00    -0.281 NA
ATOM      9  C   UNL d   1      24.906 -14.074  -3.730  0.00  0.00     0.114 C 
ATOM     10  H   UNL d   1      26.399 -15.504  -4.106  0.00  0.00     0.128 HD
ENDBRANCH   4   8
BRANCH   6  11
ATOM     11  C   UNL d   1      23.373 -17.901  -0.113  0.00  0.00     0.057 A 
ATOM     12  C   UNL d   1      22.122 -18.201  -0.895  0.00  0.00     0.013 A 
ATOM     13  C   UNL d   1      23.128 -19.281  -0.693  0.00  0.00     0.013 A 
ENDBRANCH   6  11
ENDBRANCH   1   2
BRANCH   1  14
ATOM     14  C   UNL d   1      29.146 -15.427  -0.165  0.00  0.00     0.072 C 
BRANCH  14  15
ATOM     15  C   UNL d   1      30.074 -14.657   0.672  0.00  0.00    -0.028 A 
ATOM     16  C   UNL d   1      31.097 -15.135   1.460  0.00  0.00     0.096 A 
ATOM     17  N   UNL d   1      31.714 -14.053   2.023  0.00  0.00    -0.365 N 
ATOM     18  C   UNL d   1      31.079 -12.887   1.639  0.00  0.00     0.042 A 
ATOM     19  H   UNL d   1      32.551 -14.098   2.585  0.00  0.00     0.165 HD
ATOM     20  C   UNL d   1      31.361 -11.547   1.929  0.00  0.00     0.030 A 
ATOM     21  C   UNL d   1      30.082 -13.243   0.741  0.00  0.00    -0.002 A 
ATOM     22  C   UNL d   1      30.582 -10.569   1.292  0.00  0.00     0.002 A 
ATOM     23  C   UNL d   1      29.584 -10.908   0.383  0.00  0.00     0.001 A 
ATOM     24  C   UNL d   1      29.337 -12.243   0.084  0.00  0.00     0.014 A 
ENDBRANCH  14  15
ENDBRANCH   1  14
BRANCH   1  25
ATOM     25  N   UNL d   1      27.797 -15.244   1.773  0.00  0.00    -0.346 N 
ATOM     26  C   UNL d   1      27.079 -14.076   1.758  0.00  0.00     0.255 C 
ATOM     27  O   UNL d   1      26.308 -13.757   0.842  0.00  0.00    -0.268 OA
ATOM     28  H   UNL d   1      28.117 -15.582   2.670  0.00  0.00     0.163 HD
BRANCH  26  29
ATOM     29  C   UNL d   1      27.266 -13.154   2.904  0.00  0.00     0.065 A 
ATOM     30  C   UNL d   1      27.072 -11.789   2.609  0.00  0.00     0.020 A 
ATOM     31  C   UNL d   1      27.407 -10.801   3.537  0.00  0.00     0.001 A 
ATOM     32  C   UNL d   1      27.853 -11.165   4.802  0.00  0.00     0.003 A 
ATOM     33  C   UNL d   1      28.023 -12.512   5.113  0.00  0.00     0.038 A 
ATOM     34  C   UNL d   1      27.783 -13.521   4.167  0.00  0.00     0.084 A 
BRANCH  34  35
ATOM     35  O   UNL d   1      28.211 -14.732   4.658  0.00  0.00    -0.355 OA
ATOM     36  C   UNL d   1      29.539 -14.825   5.103  0.00  0.00     0.210 C 
ENDBRANCH  34  35
ENDBRANCH  26  29
ENDBRANCH   1  25
TORSDOF 8
ENDMDL
