MODEL 1
REMARK VINA RESULT:    -8.657      0.000      0.000
REMARK INTER + INTRA:         -12.503
REMARK INTER:                 -11.342
REMARK INTRA:                  -1.161
REMARK CONF_INDEPENDENT:        2.685
REMARK UNBOUND:                -1.161
REMARK  9 active torsions:
REMARK  status: ('A' for Active; 'I' for Inactive)
REMARK    1  A    between atoms: O_2  and  C_3 
REMARK    2  A    between atoms: C_7  and  C_8 
REMARK    3  A    between atoms: C_8  and  N_9 
REMARK       I    between atoms: N_9  and  C_10 
REMARK    4  A    between atoms: C_10  and  C_12 
REMARK    5  A    between atoms: C_12  and  C_13 
REMARK    6  A    between atoms: C_13  and  C_14 
REMARK    7  A    between atoms: C_14  and  N_15 
REMARK       I    between atoms: N_15  and  C_16 
REMARK    8  A    between atoms: C_16  and  C_18 
REMARK    9  A    between atoms: C_24  and  O_25 
ROOT
ATOM      1  N   UNL d   1      25.787 -16.233  -2.506  0.00  0.00    -0.357 N 
ATOM      2  C   UNL d   1      24.867 -16.137  -1.498  0.00  0.00     0.217 C 
ATOM      3  O   UNL d   1      23.751 -15.636  -1.648  0.00  0.00    -0.274 OA
ATOM      4  H   UNL d   1      26.396 -17.035  -2.428  0.00  0.00     0.162 HD
ENDROOT
BRANCH   2   5
ATOM      5  C   UNL d   1      25.371 -16.705  -0.171  0.00  0.00     0.104 C 
BRANCH   5   6
ATOM      6  C   UNL d   1      24.790 -18.099   0.054  0.00  0.00     0.029 C 
BRANCH   6   7
ATOM      7  C   UNL d   1      23.677 -18.474  -0.914  0.00  0.00     0.123 C 
BRANCH   7   8
ATOM      8  N   UNL d   1      22.615 -19.212  -0.245  0.00  0.00    -0.357 N 
ATOM      9  C   UNL d   1      21.295 -18.812  -0.352  0.00  0.00     0.251 C 
ATOM     10  O   UNL d   1      20.941 -17.835  -0.998  0.00  0.00    -0.268 OA
ATOM     11  H   UNL d   1      22.838 -20.078   0.230  0.00  0.00     0.162 HD
BRANCH   9  12
ATOM     12  C   UNL d   1      20.278 -19.623   0.378  0.00  0.00     0.032 A 
ATOM     13  C   UNL d   1      19.227 -20.214  -0.340  0.00  0.00     0.017 A 
ATOM     14  C   UNL d   1      18.166 -20.824   0.338  0.00  0.00     0.001 A 
ATOM     15  C   UNL d   1      18.182 -20.905   1.729  0.00  0.00     0.000 A 
ATOM     16  C   UNL d   1      19.235 -20.337   2.447  0.00  0.00     0.001 A 
ATOM     17  C   UNL d   1      20.278 -19.689   1.775  0.00  0.00     0.017 A 
ENDBRANCH   9  12
ENDBRANCH   7   8
ENDBRANCH   6   7
ENDBRANCH   5   6
ENDBRANCH   2   5
BRANCH   1  18
ATOM     18  C   UNL d   1      25.530 -15.832  -3.879  0.00  0.00     0.164 C 
BRANCH  18  19
ATOM     19  C   UNL d   1      26.047 -14.442  -4.217  0.00  0.00    -0.004 A 
ATOM     20  C   UNL d   1      25.432 -13.345  -3.574  0.00  0.00     0.012 A 
ATOM     21  C   UNL d   1      25.831 -12.032  -3.831  0.00  0.00     0.003 A 
ATOM     22  C   UNL d   1      26.865 -11.791  -4.733  0.00  0.00     0.039 A 
ATOM     23  C   UNL d   1      27.486 -12.851  -5.410  0.00  0.00     0.101 A 
ATOM     24  C   UNL d   1      27.056 -14.170  -5.165  0.00  0.00     0.106 A 
BRANCH  23  25
ATOM     25  O   UNL d   1      28.461 -12.444  -6.287  0.00  0.00    -0.353 OA
ATOM     26  C   UNL d   1      28.143 -11.361  -7.148  0.00  0.00     0.210 C 
ENDBRANCH  23  25
BRANCH  24  27
ATOM     27  O   UNL d   1      27.511 -15.199  -5.960  0.00  0.00    -0.357 OA
ATOM     28  H   UNL d   1      27.952 -14.821  -6.744  0.00  0.00     0.217 HD
ENDBRANCH  24  27
ENDBRANCH  18  19
ENDBRANCH   1  18
TORSDOF 9
ENDMDL
MODEL 2
REMARK VINA RESULT:    -8.643      1.327      1.964
REMARK INTER + INTRA:         -12.406
REMARK INTER:                 -11.327
REMARK INTRA:                  -1.079
REMARK CONF_INDEPENDENT:        2.685
REMARK UNBOUND:                -1.079
REMARK  9 active torsions:
REMARK  status: ('A' for Active; 'I' for Inactive)
REMARK    1  A    between atoms: O_2  and  C_3 
REMARK    2  A    between atoms: C_7  and  C_8 
REMARK    3  A    between atoms: C_8  and  N_9 
REMARK       I    between atoms: N_9  and  C_10 
REMARK    4  A    between atoms: C_10  and  C_12 
REMARK    5  A    between atoms: C_12  and  C_13 
REMARK    6  A    between atoms: C_13  and  C_14 
REMARK    7  A    between atoms: C_14  and  N_15 
REMARK       I    between atoms: N_15  and  C_16 
REMARK    8  A    between atoms: C_16  and  C_18 
REMARK    9  A    between atoms: C_24  and  O_25 
ROOT
ATOM      1  N   UNL d   1      25.194 -15.844  -2.261  0.00  0.00    -0.357 N 
ATOM      2  C   UNL d   1      25.634 -15.962  -0.972  0.00  0.00     0.217 C 
ATOM      3  O   UNL d   1      25.869 -14.993  -0.247  0.00  0.00    -0.274 OA
ATOM      4  H   UNL d   1      24.601 -16.605  -2.562  0.00  0.00     0.162 HD
ENDROOT
BRANCH   2   5
ATOM      5  C   UNL d   1      25.816 -17.415  -0.532  0.00  0.00     0.104 C 
BRANCH   5   6
ATOM      6  C   UNL d   1      24.472 -18.140  -0.562  0.00  0.00     0.029 C 
BRANCH   6   7
ATOM      7  C   UNL d   1      23.264 -17.216  -0.498  0.00  0.00     0.123 C 
BRANCH   7   8
ATOM      8  N   UNL d   1      22.124 -17.872   0.128  0.00  0.00    -0.357 N 
ATOM      9  C   UNL d   1      21.436 -18.878  -0.526  0.00  0.00     0.251 C 
ATOM     10  O   UNL d   1      21.732 -19.274  -1.646  0.00  0.00    -0.268 OA
ATOM     11  H   UNL d   1      21.890 -17.647   1.087  0.00  0.00     0.162 HD
BRANCH   9  12
ATOM     12  C   UNL d   1      20.275 -19.483   0.188  0.00  0.00     0.032 A 
ATOM     13  C   UNL d   1      20.304 -19.577   1.587  0.00  0.00     0.017 A 
ATOM     14  C   UNL d   1      19.315 -20.299   2.266  0.00  0.00     0.001 A 
ATOM     15  C   UNL d   1      18.261 -20.873   1.557  0.00  0.00     0.000 A 
ATOM     16  C   UNL d   1      18.217 -20.763   0.166  0.00  0.00     0.001 A 
ATOM     17  C   UNL d   1      19.225 -20.078  -0.520  0.00  0.00     0.017 A 
ENDBRANCH   9  12
ENDBRANCH   7   8
ENDBRANCH   6   7
ENDBRANCH   5   6
ENDBRANCH   2   5
BRANCH   1  18
ATOM     18  C   UNL d   1      24.875 -14.576  -2.897  0.00  0.00     0.164 C 
BRANCH  18  19
ATOM     19  C   UNL d   1      25.854 -14.177  -3.991  0.00  0.00    -0.004 A 
ATOM     20  C   UNL d   1      26.801 -15.143  -4.400  0.00  0.00     0.012 A 
ATOM     21  C   UNL d   1      27.747 -14.863  -5.387  0.00  0.00     0.003 A 
ATOM     22  C   UNL d   1      27.757 -13.609  -5.995  0.00  0.00     0.039 A 
ATOM     23  C   UNL d   1      26.850 -12.615  -5.600  0.00  0.00     0.101 A 
ATOM     24  C   UNL d   1      25.918 -12.898  -4.583  0.00  0.00     0.106 A 
BRANCH  23  25
ATOM     25  O   UNL d   1      27.012 -11.428  -6.271  0.00  0.00    -0.353 OA
ATOM     26  C   UNL d   1      28.269 -11.205  -6.893  0.00  0.00     0.210 C 
ENDBRANCH  23  25
BRANCH  24  27
ATOM     27  O   UNL d   1      25.157 -11.883  -4.046  0.00  0.00    -0.357 OA
ATOM     28  H   UNL d   1      25.156 -11.128  -4.665  0.00  0.00     0.217 HD
ENDBRANCH  24  27
ENDBRANCH  18  19
ENDBRANCH   1  18
TORSDOF 9
ENDMDL
MODEL 3
REMARK VINA RESULT:    -8.357      3.658      4.983
REMARK INTER + INTRA:         -11.740
REMARK INTER:                 -11.042
REMARK INTRA:                  -0.698
REMARK CONF_INDEPENDENT:        2.685
REMARK UNBOUND:                -0.698
REMARK  9 active torsions:
REMARK  status: ('A' for Active; 'I' for Inactive)
REMARK    1  A    between atoms: O_2  and  C_3 
REMARK    2  A    between atoms: C_7  and  C_8 
REMARK    3  A    between atoms: C_8  and  N_9 
REMARK       I    between atoms: N_9  and  C_10 
REMARK    4  A    between atoms: C_10  and  C_12 
REMARK    5  A    between atoms: C_12  and  C_13 
REMARK    6  A    between atoms: C_13  and  C_14 
REMARK    7  A    between atoms: C_14  and  N_15 
REMARK       I    between atoms: N_15  and  C_16 
REMARK    8  A    between atoms: C_16  and  C_18 
REMARK    9  A    between atoms: C_24  and  O_25 
ROOT
ATOM      1  N   UNL d   1      27.983 -16.905   0.360  0.00  0.00    -0.357 N 
ATOM      2  C   UNL d   1      26.846 -17.027  -0.391  0.00  0.00     0.217 C 
ATOM      3  O   UNL d   1      26.463 -16.162  -1.181  0.00  0.00    -0.274 OA
ATOM      4  H   UNL d   1      28.437 -17.785   0.562  0.00  0.00     0.162 HD
ENDROOT
BRANCH   2   5
ATOM      5  C   UNL d   1      26.100 -18.337  -0.137  0.00  0.00     0.104 C 
BRANCH   5   6
ATOM      6  C   UNL d   1      24.647 -18.044   0.236  0.00  0.00     0.029 C 
BRANCH   6   7
ATOM      7  C   UNL d   1      23.632 -18.513  -0.797  0.00  0.00     0.123 C 
BRANCH   7   8
ATOM      8  N   UNL d   1      22.546 -19.259  -0.177  0.00  0.00    -0.357 N 
ATOM      9  C   UNL d   1      21.231 -18.858  -0.330  0.00  0.00     0.251 C 
ATOM     10  O   UNL d   1      20.901 -17.875  -0.979  0.00  0.00    -0.268 OA
ATOM     11  H   UNL d   1      22.752 -20.129   0.297  0.00  0.00     0.162 HD
BRANCH   9  12
ATOM     12  C   UNL d   1      20.188 -19.677   0.352  0.00  0.00     0.032 A 
ATOM     13  C   UNL d   1      19.133 -20.211  -0.403  0.00  0.00     0.017 A 
ATOM     14  C   UNL d   1      18.051 -20.827   0.235  0.00  0.00     0.001 A 
ATOM     15  C   UNL d   1      18.047 -20.969   1.622  0.00  0.00     0.000 A 
ATOM     16  C   UNL d   1      19.105 -20.457   2.375  0.00  0.00     0.001 A 
ATOM     17  C   UNL d   1      20.170 -19.805   1.745  0.00  0.00     0.017 A 
ENDBRANCH   9  12
ENDBRANCH   7   8
ENDBRANCH   6   7
ENDBRANCH   5   6
ENDBRANCH   2   5
BRANCH   1  18
ATOM     18  C   UNL d   1      28.908 -15.788   0.256  0.00  0.00     0.164 C 
BRANCH  18  19
ATOM     19  C   UNL d   1      28.361 -14.487   0.823  0.00  0.00    -0.004 A 
ATOM     20  C   UNL d   1      27.552 -13.697  -0.024  0.00  0.00     0.012 A 
ATOM     21  C   UNL d   1      27.017 -12.481   0.405  0.00  0.00     0.003 A 
ATOM     22  C   UNL d   1      27.274 -12.035   1.700  0.00  0.00     0.039 A 
ATOM     23  C   UNL d   1      28.093 -12.777   2.564  0.00  0.00     0.101 A 
ATOM     24  C   UNL d   1      28.651 -13.989   2.111  0.00  0.00     0.106 A 
BRANCH  23  25
ATOM     25  O   UNL d   1      28.275 -12.186   3.789  0.00  0.00    -0.353 OA
ATOM     26  C   UNL d   1      28.107 -13.010   4.934  0.00  0.00     0.210 C 
ENDBRANCH  23  25
BRANCH  24  27
ATOM     27  O   UNL d   1      29.610 -14.628   2.866  0.00  0.00    -0.357 OA
ATOM     28  H   UNL d   1      29.384 -15.575   2.927  0.00  0.00     0.217 HD
ENDBRANCH  24  27
ENDBRANCH  18  19
ENDBRANCH   1  18
TORSDOF 9
ENDMDL
MODEL 4
REMARK VINA RESULT:    -8.278      1.750      2.274
REMARK INTER + INTRA:         -12.539
REMARK INTER:                 -10.963
REMARK INTRA:                  -1.576
REMARK CONF_INDEPENDENT:        2.685
REMARK UNBOUND:                -1.576
REMARK  9 active torsions:
REMARK  status: ('A' for Active; 'I' for Inactive)
REMARK    1  A    between atoms: O_2  and  C_3 
REMARK    2  A    between atoms: C_7  and  C_8 
REMARK    3  A    between atoms: C_8  and  N_9 
REMARK       I    between atoms: N_9  and  C_10 
REMARK    4  A    between atoms: C_10  and  C_12 
REMARK    5  A    between atoms: C_12  and  C_13 
REMARK    6  A    between atoms: C_13  and  C_14 
REMARK    7  A    between atoms: C_14  and  N_15 
REMARK       I    between atoms: N_15  and  C_16 
REMARK    8  A    between atoms: C_16  and  C_18 
REMARK    9  A    between atoms: C_24  and  O_25 
ROOT
ATOM      1  N   UNL d   1      27.033 -15.480  -0.105  0.00  0.00    -0.357 N 
ATOM      2  C   UNL d   1      26.815 -16.764  -0.523  0.00  0.00     0.217 C 
ATOM      3  O   UNL d   1      27.108 -17.166  -1.651  0.00  0.00    -0.274 OA
ATOM      4  H   UNL d   1      27.219 -15.398   0.885  0.00  0.00     0.162 HD
ENDROOT
BRANCH   2   5
ATOM      5  C   UNL d   1      26.161 -17.639   0.547  0.00  0.00     0.104 C 
BRANCH   5   6
ATOM      6  C   UNL d   1      24.903 -18.298  -0.016  0.00  0.00     0.029 C 
BRANCH   6   7
ATOM      7  C   UNL d   1      23.738 -17.340  -0.224  0.00  0.00     0.123 C 
BRANCH   7   8
ATOM      8  N   UNL d   1      22.488 -17.906   0.266  0.00  0.00    -0.357 N 
ATOM      9  C   UNL d   1      21.819 -18.879  -0.455  0.00  0.00     0.251 C 
ATOM     10  O   UNL d   1      22.221 -19.316  -1.524  0.00  0.00    -0.268 OA
ATOM     11  H   UNL d   1      22.155 -17.646   1.186  0.00  0.00     0.162 HD
BRANCH   9  12
ATOM     12  C   UNL d   1      20.541 -19.391   0.120  0.00  0.00     0.032 A 
ATOM     13  C   UNL d   1      20.420 -19.529   1.510  0.00  0.00     0.017 A 
ATOM     14  C   UNL d   1      19.307 -20.173   2.061  0.00  0.00     0.001 A 
ATOM     15  C   UNL d   1      18.280 -20.623   1.231  0.00  0.00     0.000 A 
ATOM     16  C   UNL d   1      18.387 -20.468  -0.152  0.00  0.00     0.001 A 
ATOM     17  C   UNL d   1      19.517 -19.862  -0.710  0.00  0.00     0.017 A 
ENDBRANCH   9  12
ENDBRANCH   7   8
ENDBRANCH   6   7
ENDBRANCH   5   6
ENDBRANCH   2   5
BRANCH   1  18
ATOM     18  C   UNL d   1      27.704 -14.469  -0.906  0.00  0.00     0.164 C 
BRANCH  18  19
ATOM     19  C   UNL d   1      27.107 -14.294  -2.294  0.00  0.00    -0.004 A 
ATOM     20  C   UNL d   1      25.930 -13.519  -2.402  0.00  0.00     0.012 A 
ATOM     21  C   UNL d   1      25.303 -13.315  -3.633  0.00  0.00     0.003 A 
ATOM     22  C   UNL d   1      25.851 -13.875  -4.785  0.00  0.00     0.039 A 
ATOM     23  C   UNL d   1      27.004 -14.671  -4.717  0.00  0.00     0.101 A 
ATOM     24  C   UNL d   1      27.612 -14.894  -3.466  0.00  0.00     0.106 A 
BRANCH  23  25
ATOM     25  O   UNL d   1      27.395 -15.174  -5.933  0.00  0.00    -0.353 OA
ATOM     26  C   UNL d   1      28.725 -14.895  -6.348  0.00  0.00     0.210 C 
ENDBRANCH  23  25
BRANCH  24  27
ATOM     27  O   UNL d   1      28.619 -15.827  -3.350  0.00  0.00    -0.357 OA
ATOM     28  H   UNL d   1      28.233 -16.720  -3.425  0.00  0.00     0.217 HD
ENDBRANCH  24  27
ENDBRANCH  18  19
ENDBRANCH   1  18
TORSDOF 9
ENDMDL
MODEL 5
REMARK VINA RESULT:    -7.956      1.846      2.909
REMARK INTER + INTRA:         -11.956
REMARK INTER:                 -10.641
REMARK INTRA:                  -1.315
REMARK CONF_INDEPENDENT:        2.685
REMARK UNBOUND:                -1.315
REMARK  9 active torsions:
REMARK  status: ('A' for Active; 'I' for Inactive)
REMARK    1  A    between atoms: O_2  and  C_3 
REMARK    2  A    between atoms: C_7  and  C_8 
REMARK    3  A    between atoms: C_8  and  N_9 
REMARK       I    between atoms: N_9  and  C_10 
REMARK    4  A    between atoms: C_10  and  C_12 
REMARK    5  A    between atoms: C_12  and  C_13 
REMARK    6  A    between atoms: C_13  and  C_14 
REMARK    7  A    between atoms: C_14  and  N_15 
REMARK       I    between atoms: N_15  and  C_16 
REMARK    8  A    between atoms: C_16  and  C_18 
REMARK    9  A    between atoms: C_24  and  O_25 
ROOT
ATOM      1  N   UNL d   1      26.829 -17.067  -0.710  0.00  0.00    -0.357 N 
ATOM      2  C   UNL d   1      26.710 -18.131   0.141  0.00  0.00     0.217 C 
ATOM      3  O   UNL d   1      27.639 -18.901   0.393  0.00  0.00    -0.274 OA
ATOM      4  H   UNL d   1      26.236 -16.285  -0.473  0.00  0.00     0.162 HD
ENDROOT
BRANCH   2   5
ATOM      5  C   UNL d   1      25.308 -18.268   0.734  0.00  0.00     0.104 C 
BRANCH   5   6
ATOM      6  C   UNL d   1      24.333 -17.365  -0.018  0.00  0.00     0.029 C 
BRANCH   6   7
ATOM      7  C   UNL d   1      23.400 -18.107  -0.966  0.00  0.00     0.123 C 
BRANCH   7   8
ATOM      8  N   UNL d   1      22.367 -18.831  -0.238  0.00  0.00    -0.357 N 
ATOM      9  C   UNL d   1      21.027 -18.585  -0.475  0.00  0.00     0.251 C 
ATOM     10  O   UNL d   1      20.630 -17.763  -1.289  0.00  0.00    -0.268 OA
ATOM     11  H   UNL d   1      22.636 -19.584   0.383  0.00  0.00     0.162 HD
BRANCH   9  12
ATOM     12  C   UNL d   1      20.041 -19.366   0.327  0.00  0.00     0.032 A 
ATOM     13  C   UNL d   1      20.287 -19.588   1.690  0.00  0.00     0.017 A 
ATOM     14  C   UNL d   1      19.476 -20.465   2.419  0.00  0.00     0.001 A 
ATOM     15  C   UNL d   1      18.379 -21.072   1.808  0.00  0.00     0.000 A 
ATOM     16  C   UNL d   1      18.119 -20.838   0.457  0.00  0.00     0.001 A 
ATOM     17  C   UNL d   1      18.951 -19.994  -0.287  0.00  0.00     0.017 A 
ENDBRANCH   9  12
ENDBRANCH   7   8
ENDBRANCH   6   7
ENDBRANCH   5   6
ENDBRANCH   2   5
BRANCH   1  18
ATOM     18  C   UNL d   1      28.075 -16.675  -1.350  0.00  0.00     0.164 C 
BRANCH  18  19
ATOM     19  C   UNL d   1      27.883 -16.008  -2.703  0.00  0.00    -0.004 A 
ATOM     20  C   UNL d   1      29.026 -15.852  -3.519  0.00  0.00     0.012 A 
ATOM     21  C   UNL d   1      28.950 -15.239  -4.771  0.00  0.00     0.003 A 
ATOM     22  C   UNL d   1      27.720 -14.777  -5.237  0.00  0.00     0.039 A 
ATOM     23  C   UNL d   1      26.567 -14.890  -4.447  0.00  0.00     0.101 A 
ATOM     24  C   UNL d   1      26.660 -15.485  -3.173  0.00  0.00     0.106 A 
BRANCH  23  25
ATOM     25  O   UNL d   1      25.446 -14.358  -5.035  0.00  0.00    -0.353 OA
ATOM     26  C   UNL d   1      24.766 -13.336  -4.320  0.00  0.00     0.210 C 
ENDBRANCH  23  25
BRANCH  24  27
ATOM     27  O   UNL d   1      25.590 -15.426  -2.308  0.00  0.00    -0.357 OA
ATOM     28  H   UNL d   1      25.323 -16.335  -2.075  0.00  0.00     0.217 HD
ENDBRANCH  24  27
ENDBRANCH  18  19
ENDBRANCH   1  18
TORSDOF 9
ENDMDL
MODEL 6
REMARK VINA RESULT:    -7.948      2.340      3.221
REMARK INTER + INTRA:         -12.396
REMARK INTER:                 -10.633
REMARK INTRA:                  -1.763
REMARK CONF_INDEPENDENT:        2.685
REMARK UNBOUND:                -1.763
REMARK  9 active torsions:
REMARK  status: ('A' for Active; 'I' for Inactive)
REMARK    1  A    between atoms: O_2  and  C_3 
REMARK    2  A    between atoms: C_7  and  C_8 
REMARK    3  A    between atoms: C_8  and  N_9 
REMARK       I    between atoms: N_9  and  C_10 
REMARK    4  A    between atoms: C_10  and  C_12 
REMARK    5  A    between atoms: C_12  and  C_13 
REMARK    6  A    between atoms: C_13  and  C_14 
REMARK    7  A    between atoms: C_14  and  N_15 
REMARK       I    between atoms: N_15  and  C_16 
REMARK    8  A    between atoms: C_16  and  C_18 
REMARK    9  A    between atoms: C_24  and  O_25 
ROOT
ATOM      1  N   UNL d   1      26.674 -17.152  -0.427  0.00  0.00    -0.357 N 
ATOM      2  C   UNL d   1      26.183 -18.058   0.473  0.00  0.00     0.217 C 
ATOM      3  O   UNL d   1      26.900 -18.709   1.236  0.00  0.00    -0.274 OA
ATOM      4  H   UNL d   1      26.047 -16.382  -0.616  0.00  0.00     0.162 HD
ENDROOT
BRANCH   2   5
ATOM      5  C   UNL d   1      24.660 -18.186   0.422  0.00  0.00     0.104 C 
BRANCH   5   6
ATOM      6  C   UNL d   1      24.151 -17.805  -0.967  0.00  0.00     0.029 C 
BRANCH   6   7
ATOM      7  C   UNL d   1      22.839 -17.032  -0.959  0.00  0.00     0.123 C 
BRANCH   7   8
ATOM      8  N   UNL d   1      21.807 -17.741  -0.215  0.00  0.00    -0.357 N 
ATOM      9  C   UNL d   1      21.195 -18.863  -0.743  0.00  0.00     0.251 C 
ATOM     10  O   UNL d   1      21.472 -19.323  -1.843  0.00  0.00    -0.268 OA
ATOM     11  H   UNL d   1      21.600 -17.458   0.735  0.00  0.00     0.162 HD
BRANCH   9  12
ATOM     12  C   UNL d   1      20.141 -19.515   0.086  0.00  0.00     0.032 A 
ATOM     13  C   UNL d   1      20.358 -19.688   1.461  0.00  0.00     0.017 A 
ATOM     14  C   UNL d   1      19.470 -20.453   2.225  0.00  0.00     0.001 A 
ATOM     15  C   UNL d   1      18.330 -20.995   1.633  0.00  0.00     0.000 A 
ATOM     16  C   UNL d   1      18.099 -20.809   0.270  0.00  0.00     0.001 A 
ATOM     17  C   UNL d   1      19.005 -20.078  -0.506  0.00  0.00     0.017 A 
ENDBRANCH   9  12
ENDBRANCH   7   8
ENDBRANCH   6   7
ENDBRANCH   5   6
ENDBRANCH   2   5
BRANCH   1  18
ATOM     18  C   UNL d   1      28.079 -16.794  -0.532  0.00  0.00     0.164 C 
BRANCH  18  19
ATOM     19  C   UNL d   1      28.519 -16.456  -1.948  0.00  0.00    -0.004 A 
ATOM     20  C   UNL d   1      29.889 -16.610  -2.258  0.00  0.00     0.012 A 
ATOM     21  C   UNL d   1      30.387 -16.311  -3.527  0.00  0.00     0.003 A 
ATOM     22  C   UNL d   1      29.518 -15.860  -4.519  0.00  0.00     0.039 A 
ATOM     23  C   UNL d   1      28.156 -15.670  -4.245  0.00  0.00     0.101 A 
ATOM     24  C   UNL d   1      27.669 -15.947  -2.952  0.00  0.00     0.106 A 
BRANCH  23  25
ATOM     25  O   UNL d   1      27.444 -15.191  -5.316  0.00  0.00    -0.353 OA
ATOM     26  C   UNL d   1      28.148 -14.385  -6.251  0.00  0.00     0.210 C 
ENDBRANCH  23  25
BRANCH  24  27
ATOM     27  O   UNL d   1      26.386 -15.581  -2.609  0.00  0.00    -0.357 OA
ATOM     28  H   UNL d   1      25.971 -15.135  -3.371  0.00  0.00     0.217 HD
ENDBRANCH  24  27
ENDBRANCH  18  19
ENDBRANCH   1  18
TORSDOF 9
ENDMDL
MODEL 7
REMARK VINA RESULT:    -7.799      1.873      2.681
REMARK INTER + INTRA:         -11.967
REMARK INTER:                 -10.484
REMARK INTRA:                  -1.483
REMARK CONF_INDEPENDENT:        2.685
REMARK UNBOUND:                -1.483
REMARK  9 active torsions:
REMARK  status: ('A' for Active; 'I' for Inactive)
REMARK    1  A    between atoms: O_2  and  C_3 
REMARK    2  A    between atoms: C_7  and  C_8 
REMARK    3  A    between atoms: C_8  and  N_9 
REMARK       I    between atoms: N_9  and  C_10 
REMARK    4  A    between atoms: C_10  and  C_12 
REMARK    5  A    between atoms: C_12  and  C_13 
REMARK    6  A    between atoms: C_13  and  C_14 
REMARK    7  A    between atoms: C_14  and  N_15 
REMARK       I    between atoms: N_15  and  C_16 
REMARK    8  A    between atoms: C_16  and  C_18 
REMARK    9  A    between atoms: C_24  and  O_25 
ROOT
ATOM      1  N   UNL d   1      25.660 -14.911  -2.098  0.00  0.00    -0.357 N 
ATOM      2  C   UNL d   1      25.315 -16.228  -1.972  0.00  0.00     0.217 C 
ATOM      3  O   UNL d   1      25.032 -16.947  -2.932  0.00  0.00    -0.274 OA
ATOM      4  H   UNL d   1      26.305 -14.587  -1.392  0.00  0.00     0.162 HD
ENDROOT
BRANCH   2   5
ATOM      5  C   UNL d   1      25.307 -16.708  -0.520  0.00  0.00     0.104 C 
BRANCH   5   6
ATOM      6  C   UNL d   1      23.924 -17.247  -0.158  0.00  0.00     0.029 C 
BRANCH   6   7
ATOM      7  C   UNL d   1      23.556 -18.545  -0.864  0.00  0.00     0.123 C 
BRANCH   7   8
ATOM      8  N   UNL d   1      22.410 -19.187  -0.236  0.00  0.00    -0.357 N 
ATOM      9  C   UNL d   1      21.122 -18.753  -0.495  0.00  0.00     0.251 C 
ATOM     10  O   UNL d   1      20.867 -17.824  -1.249  0.00  0.00    -0.268 OA
ATOM     11  H   UNL d   1      22.555 -20.016   0.328  0.00  0.00     0.162 HD
BRANCH   9  12
ATOM     12  C   UNL d   1      20.013 -19.464   0.204  0.00  0.00     0.032 A 
ATOM     13  C   UNL d   1      20.077 -19.639   1.594  0.00  0.00     0.017 A 
ATOM     14  C   UNL d   1      19.146 -20.454   2.246  0.00  0.00     0.001 A 
ATOM     15  C   UNL d   1      18.110 -21.045   1.524  0.00  0.00     0.000 A 
ATOM     16  C   UNL d   1      18.029 -20.856   0.144  0.00  0.00     0.001 A 
ATOM     17  C   UNL d   1      18.982 -20.075  -0.519  0.00  0.00     0.017 A 
ENDBRANCH   9  12
ENDBRANCH   7   8
ENDBRANCH   6   7
ENDBRANCH   5   6
ENDBRANCH   2   5
BRANCH   1  18
ATOM     18  C   UNL d   1      25.810 -14.230  -3.375  0.00  0.00     0.164 C 
BRANCH  18  19
ATOM     19  C   UNL d   1      27.066 -14.629  -4.135  0.00  0.00    -0.004 A 
ATOM     20  C   UNL d   1      27.053 -14.472  -5.539  0.00  0.00     0.012 A 
ATOM     21  C   UNL d   1      28.154 -14.824  -6.322  0.00  0.00     0.003 A 
ATOM     22  C   UNL d   1      29.299 -15.331  -5.710  0.00  0.00     0.039 A 
ATOM     23  C   UNL d   1      29.343 -15.524  -4.322  0.00  0.00     0.101 A 
ATOM     24  C   UNL d   1      28.216 -15.193  -3.545  0.00  0.00     0.106 A 
BRANCH  23  25
ATOM     25  O   UNL d   1      30.527 -16.061  -3.881  0.00  0.00    -0.353 OA
ATOM     26  C   UNL d   1      31.499 -16.377  -4.868  0.00  0.00     0.210 C 
ENDBRANCH  23  25
BRANCH  24  27
ATOM     27  O   UNL d   1      28.166 -15.558  -2.217  0.00  0.00    -0.357 OA
ATOM     28  H   UNL d   1      28.598 -16.427  -2.113  0.00  0.00     0.217 HD
ENDBRANCH  24  27
ENDBRANCH  18  19
ENDBRANCH   1  18
TORSDOF 9
ENDMDL
MODEL 8
REMARK VINA RESULT:    -7.638      1.924      2.597
REMARK INTER + INTRA:         -11.821
REMARK INTER:                 -10.323
REMARK INTRA:                  -1.498
REMARK CONF_INDEPENDENT:        2.685
REMARK UNBOUND:                -1.498
REMARK  9 active torsions:
REMARK  status: ('A' for Active; 'I' for Inactive)
REMARK    1  A    between atoms: O_2  and  C_3 
REMARK    2  A    between atoms: C_7  and  C_8 
REMARK    3  A    between atoms: C_8  and  N_9 
REMARK       I    between atoms: N_9  and  C_10 
REMARK    4  A    between atoms: C_10  and  C_12 
REMARK    5  A    between atoms: C_12  and  C_13 
REMARK    6  A    between atoms: C_13  and  C_14 
REMARK    7  A    between atoms: C_14  and  N_15 
REMARK       I    between atoms: N_15  and  C_16 
REMARK    8  A    between atoms: C_16  and  C_18 
REMARK    9  A    between atoms: C_24  and  O_25 
ROOT
ATOM      1  N   UNL d   1      25.705 -14.990  -2.224  0.00  0.00    -0.357 N 
ATOM      2  C   UNL d   1      25.356 -16.294  -2.005  0.00  0.00     0.217 C 
ATOM      3  O   UNL d   1      25.135 -17.096  -2.914  0.00  0.00    -0.274 OA
ATOM      4  H   UNL d   1      26.304 -14.600  -1.510  0.00  0.00     0.162 HD
ENDROOT
BRANCH   2   5
ATOM      5  C   UNL d   1      25.258 -16.645  -0.520  0.00  0.00     0.104 C 
BRANCH   5   6
ATOM      6  C   UNL d   1      23.867 -17.193  -0.205  0.00  0.00     0.029 C 
BRANCH   6   7
ATOM      7  C   UNL d   1      23.568 -18.541  -0.847  0.00  0.00     0.123 C 
BRANCH   7   8
ATOM      8  N   UNL d   1      22.420 -19.185  -0.224  0.00  0.00    -0.357 N 
ATOM      9  C   UNL d   1      21.133 -18.748  -0.483  0.00  0.00     0.251 C 
ATOM     10  O   UNL d   1      20.881 -17.815  -1.233  0.00  0.00    -0.268 OA
ATOM     11  H   UNL d   1      22.563 -20.016   0.336  0.00  0.00     0.162 HD
BRANCH   9  12
ATOM     12  C   UNL d   1      20.021 -19.460   0.210  0.00  0.00     0.032 A 
ATOM     13  C   UNL d   1      20.078 -19.634   1.601  0.00  0.00     0.017 A 
ATOM     14  C   UNL d   1      19.145 -20.451   2.248  0.00  0.00     0.001 A 
ATOM     15  C   UNL d   1      18.115 -21.045   1.521  0.00  0.00     0.000 A 
ATOM     16  C   UNL d   1      18.042 -20.858   0.139  0.00  0.00     0.001 A 
ATOM     17  C   UNL d   1      18.997 -20.075  -0.518  0.00  0.00     0.017 A 
ENDBRANCH   9  12
ENDBRANCH   7   8
ENDBRANCH   6   7
ENDBRANCH   5   6
ENDBRANCH   2   5
BRANCH   1  18
ATOM     18  C   UNL d   1      25.933 -14.422  -3.543  0.00  0.00     0.164 C 
BRANCH  18  19
ATOM     19  C   UNL d   1      26.089 -12.909  -3.539  0.00  0.00    -0.004 A 
ATOM     20  C   UNL d   1      25.804 -12.222  -4.740  0.00  0.00     0.012 A 
ATOM     21  C   UNL d   1      25.932 -10.835  -4.835  0.00  0.00     0.003 A 
ATOM     22  C   UNL d   1      26.339 -10.104  -3.721  0.00  0.00     0.039 A 
ATOM     23  C   UNL d   1      26.655 -10.751  -2.517  0.00  0.00     0.101 A 
ATOM     24  C   UNL d   1      26.550 -12.153  -2.440  0.00  0.00     0.106 A 
BRANCH  23  25
ATOM     25  O   UNL d   1      27.070  -9.894  -1.528  0.00  0.00    -0.353 OA
ATOM     26  C   UNL d   1      27.157  -8.516  -1.863  0.00  0.00     0.210 C 
ENDBRANCH  23  25
BRANCH  24  27
ATOM     27  O   UNL d   1      27.042 -12.820  -1.340  0.00  0.00    -0.357 OA
ATOM     28  H   UNL d   1      27.821 -12.338  -1.002  0.00  0.00     0.217 HD
ENDBRANCH  24  27
ENDBRANCH  18  19
ENDBRANCH   1  18
TORSDOF 9
ENDMDL
