MODEL 1
REMARK VINA RESULT:    -9.867      0.000      0.000
REMARK INTER + INTRA:         -13.263
REMARK INTER:                 -11.657
REMARK INTRA:                  -1.607
REMARK CONF_INDEPENDENT:        1.790
REMARK UNBOUND:                -1.607
REMARK  6 active torsions:
REMARK  status: ('A' for Active; 'I' for Inactive)
REMARK    1  A    between atoms: C_5  and  N_6 
REMARK       I    between atoms: N_6  and  C_7 
REMARK       I    between atoms: C_7  and  N_9 
REMARK    2  A    between atoms: N_9  and  C_10 
REMARK    3  A    between atoms: C_10  and  C_11 
REMARK    4  A    between atoms: C_22  and  N_23 
REMARK       I    between atoms: N_23  and  C_24 
REMARK       I    between atoms: C_24  and  N_26 
REMARK    5  A    between atoms: N_26  and  C_27 
REMARK    6  A    between atoms: C_27  and  C_28 
ROOT
ATOM      1  C   UNL d   1      28.530 -11.121   7.456  0.00  0.00     0.050 C 
ATOM      2  C   UNL d   1      28.472 -12.015   6.275  0.00  0.00    -0.035 A 
ATOM      3  C   UNL d   1      29.006 -13.294   6.465  0.00  0.00     0.011 A 
ATOM      4  C   UNL d   1      29.028 -14.227   5.434  0.00  0.00     0.030 A 
ATOM      5  C   UNL d   1      28.499 -13.879   4.186  0.00  0.00     0.038 A 
ATOM      6  C   UNL d   1      27.950 -12.587   4.021  0.00  0.00     0.059 A 
ATOM      7  C   UNL d   1      27.926 -11.626   5.047  0.00  0.00     0.044 A 
ENDROOT
BRANCH   5   8
ATOM      8  N   UNL d   1      28.532 -14.825   3.121  0.00  0.00    -0.314 N 
ATOM      9  C   UNL d   1      28.507 -14.499   1.766  0.00  0.00     0.299 C 
ATOM     10  O   UNL d   1      28.472 -13.384   1.268  0.00  0.00    -0.254 OA
ATOM     11  N   UNL d   1      28.561 -15.601   0.964  0.00  0.00    -0.238 NA
ATOM     12  H   UNL d   1      29.277 -16.216   1.300  0.00  0.00     0.132 HD
ATOM     13  H   UNL d   1      28.525 -15.805   3.383  0.00  0.00     0.170 HD
BRANCH  11  14
ATOM     14  C   UNL d   1      28.552 -15.522  -0.495  0.00  0.00     0.157 C 
BRANCH  14  15
ATOM     15  C   UNL d   1      27.162 -15.444  -1.135  0.00  0.00     0.058 A 
ATOM     16  N   UNL d   1      27.055 -14.491  -2.113  0.00  0.00    -0.263 NA
ATOM     17  C   UNL d   1      25.876 -14.365  -2.756  0.00  0.00     0.118 A 
ATOM     18  C   UNL d   1      24.780 -15.169  -2.505  0.00  0.00     0.031 A 
ATOM     19  C   UNL d   1      24.877 -16.166  -1.530  0.00  0.00    -0.023 A 
ATOM     20  C   UNL d   1      23.779 -17.015  -1.267  0.00  0.00     0.012 A 
ATOM     21  C   UNL d   1      26.070 -16.312  -0.791  0.00  0.00     0.000 A 
ATOM     22  C   UNL d   1      23.846 -18.042  -0.322  0.00  0.00     0.001 A 
ATOM     23  C   UNL d   1      24.989 -18.200   0.420  0.00  0.00     0.001 A 
ATOM     24  C   UNL d   1      26.033 -17.311   0.229  0.00  0.00     0.014 A 
ENDBRANCH  14  15
ENDBRANCH  11  14
ENDBRANCH   5   8
BRANCH   7  25
ATOM     25  N   UNL d   1      27.368 -10.333   4.762  0.00  0.00    -0.313 N 
ATOM     26  C   UNL d   1      27.745  -9.457   3.748  0.00  0.00     0.299 C 
ATOM     27  O   UNL d   1      28.590  -9.515   2.902  0.00  0.00    -0.254 OA
ATOM     28  N   UNL d   1      27.012  -8.329   3.665  0.00  0.00    -0.238 NA
ATOM     29  H   UNL d   1      26.025  -8.512   3.671  0.00  0.00     0.132 HD
ATOM     30  H   UNL d   1      26.658 -10.015   5.413  0.00  0.00     0.170 HD
BRANCH  28  31
ATOM     31  C   UNL d   1      27.437  -7.336   2.675  0.00  0.00     0.157 C 
BRANCH  31  32
ATOM     32  C   UNL d   1      26.477  -7.171   1.528  0.00  0.00     0.058 A 
ATOM     33  N   UNL d   1      25.621  -6.114   1.656  0.00  0.00    -0.263 NA
ATOM     34  C   UNL d   1      24.780  -5.877   0.636  0.00  0.00     0.118 A 
ATOM     35  C   UNL d   1      24.780  -6.617  -0.532  0.00  0.00     0.031 A 
ATOM     36  C   UNL d   1      25.679  -7.686  -0.676  0.00  0.00    -0.023 A 
ATOM     37  C   UNL d   1      25.742  -8.450  -1.859  0.00  0.00     0.012 C 
ATOM     38  C   UNL d   1      26.523  -8.022   0.385  0.00  0.00     0.000 A 
ATOM     39  C   UNL d   1      26.664  -9.490  -2.028  0.00  0.00     0.001 C 
ATOM     40  C   UNL d   1      27.490  -9.846  -0.993  0.00  0.00     0.001 C 
ATOM     41  C   UNL d   1      27.335  -9.184   0.206  0.00  0.00     0.014 C 
ENDBRANCH  31  32
ENDBRANCH  28  31
ENDBRANCH   7  25
TORSDOF 6
ENDMDL
MODEL 2
REMARK VINA RESULT:    -9.555      6.092     10.418
REMARK INTER + INTRA:         -13.183
REMARK INTER:                 -11.345
REMARK INTRA:                  -1.838
REMARK CONF_INDEPENDENT:        1.790
REMARK UNBOUND:                -1.838
REMARK  6 active torsions:
REMARK  status: ('A' for Active; 'I' for Inactive)
REMARK    1  A    between atoms: C_5  and  N_6 
REMARK       I    between atoms: N_6  and  C_7 
REMARK       I    between atoms: C_7  and  N_9 
REMARK    2  A    between atoms: N_9  and  C_10 
REMARK    3  A    between atoms: C_10  and  C_11 
REMARK    4  A    between atoms: C_22  and  N_23 
REMARK       I    between atoms: N_23  and  C_24 
REMARK       I    between atoms: C_24  and  N_26 
REMARK    5  A    between atoms: N_26  and  C_27 
REMARK    6  A    between atoms: C_27  and  C_28 
ROOT
ATOM      1  C   UNL d   1      25.486 -10.279  -6.105  0.00  0.00     0.050 C 
ATOM      2  C   UNL d   1      26.649 -11.057  -6.593  0.00  0.00    -0.035 A 
ATOM      3  C   UNL d   1      27.111 -10.706  -7.867  0.00  0.00     0.011 A 
ATOM      4  C   UNL d   1      28.188 -11.366  -8.451  0.00  0.00     0.030 A 
ATOM      5  C   UNL d   1      28.821 -12.397  -7.746  0.00  0.00     0.038 A 
ATOM      6  C   UNL d   1      28.348 -12.723  -6.455  0.00  0.00     0.059 A 
ATOM      7  C   UNL d   1      27.257 -12.075  -5.850  0.00  0.00     0.044 A 
ENDROOT
BRANCH   5   8
ATOM      8  N   UNL d   1      29.914 -13.087  -8.345  0.00  0.00    -0.314 N 
ATOM      9  C   UNL d   1      30.859 -13.838  -7.647  0.00  0.00     0.299 C 
ATOM     10  O   UNL d   1      30.905 -14.046  -6.444  0.00  0.00    -0.254 OA
ATOM     11  N   UNL d   1      31.788 -14.400  -8.471  0.00  0.00    -0.238 NA
ATOM     12  H   UNL d   1      31.324 -14.817  -9.255  0.00  0.00     0.132 HD
ATOM     13  H   UNL d   1      30.029 -12.975  -9.346  0.00  0.00     0.170 HD
BRANCH  11  14
ATOM     14  C   UNL d   1      32.882 -15.238  -7.980  0.00  0.00     0.157 C 
BRANCH  14  15
ATOM     15  C   UNL d   1      32.771 -16.725  -8.329  0.00  0.00     0.058 A 
ATOM     16  N   UNL d   1      33.562 -17.107  -9.382  0.00  0.00    -0.263 NA
ATOM     17  C   UNL d   1      33.555 -18.406  -9.747  0.00  0.00     0.118 A 
ATOM     18  C   UNL d   1      32.819 -19.377  -9.096  0.00  0.00     0.031 A 
ATOM     19  C   UNL d   1      32.028 -19.014  -8.003  0.00  0.00    -0.023 A 
ATOM     20  C   UNL d   1      31.281 -19.991  -7.307  0.00  0.00     0.012 A 
ATOM     21  C   UNL d   1      31.957 -17.662  -7.605  0.00  0.00     0.000 A 
ATOM     22  C   UNL d   1      30.501 -19.672  -6.192  0.00  0.00     0.001 A 
ATOM     23  C   UNL d   1      30.405 -18.363  -5.790  0.00  0.00     0.001 A 
ATOM     24  C   UNL d   1      31.061 -17.392  -6.527  0.00  0.00     0.014 A 
ENDBRANCH  14  15
ENDBRANCH  11  14
ENDBRANCH   5   8
BRANCH   7  25
ATOM     25  N   UNL d   1      26.841 -12.506  -4.543  0.00  0.00    -0.313 N 
ATOM     26  C   UNL d   1      25.938 -13.519  -4.238  0.00  0.00     0.299 C 
ATOM     27  O   UNL d   1      25.283 -14.252  -4.922  0.00  0.00    -0.254 OA
ATOM     28  N   UNL d   1      25.773 -13.761  -2.923  0.00  0.00    -0.238 NA
ATOM     29  H   UNL d   1      26.647 -13.863  -2.439  0.00  0.00     0.132 HD
ATOM     30  H   UNL d   1      27.216 -11.966  -3.771  0.00  0.00     0.170 HD
BRANCH  28  31
ATOM     31  C   UNL d   1      24.759 -14.752  -2.555  0.00  0.00     0.157 C 
BRANCH  31  32
ATOM     32  C   UNL d   1      25.276 -15.850  -1.664  0.00  0.00     0.058 A 
ATOM     33  N   UNL d   1      26.626 -15.818  -1.457  0.00  0.00    -0.263 NA
ATOM     34  C   UNL d   1      27.142 -16.735  -0.621  0.00  0.00     0.118 A 
ATOM     35  C   UNL d   1      26.368 -17.660   0.056  0.00  0.00     0.031 A 
ATOM     36  C   UNL d   1      24.977 -17.675  -0.134  0.00  0.00    -0.023 A 
ATOM     37  C   UNL d   1      24.141 -18.574   0.558  0.00  0.00     0.012 C 
ATOM     38  C   UNL d   1      24.400 -16.792  -1.051  0.00  0.00     0.000 A 
ATOM     39  C   UNL d   1      22.749 -18.568   0.405  0.00  0.00     0.001 C 
ATOM     40  C   UNL d   1      22.165 -17.721  -0.501  0.00  0.00     0.001 C 
ATOM     41  C   UNL d   1      22.995 -16.935  -1.270  0.00  0.00     0.014 C 
ENDBRANCH  31  32
ENDBRANCH  28  31
ENDBRANCH   7  25
TORSDOF 6
ENDMDL
MODEL 3
REMARK VINA RESULT:    -9.506      6.287     10.736
REMARK INTER + INTRA:         -13.395
REMARK INTER:                 -11.296
REMARK INTRA:                  -2.099
REMARK CONF_INDEPENDENT:        1.790
REMARK UNBOUND:                -2.099
REMARK  6 active torsions:
REMARK  status: ('A' for Active; 'I' for Inactive)
REMARK    1  A    between atoms: C_5  and  N_6 
REMARK       I    between atoms: N_6  and  C_7 
REMARK       I    between atoms: C_7  and  N_9 
REMARK    2  A    between atoms: N_9  and  C_10 
REMARK    3  A    between atoms: C_10  and  C_11 
REMARK    4  A    between atoms: C_22  and  N_23 
REMARK       I    between atoms: N_23  and  C_24 
REMARK       I    between atoms: C_24  and  N_26 
REMARK    5  A    between atoms: N_26  and  C_27 
REMARK    6  A    between atoms: C_27  and  C_28 
ROOT
ATOM      1  C   UNL d   1      28.329 -11.165  -8.655  0.00  0.00     0.050 C 
ATOM      2  C   UNL d   1      27.699 -11.741  -7.443  0.00  0.00    -0.035 A 
ATOM      3  C   UNL d   1      26.687 -10.964  -6.868  0.00  0.00     0.011 A 
ATOM      4  C   UNL d   1      26.023 -11.380  -5.719  0.00  0.00     0.030 A 
ATOM      5  C   UNL d   1      26.373 -12.601  -5.132  0.00  0.00     0.038 A 
ATOM      6  C   UNL d   1      27.387 -13.377  -5.738  0.00  0.00     0.059 A 
ATOM      7  C   UNL d   1      28.076 -12.971  -6.894  0.00  0.00     0.044 A 
ENDROOT
BRANCH   5   8
ATOM      8  N   UNL d   1      25.707 -13.026  -3.946  0.00  0.00    -0.314 N 
ATOM      9  C   UNL d   1      25.231 -14.316  -3.719  0.00  0.00     0.299 C 
ATOM     10  O   UNL d   1      25.312 -15.282  -4.463  0.00  0.00    -0.254 OA
ATOM     11  N   UNL d   1      24.646 -14.448  -2.495  0.00  0.00    -0.238 NA
ATOM     12  H   UNL d   1      25.232 -14.021  -1.803  0.00  0.00     0.132 HD
ATOM     13  H   UNL d   1      25.531 -12.315  -3.244  0.00  0.00     0.170 HD
BRANCH  11  14
ATOM     14  C   UNL d   1      24.072 -15.706  -2.020  0.00  0.00     0.157 C 
BRANCH  14  15
ATOM     15  C   UNL d   1      25.002 -16.559  -1.151  0.00  0.00     0.058 A 
ATOM     16  N   UNL d   1      24.341 -17.386  -0.280  0.00  0.00    -0.263 NA
ATOM     17  C   UNL d   1      25.075 -18.199   0.509  0.00  0.00     0.118 A 
ATOM     18  C   UNL d   1      26.454 -18.266   0.463  0.00  0.00     0.031 A 
ATOM     19  C   UNL d   1      27.145 -17.450  -0.438  0.00  0.00    -0.023 A 
ATOM     20  C   UNL d   1      28.554 -17.513  -0.520  0.00  0.00     0.012 A 
ATOM     21  C   UNL d   1      26.434 -16.545  -1.254  0.00  0.00     0.000 A 
ATOM     22  C   UNL d   1      29.279 -16.736  -1.427  0.00  0.00     0.001 A 
ATOM     23  C   UNL d   1      28.616 -15.838  -2.225  0.00  0.00     0.001 A 
ATOM     24  C   UNL d   1      27.245 -15.708  -2.080  0.00  0.00     0.014 A 
ENDBRANCH  14  15
ENDBRANCH  11  14
ENDBRANCH   5   8
BRANCH   7  25
ATOM     25  N   UNL d   1      29.109 -13.826  -7.412  0.00  0.00    -0.313 N 
ATOM     26  C   UNL d   1      29.883 -14.739  -6.700  0.00  0.00     0.299 C 
ATOM     27  O   UNL d   1      29.922 -15.035  -5.541  0.00  0.00    -0.254 OA
ATOM     28  N   UNL d   1      30.743 -15.461  -7.444  0.00  0.00    -0.238 NA
ATOM     29  H   UNL d   1      30.305 -15.870  -8.249  0.00  0.00     0.132 HD
ATOM     30  H   UNL d   1      29.323 -13.700  -8.395  0.00  0.00     0.170 HD
BRANCH  28  31
ATOM     31  C   UNL d   1      31.645 -16.362  -6.722  0.00  0.00     0.157 C 
BRANCH  31  32
ATOM     32  C   UNL d   1      31.279 -17.817  -6.847  0.00  0.00     0.058 A 
ATOM     33  N   UNL d   1      31.126 -18.251  -8.133  0.00  0.00    -0.263 NA
ATOM     34  C   UNL d   1      30.859 -19.556  -8.314  0.00  0.00     0.118 A 
ATOM     35  C   UNL d   1      30.780 -20.462  -7.273  0.00  0.00     0.031 A 
ATOM     36  C   UNL d   1      30.965 -20.022  -5.953  0.00  0.00    -0.023 A 
ATOM     37  C   UNL d   1      30.928 -20.912  -4.860  0.00  0.00     0.012 C 
ATOM     38  C   UNL d   1      31.170 -18.662  -5.705  0.00  0.00     0.000 A 
ATOM     39  C   UNL d   1      31.155 -20.488  -3.545  0.00  0.00     0.001 C 
ATOM     40  C   UNL d   1      31.341 -19.156  -3.278  0.00  0.00     0.001 C 
ATOM     41  C   UNL d   1      31.246 -18.273  -4.332  0.00  0.00     0.014 C 
ENDBRANCH  31  32
ENDBRANCH  28  31
ENDBRANCH   7  25
TORSDOF 6
ENDMDL
MODEL 4
REMARK VINA RESULT:    -9.411      6.060      9.649
REMARK INTER + INTRA:         -13.002
REMARK INTER:                 -11.201
REMARK INTRA:                  -1.801
REMARK CONF_INDEPENDENT:        1.790
REMARK UNBOUND:                -1.801
REMARK  6 active torsions:
REMARK  status: ('A' for Active; 'I' for Inactive)
REMARK    1  A    between atoms: C_5  and  N_6 
REMARK       I    between atoms: N_6  and  C_7 
REMARK       I    between atoms: C_7  and  N_9 
REMARK    2  A    between atoms: N_9  and  C_10 
REMARK    3  A    between atoms: C_10  and  C_11 
REMARK    4  A    between atoms: C_22  and  N_23 
REMARK       I    between atoms: N_23  and  C_24 
REMARK       I    between atoms: C_24  and  N_26 
REMARK    5  A    between atoms: N_26  and  C_27 
REMARK    6  A    between atoms: C_27  and  C_28 
ROOT
ATOM      1  C   UNL d   1      25.574  -9.938  -5.410  0.00  0.00     0.050 C 
ATOM      2  C   UNL d   1      26.523 -10.973  -5.883  0.00  0.00    -0.035 A 
ATOM      3  C   UNL d   1      27.239 -10.646  -7.041  0.00  0.00     0.011 A 
ATOM      4  C   UNL d   1      28.152 -11.533  -7.600  0.00  0.00     0.030 A 
ATOM      5  C   UNL d   1      28.361 -12.775  -6.988  0.00  0.00     0.038 A 
ATOM      6  C   UNL d   1      27.639 -13.078  -5.811  0.00  0.00     0.059 A 
ATOM      7  C   UNL d   1      26.706 -12.199  -5.235  0.00  0.00     0.044 A 
ENDROOT
BRANCH   5   8
ATOM      8  N   UNL d   1      29.284 -13.695  -7.564  0.00  0.00    -0.314 N 
ATOM      9  C   UNL d   1      30.137 -14.525  -6.839  0.00  0.00     0.299 C 
ATOM     10  O   UNL d   1      30.230 -14.621  -5.624  0.00  0.00    -0.254 OA
ATOM     11  N   UNL d   1      30.905 -15.313  -7.644  0.00  0.00    -0.238 NA
ATOM     12  H   UNL d   1      30.327 -15.717  -8.356  0.00  0.00     0.132 HD
ATOM     13  H   UNL d   1      29.348 -13.701  -8.577  0.00  0.00     0.170 HD
BRANCH  11  14
ATOM     14  C   UNL d   1      31.877 -16.272  -7.123  0.00  0.00     0.157 C 
BRANCH  14  15
ATOM     15  C   UNL d   1      31.450 -17.741  -7.204  0.00  0.00     0.058 A 
ATOM     16  N   UNL d   1      31.329 -18.212  -8.486  0.00  0.00    -0.263 NA
ATOM     17  C   UNL d   1      30.985 -19.505  -8.660  0.00  0.00     0.118 A 
ATOM     18  C   UNL d   1      30.781 -20.388  -7.618  0.00  0.00     0.031 A 
ATOM     19  C   UNL d   1      30.927 -19.935  -6.303  0.00  0.00    -0.023 A 
ATOM     20  C   UNL d   1      30.744 -20.822  -5.219  0.00  0.00     0.012 A 
ATOM     21  C   UNL d   1      31.238 -18.580  -6.058  0.00  0.00     0.000 A 
ATOM     22  C   UNL d   1      30.910 -20.414  -3.893  0.00  0.00     0.001 A 
ATOM     23  C   UNL d   1      31.200 -19.100  -3.623  0.00  0.00     0.001 A 
ATOM     24  C   UNL d   1      31.288 -18.210  -4.680  0.00  0.00     0.014 A 
ENDBRANCH  14  15
ENDBRANCH  11  14
ENDBRANCH   5   8
BRANCH   7  25
ATOM     25  N   UNL d   1      26.008 -12.621  -4.051  0.00  0.00    -0.313 N 
ATOM     26  C   UNL d   1      25.343 -13.827  -3.850  0.00  0.00     0.299 C 
ATOM     27  O   UNL d   1      25.158 -14.777  -4.555  0.00  0.00    -0.254 OA
ATOM     28  N   UNL d   1      24.822 -13.994  -2.618  0.00  0.00    -0.238 NA
ATOM     29  H   UNL d   1      25.483 -13.790  -1.891  0.00  0.00     0.132 HD
ATOM     30  H   UNL d   1      25.957 -11.931  -3.310  0.00  0.00     0.170 HD
BRANCH  28  31
ATOM     31  C   UNL d   1      24.030 -15.206  -2.394  0.00  0.00     0.157 C 
BRANCH  31  32
ATOM     32  C   UNL d   1      24.661 -16.174  -1.430  0.00  0.00     0.058 A 
ATOM     33  N   UNL d   1      23.767 -16.898  -0.692  0.00  0.00    -0.263 NA
ATOM     34  C   UNL d   1      24.267 -17.824   0.143  0.00  0.00     0.118 A 
ATOM     35  C   UNL d   1      25.619 -18.096   0.249  0.00  0.00     0.031 A 
ATOM     36  C   UNL d   1      26.536 -17.373  -0.530  0.00  0.00    -0.023 A 
ATOM     37  C   UNL d   1      27.920 -17.635  -0.484  0.00  0.00     0.012 C 
ATOM     38  C   UNL d   1      26.074 -16.347  -1.359  0.00  0.00     0.000 A 
ATOM     39  C   UNL d   1      28.837 -16.947  -1.289  0.00  0.00     0.001 C 
ATOM     40  C   UNL d   1      28.406 -15.926  -2.097  0.00  0.00     0.001 C 
ATOM     41  C   UNL d   1      27.073 -15.585  -2.041  0.00  0.00     0.014 C 
ENDBRANCH  31  32
ENDBRANCH  28  31
ENDBRANCH   7  25
TORSDOF 6
ENDMDL
MODEL 5
REMARK VINA RESULT:    -9.401      5.944     10.099
REMARK INTER + INTRA:         -13.048
REMARK INTER:                 -11.191
REMARK INTRA:                  -1.858
REMARK CONF_INDEPENDENT:        1.790
REMARK UNBOUND:                -1.858
REMARK  6 active torsions:
REMARK  status: ('A' for Active; 'I' for Inactive)
REMARK    1  A    between atoms: C_5  and  N_6 
REMARK       I    between atoms: N_6  and  C_7 
REMARK       I    between atoms: C_7  and  N_9 
REMARK    2  A    between atoms: N_9  and  C_10 
REMARK    3  A    between atoms: C_10  and  C_11 
REMARK    4  A    between atoms: C_22  and  N_23 
REMARK       I    between atoms: N_23  and  C_24 
REMARK       I    between atoms: C_24  and  N_26 
REMARK    5  A    between atoms: N_26  and  C_27 
REMARK    6  A    between atoms: C_27  and  C_28 
ROOT
ATOM      1  C   UNL d   1      26.095  -9.743  -6.895  0.00  0.00     0.050 C 
ATOM      2  C   UNL d   1      26.984 -10.927  -6.968  0.00  0.00    -0.035 A 
ATOM      3  C   UNL d   1      27.990 -10.863  -7.938  0.00  0.00     0.011 A 
ATOM      4  C   UNL d   1      28.884 -11.912  -8.122  0.00  0.00     0.030 A 
ATOM      5  C   UNL d   1      28.776 -13.051  -7.316  0.00  0.00     0.038 A 
ATOM      6  C   UNL d   1      27.763 -13.088  -6.331  0.00  0.00     0.059 A 
ATOM      7  C   UNL d   1      26.844 -12.043  -6.135  0.00  0.00     0.044 A 
ENDROOT
BRANCH   5   8
ATOM      8  N   UNL d   1      29.679 -14.136  -7.509  0.00  0.00    -0.314 N 
ATOM      9  C   UNL d   1      29.790 -15.239  -6.664  0.00  0.00     0.299 C 
ATOM     10  O   UNL d   1      29.143 -15.473  -5.654  0.00  0.00    -0.254 OA
ATOM     11  N   UNL d   1      30.726 -16.132  -7.094  0.00  0.00    -0.238 NA
ATOM     12  H   UNL d   1      30.605 -16.286  -8.077  0.00  0.00     0.132 HD
ATOM     13  H   UNL d   1      30.315 -14.063  -8.296  0.00  0.00     0.170 HD
BRANCH  11  14
ATOM     14  C   UNL d   1      31.026 -17.373  -6.382  0.00  0.00     0.157 C 
BRANCH  14  15
ATOM     15  C   UNL d   1      31.225 -18.604  -7.273  0.00  0.00     0.058 A 
ATOM     16  N   UNL d   1      31.258 -18.317  -8.613  0.00  0.00    -0.263 NA
ATOM     17  C   UNL d   1      31.458 -19.334  -9.477  0.00  0.00     0.118 A 
ATOM     18  C   UNL d   1      31.665 -20.642  -9.083  0.00  0.00     0.031 A 
ATOM     19  C   UNL d   1      31.664 -20.950  -7.720  0.00  0.00    -0.023 A 
ATOM     20  C   UNL d   1      31.894 -22.275  -7.288  0.00  0.00     0.012 A 
ATOM     21  C   UNL d   1      31.411 -19.936  -6.771  0.00  0.00     0.000 A 
ATOM     22  C   UNL d   1      31.929 -22.618  -5.934  0.00  0.00     0.001 A 
ATOM     23  C   UNL d   1      31.675 -21.656  -4.989  0.00  0.00     0.001 A 
ATOM     24  C   UNL d   1      31.358 -20.377  -5.413  0.00  0.00     0.014 A 
ENDBRANCH  14  15
ENDBRANCH  11  14
ENDBRANCH   5   8
BRANCH   7  25
ATOM     25  N   UNL d   1      25.836 -12.197  -5.122  0.00  0.00    -0.313 N 
ATOM     26  C   UNL d   1      25.467 -13.372  -4.473  0.00  0.00     0.299 C 
ATOM     27  O   UNL d   1      25.839 -14.505  -4.577  0.00  0.00    -0.254 OA
ATOM     28  N   UNL d   1      24.530 -13.226  -3.515  0.00  0.00    -0.238 NA
ATOM     29  H   UNL d   1      24.747 -12.482  -2.877  0.00  0.00     0.132 HD
ATOM     30  H   UNL d   1      25.307 -11.359  -4.906  0.00  0.00     0.170 HD
BRANCH  28  31
ATOM     31  C   UNL d   1      24.042 -14.450  -2.875  0.00  0.00     0.157 C 
BRANCH  31  32
ATOM     32  C   UNL d   1      25.038 -15.088  -1.945  0.00  0.00     0.058 A 
ATOM     33  N   UNL d   1      26.171 -14.352  -1.740  0.00  0.00    -0.263 NA
ATOM     34  C   UNL d   1      27.072 -14.839  -0.871  0.00  0.00     0.118 A 
ATOM     35  C   UNL d   1      26.880 -16.008  -0.158  0.00  0.00     0.031 A 
ATOM     36  C   UNL d   1      25.704 -16.751  -0.346  0.00  0.00    -0.023 A 
ATOM     37  C   UNL d   1      25.445 -17.930   0.380  0.00  0.00     0.012 C 
ATOM     38  C   UNL d   1      24.769 -16.328  -1.295  0.00  0.00     0.000 A 
ATOM     39  C   UNL d   1      24.255 -18.654   0.230  0.00  0.00     0.001 C 
ATOM     40  C   UNL d   1      23.332 -18.265  -0.707  0.00  0.00     0.001 C 
ATOM     41  C   UNL d   1      23.647 -17.188  -1.506  0.00  0.00     0.014 C 
ENDBRANCH  31  32
ENDBRANCH  28  31
ENDBRANCH   7  25
TORSDOF 6
ENDMDL
MODEL 6
REMARK VINA RESULT:    -9.312      0.443      7.377
REMARK INTER + INTRA:         -12.743
REMARK INTER:                 -11.101
REMARK INTRA:                  -1.642
REMARK CONF_INDEPENDENT:        1.790
REMARK UNBOUND:                -1.642
REMARK  6 active torsions:
REMARK  status: ('A' for Active; 'I' for Inactive)
REMARK    1  A    between atoms: C_5  and  N_6 
REMARK       I    between atoms: N_6  and  C_7 
REMARK       I    between atoms: C_7  and  N_9 
REMARK    2  A    between atoms: N_9  and  C_10 
REMARK    3  A    between atoms: C_10  and  C_11 
REMARK    4  A    between atoms: C_22  and  N_23 
REMARK       I    between atoms: N_23  and  C_24 
REMARK       I    between atoms: C_24  and  N_26 
REMARK    5  A    between atoms: N_26  and  C_27 
REMARK    6  A    between atoms: C_27  and  C_28 
ROOT
ATOM      1  C   UNL d   1      29.433 -15.198   5.726  0.00  0.00     0.050 C 
ATOM      2  C   UNL d   1      28.829 -13.920   5.278  0.00  0.00    -0.035 A 
ATOM      3  C   UNL d   1      28.739 -12.925   6.258  0.00  0.00     0.011 A 
ATOM      4  C   UNL d   1      28.181 -11.683   5.975  0.00  0.00     0.030 A 
ATOM      5  C   UNL d   1      27.705 -11.425   4.684  0.00  0.00     0.038 A 
ATOM      6  C   UNL d   1      27.821 -12.440   3.706  0.00  0.00     0.059 A 
ATOM      7  C   UNL d   1      28.374 -13.704   3.973  0.00  0.00     0.044 A 
ENDROOT
BRANCH   5   8
ATOM      8  N   UNL d   1      27.118 -10.160   4.392  0.00  0.00    -0.314 N 
ATOM      9  C   UNL d   1      27.636  -9.233   3.489  0.00  0.00     0.299 C 
ATOM     10  O   UNL d   1      28.638  -9.343   2.799  0.00  0.00    -0.254 OA
ATOM     11  N   UNL d   1      26.865  -8.112   3.395  0.00  0.00    -0.238 NA
ATOM     12  H   UNL d   1      25.903  -8.381   3.314  0.00  0.00     0.132 HD
ATOM     13  H   UNL d   1      26.290  -9.910   4.922  0.00  0.00     0.170 HD
BRANCH  11  14
ATOM     14  C   UNL d   1      27.193  -6.994   2.513  0.00  0.00     0.157 C 
BRANCH  14  15
ATOM     15  C   UNL d   1      26.399  -6.942   1.203  0.00  0.00     0.058 A 
ATOM     16  N   UNL d   1      25.583  -5.846   1.094  0.00  0.00    -0.263 NA
ATOM     17  C   UNL d   1      24.864  -5.697  -0.037  0.00  0.00     0.118 A 
ATOM     18  C   UNL d   1      24.930  -6.571  -1.105  0.00  0.00     0.031 A 
ATOM     19  C   UNL d   1      25.778  -7.680  -1.025  0.00  0.00    -0.023 A 
ATOM     20  C   UNL d   1      25.880  -8.579  -2.110  0.00  0.00     0.012 A 
ATOM     21  C   UNL d   1      26.518  -7.915   0.153  0.00  0.00     0.000 A 
ATOM     22  C   UNL d   1      26.737  -9.682  -2.080  0.00  0.00     0.001 A 
ATOM     23  C   UNL d   1      27.460  -9.942  -0.943  0.00  0.00     0.001 A 
ATOM     24  C   UNL d   1      27.291  -9.116   0.154  0.00  0.00     0.014 A 
ENDBRANCH  14  15
ENDBRANCH  11  14
ENDBRANCH   5   8
BRANCH   7  25
ATOM     25  N   UNL d   1      28.418 -14.671   2.911  0.00  0.00    -0.313 N 
ATOM     26  C   UNL d   1      28.425 -14.419   1.542  0.00  0.00     0.299 C 
ATOM     27  O   UNL d   1      28.379 -13.406   0.906  0.00  0.00    -0.254 OA
ATOM     28  N   UNL d   1      28.532 -15.512   0.760  0.00  0.00    -0.238 NA
ATOM     29  H   UNL d   1      29.281 -16.116   1.047  0.00  0.00     0.132 HD
ATOM     30  H   UNL d   1      28.385 -15.641   3.207  0.00  0.00     0.170 HD
BRANCH  28  31
ATOM     31  C   UNL d   1      28.445 -15.300  -0.687  0.00  0.00     0.157 C 
BRANCH  31  32
ATOM     32  C   UNL d   1      27.036 -15.255  -1.211  0.00  0.00     0.058 A 
ATOM     33  N   UNL d   1      26.814 -14.286  -2.149  0.00  0.00    -0.263 NA
ATOM     34  C   UNL d   1      25.590 -14.233  -2.701  0.00  0.00     0.118 A 
ATOM     35  C   UNL d   1      24.584 -15.131  -2.395  0.00  0.00     0.031 A 
ATOM     36  C   UNL d   1      24.819 -16.145  -1.453  0.00  0.00    -0.023 A 
ATOM     37  C   UNL d   1      23.839 -17.105  -1.132  0.00  0.00     0.012 C 
ATOM     38  C   UNL d   1      26.051 -16.197  -0.794  0.00  0.00     0.000 A 
ATOM     39  C   UNL d   1      24.080 -18.144  -0.225  0.00  0.00     0.001 C 
ATOM     40  C   UNL d   1      25.275 -18.204   0.444  0.00  0.00     0.001 C 
ATOM     41  C   UNL d   1      26.182 -17.189   0.226  0.00  0.00     0.014 C 
ENDBRANCH  31  32
ENDBRANCH  28  31
ENDBRANCH   7  25
TORSDOF 6
ENDMDL
MODEL 7
REMARK VINA RESULT:    -8.997      2.702      7.511
REMARK INTER + INTRA:         -12.678
REMARK INTER:                 -10.787
REMARK INTRA:                  -1.891
REMARK CONF_INDEPENDENT:        1.790
REMARK UNBOUND:                -1.891
REMARK  6 active torsions:
REMARK  status: ('A' for Active; 'I' for Inactive)
REMARK    1  A    between atoms: C_5  and  N_6 
REMARK       I    between atoms: N_6  and  C_7 
REMARK       I    between atoms: C_7  and  N_9 
REMARK    2  A    between atoms: N_9  and  C_10 
REMARK    3  A    between atoms: C_10  and  C_11 
REMARK    4  A    between atoms: C_22  and  N_23 
REMARK       I    between atoms: N_23  and  C_24 
REMARK       I    between atoms: C_24  and  N_26 
REMARK    5  A    between atoms: N_26  and  C_27 
REMARK    6  A    between atoms: C_27  and  C_28 
ROOT
ATOM      1  C   UNL d   1      26.678  -6.124   2.169  0.00  0.00     0.050 C 
ATOM      2  C   UNL d   1      26.376  -6.876   0.928  0.00  0.00    -0.035 A 
ATOM      3  C   UNL d   1      25.614  -6.186  -0.021  0.00  0.00     0.011 A 
ATOM      4  C   UNL d   1      25.248  -6.780  -1.224  0.00  0.00     0.030 A 
ATOM      5  C   UNL d   1      25.655  -8.093  -1.488  0.00  0.00     0.038 A 
ATOM      6  C   UNL d   1      26.437  -8.766  -0.522  0.00  0.00     0.059 A 
ATOM      7  C   UNL d   1      26.811  -8.187   0.702  0.00  0.00     0.044 A 
ENDROOT
BRANCH   5   8
ATOM      8  N   UNL d   1      25.270  -8.714  -2.712  0.00  0.00    -0.314 N 
ATOM      9  C   UNL d   1      26.072  -9.583  -3.450  0.00  0.00     0.299 C 
ATOM     10  O   UNL d   1      27.200  -9.968  -3.179  0.00  0.00    -0.254 OA
ATOM     11  N   UNL d   1      25.449 -10.039  -4.573  0.00  0.00    -0.238 NA
ATOM     12  H   UNL d   1      24.517 -10.323  -4.339  0.00  0.00     0.132 HD
ATOM     13  H   UNL d   1      24.363  -8.457  -3.086  0.00  0.00     0.170 HD
BRANCH  11  14
ATOM     14  C   UNL d   1      26.081 -10.966  -5.511  0.00  0.00     0.157 C 
BRANCH  14  15
ATOM     15  C   UNL d   1      26.193 -12.413  -5.020  0.00  0.00     0.058 A 
ATOM     16  N   UNL d   1      25.155 -12.807  -4.216  0.00  0.00    -0.263 NA
ATOM     17  C   UNL d   1      25.150 -14.076  -3.756  0.00  0.00     0.118 A 
ATOM     18  C   UNL d   1      26.116 -15.009  -4.080  0.00  0.00     0.031 A 
ATOM     19  C   UNL d   1      27.168 -14.635  -4.922  0.00  0.00    -0.023 A 
ATOM     20  C   UNL d   1      28.158 -15.575  -5.286  0.00  0.00     0.012 A 
ATOM     21  C   UNL d   1      27.253 -13.308  -5.394  0.00  0.00     0.000 A 
ATOM     22  C   UNL d   1      29.208 -15.248  -6.147  0.00  0.00     0.001 A 
ATOM     23  C   UNL d   1      29.323 -13.962  -6.612  0.00  0.00     0.001 A 
ATOM     24  C   UNL d   1      28.407 -13.017  -6.183  0.00  0.00     0.014 A 
ENDBRANCH  14  15
ENDBRANCH  11  14
ENDBRANCH   5   8
BRANCH   7  25
ATOM     25  N   UNL d   1      27.585  -8.972   1.624  0.00  0.00    -0.313 N 
ATOM     26  C   UNL d   1      27.239  -9.329   2.924  0.00  0.00     0.299 C 
ATOM     27  O   UNL d   1      26.283  -9.086   3.603  0.00  0.00    -0.254 OA
ATOM     28  N   UNL d   1      28.125 -10.126   3.553  0.00  0.00    -0.238 NA
ATOM     29  H   UNL d   1      28.395 -10.915   2.994  0.00  0.00     0.132 HD
ATOM     30  H   UNL d   1      28.506  -9.243   1.295  0.00  0.00     0.170 HD
BRANCH  28  31
ATOM     31  C   UNL d   1      27.848 -10.445   4.956  0.00  0.00     0.157 C 
BRANCH  31  32
ATOM     32  C   UNL d   1      28.073 -11.891   5.306  0.00  0.00     0.058 A 
ATOM     33  N   UNL d   1      27.948 -12.753   4.253  0.00  0.00    -0.263 NA
ATOM     34  C   UNL d   1      28.197 -14.052   4.488  0.00  0.00     0.118 A 
ATOM     35  C   UNL d   1      28.609 -14.532   5.718  0.00  0.00     0.031 A 
ATOM     36  C   UNL d   1      28.766 -13.644   6.793  0.00  0.00    -0.023 A 
ATOM     37  C   UNL d   1      29.216 -14.077   8.057  0.00  0.00     0.012 C 
ATOM     38  C   UNL d   1      28.446 -12.294   6.622  0.00  0.00     0.000 A 
ATOM     39  C   UNL d   1      29.416 -13.191   9.123  0.00  0.00     0.001 C 
ATOM     40  C   UNL d   1      29.093 -11.866   8.980  0.00  0.00     0.001 C 
ATOM     41  C   UNL d   1      28.530 -11.470   7.786  0.00  0.00     0.014 C 
ENDBRANCH  31  32
ENDBRANCH  28  31
ENDBRANCH   7  25
TORSDOF 6
ENDMDL
MODEL 8
REMARK VINA RESULT:    -8.939      5.871      7.591
REMARK INTER + INTRA:         -12.890
REMARK INTER:                 -10.729
REMARK INTRA:                  -2.161
REMARK CONF_INDEPENDENT:        1.790
REMARK UNBOUND:                -2.161
REMARK  6 active torsions:
REMARK  status: ('A' for Active; 'I' for Inactive)
REMARK    1  A    between atoms: C_5  and  N_6 
REMARK       I    between atoms: N_6  and  C_7 
REMARK       I    between atoms: C_7  and  N_9 
REMARK    2  A    between atoms: N_9  and  C_10 
REMARK    3  A    between atoms: C_10  and  C_11 
REMARK    4  A    between atoms: C_22  and  N_23 
REMARK       I    between atoms: N_23  and  C_24 
REMARK       I    between atoms: C_24  and  N_26 
REMARK    5  A    between atoms: N_26  and  C_27 
REMARK    6  A    between atoms: C_27  and  C_28 
ROOT
ATOM      1  C   UNL d   1      22.605 -16.697  -0.619  0.00  0.00     0.050 C 
ATOM      2  C   UNL d   1      24.058 -16.988  -0.638  0.00  0.00    -0.035 A 
ATOM      3  C   UNL d   1      24.479 -17.997   0.235  0.00  0.00     0.011 A 
ATOM      4  C   UNL d   1      25.818 -18.361   0.327  0.00  0.00     0.030 A 
ATOM      5  C   UNL d   1      26.760 -17.705  -0.474  0.00  0.00     0.038 A 
ATOM      6  C   UNL d   1      26.311 -16.699  -1.360  0.00  0.00     0.059 A 
ATOM      7  C   UNL d   1      24.964 -16.312  -1.462  0.00  0.00     0.044 A 
ENDROOT
BRANCH   5   8
ATOM      8  N   UNL d   1      28.136 -18.061  -0.374  0.00  0.00    -0.314 N 
ATOM      9  C   UNL d   1      29.175 -17.420  -1.047  0.00  0.00     0.299 C 
ATOM     10  O   UNL d   1      29.096 -16.462  -1.802  0.00  0.00    -0.254 OA
ATOM     11  N   UNL d   1      30.393 -17.959  -0.758  0.00  0.00    -0.238 NA
ATOM     12  H   UNL d   1      30.468 -18.090   0.233  0.00  0.00     0.132 HD
ATOM     13  H   UNL d   1      28.355 -18.872   0.195  0.00  0.00     0.170 HD
BRANCH  11  14
ATOM     14  C   UNL d   1      31.640 -17.460  -1.336  0.00  0.00     0.157 C 
BRANCH  14  15
ATOM     15  C   UNL d   1      31.563 -17.072  -2.816  0.00  0.00     0.058 A 
ATOM     16  N   UNL d   1      31.913 -15.771  -3.065  0.00  0.00    -0.263 NA
ATOM     17  C   UNL d   1      31.904 -15.342  -4.345  0.00  0.00     0.118 A 
ATOM     18  C   UNL d   1      31.593 -16.152  -5.419  0.00  0.00     0.031 A 
ATOM     19  C   UNL d   1      31.260 -17.490  -5.188  0.00  0.00    -0.023 A 
ATOM     20  C   UNL d   1      30.957 -18.347  -6.271  0.00  0.00     0.012 A 
ATOM     21  C   UNL d   1      31.205 -17.983  -3.867  0.00  0.00     0.000 A 
ATOM     22  C   UNL d   1      30.648 -19.696  -6.083  0.00  0.00     0.001 A 
ATOM     23  C   UNL d   1      30.576 -20.200  -4.809  0.00  0.00     0.001 A 
ATOM     24  C   UNL d   1      30.780 -19.341  -3.743  0.00  0.00     0.014 A 
ENDBRANCH  14  15
ENDBRANCH  11  14
ENDBRANCH   5   8
BRANCH   7  25
ATOM     25  N   UNL d   1      24.621 -15.258  -2.378  0.00  0.00    -0.313 N 
ATOM     26  C   UNL d   1      25.360 -14.111  -2.657  0.00  0.00     0.299 C 
ATOM     27  O   UNL d   1      26.399 -13.695  -2.233  0.00  0.00    -0.254 OA
ATOM     28  N   UNL d   1      24.836 -13.312  -3.607  0.00  0.00    -0.238 NA
ATOM     29  H   UNL d   1      24.579 -13.818  -4.435  0.00  0.00     0.132 HD
ATOM     30  H   UNL d   1      23.714 -15.348  -2.821  0.00  0.00     0.170 HD
BRANCH  28  31
ATOM     31  C   UNL d   1      25.529 -12.047  -3.862  0.00  0.00     0.157 C 
BRANCH  31  32
ATOM     32  C   UNL d   1      26.225 -11.992  -5.195  0.00  0.00     0.058 A 
ATOM     33  N   UNL d   1      26.013 -10.838  -5.895  0.00  0.00    -0.263 NA
ATOM     34  C   UNL d   1      26.657 -10.703  -7.067  0.00  0.00     0.118 A 
ATOM     35  C   UNL d   1      27.540 -11.647  -7.557  0.00  0.00     0.031 A 
ATOM     36  C   UNL d   1      27.780 -12.820  -6.826  0.00  0.00    -0.023 A 
ATOM     37  C   UNL d   1      28.696 -13.797  -7.265  0.00  0.00     0.012 C 
ATOM     38  C   UNL d   1      27.079 -13.044  -5.638  0.00  0.00     0.000 A 
ATOM     39  C   UNL d   1      28.974 -14.950  -6.520  0.00  0.00     0.001 C 
ATOM     40  C   UNL d   1      28.284 -15.197  -5.361  0.00  0.00     0.001 C 
ATOM     41  C   UNL d   1      27.297 -14.306  -5.002  0.00  0.00     0.014 C 
ENDBRANCH  31  32
ENDBRANCH  28  31
ENDBRANCH   7  25
TORSDOF 6
ENDMDL
MODEL 9
REMARK VINA RESULT:    -8.862      2.755      8.516
REMARK INTER + INTRA:         -12.640
REMARK INTER:                 -10.652
REMARK INTRA:                  -1.988
REMARK CONF_INDEPENDENT:        1.790
REMARK UNBOUND:                -1.988
REMARK  6 active torsions:
REMARK  status: ('A' for Active; 'I' for Inactive)
REMARK    1  A    between atoms: C_5  and  N_6 
REMARK       I    between atoms: N_6  and  C_7 
REMARK       I    between atoms: C_7  and  N_9 
REMARK    2  A    between atoms: N_9  and  C_10 
REMARK    3  A    between atoms: C_10  and  C_11 
REMARK    4  A    between atoms: C_22  and  N_23 
REMARK       I    between atoms: N_23  and  C_24 
REMARK       I    between atoms: C_24  and  N_26 
REMARK    5  A    between atoms: N_26  and  C_27 
REMARK    6  A    between atoms: C_27  and  C_28 
ROOT
ATOM      1  C   UNL d   1      24.982  -5.751  -2.246  0.00  0.00     0.050 C 
ATOM      2  C   UNL d   1      25.644  -6.696  -1.316  0.00  0.00    -0.035 A 
ATOM      3  C   UNL d   1      26.126  -6.130  -0.130  0.00  0.00     0.011 A 
ATOM      4  C   UNL d   1      26.781  -6.902   0.824  0.00  0.00     0.030 A 
ATOM      5  C   UNL d   1      26.955  -8.272   0.592  0.00  0.00     0.038 A 
ATOM      6  C   UNL d   1      26.447  -8.825  -0.606  0.00  0.00     0.059 A 
ATOM      7  C   UNL d   1      25.790  -8.061  -1.586  0.00  0.00     0.044 A 
ENDROOT
BRANCH   5   8
ATOM      8  N   UNL d   1      27.639  -9.066   1.557  0.00  0.00    -0.314 N 
ATOM      9  C   UNL d   1      27.251  -9.208   2.889  0.00  0.00     0.299 C 
ATOM     10  O   UNL d   1      26.280  -8.710   3.440  0.00  0.00    -0.254 OA
ATOM     11  N   UNL d   1      28.079 -10.037   3.586  0.00  0.00    -0.238 NA
ATOM     12  H   UNL d   1      28.253 -10.860   3.043  0.00  0.00     0.132 HD
ATOM     13  H   UNL d   1      28.496  -9.515   1.252  0.00  0.00     0.170 HD
BRANCH  11  14
ATOM     14  C   UNL d   1      27.881 -10.350   5.000  0.00  0.00     0.157 C 
BRANCH  14  15
ATOM     15  C   UNL d   1      28.156 -11.806   5.390  0.00  0.00     0.058 A 
ATOM     16  N   UNL d   1      28.105 -12.680   4.335  0.00  0.00    -0.263 NA
ATOM     17  C   UNL d   1      28.362 -13.983   4.573  0.00  0.00     0.118 A 
ATOM     18  C   UNL d   1      28.707 -14.478   5.816  0.00  0.00     0.031 A 
ATOM     19  C   UNL d   1      28.791 -13.599   6.899  0.00  0.00    -0.023 A 
ATOM     20  C   UNL d   1      29.161 -14.075   8.177  0.00  0.00     0.012 A 
ATOM     21  C   UNL d   1      28.486 -12.233   6.721  0.00  0.00     0.000 A 
ATOM     22  C   UNL d   1      29.284 -13.224   9.278  0.00  0.00     0.001 A 
ATOM     23  C   UNL d   1      28.983 -11.893   9.137  0.00  0.00     0.001 A 
ATOM     24  C   UNL d   1      28.531 -11.441   7.909  0.00  0.00     0.014 A 
ENDBRANCH  14  15
ENDBRANCH  11  14
ENDBRANCH   5   8
BRANCH   7  25
ATOM     25  N   UNL d   1      25.337  -8.721  -2.780  0.00  0.00    -0.313 N 
ATOM     26  C   UNL d   1      26.040  -9.639  -3.553  0.00  0.00     0.299 C 
ATOM     27  O   UNL d   1      27.146 -10.092  -3.466  0.00  0.00    -0.254 OA
ATOM     28  N   UNL d   1      25.355 -10.155  -4.593  0.00  0.00    -0.238 NA
ATOM     29  H   UNL d   1      24.447 -10.490  -4.325  0.00  0.00     0.132 HD
ATOM     30  H   UNL d   1      24.422  -8.435  -3.112  0.00  0.00     0.170 HD
BRANCH  28  31
ATOM     31  C   UNL d   1      26.090 -11.051  -5.490  0.00  0.00     0.157 C 
BRANCH  31  32
ATOM     32  C   UNL d   1      26.192 -12.466  -4.987  0.00  0.00     0.058 A 
ATOM     33  N   UNL d   1      25.155 -12.856  -4.187  0.00  0.00    -0.263 NA
ATOM     34  C   UNL d   1      25.156 -14.128  -3.756  0.00  0.00     0.118 A 
ATOM     35  C   UNL d   1      26.122 -15.049  -4.120  0.00  0.00     0.031 A 
ATOM     36  C   UNL d   1      27.172 -14.656  -4.964  0.00  0.00    -0.023 A 
ATOM     37  C   UNL d   1      28.162 -15.564  -5.392  0.00  0.00     0.012 C 
ATOM     38  C   UNL d   1      27.259 -13.325  -5.380  0.00  0.00     0.000 A 
ATOM     39  C   UNL d   1      29.189 -15.192  -6.269  0.00  0.00     0.001 C 
ATOM     40  C   UNL d   1      29.301 -13.887  -6.675  0.00  0.00     0.001 C 
ATOM     41  C   UNL d   1      28.410 -12.975  -6.151  0.00  0.00     0.014 C 
ENDBRANCH  31  32
ENDBRANCH  28  31
ENDBRANCH   7  25
TORSDOF 6
ENDMDL
