MODEL 1
REMARK VINA RESULT:   -26.718      0.000      0.000
REMARK INTER + INTRA:         -32.660
REMARK INTER:                 -30.298
REMARK INTRA:                  -2.362
REMARK CONF_INDEPENDENT:        3.580
REMARK UNBOUND:                -2.362
REMARK  12 active torsions:
REMARK  status: ('A' for Active; 'I' for Inactive)
REMARK    1  A    between atoms: O_2  and  C_3 
REMARK    2  A    between atoms: C_3  and  C_5 
REMARK    3  A    between atoms: C_10  and  N_11 
REMARK    4  A    between atoms: N_11  and  C_12 
REMARK    5  A    between atoms: C_12  and  N_14 
REMARK    6  A    between atoms: N_14  and  C_15 
REMARK    7  A    between atoms: N_14  and  C_19 
REMARK    8  A    between atoms: C_15  and  C_16 
REMARK    9  A    between atoms: C_16  and  C_17 
REMARK   10  A    between atoms: C_17  and  O_18 
REMARK   11  A    between atoms: C_19  and  C_20 
REMARK   12  A    between atoms: C_24  and  O_25 
ROOT
ATOM      1  N   UNL d   1      24.160 -17.036  -0.836  0.00  0.00    -0.354 N 
ENDROOT
BRANCH   1   2
ATOM      2  C   UNL d   1      24.591 -15.996  -1.721  0.00  0.00     0.174 C 
ATOM      3  S   UNL d   1      23.541 -14.865  -2.391  0.00  0.00    -0.041 SA
BRANCH   2   4
ATOM      4  N   UNL d   1      25.925 -16.158  -2.146  0.00  0.00    -0.332 N 
ATOM      5  H   UNL d   1      26.303 -17.068  -2.038  0.00  0.00     0.168 HD
BRANCH   4   6
ATOM      6  C   UNL d   1      26.663 -15.582  -3.188  0.00  0.00     0.050 A 
ATOM      7  C   UNL d   1      25.925 -15.145  -4.330  0.00  0.00     0.030 A 
ATOM      8  C   UNL d   1      26.568 -14.538  -5.405  0.00  0.00     0.002 A 
ATOM      9  C   UNL d   1      27.946 -14.374  -5.341  0.00  0.00     0.001 A 
ATOM     10  C   UNL d   1      28.676 -14.879  -4.252  0.00  0.00     0.020 A 
ATOM     11  C   UNL d   1      28.046 -15.500  -3.168  0.00  0.00     0.066 A 
BRANCH  11  12
ATOM     12  C   UNL d   1      28.867 -15.914  -1.998  0.00  0.00     0.295 C 
ATOM     13  O   UNL d   1      28.986 -15.190  -1.031  0.00  0.00    -0.259 OA
BRANCH  12  14
ATOM     14  O   UNL d   1      29.391 -17.170  -2.121  0.00  0.00    -0.322 OA
ATOM     15  C   UNL d   1      30.437 -17.474  -1.183  0.00  0.00     0.213 C 
ENDBRANCH  12  14
ENDBRANCH  11  12
ENDBRANCH   4   6
ENDBRANCH   2   4
ENDBRANCH   1   2
BRANCH   1  16
ATOM     16  C   UNL d   1      25.011 -17.278   0.299  0.00  0.00     0.127 C 
BRANCH  16  17
ATOM     17  C   UNL d   1      25.810 -18.536   0.383  0.00  0.00     0.046 C 
BRANCH  17  18
ATOM     18  C   UNL d   1      27.266 -18.381   0.651  0.00  0.00     0.165 C 
BRANCH  18  19
ATOM     19  O   UNL d   1      27.690 -17.308  -0.187  0.00  0.00    -0.401 OA
ATOM     20  H   UNL d   1      28.654 -17.211  -0.073  0.00  0.00     0.209 HD
ENDBRANCH  18  19
ENDBRANCH  17  18
ENDBRANCH  16  17
ENDBRANCH   1  16
BRANCH   1  21
ATOM     21  C   UNL d   1      23.391 -18.255  -1.298  0.00  0.00     0.169 C 
BRANCH  21  22
ATOM     22  C   UNL d   1      22.029 -18.657  -0.714  0.00  0.00     0.023 C 
ATOM     23  C   UNL d   1      21.946 -19.633   0.223  0.00  0.00     0.027 C 
ATOM     24  C   UNL d   1      20.641 -19.983   0.806  0.00  0.00    -0.011 A 
ATOM     25  C   UNL d   1      20.490 -20.395   2.124  0.00  0.00     0.050 A 
ATOM     26  C   UNL d   1      19.512 -19.840  -0.011  0.00  0.00     0.025 A 
ATOM     27  C   UNL d   1      19.215 -20.703   2.608  0.00  0.00     0.069 A 
ATOM     28  C   UNL d   1      18.089 -20.500   1.798  0.00  0.00     0.038 A 
ATOM     29  C   UNL d   1      18.232 -20.088   0.470  0.00  0.00     0.027 A 
ATOM     30  N   UNL d   1      19.738 -19.245  -1.269  0.00  0.00    -0.224 NA
ATOM     31  C   UNL d   1      20.653 -18.207  -1.164  0.00  0.00     0.233 C 
ATOM     32  H   UNL d   1      18.916 -19.012  -1.809  0.00  0.00     0.137 HD
ATOM     33  O   UNL d   1      20.261 -17.069  -1.288  0.00  0.00    -0.274 OA
BRANCH  27  34
ATOM     34  O   UNL d   1      19.189 -21.208   3.880  0.00  0.00    -0.356 OA
ATOM     35  C   UNL d   1      19.881 -20.447   4.864  0.00  0.00     0.210 C 
ENDBRANCH  27  34
ENDBRANCH  21  22
ENDBRANCH   1  21
TORSDOF 12
ENDMDL
MODEL 2
REMARK VINA RESULT:   -26.492      1.986      2.705
REMARK INTER + INTRA:         -32.743
REMARK INTER:                 -30.071
REMARK INTRA:                  -2.672
REMARK CONF_INDEPENDENT:        3.580
REMARK UNBOUND:                -2.672
REMARK  12 active torsions:
REMARK  status: ('A' for Active; 'I' for Inactive)
REMARK    1  A    between atoms: O_2  and  C_3 
REMARK    2  A    between atoms: C_3  and  C_5 
REMARK    3  A    between atoms: C_10  and  N_11 
REMARK    4  A    between atoms: N_11  and  C_12 
REMARK    5  A    between atoms: C_12  and  N_14 
REMARK    6  A    between atoms: N_14  and  C_15 
REMARK    7  A    between atoms: N_14  and  C_19 
REMARK    8  A    between atoms: C_15  and  C_16 
REMARK    9  A    between atoms: C_16  and  C_17 
REMARK   10  A    between atoms: C_17  and  O_18 
REMARK   11  A    between atoms: C_19  and  C_20 
REMARK   12  A    between atoms: C_24  and  O_25 
ROOT
ATOM      1  N   UNL d   1      24.307 -17.189  -0.487  0.00  0.00    -0.354 N 
ENDROOT
BRANCH   1   2
ATOM      2  C   UNL d   1      24.814 -15.945  -0.982  0.00  0.00     0.174 C 
ATOM      3  S   UNL d   1      24.261 -15.224  -2.398  0.00  0.00    -0.041 SA
BRANCH   2   4
ATOM      4  N   UNL d   1      25.965 -15.512  -0.292  0.00  0.00    -0.332 N 
ATOM      5  H   UNL d   1      26.710 -16.164  -0.247  0.00  0.00     0.168 HD
BRANCH   4   6
ATOM      6  C   UNL d   1      26.575 -14.257  -0.164  0.00  0.00     0.050 A 
ATOM      7  C   UNL d   1      26.412 -13.590   1.089  0.00  0.00     0.030 A 
ATOM      8  C   UNL d   1      27.002 -12.351   1.319  0.00  0.00     0.002 A 
ATOM      9  C   UNL d   1      27.747 -11.777   0.298  0.00  0.00     0.001 A 
ATOM     10  C   UNL d   1      27.836 -12.399  -0.959  0.00  0.00     0.020 A 
ATOM     11  C   UNL d   1      27.241 -13.639  -1.210  0.00  0.00     0.066 A 
BRANCH  11  12
ATOM     12  C   UNL d   1      27.465 -14.293  -2.527  0.00  0.00     0.295 C 
ATOM     13  O   UNL d   1      27.510 -15.502  -2.626  0.00  0.00    -0.259 OA
BRANCH  12  14
ATOM     14  O   UNL d   1      27.550 -13.407  -3.564  0.00  0.00    -0.322 OA
ATOM     15  C   UNL d   1      26.755 -13.753  -4.711  0.00  0.00     0.213 C 
ENDBRANCH  12  14
ENDBRANCH  11  12
ENDBRANCH   4   6
ENDBRANCH   2   4
ENDBRANCH   1   2
BRANCH   1  16
ATOM     16  C   UNL d   1      25.196 -17.924   0.375  0.00  0.00     0.127 C 
BRANCH  16  17
ATOM     17  C   UNL d   1      26.407 -18.590  -0.189  0.00  0.00     0.046 C 
BRANCH  17  18
ATOM     18  C   UNL d   1      27.724 -18.055   0.253  0.00  0.00     0.165 C 
BRANCH  18  19
ATOM     19  O   UNL d   1      28.103 -17.114  -0.749  0.00  0.00    -0.401 OA
ATOM     20  H   UNL d   1      27.698 -17.401  -1.589  0.00  0.00     0.209 HD
ENDBRANCH  18  19
ENDBRANCH  17  18
ENDBRANCH  16  17
ENDBRANCH   1  16
BRANCH   1  21
ATOM     21  C   UNL d   1      23.344 -18.062  -1.264  0.00  0.00     0.169 C 
BRANCH  21  22
ATOM     22  C   UNL d   1      22.001 -18.540  -0.694  0.00  0.00     0.023 C 
ATOM     23  C   UNL d   1      21.962 -19.525   0.235  0.00  0.00     0.027 C 
ATOM     24  C   UNL d   1      20.674 -19.948   0.806  0.00  0.00    -0.011 A 
ATOM     25  C   UNL d   1      20.535 -20.378   2.120  0.00  0.00     0.050 A 
ATOM     26  C   UNL d   1      19.545 -19.860  -0.019  0.00  0.00     0.025 A 
ATOM     27  C   UNL d   1      19.274 -20.756   2.592  0.00  0.00     0.069 A 
ATOM     28  C   UNL d   1      18.146 -20.608   1.774  0.00  0.00     0.038 A 
ATOM     29  C   UNL d   1      18.276 -20.178   0.451  0.00  0.00     0.027 A 
ATOM     30  N   UNL d   1      19.748 -19.244  -1.270  0.00  0.00    -0.224 NA
ATOM     31  C   UNL d   1      20.606 -18.160  -1.151  0.00  0.00     0.233 C 
ATOM     32  H   UNL d   1      18.919 -19.051  -1.815  0.00  0.00     0.137 HD
ATOM     33  O   UNL d   1      20.155 -17.043  -1.270  0.00  0.00    -0.274 OA
BRANCH  27  34
ATOM     34  O   UNL d   1      19.266 -21.271   3.859  0.00  0.00    -0.356 OA
ATOM     35  C   UNL d   1      19.847 -20.450   4.868  0.00  0.00     0.210 C 
ENDBRANCH  27  34
ENDBRANCH  21  22
ENDBRANCH   1  21
TORSDOF 12
ENDMDL
MODEL 3
REMARK VINA RESULT:   -25.899      1.699      2.201
REMARK INTER + INTRA:         -32.276
REMARK INTER:                 -29.478
REMARK INTRA:                  -2.798
REMARK CONF_INDEPENDENT:        3.580
REMARK UNBOUND:                -2.798
REMARK  12 active torsions:
REMARK  status: ('A' for Active; 'I' for Inactive)
REMARK    1  A    between atoms: O_2  and  C_3 
REMARK    2  A    between atoms: C_3  and  C_5 
REMARK    3  A    between atoms: C_10  and  N_11 
REMARK    4  A    between atoms: N_11  and  C_12 
REMARK    5  A    between atoms: C_12  and  N_14 
REMARK    6  A    between atoms: N_14  and  C_15 
REMARK    7  A    between atoms: N_14  and  C_19 
REMARK    8  A    between atoms: C_15  and  C_16 
REMARK    9  A    between atoms: C_16  and  C_17 
REMARK   10  A    between atoms: C_17  and  O_18 
REMARK   11  A    between atoms: C_19  and  C_20 
REMARK   12  A    between atoms: C_24  and  O_25 
ROOT
ATOM      1  N   UNL d   1      24.301 -17.127  -0.499  0.00  0.00    -0.354 N 
ENDROOT
BRANCH   1   2
ATOM      2  C   UNL d   1      24.710 -15.868  -1.047  0.00  0.00     0.174 C 
ATOM      3  S   UNL d   1      23.927 -15.130  -2.340  0.00  0.00    -0.041 SA
BRANCH   2   4
ATOM      4  N   UNL d   1      25.954 -15.433  -0.546  0.00  0.00    -0.332 N 
ATOM      5  H   UNL d   1      26.267 -15.884   0.279  0.00  0.00     0.168 HD
BRANCH   4   6
ATOM      6  C   UNL d   1      27.122 -14.983  -1.176  0.00  0.00     0.050 A 
ATOM      7  C   UNL d   1      27.252 -15.273  -2.569  0.00  0.00     0.030 A 
ATOM      8  C   UNL d   1      28.366 -14.845  -3.285  0.00  0.00     0.002 A 
ATOM      9  C   UNL d   1      29.349 -14.135  -2.610  0.00  0.00     0.001 A 
ATOM     10  C   UNL d   1      29.255 -13.923  -1.224  0.00  0.00     0.020 A 
ATOM     11  C   UNL d   1      28.147 -14.356  -0.488  0.00  0.00     0.066 A 
BRANCH  11  12
ATOM     12  C   UNL d   1      28.060 -14.003   0.955  0.00  0.00     0.295 C 
ATOM     13  O   UNL d   1      27.572 -14.772   1.758  0.00  0.00    -0.259 OA
BRANCH  12  14
ATOM     14  O   UNL d   1      28.622 -12.794   1.253  0.00  0.00    -0.322 OA
ATOM     15  C   UNL d   1      27.677 -11.758   1.570  0.00  0.00     0.213 C 
ENDBRANCH  12  14
ENDBRANCH  11  12
ENDBRANCH   4   6
ENDBRANCH   2   4
ENDBRANCH   1   2
BRANCH   1  16
ATOM     16  C   UNL d   1      25.246 -17.755   0.386  0.00  0.00     0.127 C 
BRANCH  16  17
ATOM     17  C   UNL d   1      26.356 -18.586  -0.168  0.00  0.00     0.046 C 
BRANCH  17  18
ATOM     18  C   UNL d   1      27.739 -18.097   0.083  0.00  0.00     0.165 C 
BRANCH  18  19
ATOM     19  O   UNL d   1      27.598 -17.043   1.034  0.00  0.00    -0.401 OA
ATOM     20  H   UNL d   1      28.493 -16.798   1.333  0.00  0.00     0.209 HD
ENDBRANCH  18  19
ENDBRANCH  17  18
ENDBRANCH  16  17
ENDBRANCH   1  16
BRANCH   1  21
ATOM     21  C   UNL d   1      23.406 -18.102  -1.234  0.00  0.00     0.169 C 
BRANCH  21  22
ATOM     22  C   UNL d   1      22.062 -18.590  -0.675  0.00  0.00     0.023 C 
ATOM     23  C   UNL d   1      22.024 -19.574   0.255  0.00  0.00     0.027 C 
ATOM     24  C   UNL d   1      20.734 -20.006   0.815  0.00  0.00    -0.011 A 
ATOM     25  C   UNL d   1      20.586 -20.436   2.128  0.00  0.00     0.050 A 
ATOM     26  C   UNL d   1      19.611 -19.929  -0.020  0.00  0.00     0.025 A 
ATOM     27  C   UNL d   1      19.325 -20.823   2.590  0.00  0.00     0.069 A 
ATOM     28  C   UNL d   1      18.203 -20.685   1.762  0.00  0.00     0.038 A 
ATOM     29  C   UNL d   1      18.341 -20.257   0.439  0.00  0.00     0.027 A 
ATOM     30  N   UNL d   1      19.820 -19.313  -1.270  0.00  0.00    -0.224 NA
ATOM     31  C   UNL d   1      20.668 -18.222  -1.146  0.00  0.00     0.233 C 
ATOM     32  H   UNL d   1      18.994 -19.128  -1.822  0.00  0.00     0.137 HD
ATOM     33  O   UNL d   1      20.209 -17.109  -1.270  0.00  0.00    -0.274 OA
BRANCH  27  34
ATOM     34  O   UNL d   1      19.310 -21.336   3.858  0.00  0.00    -0.356 OA
ATOM     35  C   UNL d   1      19.729 -20.451   4.892  0.00  0.00     0.210 C 
ENDBRANCH  27  34
ENDBRANCH  21  22
ENDBRANCH   1  21
TORSDOF 12
ENDMDL
MODEL 4
REMARK VINA RESULT:   -25.802      2.119      3.352
REMARK INTER + INTRA:         -31.253
REMARK INTER:                 -29.381
REMARK INTRA:                  -1.872
REMARK CONF_INDEPENDENT:        3.580
REMARK UNBOUND:                -1.872
REMARK  12 active torsions:
REMARK  status: ('A' for Active; 'I' for Inactive)
REMARK    1  A    between atoms: O_2  and  C_3 
REMARK    2  A    between atoms: C_3  and  C_5 
REMARK    3  A    between atoms: C_10  and  N_11 
REMARK    4  A    between atoms: N_11  and  C_12 
REMARK    5  A    between atoms: C_12  and  N_14 
REMARK    6  A    between atoms: N_14  and  C_15 
REMARK    7  A    between atoms: N_14  and  C_19 
REMARK    8  A    between atoms: C_15  and  C_16 
REMARK    9  A    between atoms: C_16  and  C_17 
REMARK   10  A    between atoms: C_17  and  O_18 
REMARK   11  A    between atoms: C_19  and  C_20 
REMARK   12  A    between atoms: C_24  and  O_25 
ROOT
ATOM      1  N   UNL d   1      24.139 -17.192  -1.294  0.00  0.00    -0.354 N 
ENDROOT
BRANCH   1   2
ATOM      2  C   UNL d   1      25.256 -17.206  -0.397  0.00  0.00     0.174 C 
ATOM      3  S   UNL d   1      25.325 -18.186   0.968  0.00  0.00    -0.041 SA
BRANCH   2   4
ATOM      4  N   UNL d   1      26.171 -16.164  -0.649  0.00  0.00    -0.332 N 
ATOM      5  H   UNL d   1      25.830 -15.246  -0.494  0.00  0.00     0.168 HD
BRANCH   4   6
ATOM      6  C   UNL d   1      27.560 -16.065  -0.489  0.00  0.00     0.050 A 
ATOM      7  C   UNL d   1      28.311 -17.268  -0.661  0.00  0.00     0.030 A 
ATOM      8  C   UNL d   1      29.698 -17.264  -0.546  0.00  0.00     0.002 A 
ATOM      9  C   UNL d   1      30.331 -16.063  -0.256  0.00  0.00     0.001 A 
ATOM     10  C   UNL d   1      29.581 -14.901  -0.008  0.00  0.00     0.020 A 
ATOM     11  C   UNL d   1      28.186 -14.890  -0.109  0.00  0.00     0.066 A 
BRANCH  11  12
ATOM     12  C   UNL d   1      27.462 -13.601   0.059  0.00  0.00     0.295 C 
ATOM     13  O   UNL d   1      27.842 -12.593  -0.500  0.00  0.00    -0.259 OA
BRANCH  12  14
ATOM     14  O   UNL d   1      26.341 -13.706   0.833  0.00  0.00    -0.322 OA
ATOM     15  C   UNL d   1      26.436 -13.059   2.113  0.00  0.00     0.213 C 
ENDBRANCH  12  14
ENDBRANCH  11  12
ENDBRANCH   4   6
ENDBRANCH   2   4
ENDBRANCH   1   2
BRANCH   1  16
ATOM     16  C   UNL d   1      23.383 -15.967  -1.325  0.00  0.00     0.127 C 
BRANCH  16  17
ATOM     17  C   UNL d   1      23.692 -14.920  -2.344  0.00  0.00     0.046 C 
BRANCH  17  18
ATOM     18  C   UNL d   1      25.013 -15.024  -3.021  0.00  0.00     0.165 C 
BRANCH  18  19
ATOM     19  O   UNL d   1      24.810 -14.481  -4.325  0.00  0.00    -0.401 OA
ATOM     20  H   UNL d   1      25.688 -14.274  -4.695  0.00  0.00     0.209 HD
ENDBRANCH  18  19
ENDBRANCH  17  18
ENDBRANCH  16  17
ENDBRANCH   1  16
BRANCH   1  21
ATOM     21  C   UNL d   1      23.326 -18.423  -1.630  0.00  0.00     0.169 C 
BRANCH  21  22
ATOM     22  C   UNL d   1      22.006 -18.773  -0.927  0.00  0.00     0.023 C 
ATOM     23  C   UNL d   1      21.961 -19.773  -0.013  0.00  0.00     0.027 C 
ATOM     24  C   UNL d   1      20.702 -20.074   0.686  0.00  0.00    -0.011 A 
ATOM     25  C   UNL d   1      20.655 -20.520   2.000  0.00  0.00     0.050 A 
ATOM     26  C   UNL d   1      19.508 -19.847  -0.013  0.00  0.00     0.025 A 
ATOM     27  C   UNL d   1      19.418 -20.777   2.598  0.00  0.00     0.069 A 
ATOM     28  C   UNL d   1      18.232 -20.491   1.908  0.00  0.00     0.038 A 
ATOM     29  C   UNL d   1      18.269 -20.044   0.584  0.00  0.00     0.027 A 
ATOM     30  N   UNL d   1      19.644 -19.224  -1.270  0.00  0.00    -0.224 NA
ATOM     31  C   UNL d   1      20.620 -18.239  -1.228  0.00  0.00     0.233 C 
ATOM     32  H   UNL d   1      18.787 -18.932  -1.721  0.00  0.00     0.137 HD
ATOM     33  O   UNL d   1      20.280 -17.079  -1.282  0.00  0.00    -0.274 OA
BRANCH  27  34
ATOM     34  O   UNL d   1      19.488 -21.321   3.852  0.00  0.00    -0.356 OA
ATOM     35  C   UNL d   1      19.901 -20.438   4.890  0.00  0.00     0.210 C 
ENDBRANCH  27  34
ENDBRANCH  21  22
ENDBRANCH   1  21
TORSDOF 12
ENDMDL
MODEL 5
REMARK VINA RESULT:   -24.617      1.867      3.071
REMARK INTER + INTRA:         -31.667
REMARK INTER:                 -28.196
REMARK INTRA:                  -3.471
REMARK CONF_INDEPENDENT:        3.580
REMARK UNBOUND:                -3.471
REMARK  12 active torsions:
REMARK  status: ('A' for Active; 'I' for Inactive)
REMARK    1  A    between atoms: O_2  and  C_3 
REMARK    2  A    between atoms: C_3  and  C_5 
REMARK    3  A    between atoms: C_10  and  N_11 
REMARK    4  A    between atoms: N_11  and  C_12 
REMARK    5  A    between atoms: C_12  and  N_14 
REMARK    6  A    between atoms: N_14  and  C_15 
REMARK    7  A    between atoms: N_14  and  C_19 
REMARK    8  A    between atoms: C_15  and  C_16 
REMARK    9  A    between atoms: C_16  and  C_17 
REMARK   10  A    between atoms: C_17  and  O_18 
REMARK   11  A    between atoms: C_19  and  C_20 
REMARK   12  A    between atoms: C_24  and  O_25 
ROOT
ATOM      1  N   UNL d   1      24.236 -17.427  -1.347  0.00  0.00    -0.354 N 
ENDROOT
BRANCH   1   2
ATOM      2  C   UNL d   1      25.388 -17.593  -0.512  0.00  0.00     0.174 C 
ATOM      3  S   UNL d   1      25.322 -18.289   1.017  0.00  0.00    -0.041 SA
BRANCH   2   4
ATOM      4  N   UNL d   1      26.522 -16.914  -1.005  0.00  0.00    -0.332 N 
ATOM      5  H   UNL d   1      26.539 -16.760  -1.984  0.00  0.00     0.168 HD
BRANCH   4   6
ATOM      6  C   UNL d   1      27.327 -15.902  -0.466  0.00  0.00     0.050 A 
ATOM      7  C   UNL d   1      27.249 -15.706   0.948  0.00  0.00     0.030 A 
ATOM      8  C   UNL d   1      28.029 -14.741   1.577  0.00  0.00     0.002 A 
ATOM      9  C   UNL d   1      28.880 -13.971   0.796  0.00  0.00     0.001 A 
ATOM     10  C   UNL d   1      28.893 -14.112  -0.602  0.00  0.00     0.020 A 
ATOM     11  C   UNL d   1      28.107 -15.070  -1.251  0.00  0.00     0.066 A 
BRANCH  11  12
ATOM     12  C   UNL d   1      28.249 -15.241  -2.722  0.00  0.00     0.295 C 
ATOM     13  O   UNL d   1      28.283 -16.347  -3.223  0.00  0.00    -0.259 OA
BRANCH  12  14
ATOM     14  O   UNL d   1      28.274 -14.059  -3.406  0.00  0.00    -0.322 OA
ATOM     15  C   UNL d   1      28.936 -14.119  -4.680  0.00  0.00     0.213 C 
ENDBRANCH  12  14
ENDBRANCH  11  12
ENDBRANCH   4   6
ENDBRANCH   2   4
ENDBRANCH   1   2
BRANCH   1  16
ATOM     16  C   UNL d   1      23.580 -16.149  -1.253  0.00  0.00     0.127 C 
BRANCH  16  17
ATOM     17  C   UNL d   1      23.802 -15.112  -2.304  0.00  0.00     0.046 C 
BRANCH  17  18
ATOM     18  C   UNL d   1      25.215 -14.729  -2.570  0.00  0.00     0.165 C 
BRANCH  18  19
ATOM     19  O   UNL d   1      25.655 -15.609  -3.603  0.00  0.00    -0.401 OA
ATOM     20  H   UNL d   1      26.496 -15.257  -3.948  0.00  0.00     0.209 HD
ENDBRANCH  18  19
ENDBRANCH  17  18
ENDBRANCH  16  17
ENDBRANCH   1  16
BRANCH   1  21
ATOM     21  C   UNL d   1      23.313 -18.564  -1.726  0.00  0.00     0.169 C 
BRANCH  21  22
ATOM     22  C   UNL d   1      21.998 -18.857  -0.989  0.00  0.00     0.023 C 
ATOM     23  C   UNL d   1      21.932 -19.857  -0.077  0.00  0.00     0.027 C 
ATOM     24  C   UNL d   1      20.680 -20.104   0.655  0.00  0.00    -0.011 A 
ATOM     25  C   UNL d   1      20.649 -20.553   1.968  0.00  0.00     0.050 A 
ATOM     26  C   UNL d   1      19.480 -19.822  -0.011  0.00  0.00     0.025 A 
ATOM     27  C   UNL d   1      19.418 -20.756   2.600  0.00  0.00     0.069 A 
ATOM     28  C   UNL d   1      18.228 -20.415   1.941  0.00  0.00     0.038 A 
ATOM     29  C   UNL d   1      18.249 -19.965   0.619  0.00  0.00     0.027 A 
ATOM     30  N   UNL d   1      19.610 -19.201  -1.270  0.00  0.00    -0.224 NA
ATOM     31  C   UNL d   1      20.629 -18.260  -1.251  0.00  0.00     0.233 C 
ATOM     32  H   UNL d   1      18.755 -18.869  -1.696  0.00  0.00     0.137 HD
ATOM     33  O   UNL d   1      20.341 -17.086  -1.293  0.00  0.00    -0.274 OA
BRANCH  27  34
ATOM     34  O   UNL d   1      19.497 -21.307   3.849  0.00  0.00    -0.356 OA
ATOM     35  C   UNL d   1      19.904 -20.427   4.892  0.00  0.00     0.210 C 
ENDBRANCH  27  34
ENDBRANCH  21  22
ENDBRANCH   1  21
TORSDOF 12
ENDMDL
