MODEL 1
REMARK VINA RESULT:    -7.308      0.000      0.000
REMARK INTER + INTRA:         -11.614
REMARK INTER:                 -10.291
REMARK INTRA:                  -1.324
REMARK CONF_INDEPENDENT:        2.983
REMARK UNBOUND:                -1.324
REMARK  10 active torsions:
REMARK  status: ('A' for Active; 'I' for Inactive)
REMARK    1  A    between atoms: C_2  and  C_3 
REMARK    2  A    between atoms: C_3  and  C_4 
REMARK    3  A    between atoms: C_4  and  N_5 
REMARK    4  A    between atoms: N_5  and  C_6 
REMARK    5  A    between atoms: C_11  and  C_12 
REMARK    6  A    between atoms: C_12  and  O_14 
REMARK    7  A    between atoms: O_14  and  C_15 
REMARK    8  A    between atoms: C_15  and  C_16 
REMARK       I    between atoms: C_16  and  N_18 
REMARK       I    between atoms: N_18  and  C_19 
REMARK       I    between atoms: C_19  and  N_21 
REMARK    9  A    between atoms: N_21  and  C_22 
REMARK   10  A    between atoms: C_22  and  C_23 
ROOT
ATOM      1  C   UNL d   1      26.661 -16.351  -1.398  0.00  0.00     0.296 C 
ATOM      2  O   UNL d   1      27.734 -16.934  -1.283  0.00  0.00    -0.259 OA
ENDROOT
BRANCH   1   3
ATOM      3  C   UNL d   1      26.393 -15.426  -2.595  0.00  0.00     0.065 A 
ATOM      4  C   UNL d   1      25.144 -14.744  -2.583  0.00  0.00     0.020 A 
ATOM      5  C   UNL d   1      24.762 -13.841  -3.592  0.00  0.00     0.001 A 
ATOM      6  C   UNL d   1      25.619 -13.592  -4.650  0.00  0.00     0.002 A 
ATOM      7  C   UNL d   1      26.823 -14.293  -4.718  0.00  0.00     0.030 A 
ATOM      8  C   UNL d   1      27.243 -15.198  -3.702  0.00  0.00     0.044 A 
BRANCH   8   9
ATOM      9  N   UNL d   1      28.476 -15.785  -3.919  0.00  0.00    -0.389 N 
ATOM     10  H   UNL d   1      28.839 -16.395  -3.192  0.00  0.00     0.159 HD
BRANCH   9  11
ATOM     11  C   UNL d   1      29.194 -15.663  -5.163  0.00  0.00     0.119 C 
BRANCH  11  12
ATOM     12  C   UNL d   1      30.568 -16.280  -5.065  0.00  0.00     0.019 C 
BRANCH  12  13
ATOM     13  C   UNL d   1      30.464 -17.779  -5.349  0.00  0.00    -0.003 C 
ATOM     14  C   UNL d   1      30.774 -18.015  -6.805  0.00  0.00     0.005 C 
ENDBRANCH  12  13
ENDBRANCH  11  12
ENDBRANCH   9  11
ENDBRANCH   8   9
ENDBRANCH   1   3
BRANCH   1  15
ATOM     15  O   UNL d   1      25.651 -16.480  -0.483  0.00  0.00    -0.308 OA
BRANCH  15  16
ATOM     16  C   UNL d   1      25.223 -17.811   0.011  0.00  0.00     0.282 C 
BRANCH  16  17
ATOM     17  C   UNL d   1      23.877 -18.340  -0.663  0.00  0.00     0.249 C 
ATOM     18  O   UNL d   1      23.763 -18.234  -1.883  0.00  0.00    -0.271 OA
ATOM     19  N   UNL d   1      22.864 -18.952   0.116  0.00  0.00    -0.278 N 
ATOM     20  C   UNL d   1      21.602 -19.281  -0.408  0.00  0.00     0.322 C 
ATOM     21  H   UNL d   1      23.108 -19.326   1.013  0.00  0.00     0.173 HD
ATOM     22  O   UNL d   1      21.180 -18.946  -1.490  0.00  0.00    -0.247 OA
ATOM     23  N   UNL d   1      20.743 -20.009   0.406  0.00  0.00    -0.343 N 
ATOM     24  H   UNL d   1      21.128 -20.677   1.052  0.00  0.00     0.164 HD
BRANCH  23  25
ATOM     25  C   UNL d   1      19.389 -20.305  -0.145  0.00  0.00     0.124 C 
BRANCH  25  26
ATOM     26  C   UNL d   1      18.411 -20.846   0.896  0.00  0.00     0.015 C 
ATOM     27  C   UNL d   1      18.778 -20.447   2.324  0.00  0.00     0.006 C 
ENDBRANCH  25  26
ENDBRANCH  23  25
ENDBRANCH  16  17
ENDBRANCH  15  16
ENDBRANCH   1  15
TORSDOF 10
ENDMDL
MODEL 2
REMARK VINA RESULT:    -7.031      2.423      8.869
REMARK INTER + INTRA:         -11.399
REMARK INTER:                 -10.014
REMARK INTRA:                  -1.385
REMARK CONF_INDEPENDENT:        2.983
REMARK UNBOUND:                -1.385
REMARK  10 active torsions:
REMARK  status: ('A' for Active; 'I' for Inactive)
REMARK    1  A    between atoms: C_2  and  C_3 
REMARK    2  A    between atoms: C_3  and  C_4 
REMARK    3  A    between atoms: C_4  and  N_5 
REMARK    4  A    between atoms: N_5  and  C_6 
REMARK    5  A    between atoms: C_11  and  C_12 
REMARK    6  A    between atoms: C_12  and  O_14 
REMARK    7  A    between atoms: O_14  and  C_15 
REMARK    8  A    between atoms: C_15  and  C_16 
REMARK       I    between atoms: C_16  and  N_18 
REMARK       I    between atoms: N_18  and  C_19 
REMARK       I    between atoms: C_19  and  N_21 
REMARK    9  A    between atoms: N_21  and  C_22 
REMARK   10  A    between atoms: C_22  and  C_23 
ROOT
ATOM      1  C   UNL d   1      25.664 -14.893  -1.894  0.00  0.00     0.296 C 
ATOM      2  O   UNL d   1      26.515 -14.019  -1.762  0.00  0.00    -0.259 OA
ENDROOT
BRANCH   1   3
ATOM      3  C   UNL d   1      25.728 -16.186  -1.068  0.00  0.00     0.065 A 
ATOM      4  C   UNL d   1      27.021 -16.564  -0.608  0.00  0.00     0.020 A 
ATOM      5  C   UNL d   1      27.241 -17.706   0.182  0.00  0.00     0.001 A 
ATOM      6  C   UNL d   1      26.173 -18.511   0.539  0.00  0.00     0.002 A 
ATOM      7  C   UNL d   1      24.905 -18.196   0.052  0.00  0.00     0.030 A 
ATOM      8  C   UNL d   1      24.650 -17.037  -0.735  0.00  0.00     0.044 A 
BRANCH   8   9
ATOM      9  N   UNL d   1      23.329 -16.868  -1.110  0.00  0.00    -0.389 N 
ATOM     10  H   UNL d   1      23.144 -16.282  -1.919  0.00  0.00     0.159 HD
BRANCH   9  11
ATOM     11  C   UNL d   1      22.240 -17.574  -0.483  0.00  0.00     0.119 C 
BRANCH  11  12
ATOM     12  C   UNL d   1      22.067 -18.951  -1.076  0.00  0.00     0.019 C 
BRANCH  12  13
ATOM     13  C   UNL d   1      20.986 -19.700  -0.297  0.00  0.00    -0.003 C 
ATOM     14  C   UNL d   1      19.643 -19.119  -0.660  0.00  0.00     0.005 C 
ENDBRANCH  12  13
ENDBRANCH  11  12
ENDBRANCH   9  11
ENDBRANCH   8   9
ENDBRANCH   1   3
BRANCH   1  15
ATOM     15  O   UNL d   1      24.622 -14.777  -2.775  0.00  0.00    -0.308 OA
BRANCH  15  16
ATOM     16  C   UNL d   1      24.774 -14.047  -4.057  0.00  0.00     0.282 C 
BRANCH  16  17
ATOM     17  C   UNL d   1      25.907 -14.650  -5.005  0.00  0.00     0.249 C 
ATOM     18  O   UNL d   1      25.772 -15.807  -5.401  0.00  0.00    -0.271 OA
ATOM     19  N   UNL d   1      27.011 -13.862  -5.412  0.00  0.00    -0.278 N 
ATOM     20  C   UNL d   1      28.109 -14.398  -6.107  0.00  0.00     0.322 C 
ATOM     21  H   UNL d   1      26.932 -12.864  -5.366  0.00  0.00     0.173 HD
ATOM     22  O   UNL d   1      28.320 -15.575  -6.288  0.00  0.00    -0.247 OA
ATOM     23  N   UNL d   1      29.061 -13.506  -6.584  0.00  0.00    -0.343 N 
ATOM     24  H   UNL d   1      28.770 -12.590  -6.880  0.00  0.00     0.164 HD
BRANCH  23  25
ATOM     25  C   UNL d   1      30.245 -14.095  -7.273  0.00  0.00     0.124 C 
BRANCH  25  26
ATOM     26  C   UNL d   1      31.219 -14.792  -6.325  0.00  0.00     0.015 C 
ATOM     27  C   UNL d   1      31.207 -16.313  -6.470  0.00  0.00     0.006 C 
ENDBRANCH  25  26
ENDBRANCH  23  25
ENDBRANCH  16  17
ENDBRANCH  15  16
ENDBRANCH   1  15
TORSDOF 10
ENDMDL
MODEL 3
REMARK VINA RESULT:    -7.007      3.473      8.930
REMARK INTER + INTRA:         -11.728
REMARK INTER:                  -9.990
REMARK INTRA:                  -1.738
REMARK CONF_INDEPENDENT:        2.983
REMARK UNBOUND:                -1.738
REMARK  10 active torsions:
REMARK  status: ('A' for Active; 'I' for Inactive)
REMARK    1  A    between atoms: C_2  and  C_3 
REMARK    2  A    between atoms: C_3  and  C_4 
REMARK    3  A    between atoms: C_4  and  N_5 
REMARK    4  A    between atoms: N_5  and  C_6 
REMARK    5  A    between atoms: C_11  and  C_12 
REMARK    6  A    between atoms: C_12  and  O_14 
REMARK    7  A    between atoms: O_14  and  C_15 
REMARK    8  A    between atoms: C_15  and  C_16 
REMARK       I    between atoms: C_16  and  N_18 
REMARK       I    between atoms: N_18  and  C_19 
REMARK       I    between atoms: C_19  and  N_21 
REMARK    9  A    between atoms: N_21  and  C_22 
REMARK   10  A    between atoms: C_22  and  C_23 
ROOT
ATOM      1  C   UNL d   1      25.179 -15.181  -3.051  0.00  0.00     0.296 C 
ATOM      2  O   UNL d   1      24.510 -14.180  -2.817  0.00  0.00    -0.259 OA
ENDROOT
BRANCH   1   3
ATOM      3  C   UNL d   1      25.669 -16.084  -1.910  0.00  0.00     0.065 A 
ATOM      4  C   UNL d   1      27.080 -16.210  -1.782  0.00  0.00     0.020 A 
ATOM      5  C   UNL d   1      27.686 -16.978  -0.771  0.00  0.00     0.001 A 
ATOM      6  C   UNL d   1      26.896 -17.649   0.147  0.00  0.00     0.002 A 
ATOM      7  C   UNL d   1      25.510 -17.592   0.007  0.00  0.00     0.030 A 
ATOM      8  C   UNL d   1      24.870 -16.808  -0.995  0.00  0.00     0.044 A 
BRANCH   8   9
ATOM      9  N   UNL d   1      23.488 -16.849  -0.970  0.00  0.00    -0.389 N 
ATOM     10  H   UNL d   1      22.991 -16.256  -1.630  0.00  0.00     0.159 HD
BRANCH   9  11
ATOM     11  C   UNL d   1      22.745 -17.768  -0.145  0.00  0.00     0.119 C 
BRANCH  11  12
ATOM     12  C   UNL d   1      21.770 -18.576  -0.967  0.00  0.00     0.019 C 
BRANCH  12  13
ATOM     13  C   UNL d   1      20.860 -19.368  -0.028  0.00  0.00    -0.003 C 
ATOM     14  C   UNL d   1      19.467 -19.377  -0.603  0.00  0.00     0.005 C 
ENDBRANCH  12  13
ENDBRANCH  11  12
ENDBRANCH   9  11
ENDBRANCH   8   9
ENDBRANCH   1   3
BRANCH   1  15
ATOM     15  O   UNL d   1      25.530 -15.551  -4.322  0.00  0.00    -0.308 OA
BRANCH  15  16
ATOM     16  C   UNL d   1      26.857 -15.203  -4.887  0.00  0.00     0.282 C 
BRANCH  16  17
ATOM     17  C   UNL d   1      26.985 -13.672  -5.318  0.00  0.00     0.249 C 
ATOM     18  O   UNL d   1      27.767 -13.392  -6.226  0.00  0.00    -0.271 OA
ATOM     19  N   UNL d   1      26.191 -12.673  -4.703  0.00  0.00    -0.278 N 
ATOM     20  C   UNL d   1      26.389 -11.300  -4.935  0.00  0.00     0.322 C 
ATOM     21  H   UNL d   1      25.352 -12.949  -4.232  0.00  0.00     0.173 HD
ATOM     22  O   UNL d   1      27.324 -10.814  -5.526  0.00  0.00    -0.247 OA
ATOM     23  N   UNL d   1      25.458 -10.421  -4.395  0.00  0.00    -0.343 N 
ATOM     24  H   UNL d   1      24.498 -10.711  -4.315  0.00  0.00     0.164 HD
BRANCH  23  25
ATOM     25  C   UNL d   1      25.710  -8.967  -4.605  0.00  0.00     0.124 C 
BRANCH  25  26
ATOM     26  C   UNL d   1      24.436  -8.125  -4.645  0.00  0.00     0.015 C 
ATOM     27  C   UNL d   1      23.807  -8.061  -6.036  0.00  0.00     0.006 C 
ENDBRANCH  25  26
ENDBRANCH  23  25
ENDBRANCH  16  17
ENDBRANCH  15  16
ENDBRANCH   1  15
TORSDOF 10
ENDMDL
MODEL 4
REMARK VINA RESULT:    -6.955      4.155      7.016
REMARK INTER + INTRA:         -12.367
REMARK INTER:                  -9.938
REMARK INTRA:                  -2.429
REMARK CONF_INDEPENDENT:        2.983
REMARK UNBOUND:                -2.429
REMARK  10 active torsions:
REMARK  status: ('A' for Active; 'I' for Inactive)
REMARK    1  A    between atoms: C_2  and  C_3 
REMARK    2  A    between atoms: C_3  and  C_4 
REMARK    3  A    between atoms: C_4  and  N_5 
REMARK    4  A    between atoms: N_5  and  C_6 
REMARK    5  A    between atoms: C_11  and  C_12 
REMARK    6  A    between atoms: C_12  and  O_14 
REMARK    7  A    between atoms: O_14  and  C_15 
REMARK    8  A    between atoms: C_15  and  C_16 
REMARK       I    between atoms: C_16  and  N_18 
REMARK       I    between atoms: N_18  and  C_19 
REMARK       I    between atoms: C_19  and  N_21 
REMARK    9  A    between atoms: N_21  and  C_22 
REMARK   10  A    between atoms: C_22  and  C_23 
ROOT
ATOM      1  C   UNL d   1      26.896 -17.596  -0.511  0.00  0.00     0.296 C 
ATOM      2  O   UNL d   1      27.392 -18.427   0.243  0.00  0.00    -0.259 OA
ENDROOT
BRANCH   1   3
ATOM      3  C   UNL d   1      25.373 -17.409  -0.585  0.00  0.00     0.065 A 
ATOM      4  C   UNL d   1      24.592 -18.451  -0.010  0.00  0.00     0.020 A 
ATOM      5  C   UNL d   1      23.187 -18.414   0.027  0.00  0.00     0.001 A 
ATOM      6  C   UNL d   1      22.514 -17.332  -0.513  0.00  0.00     0.002 A 
ATOM      7  C   UNL d   1      23.252 -16.327  -1.137  0.00  0.00     0.030 A 
ATOM      8  C   UNL d   1      24.676 -16.329  -1.173  0.00  0.00     0.044 A 
BRANCH   8   9
ATOM      9  N   UNL d   1      25.243 -15.240  -1.810  0.00  0.00    -0.389 N 
ATOM     10  H   UNL d   1      26.221 -15.042  -1.616  0.00  0.00     0.159 HD
BRANCH   9  11
ATOM     11  C   UNL d   1      24.548 -14.466  -2.808  0.00  0.00     0.119 C 
BRANCH  11  12
ATOM     12  C   UNL d   1      25.488 -14.008  -3.897  0.00  0.00     0.019 C 
BRANCH  12  13
ATOM     13  C   UNL d   1      25.901 -15.214  -4.742  0.00  0.00    -0.003 C 
ATOM     14  C   UNL d   1      27.399 -15.192  -4.909  0.00  0.00     0.005 C 
ENDBRANCH  12  13
ENDBRANCH  11  12
ENDBRANCH   9  11
ENDBRANCH   8   9
ENDBRANCH   1   3
BRANCH   1  15
ATOM     15  O   UNL d   1      27.653 -16.798  -1.327  0.00  0.00    -0.308 OA
BRANCH  15  16
ATOM     16  C   UNL d   1      28.377 -15.619  -0.794  0.00  0.00     0.282 C 
BRANCH  16  17
ATOM     17  C   UNL d   1      27.719 -15.006   0.524  0.00  0.00     0.249 C 
ATOM     18  O   UNL d   1      26.608 -14.486   0.425  0.00  0.00    -0.271 OA
ATOM     19  N   UNL d   1      28.375 -15.098   1.776  0.00  0.00    -0.278 N 
ATOM     20  C   UNL d   1      27.910 -14.433   2.924  0.00  0.00     0.322 C 
ATOM     21  H   UNL d   1      29.083 -15.796   1.897  0.00  0.00     0.173 HD
ATOM     22  O   UNL d   1      27.033 -13.602   2.950  0.00  0.00    -0.247 OA
ATOM     23  N   UNL d   1      28.548 -14.714   4.127  0.00  0.00    -0.343 N 
ATOM     24  H   UNL d   1      28.915 -15.637   4.283  0.00  0.00     0.164 HD
BRANCH  23  25
ATOM     25  C   UNL d   1      28.078 -13.961   5.325  0.00  0.00     0.124 C 
BRANCH  25  26
ATOM     26  C   UNL d   1      28.906 -14.232   6.580  0.00  0.00     0.015 C 
ATOM     27  C   UNL d   1      28.799 -13.115   7.617  0.00  0.00     0.006 C 
ENDBRANCH  25  26
ENDBRANCH  23  25
ENDBRANCH  16  17
ENDBRANCH  15  16
ENDBRANCH   1  15
TORSDOF 10
ENDMDL
MODEL 5
REMARK VINA RESULT:    -6.540      2.391      8.207
REMARK INTER + INTRA:         -11.769
REMARK INTER:                  -9.523
REMARK INTRA:                  -2.246
REMARK CONF_INDEPENDENT:        2.983
REMARK UNBOUND:                -2.246
REMARK  10 active torsions:
REMARK  status: ('A' for Active; 'I' for Inactive)
REMARK    1  A    between atoms: C_2  and  C_3 
REMARK    2  A    between atoms: C_3  and  C_4 
REMARK    3  A    between atoms: C_4  and  N_5 
REMARK    4  A    between atoms: N_5  and  C_6 
REMARK    5  A    between atoms: C_11  and  C_12 
REMARK    6  A    between atoms: C_12  and  O_14 
REMARK    7  A    between atoms: O_14  and  C_15 
REMARK    8  A    between atoms: C_15  and  C_16 
REMARK       I    between atoms: C_16  and  N_18 
REMARK       I    between atoms: N_18  and  C_19 
REMARK       I    between atoms: C_19  and  N_21 
REMARK    9  A    between atoms: N_21  and  C_22 
REMARK   10  A    between atoms: C_22  and  C_23 
ROOT
ATOM      1  C   UNL d   1      25.743 -14.830  -1.946  0.00  0.00     0.296 C 
ATOM      2  O   UNL d   1      26.344 -13.803  -1.649  0.00  0.00    -0.259 OA
ENDROOT
BRANCH   1   3
ATOM      3  C   UNL d   1      25.945 -16.122  -1.141  0.00  0.00     0.065 A 
ATOM      4  C   UNL d   1      27.232 -16.294  -0.558  0.00  0.00     0.020 A 
ATOM      5  C   UNL d   1      27.565 -17.409   0.232  0.00  0.00     0.001 A 
ATOM      6  C   UNL d   1      26.620 -18.394   0.463  0.00  0.00     0.002 A 
ATOM      7  C   UNL d   1      25.370 -18.280  -0.146  0.00  0.00     0.030 A 
ATOM      8  C   UNL d   1      25.000 -17.153  -0.935  0.00  0.00     0.044 A 
BRANCH   8   9
ATOM      9  N   UNL d   1      23.713 -17.195  -1.440  0.00  0.00    -0.389 N 
ATOM     10  H   UNL d   1      23.415 -16.420  -2.026  0.00  0.00     0.159 HD
BRANCH   9  11
ATOM     11  C   UNL d   1      22.840 -18.330  -1.270  0.00  0.00     0.119 C 
BRANCH  11  12
ATOM     12  C   UNL d   1      22.167 -18.304   0.081  0.00  0.00     0.019 C 
BRANCH  12  13
ATOM     13  C   UNL d   1      21.028 -19.325   0.092  0.00  0.00    -0.003 C 
ATOM     14  C   UNL d   1      20.370 -19.324  -1.264  0.00  0.00     0.005 C 
ENDBRANCH  12  13
ENDBRANCH  11  12
ENDBRANCH   9  11
ENDBRANCH   8   9
ENDBRANCH   1   3
BRANCH   1  15
ATOM     15  O   UNL d   1      24.871 -14.894  -3.000  0.00  0.00    -0.308 OA
BRANCH  15  16
ATOM     16  C   UNL d   1      25.265 -14.441  -4.356  0.00  0.00     0.282 C 
BRANCH  16  17
ATOM     17  C   UNL d   1      26.673 -15.017  -4.838  0.00  0.00     0.249 C 
ATOM     18  O   UNL d   1      26.839 -15.201  -6.043  0.00  0.00    -0.271 OA
ATOM     19  N   UNL d   1      27.713 -15.269  -3.909  0.00  0.00    -0.278 N 
ATOM     20  C   UNL d   1      28.903 -15.926  -4.266  0.00  0.00     0.322 C 
ATOM     21  H   UNL d   1      27.683 -14.810  -3.019  0.00  0.00     0.173 HD
ATOM     22  O   UNL d   1      29.110 -16.486  -5.317  0.00  0.00    -0.247 OA
ATOM     23  N   UNL d   1      29.911 -15.986  -3.310  0.00  0.00    -0.343 N 
ATOM     24  H   UNL d   1      30.017 -15.224  -2.662  0.00  0.00     0.164 HD
BRANCH  23  25
ATOM     25  C   UNL d   1      31.146 -16.732  -3.687  0.00  0.00     0.124 C 
BRANCH  25  26
ATOM     26  C   UNL d   1      31.008 -18.247  -3.552  0.00  0.00     0.015 C 
ATOM     27  C   UNL d   1      30.806 -18.950  -4.894  0.00  0.00     0.006 C 
ENDBRANCH  25  26
ENDBRANCH  23  25
ENDBRANCH  16  17
ENDBRANCH  15  16
ENDBRANCH   1  15
TORSDOF 10
ENDMDL
MODEL 6
REMARK VINA RESULT:    -6.537      3.658      7.898
REMARK INTER + INTRA:         -11.292
REMARK INTER:                  -9.520
REMARK INTRA:                  -1.772
REMARK CONF_INDEPENDENT:        2.983
REMARK UNBOUND:                -1.772
REMARK  10 active torsions:
REMARK  status: ('A' for Active; 'I' for Inactive)
REMARK    1  A    between atoms: C_2  and  C_3 
REMARK    2  A    between atoms: C_3  and  C_4 
REMARK    3  A    between atoms: C_4  and  N_5 
REMARK    4  A    between atoms: N_5  and  C_6 
REMARK    5  A    between atoms: C_11  and  C_12 
REMARK    6  A    between atoms: C_12  and  O_14 
REMARK    7  A    between atoms: O_14  and  C_15 
REMARK    8  A    between atoms: C_15  and  C_16 
REMARK       I    between atoms: C_16  and  N_18 
REMARK       I    between atoms: N_18  and  C_19 
REMARK       I    between atoms: C_19  and  N_21 
REMARK    9  A    between atoms: N_21  and  C_22 
REMARK   10  A    between atoms: C_22  and  C_23 
ROOT
ATOM      1  C   UNL d   1      26.174 -15.513  -2.606  0.00  0.00     0.296 C 
ATOM      2  O   UNL d   1      25.158 -15.196  -3.215  0.00  0.00    -0.259 OA
ENDROOT
BRANCH   1   3
ATOM      3  C   UNL d   1      26.119 -16.529  -1.455  0.00  0.00     0.065 A 
ATOM      4  C   UNL d   1      27.374 -17.029  -1.009  0.00  0.00     0.020 A 
ATOM      5  C   UNL d   1      27.494 -17.943   0.053  0.00  0.00     0.001 A 
ATOM      6  C   UNL d   1      26.357 -18.390   0.705  0.00  0.00     0.002 A 
ATOM      7  C   UNL d   1      25.111 -17.962   0.249  0.00  0.00     0.030 A 
ATOM      8  C   UNL d   1      24.961 -17.023  -0.812  0.00  0.00     0.044 A 
BRANCH   8   9
ATOM      9  N   UNL d   1      23.653 -16.692  -1.115  0.00  0.00    -0.389 N 
ATOM     10  H   UNL d   1      23.491 -16.163  -1.967  0.00  0.00     0.159 HD
BRANCH   9  11
ATOM     11  C   UNL d   1      22.527 -17.164  -0.349  0.00  0.00     0.119 C 
BRANCH  11  12
ATOM     12  C   UNL d   1      21.913 -18.391  -0.977  0.00  0.00     0.019 C 
BRANCH  12  13
ATOM     13  C   UNL d   1      21.052 -19.109   0.063  0.00  0.00    -0.003 C 
ATOM     14  C   UNL d   1      19.854 -19.703  -0.633  0.00  0.00     0.005 C 
ENDBRANCH  12  13
ENDBRANCH  11  12
ENDBRANCH   9  11
ENDBRANCH   8   9
ENDBRANCH   1   3
BRANCH   1  15
ATOM     15  O   UNL d   1      27.404 -14.989  -2.904  0.00  0.00    -0.308 OA
BRANCH  15  16
ATOM     16  C   UNL d   1      27.983 -13.879  -2.108  0.00  0.00     0.282 C 
BRANCH  16  17
ATOM     17  C   UNL d   1      27.361 -13.752  -0.644  0.00  0.00     0.249 C 
ATOM     18  O   UNL d   1      26.280 -13.177  -0.525  0.00  0.00    -0.271 OA
ATOM     19  N   UNL d   1      28.014 -14.322   0.477  0.00  0.00    -0.278 N 
ATOM     20  C   UNL d   1      27.588 -14.093   1.797  0.00  0.00     0.322 C 
ATOM     21  H   UNL d   1      28.684 -15.050   0.323  0.00  0.00     0.173 HD
ATOM     22  O   UNL d   1      26.757 -13.285   2.139  0.00  0.00    -0.247 OA
ATOM     23  N   UNL d   1      28.212 -14.821   2.804  0.00  0.00    -0.343 N 
ATOM     24  H   UNL d   1      28.530 -15.755   2.610  0.00  0.00     0.164 HD
BRANCH  23  25
ATOM     25  C   UNL d   1      27.786 -14.529   4.203  0.00  0.00     0.124 C 
BRANCH  25  26
ATOM     26  C   UNL d   1      28.654 -13.483   4.900  0.00  0.00     0.015 C 
ATOM     27  C   UNL d   1      27.923 -12.755   6.026  0.00  0.00     0.006 C 
ENDBRANCH  25  26
ENDBRANCH  23  25
ENDBRANCH  16  17
ENDBRANCH  15  16
ENDBRANCH   1  15
TORSDOF 10
ENDMDL
MODEL 7
REMARK VINA RESULT:    -6.429      1.652      3.262
REMARK INTER + INTRA:         -11.327
REMARK INTER:                  -9.412
REMARK INTRA:                  -1.916
REMARK CONF_INDEPENDENT:        2.983
REMARK UNBOUND:                -1.916
REMARK  10 active torsions:
REMARK  status: ('A' for Active; 'I' for Inactive)
REMARK    1  A    between atoms: C_2  and  C_3 
REMARK    2  A    between atoms: C_3  and  C_4 
REMARK    3  A    between atoms: C_4  and  N_5 
REMARK    4  A    between atoms: N_5  and  C_6 
REMARK    5  A    between atoms: C_11  and  C_12 
REMARK    6  A    between atoms: C_12  and  O_14 
REMARK    7  A    between atoms: O_14  and  C_15 
REMARK    8  A    between atoms: C_15  and  C_16 
REMARK       I    between atoms: C_16  and  N_18 
REMARK       I    between atoms: N_18  and  C_19 
REMARK       I    between atoms: C_19  and  N_21 
REMARK    9  A    between atoms: N_21  and  C_22 
REMARK   10  A    between atoms: C_22  and  C_23 
ROOT
ATOM      1  C   UNL d   1      26.315 -15.530  -0.288  0.00  0.00     0.296 C 
ATOM      2  O   UNL d   1      25.941 -14.474   0.211  0.00  0.00    -0.259 OA
ENDROOT
BRANCH   1   3
ATOM      3  C   UNL d   1      27.062 -15.546  -1.630  0.00  0.00     0.065 A 
ATOM      4  C   UNL d   1      28.477 -15.671  -1.550  0.00  0.00     0.020 A 
ATOM      5  C   UNL d   1      29.300 -15.728  -2.689  0.00  0.00     0.001 A 
ATOM      6  C   UNL d   1      28.733 -15.661  -3.950  0.00  0.00     0.002 A 
ATOM      7  C   UNL d   1      27.354 -15.477  -4.056  0.00  0.00     0.030 A 
ATOM      8  C   UNL d   1      26.496 -15.433  -2.920  0.00  0.00     0.044 A 
BRANCH   8   9
ATOM      9  N   UNL d   1      25.153 -15.271  -3.213  0.00  0.00    -0.389 N 
ATOM     10  H   UNL d   1      24.528 -16.036  -2.975  0.00  0.00     0.159 HD
BRANCH   9  11
ATOM     11  C   UNL d   1      24.605 -14.039  -3.720  0.00  0.00     0.119 C 
BRANCH  11  12
ATOM     12  C   UNL d   1      25.524 -12.875  -3.439  0.00  0.00     0.019 C 
BRANCH  12  13
ATOM     13  C   UNL d   1      26.163 -12.414  -4.750  0.00  0.00    -0.003 C 
ATOM     14  C   UNL d   1      27.574 -11.969  -4.465  0.00  0.00     0.005 C 
ENDBRANCH  12  13
ENDBRANCH  11  12
ENDBRANCH   9  11
ENDBRANCH   8   9
ENDBRANCH   1   3
BRANCH   1  15
ATOM     15  O   UNL d   1      26.091 -16.744   0.305  0.00  0.00    -0.308 OA
BRANCH  15  16
ATOM     16  C   UNL d   1      25.684 -17.928  -0.491  0.00  0.00     0.282 C 
BRANCH  16  17
ATOM     17  C   UNL d   1      24.130 -17.953  -0.850  0.00  0.00     0.249 C 
ATOM     18  O   UNL d   1      23.753 -17.307  -1.828  0.00  0.00    -0.271 OA
ATOM     19  N   UNL d   1      23.219 -18.728  -0.091  0.00  0.00    -0.278 N 
ATOM     20  C   UNL d   1      21.827 -18.650  -0.269  0.00  0.00     0.322 C 
ATOM     21  H   UNL d   1      23.576 -19.484   0.461  0.00  0.00     0.173 HD
ATOM     22  O   UNL d   1      21.248 -17.828  -0.940  0.00  0.00    -0.247 OA
ATOM     23  N   UNL d   1      21.043 -19.563   0.425  0.00  0.00    -0.343 N 
ATOM     24  H   UNL d   1      21.403 -20.485   0.602  0.00  0.00     0.164 HD
BRANCH  23  25
ATOM     25  C   UNL d   1      19.566 -19.433   0.266  0.00  0.00     0.124 C 
BRANCH  25  26
ATOM     26  C   UNL d   1      18.825 -20.768   0.330  0.00  0.00     0.015 C 
ATOM     27  C   UNL d   1      18.259 -21.070   1.717  0.00  0.00     0.006 C 
ENDBRANCH  25  26
ENDBRANCH  23  25
ENDBRANCH  16  17
ENDBRANCH  15  16
ENDBRANCH   1  15
TORSDOF 10
ENDMDL
MODEL 8
REMARK VINA RESULT:    -6.247      3.925      7.108
REMARK INTER + INTRA:         -11.300
REMARK INTER:                  -9.230
REMARK INTRA:                  -2.070
REMARK CONF_INDEPENDENT:        2.983
REMARK UNBOUND:                -2.070
REMARK  10 active torsions:
REMARK  status: ('A' for Active; 'I' for Inactive)
REMARK    1  A    between atoms: C_2  and  C_3 
REMARK    2  A    between atoms: C_3  and  C_4 
REMARK    3  A    between atoms: C_4  and  N_5 
REMARK    4  A    between atoms: N_5  and  C_6 
REMARK    5  A    between atoms: C_11  and  C_12 
REMARK    6  A    between atoms: C_12  and  O_14 
REMARK    7  A    between atoms: O_14  and  C_15 
REMARK    8  A    between atoms: C_15  and  C_16 
REMARK       I    between atoms: C_16  and  N_18 
REMARK       I    between atoms: N_18  and  C_19 
REMARK       I    between atoms: C_19  and  N_21 
REMARK    9  A    between atoms: N_21  and  C_22 
REMARK   10  A    between atoms: C_22  and  C_23 
ROOT
ATOM      1  C   UNL d   1      28.376 -15.958  -3.239  0.00  0.00     0.296 C 
ATOM      2  O   UNL d   1      29.121 -16.254  -4.168  0.00  0.00    -0.259 OA
ENDROOT
BRANCH   1   3
ATOM      3  C   UNL d   1      27.066 -15.198  -3.493  0.00  0.00     0.065 A 
ATOM      4  C   UNL d   1      27.051 -14.352  -4.637  0.00  0.00     0.020 A 
ATOM      5  C   UNL d   1      25.919 -13.612  -5.020  0.00  0.00     0.001 A 
ATOM      6  C   UNL d   1      24.760 -13.691  -4.267  0.00  0.00     0.002 A 
ATOM      7  C   UNL d   1      24.766 -14.465  -3.106  0.00  0.00     0.030 A 
ATOM      8  C   UNL d   1      25.893 -15.239  -2.705  0.00  0.00     0.044 A 
BRANCH   8   9
ATOM      9  N   UNL d   1      25.714 -15.967  -1.542  0.00  0.00    -0.389 N 
ATOM     10  H   UNL d   1      26.541 -16.183  -0.995  0.00  0.00     0.159 HD
BRANCH   9  11
ATOM     11  C   UNL d   1      24.413 -16.316  -1.029  0.00  0.00     0.119 C 
BRANCH  11  12
ATOM     12  C   UNL d   1      24.441 -17.658  -0.337  0.00  0.00     0.019 C 
BRANCH  12  13
ATOM     13  C   UNL d   1      23.397 -18.573  -0.977  0.00  0.00    -0.003 C 
ATOM     14  C   UNL d   1      22.133 -18.505  -0.158  0.00  0.00     0.005 C 
ENDBRANCH  12  13
ENDBRANCH  11  12
ENDBRANCH   9  11
ENDBRANCH   8   9
ENDBRANCH   1   3
BRANCH   1  15
ATOM     15  O   UNL d   1      28.661 -16.275  -1.938  0.00  0.00    -0.308 OA
BRANCH  15  16
ATOM     16  C   UNL d   1      29.274 -15.285  -1.019  0.00  0.00     0.282 C 
BRANCH  16  17
ATOM     17  C   UNL d   1      28.293 -14.796   0.140  0.00  0.00     0.249 C 
ATOM     18  O   UNL d   1      27.230 -14.270  -0.189  0.00  0.00    -0.271 OA
ATOM     19  N   UNL d   1      28.617 -15.000   1.503  0.00  0.00    -0.278 N 
ATOM     20  C   UNL d   1      27.865 -14.442   2.552  0.00  0.00     0.322 C 
ATOM     21  H   UNL d   1      29.290 -15.705   1.736  0.00  0.00     0.173 HD
ATOM     22  O   UNL d   1      26.990 -13.618   2.429  0.00  0.00    -0.247 OA
ATOM     23  N   UNL d   1      28.189 -14.831   3.846  0.00  0.00    -0.343 N 
ATOM     24  H   UNL d   1      28.527 -15.764   4.009  0.00  0.00     0.164 HD
BRANCH  23  25
ATOM     25  C   UNL d   1      27.416 -14.191   4.950  0.00  0.00     0.124 C 
BRANCH  25  26
ATOM     26  C   UNL d   1      28.246 -13.228   5.797  0.00  0.00     0.015 C 
ATOM     27  C   UNL d   1      29.084 -13.938   6.859  0.00  0.00     0.006 C 
ENDBRANCH  25  26
ENDBRANCH  23  25
ENDBRANCH  16  17
ENDBRANCH  15  16
ENDBRANCH   1  15
TORSDOF 10
ENDMDL
MODEL 9
REMARK VINA RESULT:    -5.932      3.563      9.221
REMARK INTER + INTRA:         -11.284
REMARK INTER:                  -8.915
REMARK INTRA:                  -2.369
REMARK CONF_INDEPENDENT:        2.983
REMARK UNBOUND:                -2.369
REMARK  10 active torsions:
REMARK  status: ('A' for Active; 'I' for Inactive)
REMARK    1  A    between atoms: C_2  and  C_3 
REMARK    2  A    between atoms: C_3  and  C_4 
REMARK    3  A    between atoms: C_4  and  N_5 
REMARK    4  A    between atoms: N_5  and  C_6 
REMARK    5  A    between atoms: C_11  and  C_12 
REMARK    6  A    between atoms: C_12  and  O_14 
REMARK    7  A    between atoms: O_14  and  C_15 
REMARK    8  A    between atoms: C_15  and  C_16 
REMARK       I    between atoms: C_16  and  N_18 
REMARK       I    between atoms: N_18  and  C_19 
REMARK       I    between atoms: C_19  and  N_21 
REMARK    9  A    between atoms: N_21  and  C_22 
REMARK   10  A    between atoms: C_22  and  C_23 
ROOT
ATOM      1  C   UNL d   1      26.127 -15.421  -4.017  0.00  0.00     0.296 C 
ATOM      2  O   UNL d   1      26.881 -15.575  -4.972  0.00  0.00    -0.259 OA
ENDROOT
BRANCH   1   3
ATOM      3  C   UNL d   1      26.503 -15.948  -2.625  0.00  0.00     0.065 A 
ATOM      4  C   UNL d   1      27.891 -16.161  -2.396  0.00  0.00     0.020 A 
ATOM      5  C   UNL d   1      28.397 -16.614  -1.165  0.00  0.00     0.001 A 
ATOM      6  C   UNL d   1      27.528 -16.872  -0.118  0.00  0.00     0.002 A 
ATOM      7  C   UNL d   1      26.158 -16.731  -0.334  0.00  0.00     0.030 A 
ATOM      8  C   UNL d   1      25.619 -16.256  -1.565  0.00  0.00     0.044 A 
BRANCH   8   9
ATOM      9  N   UNL d   1      24.240 -16.153  -1.594  0.00  0.00    -0.389 N 
ATOM     10  H   UNL d   1      23.820 -15.739  -2.421  0.00  0.00     0.159 HD
BRANCH   9  11
ATOM     11  C   UNL d   1      23.390 -16.709  -0.570  0.00  0.00     0.119 C 
BRANCH  11  12
ATOM     12  C   UNL d   1      22.983 -18.123  -0.905  0.00  0.00     0.019 C 
BRANCH  12  13
ATOM     13  C   UNL d   1      21.457 -18.218  -0.903  0.00  0.00    -0.003 C 
ATOM     14  C   UNL d   1      21.054 -19.446  -0.127  0.00  0.00     0.005 C 
ENDBRANCH  12  13
ENDBRANCH  11  12
ENDBRANCH   9  11
ENDBRANCH   8   9
ENDBRANCH   1   3
BRANCH   1  15
ATOM     15  O   UNL d   1      24.919 -14.785  -4.128  0.00  0.00    -0.308 OA
BRANCH  15  16
ATOM     16  C   UNL d   1      24.799 -13.320  -3.929  0.00  0.00     0.282 C 
BRANCH  16  17
ATOM     17  C   UNL d   1      25.938 -12.479  -4.666  0.00  0.00     0.249 C 
ATOM     18  O   UNL d   1      26.197 -11.357  -4.234  0.00  0.00    -0.271 OA
ATOM     19  N   UNL d   1      26.656 -13.027  -5.758  0.00  0.00    -0.278 N 
ATOM     20  C   UNL d   1      27.546 -12.266  -6.535  0.00  0.00     0.322 C 
ATOM     21  H   UNL d   1      26.671 -14.022  -5.872  0.00  0.00     0.173 HD
ATOM     22  O   UNL d   1      27.679 -11.066  -6.482  0.00  0.00    -0.247 OA
ATOM     23  N   UNL d   1      28.304 -12.943  -7.484  0.00  0.00    -0.343 N 
ATOM     24  H   UNL d   1      28.594 -13.888  -7.297  0.00  0.00     0.164 HD
BRANCH  23  25
ATOM     25  C   UNL d   1      29.205 -12.115  -8.335  0.00  0.00     0.124 C 
BRANCH  25  26
ATOM     26  C   UNL d   1      28.880 -12.193  -9.825  0.00  0.00     0.015 C 
ATOM     27  C   UNL d   1      27.512 -11.605 -10.169  0.00  0.00     0.006 C 
ENDBRANCH  25  26
ENDBRANCH  23  25
ENDBRANCH  16  17
ENDBRANCH  15  16
ENDBRANCH   1  15
TORSDOF 10
ENDMDL
