MODEL 1
REMARK VINA RESULT:    -9.966      0.000      0.000
REMARK INTER + INTRA:         -15.648
REMARK INTER:                 -13.247
REMARK INTRA:                  -2.401
REMARK CONF_INDEPENDENT:        3.281
REMARK UNBOUND:                -2.401
REMARK  11 active torsions:
REMARK  status: ('A' for Active; 'I' for Inactive)
REMARK    1  A    between atoms: C_2  and  C_30 
REMARK    2  A    between atoms: C_2  and  N_3 
REMARK       I    between atoms: N_3  and  C_4 
REMARK    3  A    between atoms: C_4  and  C_6 
REMARK       I    between atoms: N_9  and  C_10 
REMARK    4  A    between atoms: C_12  and  C_10 
REMARK    5  A    between atoms: C_12  and  N_20 
REMARK    6  A    between atoms: C_12  and  C_13 
REMARK    7  A    between atoms: C_13  and  C_14 
REMARK       I    between atoms: N_20  and  C_21 
REMARK    8  A    between atoms: C_21  and  O_23 
REMARK    9  A    between atoms: O_23  and  C_24 
REMARK       I    between atoms: C_30  and  N_32 
REMARK   10  A    between atoms: N_32  and  C_33 
REMARK   11  A    between atoms: C_33  and  C_34 
ROOT
ATOM      1  C   UNL d   1      27.277 -13.685   2.776  0.00  0.00     0.081 C 
ATOM      2  C   UNL d   1      27.796 -15.048   2.213  0.00  0.00     0.034 C 
ATOM      3  C   UNL d   1      28.352 -15.051   0.802  0.00  0.00     0.126 C 
ATOM      4  N   UNL d   1      27.229 -14.769  -0.008  0.00  0.00    -0.350 N 
ATOM      5  C   UNL d   1      26.956 -15.552  -1.107  0.00  0.00     0.243 C 
ATOM      6  O   UNL d   1      27.588 -16.619  -1.167  0.00  0.00    -0.271 OA
ATOM      7  C   UNL d   1      26.724 -13.521   0.419  0.00  0.00     0.126 C 
ATOM      8  C   UNL d   1      26.237 -13.246   1.793  0.00  0.00     0.034 C 
ENDROOT
BRANCH   5   9
ATOM      9  C   UNL d   1      25.960 -15.168  -2.304  0.00  0.00     0.183 C 
BRANCH   9  10
ATOM     10  N   UNL d   1      26.674 -15.554  -3.577  0.00  0.00    -0.323 N 
ATOM     11  C   UNL d   1      26.238 -15.060  -4.788  0.00  0.00     0.362 C 
ATOM     12  O   UNL d   1      25.155 -14.448  -4.887  0.00  0.00    -0.238 OA
ATOM     13  H   UNL d   1      27.538 -16.082  -3.577  0.00  0.00     0.165 HD
BRANCH  11  14
ATOM     14  O   UNL d   1      27.067 -15.302  -5.846  0.00  0.00    -0.294 OA
BRANCH  14  15
ATOM     15  C   UNL d   1      28.316 -14.524  -5.928  0.00  0.00     0.061 C 
ATOM     16  C   UNL d   1      28.487 -13.583  -4.724  0.00  0.00     0.046 C 
ATOM     17  C   UNL d   1      29.531 -15.457  -6.075  0.00  0.00     0.046 C 
ATOM     18  C   UNL d   1      28.278 -13.629  -7.188  0.00  0.00     0.046 C 
ENDBRANCH  14  15
ENDBRANCH  11  14
ENDBRANCH   9  10
BRANCH   9  19
ATOM     19  C   UNL d   1      24.484 -15.666  -2.267  0.00  0.00     0.073 C 
BRANCH  19  20
ATOM     20  C   UNL d   1      23.987 -16.609  -1.084  0.00  0.00    -0.056 C 
ATOM     21  C   UNL d   1      24.716 -17.767  -0.662  0.00  0.00     0.007 C 
ATOM     22  C   UNL d   1      24.021 -18.951  -0.242  0.00  0.00     0.001 C 
ATOM     23  C   UNL d   1      22.624 -18.979  -0.180  0.00  0.00     0.000 C 
ATOM     24  C   UNL d   1      21.911 -17.813  -0.466  0.00  0.00     0.001 C 
ATOM     25  C   UNL d   1      22.574 -16.640  -0.897  0.00  0.00     0.007 C 
ENDBRANCH  19  20
ENDBRANCH   9  19
ENDBRANCH   5   9
BRANCH   1  26
ATOM     26  C   UNL d   1      28.291 -13.093   3.762  0.00  0.00     0.222 C 
ATOM     27  N   UNL d   1      29.154 -14.070   4.202  0.00  0.00    -0.348 N 
ATOM     28  H   UNL d   1      29.177 -15.000   3.842  0.00  0.00     0.163 HD
ATOM     29  O   UNL d   1      28.198 -12.004   4.313  0.00  0.00    -0.273 OA
BRANCH  27  30
ATOM     30  C   UNL d   1      30.169 -14.014   5.189  0.00  0.00     0.172 C 
ATOM     31  C   UNL d   1      30.865 -12.675   4.957  0.00  0.00     0.042 C 
BRANCH  30  32
ATOM     32  C   UNL d   1      29.452 -14.028   6.560  0.00  0.00     0.240 C 
ATOM     33  O   UNL d   1      28.238 -14.141   6.713  0.00  0.00    -0.271 OA
ATOM     34  N   UNL d   1      30.325 -13.861   7.599  0.00  0.00    -0.355 N 
ATOM     35  H   UNL d   1      31.290 -13.691   7.371  0.00  0.00     0.162 HD
BRANCH  34  36
ATOM     36  C   UNL d   1      29.909 -13.883   8.978  0.00  0.00     0.161 C 
BRANCH  36  37
ATOM     37  C   UNL d   1      30.932 -14.532   9.882  0.00  0.00    -0.040 A 
ATOM     38  C   UNL d   1      32.313 -14.477   9.618  0.00  0.00     0.012 A 
ATOM     39  C   UNL d   1      33.217 -15.208  10.383  0.00  0.00     0.043 A 
ATOM     40  C   UNL d   1      32.756 -15.948  11.461  0.00  0.00     0.116 A 
ATOM     41  F   UNL d   1      33.635 -16.600  12.230  0.00  0.00    -0.206 F 
ATOM     42  C   UNL d   1      31.400 -16.011  11.755  0.00  0.00     0.043 A 
ATOM     43  C   UNL d   1      30.487 -15.314  10.961  0.00  0.00     0.012 A 
ENDBRANCH  36  37
ENDBRANCH  34  36
ENDBRANCH  30  32
ENDBRANCH  27  30
ENDBRANCH   1  26
TORSDOF 11
ENDMDL
MODEL 2
REMARK VINA RESULT:    -9.817      2.127      2.646
REMARK INTER + INTRA:         -16.158
REMARK INTER:                 -13.098
REMARK INTRA:                  -3.061
REMARK CONF_INDEPENDENT:        3.281
REMARK UNBOUND:                -3.061
REMARK  11 active torsions:
REMARK  status: ('A' for Active; 'I' for Inactive)
REMARK    1  A    between atoms: C_2  and  C_30 
REMARK    2  A    between atoms: C_2  and  N_3 
REMARK       I    between atoms: N_3  and  C_4 
REMARK    3  A    between atoms: C_4  and  C_6 
REMARK       I    between atoms: N_9  and  C_10 
REMARK    4  A    between atoms: C_12  and  C_10 
REMARK    5  A    between atoms: C_12  and  N_20 
REMARK    6  A    between atoms: C_12  and  C_13 
REMARK    7  A    between atoms: C_13  and  C_14 
REMARK       I    between atoms: N_20  and  C_21 
REMARK    8  A    between atoms: C_21  and  O_23 
REMARK    9  A    between atoms: O_23  and  C_24 
REMARK       I    between atoms: C_30  and  N_32 
REMARK   10  A    between atoms: N_32  and  C_33 
REMARK   11  A    between atoms: C_33  and  C_34 
ROOT
ATOM      1  C   UNL d   1      29.411 -14.229   1.328  0.00  0.00     0.081 C 
ATOM      2  C   UNL d   1      28.624 -13.148   0.518  0.00  0.00     0.034 C 
ATOM      3  C   UNL d   1      27.124 -13.333   0.388  0.00  0.00     0.126 C 
ATOM      4  N   UNL d   1      26.991 -14.495  -0.404  0.00  0.00    -0.350 N 
ATOM      5  C   UNL d   1      26.152 -14.496  -1.494  0.00  0.00     0.243 C 
ATOM      6  O   UNL d   1      25.752 -13.377  -1.856  0.00  0.00    -0.271 OA
ATOM      7  C   UNL d   1      27.650 -15.535   0.289  0.00  0.00     0.126 C 
ATOM      8  C   UNL d   1      29.092 -15.519   0.639  0.00  0.00     0.034 C 
ENDROOT
BRANCH   5   9
ATOM      9  C   UNL d   1      25.623 -15.798  -2.267  0.00  0.00     0.183 C 
BRANCH   9  10
ATOM     10  N   UNL d   1      26.440 -15.889  -3.533  0.00  0.00    -0.323 N 
ATOM     11  C   UNL d   1      26.016 -15.242  -4.674  0.00  0.00     0.362 C 
ATOM     12  O   UNL d   1      24.879 -14.733  -4.747  0.00  0.00    -0.238 OA
ATOM     13  H   UNL d   1      27.357 -16.321  -3.560  0.00  0.00     0.165 HD
BRANCH  11  14
ATOM     14  O   UNL d   1      26.921 -15.216  -5.698  0.00  0.00    -0.294 OA
BRANCH  14  15
ATOM     15  C   UNL d   1      28.154 -14.434  -5.501  0.00  0.00     0.061 C 
ATOM     16  C   UNL d   1      29.256 -15.262  -4.820  0.00  0.00     0.046 C 
ATOM     17  C   UNL d   1      28.650 -13.851  -6.836  0.00  0.00     0.046 C 
ATOM     18  C   UNL d   1      27.857 -13.239  -4.568  0.00  0.00     0.046 C 
ENDBRANCH  14  15
ENDBRANCH  11  14
ENDBRANCH   9  10
BRANCH   9  19
ATOM     19  C   UNL d   1      25.533 -17.158  -1.511  0.00  0.00     0.073 C 
BRANCH  19  20
ATOM     20  C   UNL d   1      24.203 -17.551  -0.727  0.00  0.00    -0.056 C 
ATOM     21  C   UNL d   1      23.848 -18.909  -0.443  0.00  0.00     0.007 C 
ATOM     22  C   UNL d   1      22.474 -19.325  -0.483  0.00  0.00     0.001 C 
ATOM     23  C   UNL d   1      21.453 -18.404  -0.740  0.00  0.00     0.000 C 
ATOM     24  C   UNL d   1      21.781 -17.055  -0.890  0.00  0.00     0.001 C 
ATOM     25  C   UNL d   1      23.129 -16.626  -0.870  0.00  0.00     0.007 C 
ENDBRANCH  19  20
ENDBRANCH   9  19
ENDBRANCH   5   9
BRANCH   1  26
ATOM     26  C   UNL d   1      29.778 -13.695   2.718  0.00  0.00     0.222 C 
ATOM     27  N   UNL d   1      28.904 -12.699   3.090  0.00  0.00    -0.348 N 
ATOM     28  H   UNL d   1      28.090 -12.445   2.573  0.00  0.00     0.163 HD
ATOM     29  O   UNL d   1      30.835 -13.893   3.302  0.00  0.00    -0.273 OA
BRANCH  27  30
ATOM     30  C   UNL d   1      28.917 -11.851   4.225  0.00  0.00     0.172 C 
ATOM     31  C   UNL d   1      27.822 -10.821   3.955  0.00  0.00     0.042 C 
BRANCH  30  32
ATOM     32  C   UNL d   1      28.548 -12.735   5.440  0.00  0.00     0.240 C 
ATOM     33  O   UNL d   1      27.451 -12.741   5.993  0.00  0.00    -0.271 OA
ATOM     34  N   UNL d   1      29.603 -13.497   5.861  0.00  0.00    -0.355 N 
ATOM     35  H   UNL d   1      30.486 -13.363   5.399  0.00  0.00     0.162 HD
BRANCH  34  36
ATOM     36  C   UNL d   1      29.500 -14.438   6.947  0.00  0.00     0.161 C 
BRANCH  36  37
ATOM     37  C   UNL d   1      29.182 -13.771   8.265  0.00  0.00    -0.040 A 
ATOM     38  C   UNL d   1      29.179 -12.373   8.420  0.00  0.00     0.012 A 
ATOM     39  C   UNL d   1      29.030 -11.792   9.676  0.00  0.00     0.043 A 
ATOM     40  C   UNL d   1      28.817 -12.602  10.780  0.00  0.00     0.116 A 
ATOM     41  F   UNL d   1      28.613 -12.038  11.976  0.00  0.00    -0.206 F 
ATOM     42  C   UNL d   1      28.802 -13.986  10.658  0.00  0.00     0.043 A 
ATOM     43  C   UNL d   1      28.994 -14.571   9.405  0.00  0.00     0.012 A 
ENDBRANCH  36  37
ENDBRANCH  34  36
ENDBRANCH  30  32
ENDBRANCH  27  30
ENDBRANCH   1  26
TORSDOF 11
ENDMDL
MODEL 3
REMARK VINA RESULT:    -9.628      1.646      2.304
REMARK INTER + INTRA:         -16.253
REMARK INTER:                 -12.910
REMARK INTRA:                  -3.343
REMARK CONF_INDEPENDENT:        3.281
REMARK UNBOUND:                -3.343
REMARK  11 active torsions:
REMARK  status: ('A' for Active; 'I' for Inactive)
REMARK    1  A    between atoms: C_2  and  C_30 
REMARK    2  A    between atoms: C_2  and  N_3 
REMARK       I    between atoms: N_3  and  C_4 
REMARK    3  A    between atoms: C_4  and  C_6 
REMARK       I    between atoms: N_9  and  C_10 
REMARK    4  A    between atoms: C_12  and  C_10 
REMARK    5  A    between atoms: C_12  and  N_20 
REMARK    6  A    between atoms: C_12  and  C_13 
REMARK    7  A    between atoms: C_13  and  C_14 
REMARK       I    between atoms: N_20  and  C_21 
REMARK    8  A    between atoms: C_21  and  O_23 
REMARK    9  A    between atoms: O_23  and  C_24 
REMARK       I    between atoms: C_30  and  N_32 
REMARK   10  A    between atoms: N_32  and  C_33 
REMARK   11  A    between atoms: C_33  and  C_34 
ROOT
ATOM      1  C   UNL d   1      27.306 -13.427   2.908  0.00  0.00     0.081 C 
ATOM      2  C   UNL d   1      27.783 -14.823   2.393  0.00  0.00     0.034 C 
ATOM      3  C   UNL d   1      28.343 -14.891   0.985  0.00  0.00     0.126 C 
ATOM      4  N   UNL d   1      27.232 -14.601   0.161  0.00  0.00    -0.350 N 
ATOM      5  C   UNL d   1      26.937 -15.411  -0.911  0.00  0.00     0.243 C 
ATOM      6  O   UNL d   1      27.535 -16.499  -0.934  0.00  0.00    -0.271 OA
ATOM      7  C   UNL d   1      26.765 -13.324   0.545  0.00  0.00     0.126 C 
ATOM      8  C   UNL d   1      26.283 -12.988   1.907  0.00  0.00     0.034 C 
ENDROOT
BRANCH   5   9
ATOM      9  C   UNL d   1      25.957 -15.035  -2.124  0.00  0.00     0.183 C 
BRANCH   9  10
ATOM     10  N   UNL d   1      26.635 -15.539  -3.376  0.00  0.00    -0.323 N 
ATOM     11  C   UNL d   1      26.208 -15.106  -4.613  0.00  0.00     0.362 C 
ATOM     12  O   UNL d   1      25.155 -14.449  -4.742  0.00  0.00    -0.238 OA
ATOM     13  H   UNL d   1      27.472 -16.109  -3.349  0.00  0.00     0.165 HD
BRANCH  11  14
ATOM     14  O   UNL d   1      27.011 -15.458  -5.660  0.00  0.00    -0.294 OA
BRANCH  14  15
ATOM     15  C   UNL d   1      28.352 -14.851  -5.729  0.00  0.00     0.061 C 
ATOM     16  C   UNL d   1      28.727 -14.449  -7.165  0.00  0.00     0.046 C 
ATOM     17  C   UNL d   1      28.456 -13.648  -4.776  0.00  0.00     0.046 C 
ATOM     18  C   UNL d   1      29.404 -15.886  -5.269  0.00  0.00     0.046 C 
ENDBRANCH  14  15
ENDBRANCH  11  14
ENDBRANCH   9  10
BRANCH   9  19
ATOM     19  C   UNL d   1      24.453 -15.437  -2.051  0.00  0.00     0.073 C 
BRANCH  19  20
ATOM     20  C   UNL d   1      23.953 -16.474  -0.951  0.00  0.00    -0.056 C 
ATOM     21  C   UNL d   1      24.733 -17.604  -0.546  0.00  0.00     0.007 C 
ATOM     22  C   UNL d   1      24.097 -18.852  -0.231  0.00  0.00     0.001 C 
ATOM     23  C   UNL d   1      22.704 -18.972  -0.255  0.00  0.00     0.000 C 
ATOM     24  C   UNL d   1      21.931 -17.840  -0.523  0.00  0.00     0.001 C 
ATOM     25  C   UNL d   1      22.538 -16.605  -0.851  0.00  0.00     0.007 C 
ENDBRANCH  19  20
ENDBRANCH   9  19
ENDBRANCH   5   9
BRANCH   1  26
ATOM     26  C   UNL d   1      28.335 -12.834   3.878  0.00  0.00     0.222 C 
ATOM     27  N   UNL d   1      28.538 -11.502   3.601  0.00  0.00    -0.348 N 
ATOM     28  H   UNL d   1      28.008 -10.981   2.936  0.00  0.00     0.163 HD
ATOM     29  O   UNL d   1      29.087 -13.476   4.600  0.00  0.00    -0.273 OA
BRANCH  27  30
ATOM     30  C   UNL d   1      29.466 -10.585   4.154  0.00  0.00     0.172 C 
ATOM     31  C   UNL d   1      29.399  -9.363   3.240  0.00  0.00     0.042 C 
BRANCH  30  32
ATOM     32  C   UNL d   1      28.951 -10.237   5.570  0.00  0.00     0.240 C 
ATOM     33  O   UNL d   1      28.530  -9.134   5.910  0.00  0.00    -0.271 OA
ATOM     34  N   UNL d   1      29.049 -11.297   6.429  0.00  0.00    -0.355 N 
ATOM     35  H   UNL d   1      29.485 -12.136   6.083  0.00  0.00     0.162 HD
BRANCH  34  36
ATOM     36  C   UNL d   1      28.592 -11.241   7.793  0.00  0.00     0.161 C 
BRANCH  36  37
ATOM     37  C   UNL d   1      28.996 -12.459   8.592  0.00  0.00    -0.040 A 
ATOM     38  C   UNL d   1      30.113 -13.245   8.253  0.00  0.00     0.012 A 
ATOM     39  C   UNL d   1      30.372 -14.442   8.914  0.00  0.00     0.043 A 
ATOM     40  C   UNL d   1      29.557 -14.831   9.965  0.00  0.00     0.116 A 
ATOM     41  F   UNL d   1      29.846 -15.951  10.637  0.00  0.00    -0.206 F 
ATOM     42  C   UNL d   1      28.454 -14.070  10.331  0.00  0.00     0.043 A 
ATOM     43  C   UNL d   1      28.167 -12.891   9.640  0.00  0.00     0.012 A 
ENDBRANCH  36  37
ENDBRANCH  34  36
ENDBRANCH  30  32
ENDBRANCH  27  30
ENDBRANCH   1  26
TORSDOF 11
ENDMDL
MODEL 4
REMARK VINA RESULT:    -9.387      3.536      5.181
REMARK INTER + INTRA:         -16.309
REMARK INTER:                 -12.668
REMARK INTRA:                  -3.641
REMARK CONF_INDEPENDENT:        3.281
REMARK UNBOUND:                -3.641
REMARK  11 active torsions:
REMARK  status: ('A' for Active; 'I' for Inactive)
REMARK    1  A    between atoms: C_2  and  C_30 
REMARK    2  A    between atoms: C_2  and  N_3 
REMARK       I    between atoms: N_3  and  C_4 
REMARK    3  A    between atoms: C_4  and  C_6 
REMARK       I    between atoms: N_9  and  C_10 
REMARK    4  A    between atoms: C_12  and  C_10 
REMARK    5  A    between atoms: C_12  and  N_20 
REMARK    6  A    between atoms: C_12  and  C_13 
REMARK    7  A    between atoms: C_13  and  C_14 
REMARK       I    between atoms: N_20  and  C_21 
REMARK    8  A    between atoms: C_21  and  O_23 
REMARK    9  A    between atoms: O_23  and  C_24 
REMARK       I    between atoms: C_30  and  N_32 
REMARK   10  A    between atoms: N_32  and  C_33 
REMARK   11  A    between atoms: C_33  and  C_34 
ROOT
ATOM      1  C   UNL d   1      29.585 -14.357   1.522  0.00  0.00     0.081 C 
ATOM      2  C   UNL d   1      28.779 -13.220   0.814  0.00  0.00     0.034 C 
ATOM      3  C   UNL d   1      27.292 -13.443   0.611  0.00  0.00     0.126 C 
ATOM      4  N   UNL d   1      27.230 -14.510  -0.312  0.00  0.00    -0.350 N 
ATOM      5  C   UNL d   1      26.426 -14.415  -1.425  0.00  0.00     0.243 C 
ATOM      6  O   UNL d   1      25.992 -13.277  -1.670  0.00  0.00    -0.271 OA
ATOM      7  C   UNL d   1      27.910 -15.598   0.279  0.00  0.00     0.126 C 
ATOM      8  C   UNL d   1      29.339 -15.570   0.679  0.00  0.00     0.034 C 
ENDROOT
BRANCH   5   9
ATOM      9  C   UNL d   1      25.974 -15.638  -2.359  0.00  0.00     0.183 C 
BRANCH   9  10
ATOM     10  N   UNL d   1      26.913 -15.624  -3.542  0.00  0.00    -0.323 N 
ATOM     11  C   UNL d   1      26.437 -15.299  -4.794  0.00  0.00     0.362 C 
ATOM     12  O   UNL d   1      25.214 -15.195  -5.017  0.00  0.00    -0.238 OA
ATOM     13  H   UNL d   1      27.915 -15.739  -3.443  0.00  0.00     0.165 HD
BRANCH  11  14
ATOM     14  O   UNL d   1      27.396 -15.116  -5.750  0.00  0.00    -0.294 OA
BRANCH  14  15
ATOM     15  C   UNL d   1      28.084 -13.814  -5.790  0.00  0.00     0.061 C 
ATOM     16  C   UNL d   1      29.275 -13.764  -4.819  0.00  0.00     0.046 C 
ATOM     17  C   UNL d   1      28.527 -13.474  -7.223  0.00  0.00     0.046 C 
ATOM     18  C   UNL d   1      27.103 -12.705  -5.345  0.00  0.00     0.046 C 
ENDBRANCH  14  15
ENDBRANCH  11  14
ENDBRANCH   9  10
BRANCH   9  19
ATOM     19  C   UNL d   1      25.807 -17.059  -1.741  0.00  0.00     0.073 C 
BRANCH  19  20
ATOM     20  C   UNL d   1      24.581 -17.372  -0.775  0.00  0.00    -0.056 C 
ATOM     21  C   UNL d   1      24.269 -18.696  -0.327  0.00  0.00     0.007 C 
ATOM     22  C   UNL d   1      22.903 -19.108  -0.168  0.00  0.00     0.001 C 
ATOM     23  C   UNL d   1      21.853 -18.210  -0.388  0.00  0.00     0.000 C 
ATOM     24  C   UNL d   1      22.153 -16.882  -0.699  0.00  0.00     0.001 C 
ATOM     25  C   UNL d   1      23.492 -16.459  -0.876  0.00  0.00     0.007 C 
ENDBRANCH  19  20
ENDBRANCH   9  19
ENDBRANCH   5   9
BRANCH   1  26
ATOM     26  C   UNL d   1      29.886 -13.975   2.975  0.00  0.00     0.222 C 
ATOM     27  N   UNL d   1      29.116 -14.724   3.835  0.00  0.00    -0.348 N 
ATOM     28  H   UNL d   1      28.531 -15.480   3.548  0.00  0.00     0.163 HD
ATOM     29  O   UNL d   1      30.489 -12.973   3.339  0.00  0.00    -0.273 OA
BRANCH  27  30
ATOM     30  C   UNL d   1      28.975 -14.642   5.242  0.00  0.00     0.172 C 
ATOM     31  C   UNL d   1      30.402 -14.516   5.770  0.00  0.00     0.042 C 
BRANCH  30  32
ATOM     32  C   UNL d   1      28.170 -13.352   5.529  0.00  0.00     0.240 C 
ATOM     33  O   UNL d   1      27.000 -13.327   5.904  0.00  0.00    -0.271 OA
ATOM     34  N   UNL d   1      28.902 -12.223   5.284  0.00  0.00    -0.355 N 
ATOM     35  H   UNL d   1      29.824 -12.343   4.899  0.00  0.00     0.162 HD
BRANCH  34  36
ATOM     36  C   UNL d   1      28.392 -10.897   5.519  0.00  0.00     0.161 C 
BRANCH  36  37
ATOM     37  C   UNL d   1      27.816 -10.268   4.272  0.00  0.00    -0.040 A 
ATOM     38  C   UNL d   1      27.692  -8.874   4.119  0.00  0.00     0.012 A 
ATOM     39  C   UNL d   1      27.022  -8.330   3.027  0.00  0.00     0.043 A 
ATOM     40  C   UNL d   1      26.528  -9.172   2.043  0.00  0.00     0.116 A 
ATOM     41  F   UNL d   1      25.939  -8.642   0.965  0.00  0.00    -0.206 F 
ATOM     42  C   UNL d   1      26.646 -10.551   2.158  0.00  0.00     0.043 A 
ATOM     43  C   UNL d   1      27.279 -11.100   3.275  0.00  0.00     0.012 A 
ENDBRANCH  36  37
ENDBRANCH  34  36
ENDBRANCH  30  32
ENDBRANCH  27  30
ENDBRANCH   1  26
TORSDOF 11
ENDMDL
MODEL 5
REMARK VINA RESULT:    -9.275      1.804      2.494
REMARK INTER + INTRA:         -15.682
REMARK INTER:                 -12.556
REMARK INTRA:                  -3.126
REMARK CONF_INDEPENDENT:        3.281
REMARK UNBOUND:                -3.126
REMARK  11 active torsions:
REMARK  status: ('A' for Active; 'I' for Inactive)
REMARK    1  A    between atoms: C_2  and  C_30 
REMARK    2  A    between atoms: C_2  and  N_3 
REMARK       I    between atoms: N_3  and  C_4 
REMARK    3  A    between atoms: C_4  and  C_6 
REMARK       I    between atoms: N_9  and  C_10 
REMARK    4  A    between atoms: C_12  and  C_10 
REMARK    5  A    between atoms: C_12  and  N_20 
REMARK    6  A    between atoms: C_12  and  C_13 
REMARK    7  A    between atoms: C_13  and  C_14 
REMARK       I    between atoms: N_20  and  C_21 
REMARK    8  A    between atoms: C_21  and  O_23 
REMARK    9  A    between atoms: O_23  and  C_24 
REMARK       I    between atoms: C_30  and  N_32 
REMARK   10  A    between atoms: N_32  and  C_33 
REMARK   11  A    between atoms: C_33  and  C_34 
ROOT
ATOM      1  C   UNL d   1      30.714 -14.680  -0.028  0.00  0.00     0.081 C 
ATOM      2  C   UNL d   1      29.679 -13.527  -0.232  0.00  0.00     0.034 C 
ATOM      3  C   UNL d   1      28.244 -13.798   0.178  0.00  0.00     0.126 C 
ATOM      4  N   UNL d   1      27.812 -14.790  -0.731  0.00  0.00    -0.350 N 
ATOM      5  C   UNL d   1      26.617 -14.641  -1.397  0.00  0.00     0.243 C 
ATOM      6  O   UNL d   1      26.113 -13.508  -1.336  0.00  0.00    -0.271 OA
ATOM      7  C   UNL d   1      28.683 -15.890  -0.575  0.00  0.00     0.126 C 
ATOM      8  C   UNL d   1      30.148 -15.831  -0.801  0.00  0.00     0.034 C 
ENDROOT
BRANCH   5   9
ATOM      9  C   UNL d   1      25.826 -15.804  -2.169  0.00  0.00     0.183 C 
BRANCH   9  10
ATOM     10  N   UNL d   1      26.467 -15.906  -3.532  0.00  0.00    -0.323 N 
ATOM     11  C   UNL d   1      25.941 -15.201  -4.594  0.00  0.00     0.362 C 
ATOM     12  O   UNL d   1      24.839 -14.622  -4.507  0.00  0.00    -0.238 OA
ATOM     13  H   UNL d   1      27.342 -16.391  -3.688  0.00  0.00     0.165 HD
BRANCH  11  14
ATOM     14  O   UNL d   1      26.706 -15.199  -5.726  0.00  0.00    -0.294 OA
BRANCH  14  15
ATOM     15  C   UNL d   1      28.072 -14.654  -5.627  0.00  0.00     0.061 C 
ATOM     16  C   UNL d   1      28.163 -13.517  -4.596  0.00  0.00     0.046 C 
ATOM     17  C   UNL d   1      29.083 -15.769  -5.308  0.00  0.00     0.046 C 
ATOM     18  C   UNL d   1      28.480 -14.049  -6.990  0.00  0.00     0.046 C 
ENDBRANCH  14  15
ENDBRANCH  11  14
ENDBRANCH   9  10
BRANCH   9  19
ATOM     19  C   UNL d   1      25.640 -17.193  -1.486  0.00  0.00     0.073 C 
BRANCH  19  20
ATOM     20  C   UNL d   1      24.286 -17.535  -0.723  0.00  0.00    -0.056 C 
ATOM     21  C   UNL d   1      23.859 -18.878  -0.471  0.00  0.00     0.007 C 
ATOM     22  C   UNL d   1      22.467 -19.224  -0.531  0.00  0.00     0.001 C 
ATOM     23  C   UNL d   1      21.497 -18.247  -0.777  0.00  0.00     0.000 C 
ATOM     24  C   UNL d   1      21.893 -16.913  -0.895  0.00  0.00     0.001 C 
ATOM     25  C   UNL d   1      23.261 -16.553  -0.855  0.00  0.00     0.007 C 
ENDBRANCH  19  20
ENDBRANCH   9  19
ENDBRANCH   5   9
BRANCH   1  26
ATOM     26  C   UNL d   1      31.590 -14.403   1.199  0.00  0.00     0.222 C 
ATOM     27  N   UNL d   1      30.803 -14.198   2.309  0.00  0.00    -0.348 N 
ATOM     28  H   UNL d   1      29.814 -14.323   2.325  0.00  0.00     0.163 HD
ATOM     29  O   UNL d   1      32.779 -14.114   1.176  0.00  0.00    -0.273 OA
BRANCH  27  30
ATOM     30  C   UNL d   1      31.161 -13.806   3.623  0.00  0.00     0.172 C 
ATOM     31  C   UNL d   1      31.762 -12.411   3.463  0.00  0.00     0.042 C 
BRANCH  30  32
ATOM     32  C   UNL d   1      29.848 -13.745   4.438  0.00  0.00     0.240 C 
ATOM     33  O   UNL d   1      28.742 -13.490   3.965  0.00  0.00    -0.271 OA
ATOM     34  N   UNL d   1      30.057 -13.975   5.770  0.00  0.00    -0.355 N 
ATOM     35  H   UNL d   1      31.009 -14.091   6.076  0.00  0.00     0.162 HD
BRANCH  34  36
ATOM     36  C   UNL d   1      28.987 -14.018   6.732  0.00  0.00     0.161 C 
BRANCH  36  37
ATOM     37  C   UNL d   1      29.488 -14.078   8.156  0.00  0.00    -0.040 A 
ATOM     38  C   UNL d   1      30.808 -14.446   8.475  0.00  0.00     0.012 A 
ATOM     39  C   UNL d   1      31.198 -14.638   9.797  0.00  0.00     0.043 A 
ATOM     40  C   UNL d   1      30.290 -14.398  10.817  0.00  0.00     0.116 A 
ATOM     41  F   UNL d   1      30.687 -14.524  12.088  0.00  0.00    -0.206 F 
ATOM     42  C   UNL d   1      28.984 -14.021  10.535  0.00  0.00     0.043 A 
ATOM     43  C   UNL d   1      28.579 -13.871   9.207  0.00  0.00     0.012 A 
ENDBRANCH  36  37
ENDBRANCH  34  36
ENDBRANCH  30  32
ENDBRANCH  27  30
ENDBRANCH   1  26
TORSDOF 11
ENDMDL
MODEL 6
REMARK VINA RESULT:    -8.833      3.535      5.679
REMARK INTER + INTRA:         -15.428
REMARK INTER:                 -12.115
REMARK INTRA:                  -3.314
REMARK CONF_INDEPENDENT:        3.281
REMARK UNBOUND:                -3.314
REMARK  11 active torsions:
REMARK  status: ('A' for Active; 'I' for Inactive)
REMARK    1  A    between atoms: C_2  and  C_30 
REMARK    2  A    between atoms: C_2  and  N_3 
REMARK       I    between atoms: N_3  and  C_4 
REMARK    3  A    between atoms: C_4  and  C_6 
REMARK       I    between atoms: N_9  and  C_10 
REMARK    4  A    between atoms: C_12  and  C_10 
REMARK    5  A    between atoms: C_12  and  N_20 
REMARK    6  A    between atoms: C_12  and  C_13 
REMARK    7  A    between atoms: C_13  and  C_14 
REMARK       I    between atoms: N_20  and  C_21 
REMARK    8  A    between atoms: C_21  and  O_23 
REMARK    9  A    between atoms: O_23  and  C_24 
REMARK       I    between atoms: C_30  and  N_32 
REMARK   10  A    between atoms: N_32  and  C_33 
REMARK   11  A    between atoms: C_33  and  C_34 
ROOT
ATOM      1  C   UNL d   1      27.381 -13.645   2.969  0.00  0.00     0.081 C 
ATOM      2  C   UNL d   1      27.988 -14.936   2.330  0.00  0.00     0.034 C 
ATOM      3  C   UNL d   1      28.535 -14.823   0.920  0.00  0.00     0.126 C 
ATOM      4  N   UNL d   1      27.391 -14.574   0.129  0.00  0.00    -0.350 N 
ATOM      5  C   UNL d   1      27.165 -15.312  -1.010  0.00  0.00     0.243 C 
ATOM      6  O   UNL d   1      27.867 -16.329  -1.131  0.00  0.00    -0.271 OA
ATOM      7  C   UNL d   1      26.805 -13.389   0.626  0.00  0.00     0.126 C 
ATOM      8  C   UNL d   1      26.308 -13.224   2.014  0.00  0.00     0.034 C 
ENDROOT
BRANCH   5   9
ATOM      9  C   UNL d   1      26.138 -14.931  -2.182  0.00  0.00     0.183 C 
BRANCH   9  10
ATOM     10  N   UNL d   1      26.773 -15.414  -3.463  0.00  0.00    -0.323 N 
ATOM     11  C   UNL d   1      26.250 -15.030  -4.679  0.00  0.00     0.362 C 
ATOM     12  O   UNL d   1      25.152 -14.441  -4.757  0.00  0.00    -0.238 OA
ATOM     13  H   UNL d   1      27.645 -15.931  -3.477  0.00  0.00     0.165 HD
BRANCH  11  14
ATOM     14  O   UNL d   1      27.012 -15.350  -5.767  0.00  0.00    -0.294 OA
BRANCH  14  15
ATOM     15  C   UNL d   1      28.385 -14.818  -5.821  0.00  0.00     0.061 C 
ATOM     16  C   UNL d   1      28.552 -13.570  -4.938  0.00  0.00     0.046 C 
ATOM     17  C   UNL d   1      29.407 -15.904  -5.438  0.00  0.00     0.046 C 
ATOM     18  C   UNL d   1      28.708 -14.383  -7.268  0.00  0.00     0.046 C 
ENDBRANCH  14  15
ENDBRANCH  11  14
ENDBRANCH   9  10
BRANCH   9  19
ATOM     19  C   UNL d   1      24.640 -15.347  -2.058  0.00  0.00     0.073 C 
BRANCH  19  20
ATOM     20  C   UNL d   1      24.185 -16.372  -0.929  0.00  0.00    -0.056 C 
ATOM     21  C   UNL d   1      25.011 -17.457  -0.493  0.00  0.00     0.007 C 
ATOM     22  C   UNL d   1      24.428 -18.721  -0.142  0.00  0.00     0.001 C 
ATOM     23  C   UNL d   1      23.041 -18.901  -0.162  0.00  0.00     0.000 C 
ATOM     24  C   UNL d   1      22.222 -17.810  -0.461  0.00  0.00     0.001 C 
ATOM     25  C   UNL d   1      22.776 -16.560  -0.825  0.00  0.00     0.007 C 
ENDBRANCH  19  20
ENDBRANCH   9  19
ENDBRANCH   5   9
BRANCH   1  26
ATOM     26  C   UNL d   1      28.358 -13.040   3.984  0.00  0.00     0.222 C 
ATOM     27  N   UNL d   1      27.772 -12.972   5.227  0.00  0.00    -0.348 N 
ATOM     28  H   UNL d   1      26.882 -13.362   5.449  0.00  0.00     0.163 HD
ATOM     29  O   UNL d   1      29.388 -12.438   3.711  0.00  0.00    -0.273 OA
BRANCH  27  30
ATOM     30  C   UNL d   1      28.247 -12.392   6.430  0.00  0.00     0.172 C 
ATOM     31  C   UNL d   1      29.530 -13.156   6.750  0.00  0.00     0.042 C 
BRANCH  30  32
ATOM     32  C   UNL d   1      28.557 -10.910   6.113  0.00  0.00     0.240 C 
ATOM     33  O   UNL d   1      29.423 -10.242   6.673  0.00  0.00    -0.271 OA
ATOM     34  N   UNL d   1      27.727 -10.405   5.150  0.00  0.00    -0.355 N 
ATOM     35  H   UNL d   1      26.993 -11.004   4.810  0.00  0.00     0.162 HD
BRANCH  34  36
ATOM     36  C   UNL d   1      27.844  -9.061   4.647  0.00  0.00     0.161 C 
BRANCH  36  37
ATOM     37  C   UNL d   1      27.473  -8.954   3.186  0.00  0.00    -0.040 A 
ATOM     38  C   UNL d   1      27.858  -9.920   2.238  0.00  0.00     0.012 A 
ATOM     39  C   UNL d   1      27.631  -9.720   0.879  0.00  0.00     0.043 A 
ATOM     40  C   UNL d   1      26.958  -8.583   0.461  0.00  0.00     0.116 A 
ATOM     41  F   UNL d   1      26.688  -8.424  -0.839  0.00  0.00    -0.206 F 
ATOM     42  C   UNL d   1      26.553  -7.617   1.374  0.00  0.00     0.043 A 
ATOM     43  C   UNL d   1      26.819  -7.796   2.733  0.00  0.00     0.012 A 
ENDBRANCH  36  37
ENDBRANCH  34  36
ENDBRANCH  30  32
ENDBRANCH  27  30
ENDBRANCH   1  26
TORSDOF 11
ENDMDL
MODEL 7
REMARK VINA RESULT:    -8.772      4.840      6.426
REMARK INTER + INTRA:         -15.729
REMARK INTER:                 -12.054
REMARK INTRA:                  -3.675
REMARK CONF_INDEPENDENT:        3.281
REMARK UNBOUND:                -3.675
REMARK  11 active torsions:
REMARK  status: ('A' for Active; 'I' for Inactive)
REMARK    1  A    between atoms: C_2  and  C_30 
REMARK    2  A    between atoms: C_2  and  N_3 
REMARK       I    between atoms: N_3  and  C_4 
REMARK    3  A    between atoms: C_4  and  C_6 
REMARK       I    between atoms: N_9  and  C_10 
REMARK    4  A    between atoms: C_12  and  C_10 
REMARK    5  A    between atoms: C_12  and  N_20 
REMARK    6  A    between atoms: C_12  and  C_13 
REMARK    7  A    between atoms: C_13  and  C_14 
REMARK       I    between atoms: N_20  and  C_21 
REMARK    8  A    between atoms: C_21  and  O_23 
REMARK    9  A    between atoms: O_23  and  C_24 
REMARK       I    between atoms: C_30  and  N_32 
REMARK   10  A    between atoms: N_32  and  C_33 
REMARK   11  A    between atoms: C_33  and  C_34 
ROOT
ATOM      1  C   UNL d   1      27.715 -10.299  -2.915  0.00  0.00     0.081 C 
ATOM      2  C   UNL d   1      26.507 -10.776  -3.784  0.00  0.00     0.034 C 
ATOM      3  C   UNL d   1      25.530 -11.745  -3.146  0.00  0.00     0.126 C 
ATOM      4  N   UNL d   1      26.288 -12.924  -2.965  0.00  0.00    -0.350 N 
ATOM      5  C   UNL d   1      25.788 -14.137  -3.379  0.00  0.00     0.243 C 
ATOM      6  O   UNL d   1      24.792 -14.075  -4.119  0.00  0.00    -0.271 OA
ATOM      7  C   UNL d   1      27.388 -12.578  -2.149  0.00  0.00     0.126 C 
ATOM      8  C   UNL d   1      28.408 -11.564  -2.511  0.00  0.00     0.034 C 
ENDROOT
BRANCH   5   9
ATOM      9  C   UNL d   1      26.343 -15.577  -2.940  0.00  0.00     0.183 C 
BRANCH   9  10
ATOM     10  N   UNL d   1      27.617 -15.785  -3.723  0.00  0.00    -0.323 N 
ATOM     11  C   UNL d   1      27.632 -15.565  -5.084  0.00  0.00     0.362 C 
ATOM     12  O   UNL d   1      26.578 -15.374  -5.723  0.00  0.00    -0.238 OA
ATOM     13  H   UNL d   1      28.505 -15.981  -3.276  0.00  0.00     0.165 HD
BRANCH  11  14
ATOM     14  O   UNL d   1      28.871 -15.583  -5.661  0.00  0.00    -0.294 OA
BRANCH  14  15
ATOM     15  C   UNL d   1      29.429 -14.300  -6.123  0.00  0.00     0.061 C 
ATOM     16  C   UNL d   1      30.861 -14.458  -6.662  0.00  0.00     0.046 C 
ATOM     17  C   UNL d   1      28.513 -13.654  -7.178  0.00  0.00     0.046 C 
ATOM     18  C   UNL d   1      29.510 -13.319  -4.932  0.00  0.00     0.046 C 
ENDBRANCH  14  15
ENDBRANCH  11  14
ENDBRANCH   9  10
BRANCH   9  19
ATOM     19  C   UNL d   1      26.505 -15.910  -1.426  0.00  0.00     0.073 C 
BRANCH  19  20
ATOM     20  C   UNL d   1      25.301 -16.567  -0.618  0.00  0.00    -0.056 C 
ATOM     21  C   UNL d   1      25.335 -17.919  -0.146  0.00  0.00     0.007 C 
ATOM     22  C   UNL d   1      24.144 -18.721  -0.149  0.00  0.00     0.001 C 
ATOM     23  C   UNL d   1      22.919 -18.183  -0.555  0.00  0.00     0.000 C 
ATOM     24  C   UNL d   1      22.853 -16.829  -0.893  0.00  0.00     0.001 C 
ATOM     25  C   UNL d   1      24.017 -16.025  -0.912  0.00  0.00     0.007 C 
ENDBRANCH  19  20
ENDBRANCH   9  19
ENDBRANCH   5   9
BRANCH   1  26
ATOM     26  C   UNL d   1      27.479  -8.872  -2.407  0.00  0.00     0.222 C 
ATOM     27  N   UNL d   1      26.968  -8.899  -1.130  0.00  0.00    -0.348 N 
ATOM     28  H   UNL d   1      26.873  -9.727  -0.583  0.00  0.00     0.163 HD
ATOM     29  O   UNL d   1      27.460  -7.862  -3.099  0.00  0.00    -0.273 OA
BRANCH  27  30
ATOM     30  C   UNL d   1      26.498  -7.843  -0.312  0.00  0.00     0.172 C 
ATOM     31  C   UNL d   1      25.223  -7.356  -0.999  0.00  0.00     0.042 C 
BRANCH  30  32
ATOM     32  C   UNL d   1      26.172  -8.464   1.067  0.00  0.00     0.240 C 
ATOM     33  O   UNL d   1      25.156  -8.231   1.717  0.00  0.00    -0.271 OA
ATOM     34  N   UNL d   1      27.170  -9.289   1.508  0.00  0.00    -0.355 N 
ATOM     35  H   UNL d   1      28.002  -9.352   0.946  0.00  0.00     0.162 HD
BRANCH  34  36
ATOM     36  C   UNL d   1      27.086 -10.023   2.744  0.00  0.00     0.161 C 
BRANCH  36  37
ATOM     37  C   UNL d   1      27.136 -11.519   2.536  0.00  0.00    -0.040 A 
ATOM     38  C   UNL d   1      27.745 -12.388   3.459  0.00  0.00     0.012 A 
ATOM     39  C   UNL d   1      27.909 -13.740   3.169  0.00  0.00     0.043 A 
ATOM     40  C   UNL d   1      27.405 -14.248   1.982  0.00  0.00     0.116 A 
ATOM     41  F   UNL d   1      27.510 -15.558   1.735  0.00  0.00    -0.206 F 
ATOM     42  C   UNL d   1      26.787 -13.418   1.056  0.00  0.00     0.043 A 
ATOM     43  C   UNL d   1      26.661 -12.053   1.326  0.00  0.00     0.012 A 
ENDBRANCH  36  37
ENDBRANCH  34  36
ENDBRANCH  30  32
ENDBRANCH  27  30
ENDBRANCH   1  26
TORSDOF 11
ENDMDL
MODEL 8
REMARK VINA RESULT:    -8.718      5.579      8.047
REMARK INTER + INTRA:         -15.741
REMARK INTER:                 -11.999
REMARK INTRA:                  -3.742
REMARK CONF_INDEPENDENT:        3.281
REMARK UNBOUND:                -3.742
REMARK  11 active torsions:
REMARK  status: ('A' for Active; 'I' for Inactive)
REMARK    1  A    between atoms: C_2  and  C_30 
REMARK    2  A    between atoms: C_2  and  N_3 
REMARK       I    between atoms: N_3  and  C_4 
REMARK    3  A    between atoms: C_4  and  C_6 
REMARK       I    between atoms: N_9  and  C_10 
REMARK    4  A    between atoms: C_12  and  C_10 
REMARK    5  A    between atoms: C_12  and  N_20 
REMARK    6  A    between atoms: C_12  and  C_13 
REMARK    7  A    between atoms: C_13  and  C_14 
REMARK       I    between atoms: N_20  and  C_21 
REMARK    8  A    between atoms: C_21  and  O_23 
REMARK    9  A    between atoms: O_23  and  C_24 
REMARK       I    between atoms: C_30  and  N_32 
REMARK   10  A    between atoms: N_32  and  C_33 
REMARK   11  A    between atoms: C_33  and  C_34 
ROOT
ATOM      1  C   UNL d   1      27.302 -12.149   2.398  0.00  0.00     0.081 C 
ATOM      2  C   UNL d   1      28.407 -12.114   1.293  0.00  0.00     0.034 C 
ATOM      3  C   UNL d   1      27.946 -12.076  -0.151  0.00  0.00     0.126 C 
ATOM      4  N   UNL d   1      27.330 -13.333  -0.345  0.00  0.00    -0.350 N 
ATOM      5  C   UNL d   1      27.657 -14.101  -1.439  0.00  0.00     0.243 C 
ATOM      6  O   UNL d   1      28.671 -13.738  -2.058  0.00  0.00    -0.271 OA
ATOM      7  C   UNL d   1      26.285 -13.422   0.600  0.00  0.00     0.126 C 
ATOM      8  C   UNL d   1      26.482 -13.358   2.069  0.00  0.00     0.034 C 
ENDROOT
BRANCH   5   9
ATOM      9  C   UNL d   1      26.817 -15.352  -1.988  0.00  0.00     0.183 C 
BRANCH   9  10
ATOM     10  N   UNL d   1      27.333 -15.618  -3.382  0.00  0.00    -0.323 N 
ATOM     11  C   UNL d   1      26.606 -15.201  -4.476  0.00  0.00     0.362 C 
ATOM     12  O   UNL d   1      25.441 -14.771  -4.356  0.00  0.00    -0.238 OA
ATOM     13  H   UNL d   1      28.255 -16.001  -3.557  0.00  0.00     0.165 HD
BRANCH  11  14
ATOM     14  O   UNL d   1      27.251 -15.306  -5.676  0.00  0.00    -0.294 OA
BRANCH  14  15
ATOM     15  C   UNL d   1      28.473 -14.505  -5.868  0.00  0.00     0.061 C 
ATOM     16  C   UNL d   1      29.744 -15.311  -5.552  0.00  0.00     0.046 C 
ATOM     17  C   UNL d   1      28.528 -13.928  -7.294  0.00  0.00     0.046 C 
ATOM     18  C   UNL d   1      28.456 -13.305  -4.894  0.00  0.00     0.046 C 
ENDBRANCH  14  15
ENDBRANCH  11  14
ENDBRANCH   9  10
BRANCH   9  19
ATOM     19  C   UNL d   1      26.713 -16.648  -1.127  0.00  0.00     0.073 C 
BRANCH  19  20
ATOM     20  C   UNL d   1      25.326 -17.057  -0.461  0.00  0.00    -0.056 C 
ATOM     21  C   UNL d   1      24.996 -18.412  -0.137  0.00  0.00     0.007 C 
ATOM     22  C   UNL d   1      23.651 -18.890  -0.292  0.00  0.00     0.001 C 
ATOM     23  C   UNL d   1      22.627 -18.030  -0.703  0.00  0.00     0.000 C 
ATOM     24  C   UNL d   1      22.917 -16.677  -0.895  0.00  0.00     0.001 C 
ATOM     25  C   UNL d   1      24.238 -16.189  -0.764  0.00  0.00     0.007 C 
ENDBRANCH  19  20
ENDBRANCH   9  19
ENDBRANCH   5   9
BRANCH   1  26
ATOM     26  C   UNL d   1      27.156 -10.770   3.054  0.00  0.00     0.222 C 
ATOM     27  N   UNL d   1      26.795  -9.832   2.114  0.00  0.00    -0.348 N 
ATOM     28  H   UNL d   1      26.558 -10.047   1.170  0.00  0.00     0.163 HD
ATOM     29  O   UNL d   1      27.569 -10.461   4.164  0.00  0.00    -0.273 OA
BRANCH  27  30
ATOM     30  C   UNL d   1      26.657  -8.427   2.233  0.00  0.00     0.172 C 
ATOM     31  C   UNL d   1      28.088  -7.901   2.322  0.00  0.00     0.042 C 
BRANCH  30  32
ATOM     32  C   UNL d   1      25.975  -7.939   0.933  0.00  0.00     0.240 C 
ATOM     33  O   UNL d   1      24.787  -7.640   0.837  0.00  0.00    -0.271 OA
ATOM     34  N   UNL d   1      26.842  -7.911  -0.124  0.00  0.00    -0.355 N 
ATOM     35  H   UNL d   1      27.775  -8.255   0.032  0.00  0.00     0.162 HD
BRANCH  34  36
ATOM     36  C   UNL d   1      26.460  -7.450  -1.434  0.00  0.00     0.161 C 
BRANCH  36  37
ATOM     37  C   UNL d   1      26.305  -8.580  -2.424  0.00  0.00    -0.040 A 
ATOM     38  C   UNL d   1      25.384  -8.530  -3.487  0.00  0.00     0.012 A 
ATOM     39  C   UNL d   1      25.157  -9.643  -4.291  0.00  0.00     0.043 A 
ATOM     40  C   UNL d   1      25.898 -10.796  -4.084  0.00  0.00     0.116 A 
ATOM     41  F   UNL d   1      25.721 -11.842  -4.898  0.00  0.00    -0.206 F 
ATOM     42  C   UNL d   1      26.825 -10.872  -3.052  0.00  0.00     0.043 A 
ATOM     43  C   UNL d   1      27.021  -9.771  -2.216  0.00  0.00     0.012 A 
ENDBRANCH  36  37
ENDBRANCH  34  36
ENDBRANCH  30  32
ENDBRANCH  27  30
ENDBRANCH   1  26
TORSDOF 11
ENDMDL
MODEL 9
REMARK VINA RESULT:    -8.463      3.501      5.373
REMARK INTER + INTRA:         -15.472
REMARK INTER:                 -11.744
REMARK INTRA:                  -3.728
REMARK CONF_INDEPENDENT:        3.281
REMARK UNBOUND:                -3.728
REMARK  11 active torsions:
REMARK  status: ('A' for Active; 'I' for Inactive)
REMARK    1  A    between atoms: C_2  and  C_30 
REMARK    2  A    between atoms: C_2  and  N_3 
REMARK       I    between atoms: N_3  and  C_4 
REMARK    3  A    between atoms: C_4  and  C_6 
REMARK       I    between atoms: N_9  and  C_10 
REMARK    4  A    between atoms: C_12  and  C_10 
REMARK    5  A    between atoms: C_12  and  N_20 
REMARK    6  A    between atoms: C_12  and  C_13 
REMARK    7  A    between atoms: C_13  and  C_14 
REMARK       I    between atoms: N_20  and  C_21 
REMARK    8  A    between atoms: C_21  and  O_23 
REMARK    9  A    between atoms: O_23  and  C_24 
REMARK       I    between atoms: C_30  and  N_32 
REMARK   10  A    between atoms: N_32  and  C_33 
REMARK   11  A    between atoms: C_33  and  C_34 
ROOT
ATOM      1  C   UNL d   1      27.077 -13.361   2.792  0.00  0.00     0.081 C 
ATOM      2  C   UNL d   1      27.590 -14.760   2.321  0.00  0.00     0.034 C 
ATOM      3  C   UNL d   1      28.193 -14.848   0.932  0.00  0.00     0.126 C 
ATOM      4  N   UNL d   1      27.103 -14.592   0.070  0.00  0.00    -0.350 N 
ATOM      5  C   UNL d   1      26.853 -15.428  -0.994  0.00  0.00     0.243 C 
ATOM      6  O   UNL d   1      27.467 -16.508  -0.976  0.00  0.00    -0.271 OA
ATOM      7  C   UNL d   1      26.607 -13.315   0.412  0.00  0.00     0.126 C 
ATOM      8  C   UNL d   1      26.078 -12.958   1.752  0.00  0.00     0.034 C 
ENDROOT
BRANCH   5   9
ATOM      9  C   UNL d   1      25.904 -15.093  -2.243  0.00  0.00     0.183 C 
BRANCH   9  10
ATOM     10  N   UNL d   1      26.653 -15.561  -3.468  0.00  0.00    -0.323 N 
ATOM     11  C   UNL d   1      26.242 -15.158  -4.721  0.00  0.00     0.362 C 
ATOM     12  O   UNL d   1      25.158 -14.564  -4.890  0.00  0.00    -0.238 OA
ATOM     13  H   UNL d   1      27.521 -16.080  -3.411  0.00  0.00     0.165 HD
BRANCH  11  14
ATOM     14  O   UNL d   1      27.100 -15.466  -5.740  0.00  0.00    -0.294 OA
BRANCH  14  15
ATOM     15  C   UNL d   1      28.422 -14.815  -5.742  0.00  0.00     0.061 C 
ATOM     16  C   UNL d   1      29.491 -15.686  -5.062  0.00  0.00     0.046 C 
ATOM     17  C   UNL d   1      28.844 -14.443  -7.174  0.00  0.00     0.046 C 
ATOM     18  C   UNL d   1      28.344 -13.499  -4.936  0.00  0.00     0.046 C 
ENDBRANCH  14  15
ENDBRANCH  11  14
ENDBRANCH   9  10
BRANCH   9  19
ATOM     19  C   UNL d   1      24.418 -15.563  -2.230  0.00  0.00     0.073 C 
BRANCH  19  20
ATOM     20  C   UNL d   1      23.916 -16.597  -1.128  0.00  0.00    -0.056 C 
ATOM     21  C   UNL d   1      24.602 -17.821  -0.848  0.00  0.00     0.007 C 
ATOM     22  C   UNL d   1      23.867 -19.010  -0.521  0.00  0.00     0.001 C 
ATOM     23  C   UNL d   1      22.473 -18.983  -0.412  0.00  0.00     0.000 C 
ATOM     24  C   UNL d   1      21.806 -17.764  -0.555  0.00  0.00     0.001 C 
ATOM     25  C   UNL d   1      22.510 -16.584  -0.893  0.00  0.00     0.007 C 
ENDBRANCH  19  20
ENDBRANCH   9  19
ENDBRANCH   5   9
BRANCH   1  26
ATOM     26  C   UNL d   1      28.068 -12.732   3.779  0.00  0.00     0.222 C 
ATOM     27  N   UNL d   1      29.358 -13.063   3.434  0.00  0.00    -0.348 N 
ATOM     28  H   UNL d   1      29.608 -13.548   2.599  0.00  0.00     0.163 HD
ATOM     29  O   UNL d   1      27.783 -12.255   4.870  0.00  0.00    -0.273 OA
BRANCH  27  30
ATOM     30  C   UNL d   1      30.578 -12.805   4.107  0.00  0.00     0.172 C 
ATOM     31  C   UNL d   1      30.405 -13.443   5.484  0.00  0.00     0.042 C 
BRANCH  30  32
ATOM     32  C   UNL d   1      31.685 -13.529   3.305  0.00  0.00     0.240 C 
ATOM     33  O   UNL d   1      32.741 -13.011   2.946  0.00  0.00    -0.271 OA
ATOM     34  N   UNL d   1      31.342 -14.817   3.001  0.00  0.00    -0.355 N 
ATOM     35  H   UNL d   1      30.421 -15.127   3.264  0.00  0.00     0.162 HD
BRANCH  34  36
ATOM     36  C   UNL d   1      32.224 -15.714   2.299  0.00  0.00     0.161 C 
BRANCH  36  37
ATOM     37  C   UNL d   1      31.651 -16.178   0.980  0.00  0.00    -0.040 A 
ATOM     38  C   UNL d   1      31.703 -17.521   0.566  0.00  0.00     0.012 A 
ATOM     39  C   UNL d   1      31.304 -17.892  -0.714  0.00  0.00     0.043 A 
ATOM     40  C   UNL d   1      30.785 -16.933  -1.570  0.00  0.00     0.116 A 
ATOM     41  F   UNL d   1      30.345 -17.305  -2.778  0.00  0.00    -0.206 F 
ATOM     42  C   UNL d   1      30.708 -15.601  -1.186  0.00  0.00     0.043 A 
ATOM     43  C   UNL d   1      31.149 -15.220   0.082  0.00  0.00     0.012 A 
ENDBRANCH  36  37
ENDBRANCH  34  36
ENDBRANCH  30  32
ENDBRANCH  27  30
ENDBRANCH   1  26
TORSDOF 11
ENDMDL
