MODEL 1
REMARK VINA RESULT:    -7.407      0.000      0.000
REMARK INTER + INTRA:          -9.648
REMARK INTER:                  -8.899
REMARK INTRA:                  -0.749
REMARK CONF_INDEPENDENT:        1.492
REMARK UNBOUND:                -0.749
REMARK  5 active torsions:
REMARK  status: ('A' for Active; 'I' for Inactive)
REMARK    1  A    between atoms: C_2  and  O_3 
REMARK    2  A    between atoms: O_3  and  C_4 
REMARK       I    between atoms: C_4  and  N_6 
REMARK    3  A    between atoms: C_17  and  C_18 
REMARK    4  A    between atoms: C_21  and  O_22 
REMARK    5  A    between atoms: C_25  and  O_26 
ROOT
ATOM      1  C   UNL d   1      30.790 -14.333  -7.018  0.00  0.00     0.363 C 
ATOM      2  O   UNL d   1      30.638 -13.128  -7.037  0.00  0.00    -0.238 OA
ATOM      3  N   UNL d   1      29.806 -15.223  -6.571  0.00  0.00    -0.323 N 
ATOM      4  C   UNL d   1      30.115 -16.429  -5.797  0.00  0.00     0.133 C 
ATOM      5  C   UNL d   1      29.748 -16.249  -4.299  0.00  0.00     0.061 C 
ATOM      6  C   UNL d   1      28.443 -15.526  -4.098  0.00  0.00    -0.023 A 
ATOM      7  C   UNL d   1      27.813 -14.904  -5.159  0.00  0.00     0.010 A 
ATOM      8  S   UNL d   1      26.292 -14.258  -4.681  0.00  0.00    -0.074 SA
ATOM      9  C   UNL d   1      26.495 -14.754  -3.032  0.00  0.00     0.088 A 
ATOM     10  C   UNL d   1      27.716 -15.376  -2.853  0.00  0.00     0.073 A 
ATOM     11  C   UNL d   1      27.986 -16.036  -1.579  0.00  0.00     0.256 C 
ATOM     12  O   UNL d   1      29.003 -16.705  -1.372  0.00  0.00    -0.267 OA
ATOM     13  N   UNL d   1      26.974 -16.031  -0.654  0.00  0.00    -0.331 N 
ATOM     14  C   UNL d   1      25.610 -15.618  -0.891  0.00  0.00     0.222 C 
ATOM     15  N   UNL d   1      25.498 -14.771  -2.085  0.00  0.00    -0.358 N 
ATOM     16  C   UNL d   1      28.377 -14.827  -6.570  0.00  0.00     0.174 C 
ATOM     17  H   UNL d   1      27.130 -16.665   0.117  0.00  0.00     0.165 HD
ATOM     18  H   UNL d   1      24.536 -14.626  -2.382  0.00  0.00     0.162 HD
ENDROOT
BRANCH  14  19
ATOM     19  C   UNL d   1      24.585 -16.796  -0.740  0.00  0.00     0.017 A 
ATOM     20  C   UNL d   1      23.208 -16.446  -0.865  0.00  0.00     0.017 A 
ATOM     21  C   UNL d   1      22.159 -17.364  -0.611  0.00  0.00     0.037 A 
ATOM     22  C   UNL d   1      22.431 -18.691  -0.308  0.00  0.00     0.070 A 
ATOM     23  C   UNL d   1      23.748 -19.054  -0.171  0.00  0.00     0.074 A 
ATOM     24  C   UNL d   1      24.802 -18.156  -0.372  0.00  0.00     0.081 A 
BRANCH  22  25
ATOM     25  O   UNL d   1      21.389 -19.566  -0.172  0.00  0.00    -0.356 OA
ATOM     26  C   UNL d   1      20.152 -19.143  -0.761  0.00  0.00     0.210 C 
ENDBRANCH  22  25
BRANCH  24  27
ATOM     27  O   UNL d   1      25.923 -18.916  -0.134  0.00  0.00    -0.355 OA
ATOM     28  C   UNL d   1      26.553 -18.560   1.034  0.00  0.00     0.210 C 
ENDBRANCH  24  27
ENDBRANCH  14  19
BRANCH   1  29
ATOM     29  O   UNL d   1      31.918 -14.956  -7.522  0.00  0.00    -0.304 OA
BRANCH  29  30
ATOM     30  C   UNL d   1      32.919 -14.069  -8.102  0.00  0.00     0.176 C 
ATOM     31  C   UNL d   1      32.524 -13.636  -9.517  0.00  0.00     0.034 C 
ENDBRANCH  29  30
ENDBRANCH   1  29
TORSDOF 5
ENDMDL
MODEL 2
REMARK VINA RESULT:    -6.680      4.218      9.262
REMARK INTER + INTRA:          -8.978
REMARK INTER:                  -8.172
REMARK INTRA:                  -0.806
REMARK CONF_INDEPENDENT:        1.492
REMARK UNBOUND:                -0.806
REMARK  5 active torsions:
REMARK  status: ('A' for Active; 'I' for Inactive)
REMARK    1  A    between atoms: C_2  and  O_3 
REMARK    2  A    between atoms: O_3  and  C_4 
REMARK       I    between atoms: C_4  and  N_6 
REMARK    3  A    between atoms: C_17  and  C_18 
REMARK    4  A    between atoms: C_21  and  O_22 
REMARK    5  A    between atoms: C_25  and  O_26 
ROOT
ATOM      1  C   UNL d   1      20.898 -19.255  -0.848  0.00  0.00     0.363 C 
ATOM      2  O   UNL d   1      20.767 -19.325  -2.054  0.00  0.00    -0.238 OA
ATOM      3  N   UNL d   1      21.665 -18.269  -0.215  0.00  0.00    -0.323 N 
ATOM      4  C   UNL d   1      22.488 -18.538   0.968  0.00  0.00     0.133 C 
ATOM      5  C   UNL d   1      23.997 -18.596   0.606  0.00  0.00     0.061 C 
ATOM      6  C   UNL d   1      24.403 -17.536  -0.384  0.00  0.00    -0.023 A 
ATOM      7  C   UNL d   1      23.447 -16.785  -1.041  0.00  0.00     0.010 A 
ATOM      8  S   UNL d   1      24.181 -15.575  -2.020  0.00  0.00    -0.074 SA
ATOM      9  C   UNL d   1      25.786 -16.090  -1.617  0.00  0.00     0.088 A 
ATOM     10  C   UNL d   1      25.754 -17.183  -0.772  0.00  0.00     0.073 A 
ATOM     11  C   UNL d   1      27.002 -17.638  -0.167  0.00  0.00     0.256 C 
ATOM     12  O   UNL d   1      27.050 -18.536   0.680  0.00  0.00    -0.267 OA
ATOM     13  N   UNL d   1      28.128 -16.908  -0.449  0.00  0.00    -0.331 N 
ATOM     14  C   UNL d   1      28.162 -15.626  -1.115  0.00  0.00     0.222 C 
ATOM     15  N   UNL d   1      26.932 -15.375  -1.876  0.00  0.00    -0.358 N 
ATOM     16  C   UNL d   1      21.946 -16.983  -0.895  0.00  0.00     0.174 C 
ATOM     17  H   UNL d   1      28.913 -17.134   0.144  0.00  0.00     0.165 HD
ATOM     18  H   UNL d   1      26.849 -14.412  -2.194  0.00  0.00     0.162 HD
ENDROOT
BRANCH  14  19
ATOM     19  C   UNL d   1      28.689 -14.475  -0.187  0.00  0.00     0.017 A 
ATOM     20  C   UNL d   1      29.790 -14.807   0.655  0.00  0.00     0.017 A 
ATOM     21  C   UNL d   1      30.285 -13.927   1.650  0.00  0.00     0.037 A 
ATOM     22  C   UNL d   1      29.766 -12.647   1.791  0.00  0.00     0.070 A 
ATOM     23  C   UNL d   1      28.699 -12.303   0.998  0.00  0.00     0.074 A 
ATOM     24  C   UNL d   1      28.162 -13.170   0.040  0.00  0.00     0.081 A 
BRANCH  22  25
ATOM     25  O   UNL d   1      30.341 -11.795   2.692  0.00  0.00    -0.356 OA
ATOM     26  C   UNL d   1      30.726 -12.389   3.940  0.00  0.00     0.210 C 
ENDBRANCH  22  25
BRANCH  24  27
ATOM     27  O   UNL d   1      27.130 -12.445  -0.509  0.00  0.00    -0.355 OA
ATOM     28  C   UNL d   1      27.492 -11.840  -1.689  0.00  0.00     0.210 C 
ENDBRANCH  24  27
ENDBRANCH  14  19
BRANCH   1  29
ATOM     29  O   UNL d   1      20.228 -20.089   0.030  0.00  0.00    -0.304 OA
BRANCH  29  30
ATOM     30  C   UNL d   1      18.776 -20.103  -0.102  0.00  0.00     0.176 C 
ATOM     31  C   UNL d   1      18.154 -21.234   0.722  0.00  0.00     0.034 C 
ENDBRANCH  29  30
ENDBRANCH   1  29
TORSDOF 5
ENDMDL
MODEL 3
REMARK VINA RESULT:    -6.570      2.585      3.478
REMARK INTER + INTRA:          -8.982
REMARK INTER:                  -8.062
REMARK INTRA:                  -0.920
REMARK CONF_INDEPENDENT:        1.492
REMARK UNBOUND:                -0.920
REMARK  5 active torsions:
REMARK  status: ('A' for Active; 'I' for Inactive)
REMARK    1  A    between atoms: C_2  and  O_3 
REMARK    2  A    between atoms: O_3  and  C_4 
REMARK       I    between atoms: C_4  and  N_6 
REMARK    3  A    between atoms: C_17  and  C_18 
REMARK    4  A    between atoms: C_21  and  O_22 
REMARK    5  A    between atoms: C_25  and  O_26 
ROOT
ATOM      1  C   UNL d   1      32.677 -17.896  -7.567  0.00  0.00     0.363 C 
ATOM      2  O   UNL d   1      33.186 -16.797  -7.665  0.00  0.00    -0.238 OA
ATOM      3  N   UNL d   1      31.427 -18.115  -6.974  0.00  0.00    -0.323 N 
ATOM      4  C   UNL d   1      31.135 -19.284  -6.139  0.00  0.00     0.133 C 
ATOM      5  C   UNL d   1      31.086 -18.906  -4.634  0.00  0.00     0.061 C 
ATOM      6  C   UNL d   1      30.393 -17.593  -4.382  0.00  0.00    -0.023 A 
ATOM      7  C   UNL d   1      30.074 -16.753  -5.432  0.00  0.00     0.010 A 
ATOM      8  S   UNL d   1      29.189 -15.385  -4.880  0.00  0.00    -0.074 SA
ATOM      9  C   UNL d   1      29.278 -15.879  -3.221  0.00  0.00     0.088 A 
ATOM     10  C   UNL d   1      29.997 -17.054  -3.097  0.00  0.00     0.073 A 
ATOM     11  C   UNL d   1      30.015 -17.730  -1.803  0.00  0.00     0.256 C 
ATOM     12  O   UNL d   1      30.539 -18.834  -1.630  0.00  0.00    -0.267 OA
ATOM     13  N   UNL d   1      29.268 -17.167  -0.801  0.00  0.00    -0.331 N 
ATOM     14  C   UNL d   1      28.312 -16.094  -0.955  0.00  0.00     0.222 C 
ATOM     15  N   UNL d   1      28.534 -15.342  -2.196  0.00  0.00    -0.358 N 
ATOM     16  C   UNL d   1      30.435 -17.018  -6.886  0.00  0.00     0.174 C 
ATOM     17  H   UNL d   1      29.148 -17.770   0.000  0.00  0.00     0.165 HD
ATOM     18  H   UNL d   1      27.769 -14.712  -2.424  0.00  0.00     0.162 HD
ENDROOT
BRANCH  14  19
ATOM     19  C   UNL d   1      26.843 -16.540  -0.631  0.00  0.00     0.017 A 
ATOM     20  C   UNL d   1      26.705 -17.591   0.322  0.00  0.00     0.017 A 
ATOM     21  C   UNL d   1      25.460 -18.203   0.612  0.00  0.00     0.037 A 
ATOM     22  C   UNL d   1      24.286 -17.738   0.036  0.00  0.00     0.070 A 
ATOM     23  C   UNL d   1      24.390 -16.732  -0.893  0.00  0.00     0.074 A 
ATOM     24  C   UNL d   1      25.612 -16.142  -1.232  0.00  0.00     0.081 A 
BRANCH  22  25
ATOM     25  O   UNL d   1      23.096 -18.288   0.422  0.00  0.00    -0.356 OA
ATOM     26  C   UNL d   1      22.345 -18.923  -0.623  0.00  0.00     0.210 C 
ENDBRANCH  22  25
BRANCH  24  27
ATOM     27  O   UNL d   1      25.268 -15.206  -2.179  0.00  0.00    -0.355 OA
ATOM     28  C   UNL d   1      25.684 -15.566  -3.439  0.00  0.00     0.210 C 
ENDBRANCH  24  27
ENDBRANCH  14  19
BRANCH   1  29
ATOM     29  O   UNL d   1      33.242 -19.036  -8.113  0.00  0.00    -0.304 OA
BRANCH  29  30
ATOM     30  C   UNL d   1      32.831 -19.348  -9.477  0.00  0.00     0.176 C 
ATOM     31  C   UNL d   1      31.343 -19.704  -9.541  0.00  0.00     0.034 C 
ENDBRANCH  29  30
ENDBRANCH   1  29
TORSDOF 5
ENDMDL
MODEL 4
REMARK VINA RESULT:    -6.531      4.317      9.194
REMARK INTER + INTRA:          -8.745
REMARK INTER:                  -8.023
REMARK INTRA:                  -0.722
REMARK CONF_INDEPENDENT:        1.492
REMARK UNBOUND:                -0.722
REMARK  5 active torsions:
REMARK  status: ('A' for Active; 'I' for Inactive)
REMARK    1  A    between atoms: C_2  and  O_3 
REMARK    2  A    between atoms: O_3  and  C_4 
REMARK       I    between atoms: C_4  and  N_6 
REMARK    3  A    between atoms: C_17  and  C_18 
REMARK    4  A    between atoms: C_21  and  O_22 
REMARK    5  A    between atoms: C_25  and  O_26 
ROOT
ATOM      1  C   UNL d   1      21.097 -19.220  -0.816  0.00  0.00     0.363 C 
ATOM      2  O   UNL d   1      20.953 -19.301  -2.019  0.00  0.00    -0.238 OA
ATOM      3  N   UNL d   1      21.879 -18.235  -0.200  0.00  0.00    -0.323 N 
ATOM      4  C   UNL d   1      22.712 -18.500   0.977  0.00  0.00     0.133 C 
ATOM      5  C   UNL d   1      24.216 -18.576   0.600  0.00  0.00     0.061 C 
ATOM      6  C   UNL d   1      24.622 -17.529  -0.403  0.00  0.00    -0.023 A 
ATOM      7  C   UNL d   1      23.667 -16.775  -1.058  0.00  0.00     0.010 A 
ATOM      8  S   UNL d   1      24.401 -15.582  -2.056  0.00  0.00    -0.074 SA
ATOM      9  C   UNL d   1      26.005 -16.107  -1.664  0.00  0.00     0.088 A 
ATOM     10  C   UNL d   1      25.972 -17.192  -0.808  0.00  0.00     0.073 A 
ATOM     11  C   UNL d   1      27.222 -17.653  -0.212  0.00  0.00     0.256 C 
ATOM     12  O   UNL d   1      27.270 -18.543   0.643  0.00  0.00    -0.267 OA
ATOM     13  N   UNL d   1      28.351 -16.936  -0.512  0.00  0.00    -0.331 N 
ATOM     14  C   UNL d   1      28.391 -15.661  -1.190  0.00  0.00     0.222 C 
ATOM     15  N   UNL d   1      27.156 -15.405  -1.942  0.00  0.00    -0.358 N 
ATOM     16  C   UNL d   1      22.165 -16.958  -0.895  0.00  0.00     0.174 C 
ATOM     17  H   UNL d   1      29.140 -17.163   0.076  0.00  0.00     0.165 HD
ATOM     18  H   UNL d   1      27.078 -14.445  -2.267  0.00  0.00     0.162 HD
ENDROOT
BRANCH  14  19
ATOM     19  C   UNL d   1      28.937 -14.506  -0.279  0.00  0.00     0.017 A 
ATOM     20  C   UNL d   1      30.176 -13.926  -0.682  0.00  0.00     0.017 A 
ATOM     21  C   UNL d   1      30.871 -12.978   0.110  0.00  0.00     0.037 A 
ATOM     22  C   UNL d   1      30.323 -12.499   1.292  0.00  0.00     0.070 A 
ATOM     23  C   UNL d   1      29.134 -13.046   1.709  0.00  0.00     0.074 A 
ATOM     24  C   UNL d   1      28.451 -14.017   0.968  0.00  0.00     0.081 A 
BRANCH  22  25
ATOM     25  O   UNL d   1      30.976 -11.510   1.972  0.00  0.00    -0.356 OA
ATOM     26  C   UNL d   1      31.298 -11.812   3.337  0.00  0.00     0.210 C 
ENDBRANCH  22  25
BRANCH  24  27
ATOM     27  O   UNL d   1      27.339 -14.283   1.733  0.00  0.00    -0.355 OA
ATOM     28  C   UNL d   1      27.650 -14.450   3.061  0.00  0.00     0.210 C 
ENDBRANCH  24  27
ENDBRANCH  14  19
BRANCH   1  29
ATOM     29  O   UNL d   1      20.428 -20.040   0.077  0.00  0.00    -0.304 OA
BRANCH  29  30
ATOM     30  C   UNL d   1      18.980 -20.094  -0.085  0.00  0.00     0.176 C 
ATOM     31  C   UNL d   1      18.354 -21.125   0.859  0.00  0.00     0.034 C 
ENDBRANCH  29  30
ENDBRANCH   1  29
TORSDOF 5
ENDMDL
MODEL 5
REMARK VINA RESULT:    -6.394      6.751     10.038
REMARK INTER + INTRA:          -8.574
REMARK INTER:                  -7.885
REMARK INTRA:                  -0.689
REMARK CONF_INDEPENDENT:        1.492
REMARK UNBOUND:                -0.689
REMARK  5 active torsions:
REMARK  status: ('A' for Active; 'I' for Inactive)
REMARK    1  A    between atoms: C_2  and  O_3 
REMARK    2  A    between atoms: O_3  and  C_4 
REMARK       I    between atoms: C_4  and  N_6 
REMARK    3  A    between atoms: C_17  and  C_18 
REMARK    4  A    between atoms: C_21  and  O_22 
REMARK    5  A    between atoms: C_25  and  O_26 
ROOT
ATOM      1  C   UNL d   1      30.140 -11.757   8.210  0.00  0.00     0.363 C 
ATOM      2  O   UNL d   1      31.321 -11.613   7.963  0.00  0.00    -0.238 OA
ATOM      3  N   UNL d   1      29.320 -12.669   7.534  0.00  0.00    -0.323 N 
ATOM      4  C   UNL d   1      27.927 -12.378   7.180  0.00  0.00     0.133 C 
ATOM      5  C   UNL d   1      27.780 -12.076   5.665  0.00  0.00     0.061 C 
ATOM      6  C   UNL d   1      28.613 -12.986   4.802  0.00  0.00    -0.023 A 
ATOM      7  C   UNL d   1      29.565 -13.813   5.367  0.00  0.00     0.010 A 
ATOM      8  S   UNL d   1      30.286 -14.825   4.178  0.00  0.00    -0.074 SA
ATOM      9  C   UNL d   1      29.371 -14.119   2.886  0.00  0.00     0.088 A 
ATOM     10  C   UNL d   1      28.552 -13.110   3.359  0.00  0.00     0.073 A 
ATOM     11  C   UNL d   1      27.563 -12.529   2.456  0.00  0.00     0.256 C 
ATOM     12  O   UNL d   1      26.722 -11.703   2.823  0.00  0.00    -0.267 OA
ATOM     13  N   UNL d   1      27.485 -13.066   1.197  0.00  0.00    -0.331 N 
ATOM     14  C   UNL d   1      28.139 -14.274   0.748  0.00  0.00     0.222 C 
ATOM     15  N   UNL d   1      29.264 -14.639   1.617  0.00  0.00    -0.358 N 
ATOM     16  C   UNL d   1      29.908 -13.845   6.849  0.00  0.00     0.174 C 
ATOM     17  H   UNL d   1      26.663 -12.777   0.686  0.00  0.00     0.165 HD
ATOM     18  H   UNL d   1      29.618 -15.576   1.440  0.00  0.00     0.162 HD
ENDROOT
BRANCH  14  19
ATOM     19  C   UNL d   1      27.123 -15.406   0.363  0.00  0.00     0.017 A 
ATOM     20  C   UNL d   1      27.338 -16.674   0.980  0.00  0.00     0.017 A 
ATOM     21  C   UNL d   1      26.600 -17.831   0.628  0.00  0.00     0.037 A 
ATOM     22  C   UNL d   1      25.559 -17.761  -0.287  0.00  0.00     0.070 A 
ATOM     23  C   UNL d   1      25.335 -16.555  -0.903  0.00  0.00     0.074 A 
ATOM     24  C   UNL d   1      26.079 -15.408  -0.607  0.00  0.00     0.081 A 
BRANCH  22  25
ATOM     25  O   UNL d   1      24.806 -18.878  -0.520  0.00  0.00    -0.356 OA
ATOM     26  C   UNL d   1      23.420 -18.770  -0.166  0.00  0.00     0.210 C 
ENDBRANCH  22  25
BRANCH  24  27
ATOM     27  O   UNL d   1      25.540 -14.451  -1.435  0.00  0.00    -0.355 OA
ATOM     28  C   UNL d   1      25.889 -14.646  -2.750  0.00  0.00     0.210 C 
ENDBRANCH  24  27
ENDBRANCH  14  19
BRANCH   1  29
ATOM     29  O   UNL d   1      29.504 -11.099   9.248  0.00  0.00    -0.304 OA
BRANCH  29  30
ATOM     30  C   UNL d   1      29.448 -11.825  10.511  0.00  0.00     0.176 C 
ATOM     31  C   UNL d   1      28.212 -12.726  10.579  0.00  0.00     0.034 C 
ENDBRANCH  29  30
ENDBRANCH   1  29
TORSDOF 5
ENDMDL
MODEL 6
REMARK VINA RESULT:    -6.339      5.668      8.184
REMARK INTER + INTRA:          -8.780
REMARK INTER:                  -7.831
REMARK INTRA:                  -0.949
REMARK CONF_INDEPENDENT:        1.492
REMARK UNBOUND:                -0.949
REMARK  5 active torsions:
REMARK  status: ('A' for Active; 'I' for Inactive)
REMARK    1  A    between atoms: C_2  and  O_3 
REMARK    2  A    between atoms: O_3  and  C_4 
REMARK       I    between atoms: C_4  and  N_6 
REMARK    3  A    between atoms: C_17  and  C_18 
REMARK    4  A    between atoms: C_21  and  O_22 
REMARK    5  A    between atoms: C_25  and  O_26 
ROOT
ATOM      1  C   UNL d   1      28.668  -9.640   5.123  0.00  0.00     0.363 C 
ATOM      2  O   UNL d   1      29.793  -9.987   5.420  0.00  0.00    -0.238 OA
ATOM      3  N   UNL d   1      27.690 -10.526   4.653  0.00  0.00    -0.323 N 
ATOM      4  C   UNL d   1      26.731 -10.169   3.603  0.00  0.00     0.133 C 
ATOM      5  C   UNL d   1      27.097 -10.838   2.251  0.00  0.00     0.061 C 
ATOM      6  C   UNL d   1      27.564 -12.260   2.408  0.00  0.00    -0.023 A 
ATOM      7  C   UNL d   1      27.844 -12.774   3.660  0.00  0.00     0.010 A 
ATOM      8  S   UNL d   1      28.241 -14.445   3.566  0.00  0.00    -0.074 SA
ATOM      9  C   UNL d   1      28.101 -14.478   1.839  0.00  0.00     0.088 A 
ATOM     10  C   UNL d   1      27.782 -13.225   1.349  0.00  0.00     0.073 A 
ATOM     11  C   UNL d   1      27.430 -13.094  -0.062  0.00  0.00     0.256 C 
ATOM     12  O   UNL d   1      27.030 -12.036  -0.559  0.00  0.00    -0.267 OA
ATOM     13  N   UNL d   1      27.394 -14.248  -0.800  0.00  0.00    -0.331 N 
ATOM     14  C   UNL d   1      27.471 -15.593  -0.276  0.00  0.00     0.222 C 
ATOM     15  N   UNL d   1      28.051 -15.619   1.072  0.00  0.00    -0.358 N 
ATOM     16  C   UNL d   1      27.780 -11.974   4.953  0.00  0.00     0.174 C 
ATOM     17  H   UNL d   1      26.954 -14.136  -1.702  0.00  0.00     0.165 HD
ATOM     18  H   UNL d   1      27.941 -16.517   1.537  0.00  0.00     0.162 HD
ENDROOT
BRANCH  14  19
ATOM     19  C   UNL d   1      26.155 -16.413  -0.516  0.00  0.00     0.017 A 
ATOM     20  C   UNL d   1      26.052 -17.647   0.191  0.00  0.00     0.017 A 
ATOM     21  C   UNL d   1      24.998 -18.568  -0.028  0.00  0.00     0.037 A 
ATOM     22  C   UNL d   1      23.955 -18.265  -0.893  0.00  0.00     0.070 A 
ATOM     23  C   UNL d   1      24.033 -17.087  -1.595  0.00  0.00     0.074 A 
ATOM     24  C   UNL d   1      25.087 -16.182  -1.430  0.00  0.00     0.081 A 
BRANCH  22  25
ATOM     25  O   UNL d   1      22.906 -19.136  -0.997  0.00  0.00    -0.356 OA
ATOM     26  C   UNL d   1      21.604 -18.544  -0.895  0.00  0.00     0.210 C 
ENDBRANCH  22  25
BRANCH  24  27
ATOM     27  O   UNL d   1      24.779 -15.166  -2.306  0.00  0.00    -0.355 OA
ATOM     28  C   UNL d   1      25.537 -15.222  -3.451  0.00  0.00     0.210 C 
ENDBRANCH  24  27
ENDBRANCH  14  19
BRANCH   1  29
ATOM     29  O   UNL d   1      28.207  -8.348   5.306  0.00  0.00    -0.304 OA
BRANCH  29  30
ATOM     30  C   UNL d   1      28.781  -7.345   4.416  0.00  0.00     0.176 C 
ATOM     31  C   UNL d   1      27.749  -6.848   3.401  0.00  0.00     0.034 C 
ENDBRANCH  29  30
ENDBRANCH   1  29
TORSDOF 5
ENDMDL
MODEL 7
REMARK VINA RESULT:    -5.811      3.303      9.077
REMARK INTER + INTRA:          -8.217
REMARK INTER:                  -7.303
REMARK INTRA:                  -0.914
REMARK CONF_INDEPENDENT:        1.492
REMARK UNBOUND:                -0.914
REMARK  5 active torsions:
REMARK  status: ('A' for Active; 'I' for Inactive)
REMARK    1  A    between atoms: C_2  and  O_3 
REMARK    2  A    between atoms: O_3  and  C_4 
REMARK       I    between atoms: C_4  and  N_6 
REMARK    3  A    between atoms: C_17  and  C_18 
REMARK    4  A    between atoms: C_21  and  O_22 
REMARK    5  A    between atoms: C_25  and  O_26 
ROOT
ATOM      1  C   UNL d   1      22.150 -18.537  -0.195  0.00  0.00     0.363 C 
ATOM      2  O   UNL d   1      22.008 -18.575   1.011  0.00  0.00    -0.238 OA
ATOM      3  N   UNL d   1      23.403 -18.474  -0.819  0.00  0.00    -0.323 N 
ATOM      4  C   UNL d   1      23.655 -17.673  -2.020  0.00  0.00     0.133 C 
ATOM      5  C   UNL d   1      24.454 -16.385  -1.683  0.00  0.00     0.061 C 
ATOM      6  C   UNL d   1      25.549 -16.621  -0.677  0.00  0.00    -0.023 A 
ATOM      7  C   UNL d   1      25.626 -17.817   0.011  0.00  0.00     0.010 A 
ATOM      8  S   UNL d   1      27.030 -17.868   1.004  0.00  0.00    -0.074 SA
ATOM      9  C   UNL d   1      27.513 -16.263   0.565  0.00  0.00     0.088 A 
ATOM     10  C   UNL d   1      26.599 -15.695  -0.303  0.00  0.00     0.073 A 
ATOM     11  C   UNL d   1      26.932 -14.423  -0.937  0.00  0.00     0.256 C 
ATOM     12  O   UNL d   1      26.225 -13.899  -1.804  0.00  0.00    -0.267 OA
ATOM     13  N   UNL d   1      28.167 -13.897  -0.657  0.00  0.00    -0.331 N 
ATOM     14  C   UNL d   1      29.240 -14.574   0.036  0.00  0.00     0.222 C 
ATOM     15  N   UNL d   1      28.747 -15.712   0.821  0.00  0.00    -0.358 N 
ATOM     16  C   UNL d   1      24.618 -18.950  -0.116  0.00  0.00     0.174 C 
ATOM     17  H   UNL d   1      28.428 -13.136  -1.268  0.00  0.00     0.165 HD
ATOM     18  H   UNL d   1      29.492 -16.315   1.161  0.00  0.00     0.162 HD
ENDROOT
BRANCH  14  19
ATOM     19  C   UNL d   1      30.495 -14.810  -0.875  0.00  0.00     0.017 A 
ATOM     20  C   UNL d   1      30.836 -13.744  -1.758  0.00  0.00     0.017 A 
ATOM     21  C   UNL d   1      31.849 -13.859  -2.742  0.00  0.00     0.037 A 
ATOM     22  C   UNL d   1      32.627 -15.006  -2.833  0.00  0.00     0.070 A 
ATOM     23  C   UNL d   1      32.315 -16.053  -2.001  0.00  0.00     0.074 A 
ATOM     24  C   UNL d   1      31.289 -15.981  -1.052  0.00  0.00     0.081 A 
BRANCH  22  25
ATOM     25  O   UNL d   1      33.660 -15.035  -3.727  0.00  0.00    -0.356 OA
ATOM     26  C   UNL d   1      33.278 -15.170  -5.103  0.00  0.00     0.210 C 
ENDBRANCH  22  25
BRANCH  24  27
ATOM     27  O   UNL d   1      31.316 -17.219  -0.454  0.00  0.00    -0.355 OA
ATOM     28  C   UNL d   1      30.298 -18.030  -0.896  0.00  0.00     0.210 C 
ENDBRANCH  24  27
ENDBRANCH  14  19
BRANCH   1  29
ATOM     29  O   UNL d   1      21.091 -18.642  -1.080  0.00  0.00    -0.304 OA
BRANCH  29  30
ATOM     30  C   UNL d   1      19.806 -18.982  -0.482  0.00  0.00     0.176 C 
ATOM     31  C   UNL d   1      19.812 -20.407   0.077  0.00  0.00     0.034 C 
ENDBRANCH  29  30
ENDBRANCH   1  29
TORSDOF 5
ENDMDL
MODEL 8
REMARK VINA RESULT:    -5.518      3.551      4.702
REMARK INTER + INTRA:          -7.795
REMARK INTER:                  -7.010
REMARK INTRA:                  -0.785
REMARK CONF_INDEPENDENT:        1.492
REMARK UNBOUND:                -0.785
REMARK  5 active torsions:
REMARK  status: ('A' for Active; 'I' for Inactive)
REMARK    1  A    between atoms: C_2  and  O_3 
REMARK    2  A    between atoms: O_3  and  C_4 
REMARK       I    between atoms: C_4  and  N_6 
REMARK    3  A    between atoms: C_17  and  C_18 
REMARK    4  A    between atoms: C_21  and  O_22 
REMARK    5  A    between atoms: C_25  and  O_26 
ROOT
ATOM      1  C   UNL d   1      33.691 -15.771  -0.814  0.00  0.00     0.363 C 
ATOM      2  O   UNL d   1      33.879 -15.126  -1.825  0.00  0.00    -0.238 OA
ATOM      3  N   UNL d   1      32.554 -16.562  -0.608  0.00  0.00    -0.323 N 
ATOM      4  C   UNL d   1      31.887 -16.676   0.693  0.00  0.00     0.133 C 
ATOM      5  C   UNL d   1      30.563 -15.866   0.723  0.00  0.00     0.061 C 
ATOM      6  C   UNL d   1      29.774 -15.986  -0.553  0.00  0.00    -0.023 A 
ATOM      7  C   UNL d   1      30.334 -16.567  -1.675  0.00  0.00     0.010 A 
ATOM      8  S   UNL d   1      29.185 -16.682  -2.950  0.00  0.00    -0.074 SA
ATOM      9  C   UNL d   1      27.945 -15.897  -2.028  0.00  0.00     0.088 A 
ATOM     10  C   UNL d   1      28.416 -15.533  -0.780  0.00  0.00     0.073 A 
ATOM     11  C   UNL d   1      27.465 -15.036   0.210  0.00  0.00     0.256 C 
ATOM     12  O   UNL d   1      27.780 -14.790   1.379  0.00  0.00    -0.267 OA
ATOM     13  N   UNL d   1      26.145 -15.011  -0.159  0.00  0.00    -0.331 N 
ATOM     14  C   UNL d   1      25.585 -15.612  -1.347  0.00  0.00     0.222 C 
ATOM     15  N   UNL d   1      26.612 -15.864  -2.366  0.00  0.00    -0.358 N 
ATOM     16  C   UNL d   1      31.769 -17.066  -1.760  0.00  0.00     0.174 C 
ATOM     17  H   UNL d   1      25.514 -14.857   0.614  0.00  0.00     0.165 HD
ATOM     18  H   UNL d   1      26.284 -16.454  -3.126  0.00  0.00     0.162 HD
ENDROOT
BRANCH  14  19
ATOM     19  C   UNL d   1      24.584 -16.776  -1.023  0.00  0.00     0.017 A 
ATOM     20  C   UNL d   1      23.200 -16.473  -1.184  0.00  0.00     0.017 A 
ATOM     21  C   UNL d   1      22.171 -17.365  -0.795  0.00  0.00     0.037 A 
ATOM     22  C   UNL d   1      22.471 -18.632  -0.311  0.00  0.00     0.070 A 
ATOM     23  C   UNL d   1      23.796 -18.948  -0.138  0.00  0.00     0.074 A 
ATOM     24  C   UNL d   1      24.830 -18.067  -0.471  0.00  0.00     0.081 A 
BRANCH  22  25
ATOM     25  O   UNL d   1      21.448 -19.498  -0.045  0.00  0.00    -0.356 OA
ATOM     26  C   UNL d   1      20.228 -19.245  -0.756  0.00  0.00     0.210 C 
ENDBRANCH  22  25
BRANCH  24  27
ATOM     27  O   UNL d   1      25.968 -18.766  -0.140  0.00  0.00    -0.355 OA
ATOM     28  C   UNL d   1      26.640 -18.193   0.913  0.00  0.00     0.210 C 
ENDBRANCH  24  27
ENDBRANCH  14  19
BRANCH   1  29
ATOM     29  O   UNL d   1      34.625 -15.863   0.204  0.00  0.00    -0.304 OA
BRANCH  29  30
ATOM     30  C   UNL d   1      34.490 -14.878   1.270  0.00  0.00     0.176 C 
ATOM     31  C   UNL d   1      35.616 -15.015   2.299  0.00  0.00     0.034 C 
ENDBRANCH  29  30
ENDBRANCH   1  29
TORSDOF 5
ENDMDL
