MODEL 1
REMARK VINA RESULT:    -9.464      0.000      0.000
REMARK INTER + INTRA:         -12.889
REMARK INTER:                 -11.850
REMARK INTRA:                  -1.038
REMARK CONF_INDEPENDENT:        2.386
REMARK UNBOUND:                -1.038
REMARK  8 active torsions:
REMARK  status: ('A' for Active; 'I' for Inactive)
REMARK    1  A    between atoms: C_2  and  C_3 
REMARK       I    between atoms: C_2  and  N_20 
REMARK    2  A    between atoms: C_3  and  S_4 
REMARK    3  A    between atoms: S_4  and  C_5 
REMARK    4  A    between atoms: C_8  and  N_9 
REMARK    5  A    between atoms: N_9  and  N_10 
REMARK    6  A    between atoms: C_11  and  C_12 
REMARK    7  A    between atoms: N_20  and  C_21 
REMARK    8  A    between atoms: C_21  and  C_22 
ROOT
ATOM      1  C   UNL d   1      30.095 -17.148  -2.616  0.00  0.00     0.226 A 
ATOM      2  N   UNL d   1      30.720 -18.116  -1.934  0.00  0.00    -0.132 NA
ATOM      3  N   UNL d   1      30.121 -18.034  -0.735  0.00  0.00    -0.103 N 
ATOM      4  C   UNL d   1      29.180 -17.038  -0.700  0.00  0.00     0.739 A 
ATOM      5  N   UNL d   1      29.159 -16.462  -1.891  0.00  0.00    -0.034 NA
ATOM      6  H   UNL d   1      30.405 -18.677  -0.006  0.00  0.00     0.208 HD
ENDROOT
BRANCH   1   7
ATOM      7  S   UNL d   1      30.381 -16.977  -4.329  0.00  0.00    -0.079 SA
BRANCH   7   8
ATOM      8  C   UNL d   1      29.952 -15.255  -4.724  0.00  0.00     0.185 C 
BRANCH   8   9
ATOM      9  C   UNL d   1      29.125 -15.184  -6.019  0.00  0.00     0.227 C 
ATOM     10  O   UNL d   1      27.889 -15.200  -6.068  0.00  0.00    -0.273 OA
ATOM     11  N   UNL d   1      29.779 -15.102  -7.219  0.00  0.00    -0.356 N 
ATOM     12  H   UNL d   1      29.148 -15.076  -8.014  0.00  0.00     0.162 HD
BRANCH  11  13
ATOM     13  C   UNL d   1      31.206 -15.045  -7.456  0.00  0.00     0.161 C 
BRANCH  13  14
ATOM     14  C   UNL d   1      31.766 -16.391  -7.854  0.00  0.00    -0.039 A 
ATOM     15  C   UNL d   1      32.937 -16.500  -8.619  0.00  0.00     0.010 A 
ATOM     16  C   UNL d   1      33.452 -17.757  -8.958  0.00  0.00     0.026 A 
ATOM     17  C   UNL d   1      32.803 -18.924  -8.542  0.00  0.00     0.055 A 
ATOM     18 CL   UNL d   1      33.501 -20.442  -8.984  0.00  0.00    -0.083 Cl
ATOM     19  C   UNL d   1      31.627 -18.830  -7.794  0.00  0.00     0.056 A 
ATOM     20 CL   UNL d   1      30.780 -20.220  -7.215  0.00  0.00    -0.083 Cl
ATOM     21  C   UNL d   1      31.106 -17.573  -7.470  0.00  0.00     0.034 A 
ENDBRANCH  13  14
ENDBRANCH  11  13
ENDBRANCH   8   9
ENDBRANCH   7   8
ENDBRANCH   1   7
BRANCH   4  22
ATOM     22  N   UNL d   1      28.455 -16.770   0.428  0.00  0.00    -0.106 N 
ATOM     23  H   UNL d   1      28.907 -16.705   1.338  0.00  0.00     0.208 HD
BRANCH  22  24
ATOM     24  N   UNL d   1      27.095 -16.738   0.360  0.00  0.00    -0.172 NA
ATOM     25  C   UNL d   1      26.440 -17.692  -0.219  0.00  0.00     0.152 C 
BRANCH  25  26
ATOM     26  C   UNL d   1      24.958 -17.590  -0.348  0.00  0.00     0.005 A 
ATOM     27  C   UNL d   1      24.137 -18.575   0.230  0.00  0.00     0.014 A 
ATOM     28  C   UNL d   1      22.738 -18.466   0.145  0.00  0.00     0.001 A 
ATOM     29  C   UNL d   1      22.155 -17.389  -0.520  0.00  0.00     0.002 A 
ATOM     30  C   UNL d   1      22.966 -16.424  -1.111  0.00  0.00     0.024 A 
ATOM     31  C   UNL d   1      24.360 -16.521  -1.035  0.00  0.00     0.045 A 
ATOM     32 CL   UNL d   1      25.256 -15.320  -1.899  0.00  0.00    -0.083 Cl
ENDBRANCH  25  26
ENDBRANCH  22  24
ENDBRANCH   4  22
TORSDOF 8
ENDMDL
MODEL 2
REMARK VINA RESULT:    -9.323      6.851     10.984
REMARK INTER + INTRA:         -12.502
REMARK INTER:                 -11.709
REMARK INTRA:                  -0.793
REMARK CONF_INDEPENDENT:        2.386
REMARK UNBOUND:                -0.793
REMARK  8 active torsions:
REMARK  status: ('A' for Active; 'I' for Inactive)
REMARK    1  A    between atoms: C_2  and  C_3 
REMARK       I    between atoms: C_2  and  N_20 
REMARK    2  A    between atoms: C_3  and  S_4 
REMARK    3  A    between atoms: S_4  and  C_5 
REMARK    4  A    between atoms: C_8  and  N_9 
REMARK    5  A    between atoms: N_9  and  N_10 
REMARK    6  A    between atoms: C_11  and  C_12 
REMARK    7  A    between atoms: N_20  and  C_21 
REMARK    8  A    between atoms: C_21  and  C_22 
ROOT
ATOM      1  C   UNL d   1      25.376 -14.843  -3.204  0.00  0.00     0.226 A 
ATOM      2  N   UNL d   1      24.359 -14.201  -3.790  0.00  0.00    -0.132 NA
ATOM      3  N   UNL d   1      24.972 -13.114  -4.285  0.00  0.00    -0.103 N 
ATOM      4  C   UNL d   1      26.310 -13.102  -3.988  0.00  0.00     0.739 A 
ATOM      5  N   UNL d   1      26.579 -14.196  -3.294  0.00  0.00    -0.034 NA
ATOM      6  H   UNL d   1      24.422 -12.438  -4.800  0.00  0.00     0.208 HD
ENDROOT
BRANCH   1   7
ATOM      7  S   UNL d   1      25.132 -16.450  -2.570  0.00  0.00    -0.079 SA
BRANCH   7   8
ATOM      8  C   UNL d   1      24.624 -16.221  -0.841  0.00  0.00     0.185 C 
BRANCH   8   9
ATOM      9  C   UNL d   1      24.629 -17.563  -0.089  0.00  0.00     0.227 C 
ATOM     10  O   UNL d   1      25.535 -17.947   0.661  0.00  0.00    -0.273 OA
ATOM     11  N   UNL d   1      23.570 -18.416  -0.249  0.00  0.00    -0.356 N 
ATOM     12  H   UNL d   1      23.674 -19.280   0.274  0.00  0.00     0.162 HD
BRANCH  11  13
ATOM     13  C   UNL d   1      22.375 -18.218  -1.041  0.00  0.00     0.161 C 
BRANCH  13  14
ATOM     14  C   UNL d   1      21.189 -18.960  -0.467  0.00  0.00    -0.039 A 
ATOM     15  C   UNL d   1      20.099 -19.328  -1.269  0.00  0.00     0.010 A 
ATOM     16  C   UNL d   1      19.020 -20.034  -0.723  0.00  0.00     0.026 A 
ATOM     17  C   UNL d   1      19.012 -20.378   0.632  0.00  0.00     0.055 A 
ATOM     18 CL   UNL d   1      17.655 -21.261   1.237  0.00  0.00    -0.083 Cl
ATOM     19  C   UNL d   1      20.084 -20.003   1.445  0.00  0.00     0.056 A 
ATOM     20 CL   UNL d   1      20.167 -20.414   3.122  0.00  0.00    -0.083 Cl
ATOM     21  C   UNL d   1      21.153 -19.284   0.901  0.00  0.00     0.034 A 
ENDBRANCH  13  14
ENDBRANCH  11  13
ENDBRANCH   8   9
ENDBRANCH   7   8
ENDBRANCH   1   7
BRANCH   4  22
ATOM     22  N   UNL d   1      27.128 -12.080  -4.386  0.00  0.00    -0.106 N 
ATOM     23  H   UNL d   1      28.137 -12.139  -4.263  0.00  0.00     0.208 HD
BRANCH  22  24
ATOM     24  N   UNL d   1      26.580 -10.909  -4.814  0.00  0.00    -0.172 NA
ATOM     25  C   UNL d   1      25.847 -10.194  -4.022  0.00  0.00     0.152 C 
BRANCH  25  26
ATOM     26  C   UNL d   1      25.195  -8.959  -4.543  0.00  0.00     0.005 A 
ATOM     27  C   UNL d   1      24.601  -8.967  -5.818  0.00  0.00     0.014 A 
ATOM     28  C   UNL d   1      23.951  -7.818  -6.301  0.00  0.00     0.001 A 
ATOM     29  C   UNL d   1      23.899  -6.661  -5.525  0.00  0.00     0.002 A 
ATOM     30  C   UNL d   1      24.504  -6.644  -4.272  0.00  0.00     0.024 A 
ATOM     31  C   UNL d   1      25.156  -7.781  -3.779  0.00  0.00     0.045 A 
ATOM     32 CL   UNL d   1      25.957  -7.601  -2.257  0.00  0.00    -0.083 Cl
ENDBRANCH  25  26
ENDBRANCH  22  24
ENDBRANCH   4  22
TORSDOF 8
ENDMDL
MODEL 3
REMARK VINA RESULT:    -9.248      3.263      4.764
REMARK INTER + INTRA:         -12.806
REMARK INTER:                 -11.635
REMARK INTRA:                  -1.171
REMARK CONF_INDEPENDENT:        2.386
REMARK UNBOUND:                -1.171
REMARK  8 active torsions:
REMARK  status: ('A' for Active; 'I' for Inactive)
REMARK    1  A    between atoms: C_2  and  C_3 
REMARK       I    between atoms: C_2  and  N_20 
REMARK    2  A    between atoms: C_3  and  S_4 
REMARK    3  A    between atoms: S_4  and  C_5 
REMARK    4  A    between atoms: C_8  and  N_9 
REMARK    5  A    between atoms: N_9  and  N_10 
REMARK    6  A    between atoms: C_11  and  C_12 
REMARK    7  A    between atoms: N_20  and  C_21 
REMARK    8  A    between atoms: C_21  and  C_22 
ROOT
ATOM      1  C   UNL d   1      30.595 -18.034  -2.633  0.00  0.00     0.226 A 
ATOM      2  N   UNL d   1      31.233 -18.754  -1.703  0.00  0.00    -0.132 NA
ATOM      3  N   UNL d   1      30.649 -18.317  -0.574  0.00  0.00    -0.103 N 
ATOM      4  C   UNL d   1      29.706 -17.355  -0.826  0.00  0.00     0.739 A 
ATOM      5  N   UNL d   1      29.666 -17.162  -2.135  0.00  0.00    -0.034 NA
ATOM      6  H   UNL d   1      30.945 -18.712   0.310  0.00  0.00     0.208 HD
ENDROOT
BRANCH   1   7
ATOM      7  S   UNL d   1      30.857 -18.383  -4.323  0.00  0.00    -0.079 SA
BRANCH   7   8
ATOM      8  C   UNL d   1      31.375 -16.810  -5.071  0.00  0.00     0.185 C 
BRANCH   8   9
ATOM      9  C   UNL d   1      30.678 -16.595  -6.425  0.00  0.00     0.227 C 
ATOM     10  O   UNL d   1      30.668 -17.415  -7.351  0.00  0.00    -0.273 OA
ATOM     11  N   UNL d   1      30.017 -15.417  -6.650  0.00  0.00    -0.356 N 
ATOM     12  H   UNL d   1      29.604 -15.364  -7.576  0.00  0.00     0.162 HD
BRANCH  11  13
ATOM     13  C   UNL d   1      29.849 -14.300  -5.745  0.00  0.00     0.161 C 
BRANCH  13  14
ATOM     14  C   UNL d   1      28.412 -14.144  -5.302  0.00  0.00    -0.039 A 
ATOM     15  C   UNL d   1      27.530 -15.234  -5.287  0.00  0.00     0.010 A 
ATOM     16  C   UNL d   1      26.208 -15.074  -4.853  0.00  0.00     0.026 A 
ATOM     17  C   UNL d   1      25.747 -13.823  -4.433  0.00  0.00     0.055 A 
ATOM     18 CL   UNL d   1      24.109 -13.700  -3.897  0.00  0.00    -0.083 Cl
ATOM     19  C   UNL d   1      26.610 -12.726  -4.459  0.00  0.00     0.056 A 
ATOM     20 CL   UNL d   1      26.131 -11.152  -3.929  0.00  0.00    -0.083 Cl
ATOM     21  C   UNL d   1      27.925 -12.885  -4.908  0.00  0.00     0.034 A 
ENDBRANCH  13  14
ENDBRANCH  11  13
ENDBRANCH   8   9
ENDBRANCH   7   8
ENDBRANCH   1   7
BRANCH   4  22
ATOM     22  N   UNL d   1      28.995 -16.762   0.181  0.00  0.00    -0.106 N 
ATOM     23  H   UNL d   1      29.444 -16.501   1.056  0.00  0.00     0.208 HD
BRANCH  22  24
ATOM     24  N   UNL d   1      27.641 -16.653   0.073  0.00  0.00    -0.172 NA
ATOM     25  C   UNL d   1      26.899 -17.708  -0.021  0.00  0.00     0.152 C 
BRANCH  25  26
ATOM     26  C   UNL d   1      25.429 -17.556  -0.219  0.00  0.00     0.005 A 
ATOM     27  C   UNL d   1      24.558 -18.575   0.205  0.00  0.00     0.014 A 
ATOM     28  C   UNL d   1      23.168 -18.423   0.058  0.00  0.00     0.001 A 
ATOM     29  C   UNL d   1      22.645 -17.267  -0.519  0.00  0.00     0.002 A 
ATOM     30  C   UNL d   1      23.506 -16.266  -0.959  0.00  0.00     0.024 A 
ATOM     31  C   UNL d   1      24.892 -16.405  -0.819  0.00  0.00     0.045 A 
ATOM     32 CL   UNL d   1      25.858 -15.142  -1.499  0.00  0.00    -0.083 Cl
ENDBRANCH  25  26
ENDBRANCH  22  24
ENDBRANCH   4  22
TORSDOF 8
ENDMDL
MODEL 4
REMARK VINA RESULT:    -9.145      4.256      5.467
REMARK INTER + INTRA:         -12.434
REMARK INTER:                 -11.531
REMARK INTRA:                  -0.903
REMARK CONF_INDEPENDENT:        2.386
REMARK UNBOUND:                -0.903
REMARK  8 active torsions:
REMARK  status: ('A' for Active; 'I' for Inactive)
REMARK    1  A    between atoms: C_2  and  C_3 
REMARK       I    between atoms: C_2  and  N_20 
REMARK    2  A    between atoms: C_3  and  S_4 
REMARK    3  A    between atoms: S_4  and  C_5 
REMARK    4  A    between atoms: C_8  and  N_9 
REMARK    5  A    between atoms: N_9  and  N_10 
REMARK    6  A    between atoms: C_11  and  C_12 
REMARK    7  A    between atoms: N_20  and  C_21 
REMARK    8  A    between atoms: C_21  and  C_22 
ROOT
ATOM      1  C   UNL d   1      30.453 -17.562  -2.723  0.00  0.00     0.226 A 
ATOM      2  N   UNL d   1      30.835 -18.622  -2.001  0.00  0.00    -0.132 NA
ATOM      3  N   UNL d   1      30.252 -18.369  -0.818  0.00  0.00    -0.103 N 
ATOM      4  C   UNL d   1      29.559 -17.186  -0.831  0.00  0.00     0.739 A 
ATOM      5  N   UNL d   1      29.685 -16.659  -2.039  0.00  0.00    -0.034 NA
ATOM      6  H   UNL d   1      30.374 -19.034  -0.064  0.00  0.00     0.208 HD
ENDROOT
BRANCH   1   7
ATOM      7  S   UNL d   1      30.795 -17.515  -4.434  0.00  0.00    -0.079 SA
BRANCH   7   8
ATOM      8  C   UNL d   1      31.701 -19.048  -4.793  0.00  0.00     0.185 C 
BRANCH   8   9
ATOM      9  C   UNL d   1      30.747 -20.134  -5.318  0.00  0.00     0.227 C 
ATOM     10  O   UNL d   1      30.085 -20.047  -6.360  0.00  0.00    -0.273 OA
ATOM     11  N   UNL d   1      30.596 -21.288  -4.598  0.00  0.00    -0.356 N 
ATOM     12  H   UNL d   1      29.935 -21.934  -5.017  0.00  0.00     0.162 HD
BRANCH  11  13
ATOM     13  C   UNL d   1      31.255 -21.665  -3.365  0.00  0.00     0.161 C 
BRANCH  13  14
ATOM     14  C   UNL d   1      30.679 -22.936  -2.783  0.00  0.00    -0.039 A 
ATOM     15  C   UNL d   1      30.680 -23.174  -1.401  0.00  0.00     0.010 A 
ATOM     16  C   UNL d   1      30.121 -24.347  -0.880  0.00  0.00     0.026 A 
ATOM     17  C   UNL d   1      29.558 -25.302  -1.732  0.00  0.00     0.055 A 
ATOM     18 CL   UNL d   1      28.874 -26.720  -1.021  0.00  0.00    -0.083 Cl
ATOM     19  C   UNL d   1      29.565 -25.085  -3.111  0.00  0.00     0.056 A 
ATOM     20 CL   UNL d   1      28.863 -26.198  -4.231  0.00  0.00    -0.083 Cl
ATOM     21  C   UNL d   1      30.138 -23.919  -3.630  0.00  0.00     0.034 A 
ENDBRANCH  13  14
ENDBRANCH  11  13
ENDBRANCH   8   9
ENDBRANCH   7   8
ENDBRANCH   1   7
BRANCH   4  22
ATOM     22  N   UNL d   1      28.896 -16.726   0.273  0.00  0.00    -0.106 N 
ATOM     23  H   UNL d   1      29.404 -16.443   1.109  0.00  0.00     0.208 HD
BRANCH  22  24
ATOM     24  N   UNL d   1      27.536 -16.785   0.313  0.00  0.00    -0.172 NA
ATOM     25  C   UNL d   1      26.872 -17.368  -0.633  0.00  0.00     0.152 C 
BRANCH  25  26
ATOM     26  C   UNL d   1      25.382 -17.347  -0.603  0.00  0.00     0.005 A 
ATOM     27  C   UNL d   1      24.685 -18.294   0.169  0.00  0.00     0.014 A 
ATOM     28  C   UNL d   1      23.281 -18.257   0.233  0.00  0.00     0.001 A 
ATOM     29  C   UNL d   1      22.570 -17.290  -0.474  0.00  0.00     0.002 A 
ATOM     30  C   UNL d   1      23.256 -16.364  -1.256  0.00  0.00     0.024 A 
ATOM     31  C   UNL d   1      24.654 -16.390  -1.329  0.00  0.00     0.045 A 
ATOM     32 CL   UNL d   1      25.381 -15.257  -2.414  0.00  0.00    -0.083 Cl
ENDBRANCH  25  26
ENDBRANCH  22  24
ENDBRANCH   4  22
TORSDOF 8
ENDMDL
MODEL 5
REMARK VINA RESULT:    -8.979      6.349      8.952
REMARK INTER + INTRA:         -12.629
REMARK INTER:                 -11.365
REMARK INTRA:                  -1.264
REMARK CONF_INDEPENDENT:        2.386
REMARK UNBOUND:                -1.264
REMARK  8 active torsions:
REMARK  status: ('A' for Active; 'I' for Inactive)
REMARK    1  A    between atoms: C_2  and  C_3 
REMARK       I    between atoms: C_2  and  N_20 
REMARK    2  A    between atoms: C_3  and  S_4 
REMARK    3  A    between atoms: S_4  and  C_5 
REMARK    4  A    between atoms: C_8  and  N_9 
REMARK    5  A    between atoms: N_9  and  N_10 
REMARK    6  A    between atoms: C_11  and  C_12 
REMARK    7  A    between atoms: N_20  and  C_21 
REMARK    8  A    between atoms: C_21  and  C_22 
ROOT
ATOM      1  C   UNL d   1      30.689 -13.604   1.928  0.00  0.00     0.226 A 
ATOM      2  N   UNL d   1      31.486 -13.230   2.935  0.00  0.00    -0.132 NA
ATOM      3  N   UNL d   1      30.875 -13.794   3.990  0.00  0.00    -0.103 N 
ATOM      4  C   UNL d   1      29.741 -14.470   3.622  0.00  0.00     0.739 A 
ATOM      5  N   UNL d   1      29.608 -14.351   2.311  0.00  0.00    -0.034 NA
ATOM      6  H   UNL d   1      31.283 -13.673   4.909  0.00  0.00     0.208 HD
ENDROOT
BRANCH   1   7
ATOM      7  S   UNL d   1      31.169 -13.284   0.281  0.00  0.00    -0.079 SA
BRANCH   7   8
ATOM      8  C   UNL d   1      31.956 -14.814  -0.304  0.00  0.00     0.185 C 
BRANCH   8   9
ATOM      9  C   UNL d   1      31.475 -16.022   0.518  0.00  0.00     0.227 C 
ATOM     10  O   UNL d   1      31.965 -16.383   1.595  0.00  0.00    -0.273 OA
ATOM     11  N   UNL d   1      30.433 -16.773   0.043  0.00  0.00    -0.356 N 
ATOM     12  H   UNL d   1      30.201 -17.555   0.647  0.00  0.00     0.162 HD
BRANCH  11  13
ATOM     13  C   UNL d   1      29.664 -16.571  -1.166  0.00  0.00     0.161 C 
BRANCH  13  14
ATOM     14  C   UNL d   1      28.188 -16.807  -0.941  0.00  0.00    -0.039 A 
ATOM     15  C   UNL d   1      27.732 -17.744  -0.002  0.00  0.00     0.010 A 
ATOM     16  C   UNL d   1      26.360 -17.932   0.208  0.00  0.00     0.026 A 
ATOM     17  C   UNL d   1      25.425 -17.193  -0.522  0.00  0.00     0.055 A 
ATOM     18 CL   UNL d   1      23.749 -17.466  -0.203  0.00  0.00    -0.083 Cl
ATOM     19  C   UNL d   1      25.865 -16.269  -1.472  0.00  0.00     0.056 A 
ATOM     20 CL   UNL d   1      24.777 -15.293  -2.394  0.00  0.00    -0.083 Cl
ATOM     21  C   UNL d   1      27.235 -16.094  -1.691  0.00  0.00     0.034 A 
ENDBRANCH  13  14
ENDBRANCH  11  13
ENDBRANCH   8   9
ENDBRANCH   7   8
ENDBRANCH   1   7
BRANCH   4  22
ATOM     22  N   UNL d   1      28.955 -15.112   4.539  0.00  0.00    -0.106 N 
ATOM     23  H   UNL d   1      28.532 -16.013   4.327  0.00  0.00     0.208 HD
BRANCH  22  24
ATOM     24  N   UNL d   1      28.612 -14.474   5.693  0.00  0.00    -0.172 NA
ATOM     25  C   UNL d   1      29.446 -14.399   6.680  0.00  0.00     0.152 C 
BRANCH  25  26
ATOM     26  C   UNL d   1      29.015 -13.766   7.958  0.00  0.00     0.005 A 
ATOM     27  C   UNL d   1      28.973 -14.531   9.138  0.00  0.00     0.014 A 
ATOM     28  C   UNL d   1      28.604 -13.932  10.355  0.00  0.00     0.001 A 
ATOM     29  C   UNL d   1      28.267 -12.581  10.400  0.00  0.00     0.002 A 
ATOM     30  C   UNL d   1      28.287 -11.826   9.231  0.00  0.00     0.024 A 
ATOM     31  C   UNL d   1      28.652 -12.410   8.012  0.00  0.00     0.045 A 
ATOM     32 CL   UNL d   1      28.536 -11.395   6.616  0.00  0.00    -0.083 Cl
ENDBRANCH  25  26
ENDBRANCH  22  24
ENDBRANCH   4  22
TORSDOF 8
ENDMDL
MODEL 6
REMARK VINA RESULT:    -8.465      4.202      6.871
REMARK INTER + INTRA:         -12.910
REMARK INTER:                 -10.851
REMARK INTRA:                  -2.058
REMARK CONF_INDEPENDENT:        2.386
REMARK UNBOUND:                -2.058
REMARK  8 active torsions:
REMARK  status: ('A' for Active; 'I' for Inactive)
REMARK    1  A    between atoms: C_2  and  C_3 
REMARK       I    between atoms: C_2  and  N_20 
REMARK    2  A    between atoms: C_3  and  S_4 
REMARK    3  A    between atoms: S_4  and  C_5 
REMARK    4  A    between atoms: C_8  and  N_9 
REMARK    5  A    between atoms: N_9  and  N_10 
REMARK    6  A    between atoms: C_11  and  C_12 
REMARK    7  A    between atoms: N_20  and  C_21 
REMARK    8  A    between atoms: C_21  and  C_22 
ROOT
ATOM      1  C   UNL d   1      29.996 -16.863  -2.400  0.00  0.00     0.226 A 
ATOM      2  N   UNL d   1      30.152 -18.083  -1.872  0.00  0.00    -0.132 NA
ATOM      3  N   UNL d   1      30.215 -17.804  -0.559  0.00  0.00    -0.103 N 
ATOM      4  C   UNL d   1      30.115 -16.459  -0.316  0.00  0.00     0.739 A 
ATOM      5  N   UNL d   1      29.981 -15.848  -1.482  0.00  0.00    -0.034 NA
ATOM      6  H   UNL d   1      30.327 -18.570   0.095  0.00  0.00     0.208 HD
ENDROOT
BRANCH   1   7
ATOM      7  S   UNL d   1      29.656 -16.697  -4.103  0.00  0.00    -0.079 SA
BRANCH   7   8
ATOM      8  C   UNL d   1      29.095 -14.983  -4.324  0.00  0.00     0.185 C 
BRANCH   8   9
ATOM      9  C   UNL d   1      27.701 -14.946  -4.974  0.00  0.00     0.227 C 
ATOM     10  O   UNL d   1      27.474 -15.171  -6.168  0.00  0.00    -0.273 OA
ATOM     11  N   UNL d   1      26.617 -14.637  -4.197  0.00  0.00    -0.356 N 
ATOM     12  H   UNL d   1      25.746 -14.623  -4.719  0.00  0.00     0.162 HD
BRANCH  11  13
ATOM     13  C   UNL d   1      26.586 -14.353  -2.778  0.00  0.00     0.161 C 
BRANCH  13  14
ATOM     14  C   UNL d   1      25.803 -15.394  -2.011  0.00  0.00    -0.039 A 
ATOM     15  C   UNL d   1      24.406 -15.479  -2.112  0.00  0.00     0.010 A 
ATOM     16  C   UNL d   1      23.701 -16.465  -1.411  0.00  0.00     0.026 A 
ATOM     17  C   UNL d   1      24.378 -17.376  -0.595  0.00  0.00     0.055 A 
ATOM     18 CL   UNL d   1      23.447 -18.575   0.230  0.00  0.00    -0.083 Cl
ATOM     19  C   UNL d   1      25.767 -17.292  -0.473  0.00  0.00     0.056 A 
ATOM     20 CL   UNL d   1      26.685 -18.396   0.489  0.00  0.00    -0.083 Cl
ATOM     21  C   UNL d   1      26.468 -16.296  -1.161  0.00  0.00     0.034 A 
ENDBRANCH  13  14
ENDBRANCH  11  13
ENDBRANCH   8   9
ENDBRANCH   7   8
ENDBRANCH   1   7
BRANCH   4  22
ATOM     22  N   UNL d   1      30.166 -15.950   0.952  0.00  0.00    -0.106 N 
ATOM     23  H   UNL d   1      30.504 -16.514   1.730  0.00  0.00     0.208 HD
BRANCH  22  24
ATOM     24  N   UNL d   1      29.621 -14.728   1.208  0.00  0.00    -0.172 NA
ATOM     25  C   UNL d   1      28.468 -14.403   0.718  0.00  0.00     0.152 C 
BRANCH  25  26
ATOM     26  C   UNL d   1      27.934 -13.030   0.948  0.00  0.00     0.005 A 
ATOM     27  C   UNL d   1      27.945 -12.092  -0.100  0.00  0.00     0.014 A 
ATOM     28  C   UNL d   1      27.408 -10.808   0.097  0.00  0.00     0.001 A 
ATOM     29  C   UNL d   1      26.872 -10.451   1.333  0.00  0.00     0.002 A 
ATOM     30  C   UNL d   1      26.879 -11.372   2.378  0.00  0.00     0.024 A 
ATOM     31  C   UNL d   1      27.411 -12.654   2.196  0.00  0.00     0.045 A 
ATOM     32 CL   UNL d   1      27.458 -13.666   3.597  0.00  0.00    -0.083 Cl
ENDBRANCH  25  26
ENDBRANCH  22  24
ENDBRANCH   4  22
TORSDOF 8
ENDMDL
MODEL 7
REMARK VINA RESULT:    -8.423      4.035      5.561
REMARK INTER + INTRA:         -12.447
REMARK INTER:                 -10.809
REMARK INTRA:                  -1.638
REMARK CONF_INDEPENDENT:        2.386
REMARK UNBOUND:                -1.638
REMARK  8 active torsions:
REMARK  status: ('A' for Active; 'I' for Inactive)
REMARK    1  A    between atoms: C_2  and  C_3 
REMARK       I    between atoms: C_2  and  N_20 
REMARK    2  A    between atoms: C_3  and  S_4 
REMARK    3  A    between atoms: S_4  and  C_5 
REMARK    4  A    between atoms: C_8  and  N_9 
REMARK    5  A    between atoms: N_9  and  N_10 
REMARK    6  A    between atoms: C_11  and  C_12 
REMARK    7  A    between atoms: N_20  and  C_21 
REMARK    8  A    between atoms: C_21  and  C_22 
ROOT
ATOM      1  C   UNL d   1      30.820 -17.977  -2.523  0.00  0.00     0.226 A 
ATOM      2  N   UNL d   1      31.090 -18.985  -1.686  0.00  0.00    -0.132 NA
ATOM      3  N   UNL d   1      30.444 -18.595  -0.574  0.00  0.00    -0.103 N 
ATOM      4  C   UNL d   1      29.823 -17.384  -0.741  0.00  0.00     0.739 A 
ATOM      5  N   UNL d   1      30.061 -16.977  -1.978  0.00  0.00    -0.034 NA
ATOM      6  H   UNL d   1      30.476 -19.194   0.241  0.00  0.00     0.208 HD
ENDROOT
BRANCH   1   7
ATOM      7  S   UNL d   1      31.277 -18.104  -4.202  0.00  0.00    -0.079 SA
BRANCH   7   8
ATOM      8  C   UNL d   1      31.859 -19.812  -4.421  0.00  0.00     0.185 C 
BRANCH   8   9
ATOM      9  C   UNL d   1      30.685 -20.748  -4.759  0.00  0.00     0.227 C 
ATOM     10  O   UNL d   1      29.665 -20.407  -5.369  0.00  0.00    -0.273 OA
ATOM     11  N   UNL d   1      30.747 -22.056  -4.361  0.00  0.00    -0.356 N 
ATOM     12  H   UNL d   1      29.920 -22.587  -4.616  0.00  0.00     0.162 HD
BRANCH  11  13
ATOM     13  C   UNL d   1      31.819 -22.727  -3.657  0.00  0.00     0.161 C 
BRANCH  13  14
ATOM     14  C   UNL d   1      31.845 -22.363  -2.190  0.00  0.00    -0.039 A 
ATOM     15  C   UNL d   1      32.953 -21.725  -1.614  0.00  0.00     0.010 A 
ATOM     16  C   UNL d   1      32.948 -21.376  -0.258  0.00  0.00     0.026 A 
ATOM     17  C   UNL d   1      31.839 -21.664   0.543  0.00  0.00     0.055 A 
ATOM     18 CL   UNL d   1      31.895 -21.193   2.205  0.00  0.00    -0.083 Cl
ATOM     19  C   UNL d   1      30.736 -22.313  -0.014  0.00  0.00     0.056 A 
ATOM     20 CL   UNL d   1      29.313 -22.678   0.897  0.00  0.00    -0.083 Cl
ATOM     21  C   UNL d   1      30.749 -22.675  -1.365  0.00  0.00     0.034 A 
ENDBRANCH  13  14
ENDBRANCH  11  13
ENDBRANCH   8   9
ENDBRANCH   7   8
ENDBRANCH   1   7
BRANCH   4  22
ATOM     22  N   UNL d   1      29.116 -16.792   0.268  0.00  0.00    -0.106 N 
ATOM     23  H   UNL d   1      29.592 -16.330   1.040  0.00  0.00     0.208 HD
BRANCH  22  24
ATOM     24  N   UNL d   1      27.764 -16.947   0.321  0.00  0.00    -0.172 NA
ATOM     25  C   UNL d   1      27.080 -17.155  -0.758  0.00  0.00     0.152 C 
BRANCH  25  26
ATOM     26  C   UNL d   1      25.593 -17.241  -0.678  0.00  0.00     0.005 A 
ATOM     27  C   UNL d   1      24.993 -18.231   0.120  0.00  0.00     0.014 A 
ATOM     28  C   UNL d   1      23.593 -18.295   0.231  0.00  0.00     0.001 A 
ATOM     29  C   UNL d   1      22.790 -17.386  -0.457  0.00  0.00     0.002 A 
ATOM     30  C   UNL d   1      23.382 -16.418  -1.264  0.00  0.00     0.024 A 
ATOM     31  C   UNL d   1      24.775 -16.344  -1.384  0.00  0.00     0.045 A 
ATOM     32 CL   UNL d   1      25.382 -15.169  -2.498  0.00  0.00    -0.083 Cl
ENDBRANCH  25  26
ENDBRANCH  22  24
ENDBRANCH   4  22
TORSDOF 8
ENDMDL
MODEL 8
REMARK VINA RESULT:    -8.022      3.773      5.895
REMARK INTER + INTRA:         -13.017
REMARK INTER:                 -10.409
REMARK INTRA:                  -2.608
REMARK CONF_INDEPENDENT:        2.386
REMARK UNBOUND:                -2.608
REMARK  8 active torsions:
REMARK  status: ('A' for Active; 'I' for Inactive)
REMARK    1  A    between atoms: C_2  and  C_3 
REMARK       I    between atoms: C_2  and  N_20 
REMARK    2  A    between atoms: C_3  and  S_4 
REMARK    3  A    between atoms: S_4  and  C_5 
REMARK    4  A    between atoms: C_8  and  N_9 
REMARK    5  A    between atoms: N_9  and  N_10 
REMARK    6  A    between atoms: C_11  and  C_12 
REMARK    7  A    between atoms: N_20  and  C_21 
REMARK    8  A    between atoms: C_21  and  C_22 
ROOT
ATOM      1  C   UNL d   1      29.999 -17.068  -2.643  0.00  0.00     0.226 A 
ATOM      2  N   UNL d   1      30.735 -17.966  -1.977  0.00  0.00    -0.132 NA
ATOM      3  N   UNL d   1      30.167 -17.934  -0.760  0.00  0.00    -0.103 N 
ATOM      4  C   UNL d   1      29.135 -17.033  -0.700  0.00  0.00     0.739 A 
ATOM      5  N   UNL d   1      29.023 -16.470  -1.893  0.00  0.00    -0.034 NA
ATOM      6  H   UNL d   1      30.533 -18.541  -0.038  0.00  0.00     0.208 HD
ENDROOT
BRANCH   1   7
ATOM      7  S   UNL d   1      30.215 -16.881  -4.364  0.00  0.00    -0.079 SA
BRANCH   7   8
ATOM      8  C   UNL d   1      29.846 -15.137  -4.715  0.00  0.00     0.185 C 
BRANCH   8   9
ATOM      9  C   UNL d   1      28.328 -14.888  -4.702  0.00  0.00     0.227 C 
ATOM     10  O   UNL d   1      27.496 -15.573  -5.308  0.00  0.00    -0.273 OA
ATOM     11  N   UNL d   1      27.837 -13.834  -3.979  0.00  0.00    -0.356 N 
ATOM     12  H   UNL d   1      26.828 -13.744  -4.046  0.00  0.00     0.162 HD
BRANCH  11  13
ATOM     13  C   UNL d   1      28.571 -12.888  -3.165  0.00  0.00     0.161 C 
BRANCH  13  14
ATOM     14  C   UNL d   1      28.287 -13.075  -1.692  0.00  0.00    -0.039 A 
ATOM     15  C   UNL d   1      27.034 -12.764  -1.143  0.00  0.00     0.010 A 
ATOM     16  C   UNL d   1      26.785 -12.965   0.220  0.00  0.00     0.026 A 
ATOM     17  C   UNL d   1      27.784 -13.472   1.056  0.00  0.00     0.055 A 
ATOM     18 CL   UNL d   1      27.404 -13.707   2.725  0.00  0.00    -0.083 Cl
ATOM     19  C   UNL d   1      29.041 -13.770   0.525  0.00  0.00     0.056 A 
ATOM     20 CL   UNL d   1      30.321 -14.429   1.481  0.00  0.00    -0.083 Cl
ATOM     21  C   UNL d   1      29.293 -13.554  -0.833  0.00  0.00     0.034 A 
ENDBRANCH  13  14
ENDBRANCH  11  13
ENDBRANCH   8   9
ENDBRANCH   7   8
ENDBRANCH   1   7
BRANCH   4  22
ATOM     22  N   UNL d   1      28.422 -16.829   0.448  0.00  0.00    -0.106 N 
ATOM     23  H   UNL d   1      28.886 -16.797   1.354  0.00  0.00     0.208 HD
BRANCH  22  24
ATOM     24  N   UNL d   1      27.061 -16.817   0.400  0.00  0.00    -0.172 NA
ATOM     25  C   UNL d   1      26.417 -17.689  -0.307  0.00  0.00     0.152 C 
BRANCH  25  26
ATOM     26  C   UNL d   1      24.932 -17.601  -0.405  0.00  0.00     0.005 A 
ATOM     27  C   UNL d   1      24.132 -18.576   0.217  0.00  0.00     0.014 A 
ATOM     28  C   UNL d   1      22.731 -18.480   0.162  0.00  0.00     0.001 A 
ATOM     29  C   UNL d   1      22.124 -17.425  -0.517  0.00  0.00     0.002 A 
ATOM     30  C   UNL d   1      22.914 -16.470  -1.151  0.00  0.00     0.024 A 
ATOM     31  C   UNL d   1      24.310 -16.554  -1.105  0.00  0.00     0.045 A 
ATOM     32 CL   UNL d   1      25.176 -15.369  -2.019  0.00  0.00    -0.083 Cl
ENDBRANCH  25  26
ENDBRANCH  22  24
ENDBRANCH   4  22
TORSDOF 8
ENDMDL
MODEL 9
REMARK VINA RESULT:    -7.769      5.741      8.112
REMARK INTER + INTRA:         -12.509
REMARK INTER:                 -10.155
REMARK INTRA:                  -2.354
REMARK CONF_INDEPENDENT:        2.386
REMARK UNBOUND:                -2.354
REMARK  8 active torsions:
REMARK  status: ('A' for Active; 'I' for Inactive)
REMARK    1  A    between atoms: C_2  and  C_3 
REMARK       I    between atoms: C_2  and  N_20 
REMARK    2  A    between atoms: C_3  and  S_4 
REMARK    3  A    between atoms: S_4  and  C_5 
REMARK    4  A    between atoms: C_8  and  N_9 
REMARK    5  A    between atoms: N_9  and  N_10 
REMARK    6  A    between atoms: C_11  and  C_12 
REMARK    7  A    between atoms: N_20  and  C_21 
REMARK    8  A    between atoms: C_21  and  C_22 
ROOT
ATOM      1  C   UNL d   1      30.406 -13.759  -0.141  0.00  0.00     0.226 A 
ATOM      2  N   UNL d   1      30.605 -13.910   1.174  0.00  0.00    -0.132 NA
ATOM      3  N   UNL d   1      30.242 -15.190   1.358  0.00  0.00    -0.103 N 
ATOM      4  C   UNL d   1      29.824 -15.776   0.191  0.00  0.00     0.739 A 
ATOM      5  N   UNL d   1      29.919 -14.872  -0.770  0.00  0.00    -0.034 NA
ATOM      6  H   UNL d   1      30.302 -15.583   2.289  0.00  0.00     0.208 HD
ENDROOT
BRANCH   1   7
ATOM      7  S   UNL d   1      30.931 -12.293  -0.930  0.00  0.00    -0.079 SA
BRANCH   7   8
ATOM      8  C   UNL d   1      29.466 -11.220  -0.989  0.00  0.00     0.185 C 
BRANCH   8   9
ATOM      9  C   UNL d   1      28.201 -12.041  -1.294  0.00  0.00     0.227 C 
ATOM     10  O   UNL d   1      28.030 -12.718  -2.315  0.00  0.00    -0.273 OA
ATOM     11  N   UNL d   1      27.174 -12.034  -0.389  0.00  0.00    -0.356 N 
ATOM     12  H   UNL d   1      26.380 -12.592  -0.687  0.00  0.00     0.162 HD
BRANCH  11  13
ATOM     13  C   UNL d   1      27.111 -11.355   0.887  0.00  0.00     0.161 C 
BRANCH  13  14
ATOM     14  C   UNL d   1      27.401 -12.291   2.039  0.00  0.00    -0.039 A 
ATOM     15  C   UNL d   1      27.488 -13.678   1.849  0.00  0.00     0.010 A 
ATOM     16  C   UNL d   1      27.779 -14.527   2.925  0.00  0.00     0.026 A 
ATOM     17  C   UNL d   1      27.982 -14.003   4.205  0.00  0.00     0.055 A 
ATOM     18 CL   UNL d   1      28.351 -15.106   5.483  0.00  0.00    -0.083 Cl
ATOM     19  C   UNL d   1      27.883 -12.625   4.410  0.00  0.00     0.056 A 
ATOM     20 CL   UNL d   1      28.150 -11.893   5.953  0.00  0.00    -0.083 Cl
ATOM     21  C   UNL d   1      27.576 -11.781   3.338  0.00  0.00     0.034 A 
ENDBRANCH  13  14
ENDBRANCH  11  13
ENDBRANCH   8   9
ENDBRANCH   7   8
ENDBRANCH   1   7
BRANCH   4  22
ATOM     22  N   UNL d   1      29.399 -17.075   0.149  0.00  0.00    -0.106 N 
ATOM     23  H   UNL d   1      30.051 -17.845   0.280  0.00  0.00     0.208 HD
BRANCH  22  24
ATOM     24  N   UNL d   1      28.116 -17.349  -0.219  0.00  0.00    -0.172 NA
ATOM     25  C   UNL d   1      27.126 -16.699   0.301  0.00  0.00     0.152 C 
BRANCH  25  26
ATOM     26  C   UNL d   1      25.730 -17.076  -0.061  0.00  0.00     0.005 A 
ATOM     27  C   UNL d   1      25.133 -18.201   0.536  0.00  0.00     0.014 A 
ATOM     28  C   UNL d   1      23.803 -18.541   0.229  0.00  0.00     0.001 A 
ATOM     29  C   UNL d   1      23.072 -17.774  -0.676  0.00  0.00     0.002 A 
ATOM     30  C   UNL d   1      23.668 -16.672  -1.284  0.00  0.00     0.024 A 
ATOM     31  C   UNL d   1      24.991 -16.323  -0.988  0.00  0.00     0.045 A 
ATOM     32 CL   UNL d   1      25.649 -15.000  -1.886  0.00  0.00    -0.083 Cl
ENDBRANCH  25  26
ENDBRANCH  22  24
ENDBRANCH   4  22
TORSDOF 8
ENDMDL
