MODEL 1
REMARK VINA RESULT:    -8.299      0.000      0.000
REMARK INTER + INTRA:         -13.283
REMARK INTER:                 -10.387
REMARK INTRA:                  -2.896
REMARK CONF_INDEPENDENT:        2.088
REMARK UNBOUND:                -2.896
REMARK  7 active torsions:
REMARK  status: ('A' for Active; 'I' for Inactive)
REMARK    1  A    between atoms: C_8  and  N_9 
REMARK       I    between atoms: N_9  and  C_10 
REMARK    2  A    between atoms: C_10  and  C_12 
REMARK    3  A    between atoms: C_12  and  N_13 
REMARK       I    between atoms: N_13  and  C_14 
REMARK    4  A    between atoms: C_14  and  C_16 
REMARK    5  A    between atoms: C_16  and  C_17 
REMARK    6  A    between atoms: C_17  and  C_18 
REMARK    7  A    between atoms: N_24  and  C_25 
ROOT
ATOM      1  C   UNL d   1      26.296 -11.725  -4.533  0.00  0.00     0.110 C 
ENDROOT
BRANCH   1   2
ATOM      2  C   UNL d   1      27.626 -12.128  -5.177  0.00  0.00     0.218 C 
ATOM      3  N   UNL d   1      27.594 -13.190  -6.030  0.00  0.00    -0.352 N 
ATOM      4  H   UNL d   1      26.725 -13.690  -6.234  0.00  0.00     0.162 HD
ATOM      5  O   UNL d   1      28.680 -11.541  -4.951  0.00  0.00    -0.274 OA
BRANCH   3   6
ATOM      6  C   UNL d   1      28.797 -13.713  -6.744  0.00  0.00     0.225 C 
BRANCH   6   7
ATOM      7  C   UNL d   1      28.914 -15.163  -6.290  0.00  0.00     0.239 C 
ATOM      8  N   UNL d   1      30.112 -15.866  -6.435  0.00  0.00    -0.325 N 
ATOM      9  H   UNL d   1      30.888 -15.363  -6.859  0.00  0.00     0.169 HD
ATOM     10  O   UNL d   1      27.857 -15.575  -5.813  0.00  0.00    -0.271 OA
BRANCH   8  11
ATOM     11  C   UNL d   1      30.413 -17.246  -6.059  0.00  0.00     0.042 A 
ATOM     12  C   UNL d   1      30.536 -18.201  -7.101  0.00  0.00     0.030 A 
ATOM     13  C   UNL d   1      30.824 -19.558  -6.837  0.00  0.00     0.004 A 
ATOM     14  C   UNL d   1      31.005 -19.998  -5.534  0.00  0.00     0.024 A 
ATOM     15  C   UNL d   1      30.898 -19.092  -4.493  0.00  0.00     0.042 A 
ATOM     16  C   UNL d   1      30.600 -17.732  -4.733  0.00  0.00    -0.013 A 
ATOM     17 CL   UNL d   1      31.155 -19.723  -2.895  0.00  0.00    -0.084 Cl
ATOM     18  C   UNL d   1      30.495 -16.857  -3.532  0.00  0.00     0.052 C 
ENDBRANCH   8  11
ENDBRANCH   6   7
ENDBRANCH   3   6
ENDBRANCH   1   2
BRANCH   1  19
ATOM     19  C   UNL d   1      25.517 -12.976  -4.082  0.00  0.00     0.088 C 
BRANCH  19  20
ATOM     20  C   UNL d   1      26.201 -13.954  -3.125  0.00  0.00     0.109 A 
ATOM     21  N   UNL d   1      25.508 -14.885  -2.515  0.00  0.00    -0.215 NA
ATOM     22  C   UNL d   1      26.245 -15.681  -1.675  0.00  0.00     0.170 A 
ATOM     23  C   UNL d   1      27.597 -15.563  -1.444  0.00  0.00     0.099 A 
ATOM     24  N   UNL d   1      25.813 -16.694  -0.807  0.00  0.00    -0.215 N 
ATOM     25  C   UNL d   1      27.923 -16.518  -0.484  0.00  0.00     0.160 A 
ATOM     26  C   UNL d   1      28.343 -14.563  -2.133  0.00  0.00     0.262 A 
ATOM     27  N   UNL d   1      26.844 -17.166  -0.035  0.00  0.00    -0.177 NA
ATOM     28  O   UNL d   1      29.553 -14.381  -2.004  0.00  0.00    -0.267 OA
ATOM     29  N   UNL d   1      27.567 -13.787  -2.959  0.00  0.00    -0.311 N 
ATOM     30  H   UNL d   1      28.083 -13.071  -3.444  0.00  0.00     0.170 HD
BRANCH  24  31
ATOM     31  C   UNL d   1      24.511 -17.224  -0.640  0.00  0.00     0.060 C 
ATOM     32  C   UNL d   1      23.393 -16.397  -0.808  0.00  0.00     0.031 C 
ATOM     33  C   UNL d   1      22.124 -16.977  -0.895  0.00  0.00     0.002 C 
ATOM     34  C   UNL d   1      21.942 -18.311  -0.533  0.00  0.00     0.000 C 
ATOM     35  C   UNL d   1      23.046 -19.091  -0.186  0.00  0.00     0.002 C 
ATOM     36  C   UNL d   1      24.338 -18.575  -0.329  0.00  0.00     0.031 C 
ENDBRANCH  24  31
ENDBRANCH  19  20
ENDBRANCH   1  19
TORSDOF 7
ENDMDL
MODEL 2
REMARK VINA RESULT:    -8.216      3.321      6.512
REMARK INTER + INTRA:         -13.918
REMARK INTER:                 -10.304
REMARK INTRA:                  -3.615
REMARK CONF_INDEPENDENT:        2.088
REMARK UNBOUND:                -3.615
REMARK  7 active torsions:
REMARK  status: ('A' for Active; 'I' for Inactive)
REMARK    1  A    between atoms: C_8  and  N_9 
REMARK       I    between atoms: N_9  and  C_10 
REMARK    2  A    between atoms: C_10  and  C_12 
REMARK    3  A    between atoms: C_12  and  N_13 
REMARK       I    between atoms: N_13  and  C_14 
REMARK    4  A    between atoms: C_14  and  C_16 
REMARK    5  A    between atoms: C_16  and  C_17 
REMARK    6  A    between atoms: C_17  and  C_18 
REMARK    7  A    between atoms: N_24  and  C_25 
ROOT
ATOM      1  C   UNL d   1      30.225 -17.690  -4.705  0.00  0.00     0.110 C 
ENDROOT
BRANCH   1   2
ATOM      2  C   UNL d   1      30.578 -17.825  -3.221  0.00  0.00     0.218 C 
ATOM      3  N   UNL d   1      30.249 -16.775  -2.418  0.00  0.00    -0.352 N 
ATOM      4  H   UNL d   1      29.786 -15.940  -2.786  0.00  0.00     0.162 HD
ATOM      5  O   UNL d   1      31.130 -18.817  -2.756  0.00  0.00    -0.274 OA
BRANCH   3   6
ATOM      6  C   UNL d   1      30.519 -16.741  -0.949  0.00  0.00     0.225 C 
BRANCH   6   7
ATOM      7  C   UNL d   1      29.597 -15.653  -0.413  0.00  0.00     0.239 C 
ATOM      8  N   UNL d   1      29.461 -15.441   0.961  0.00  0.00    -0.325 N 
ATOM      9  H   UNL d   1      30.002 -16.048   1.573  0.00  0.00     0.169 HD
ATOM     10  O   UNL d   1      29.037 -15.044  -1.323  0.00  0.00    -0.271 OA
BRANCH   8  11
ATOM     11  C   UNL d   1      28.637 -14.455   1.656  0.00  0.00     0.042 A 
ATOM     12  C   UNL d   1      27.530 -13.908   0.955  0.00  0.00     0.030 A 
ATOM     13  C   UNL d   1      26.678 -12.948   1.542  0.00  0.00     0.004 A 
ATOM     14  C   UNL d   1      26.897 -12.513   2.842  0.00  0.00     0.024 A 
ATOM     15  C   UNL d   1      27.964 -13.029   3.557  0.00  0.00     0.042 A 
ATOM     16  C   UNL d   1      28.836 -13.983   2.986  0.00  0.00    -0.013 A 
ATOM     17 CL   UNL d   1      28.156 -12.443   5.180  0.00  0.00    -0.084 Cl
ATOM     18  C   UNL d   1      29.957 -14.451   3.848  0.00  0.00     0.052 C 
ENDBRANCH   8  11
ENDBRANCH   6   7
ENDBRANCH   3   6
ENDBRANCH   1   2
BRANCH   1  19
ATOM     19  C   UNL d   1      30.128 -16.203  -5.102  0.00  0.00     0.088 C 
BRANCH  19  20
ATOM     20  C   UNL d   1      28.803 -15.473  -4.871  0.00  0.00     0.109 A 
ATOM     21  N   UNL d   1      27.982 -15.863  -3.925  0.00  0.00    -0.215 NA
ATOM     22  C   UNL d   1      26.826 -15.130  -3.841  0.00  0.00     0.170 A 
ATOM     23  C   UNL d   1      26.492 -14.068  -4.652  0.00  0.00     0.099 A 
ATOM     24  N   UNL d   1      25.706 -15.330  -3.023  0.00  0.00    -0.215 N 
ATOM     25  C   UNL d   1      25.217 -13.660  -4.270  0.00  0.00     0.160 A 
ATOM     26  C   UNL d   1      27.405 -13.639  -5.659  0.00  0.00     0.262 A 
ATOM     27  N   UNL d   1      24.696 -14.456  -3.332  0.00  0.00    -0.177 NA
ATOM     28  O   UNL d   1      27.206 -12.697  -6.427  0.00  0.00    -0.267 OA
ATOM     29  N   UNL d   1      28.546 -14.401  -5.712  0.00  0.00    -0.311 N 
ATOM     30  H   UNL d   1      29.193 -14.112  -6.426  0.00  0.00     0.170 HD
BRANCH  24  31
ATOM     31  C   UNL d   1      25.515 -16.291  -2.000  0.00  0.00     0.060 C 
ATOM     32  C   UNL d   1      26.622 -16.824  -1.328  0.00  0.00     0.031 C 
ATOM     33  C   UNL d   1      26.416 -17.567  -0.161  0.00  0.00     0.002 C 
ATOM     34  C   UNL d   1      25.136 -18.012   0.165  0.00  0.00     0.000 C 
ATOM     35  C   UNL d   1      24.049 -17.625  -0.619  0.00  0.00     0.002 C 
ATOM     36  C   UNL d   1      24.224 -16.691  -1.645  0.00  0.00     0.031 C 
ENDBRANCH  24  31
ENDBRANCH  19  20
ENDBRANCH   1  19
TORSDOF 7
ENDMDL
MODEL 3
REMARK VINA RESULT:    -8.007      1.955      3.051
REMARK INTER + INTRA:         -13.931
REMARK INTER:                 -10.095
REMARK INTRA:                  -3.836
REMARK CONF_INDEPENDENT:        2.088
REMARK UNBOUND:                -3.836
REMARK  7 active torsions:
REMARK  status: ('A' for Active; 'I' for Inactive)
REMARK    1  A    between atoms: C_8  and  N_9 
REMARK       I    between atoms: N_9  and  C_10 
REMARK    2  A    between atoms: C_10  and  C_12 
REMARK    3  A    between atoms: C_12  and  N_13 
REMARK       I    between atoms: N_13  and  C_14 
REMARK    4  A    between atoms: C_14  and  C_16 
REMARK    5  A    between atoms: C_16  and  C_17 
REMARK    6  A    between atoms: C_17  and  C_18 
REMARK    7  A    between atoms: N_24  and  C_25 
ROOT
ATOM      1  C   UNL d   1      27.415 -11.402  -1.247  0.00  0.00     0.110 C 
ENDROOT
BRANCH   1   2
ATOM      2  C   UNL d   1      26.826 -11.954  -2.548  0.00  0.00     0.218 C 
ATOM      3  N   UNL d   1      25.846 -12.892  -2.424  0.00  0.00    -0.352 N 
ATOM      4  H   UNL d   1      25.517 -13.210  -1.509  0.00  0.00     0.162 HD
ATOM      5  O   UNL d   1      27.201 -11.588  -3.657  0.00  0.00    -0.274 OA
BRANCH   3   6
ATOM      6  C   UNL d   1      25.163 -13.533  -3.587  0.00  0.00     0.225 C 
BRANCH   6   7
ATOM      7  C   UNL d   1      26.113 -14.639  -4.031  0.00  0.00     0.239 C 
ATOM      8  N   UNL d   1      27.492 -14.513  -3.854  0.00  0.00    -0.325 N 
ATOM      9  H   UNL d   1      27.821 -13.653  -3.420  0.00  0.00     0.169 HD
ATOM     10  O   UNL d   1      25.505 -15.583  -4.534  0.00  0.00    -0.271 OA
BRANCH   8  11
ATOM     11  C   UNL d   1      28.549 -15.458  -4.208  0.00  0.00     0.042 A 
ATOM     12  C   UNL d   1      29.024 -16.328  -3.192  0.00  0.00     0.030 A 
ATOM     13  C   UNL d   1      30.042 -17.274  -3.438  0.00  0.00     0.004 A 
ATOM     14  C   UNL d   1      30.609 -17.386  -4.700  0.00  0.00     0.024 A 
ATOM     15  C   UNL d   1      30.166 -16.558  -5.716  0.00  0.00     0.042 A 
ATOM     16  C   UNL d   1      29.155 -15.597  -5.491  0.00  0.00    -0.013 A 
ATOM     17 CL   UNL d   1      30.917 -16.775  -7.267  0.00  0.00    -0.084 Cl
ATOM     18  C   UNL d   1      28.774 -14.753  -6.657  0.00  0.00     0.052 C 
ENDBRANCH   8  11
ENDBRANCH   6   7
ENDBRANCH   3   6
ENDBRANCH   1   2
BRANCH   1  19
ATOM     19  C   UNL d   1      27.024 -12.299  -0.056  0.00  0.00     0.088 C 
BRANCH  19  20
ATOM     20  C   UNL d   1      27.396 -13.782  -0.108  0.00  0.00     0.109 A 
ATOM     21  N   UNL d   1      26.469 -14.698  -0.262  0.00  0.00    -0.215 NA
ATOM     22  C   UNL d   1      26.942 -15.986  -0.275  0.00  0.00     0.170 A 
ATOM     23  C   UNL d   1      28.262 -16.354  -0.140  0.00  0.00     0.099 A 
ATOM     24  N   UNL d   1      26.229 -17.192  -0.322  0.00  0.00    -0.215 N 
ATOM     25  C   UNL d   1      28.289 -17.747  -0.144  0.00  0.00     0.160 A 
ATOM     26  C   UNL d   1      29.261 -15.348   0.001  0.00  0.00     0.262 A 
ATOM     27  N   UNL d   1      27.062 -18.272  -0.184  0.00  0.00    -0.177 NA
ATOM     28  O   UNL d   1      30.466 -15.572   0.120  0.00  0.00    -0.267 OA
ATOM     29  N   UNL d   1      28.746 -14.075   0.013  0.00  0.00    -0.311 N 
ATOM     30  H   UNL d   1      29.443 -13.357   0.122  0.00  0.00     0.170 HD
BRANCH  24  31
ATOM     31  C   UNL d   1      24.835 -17.393  -0.464  0.00  0.00     0.060 C 
ATOM     32  C   UNL d   1      24.291 -18.669  -0.269  0.00  0.00     0.031 C 
ATOM     33  C   UNL d   1      22.904 -18.807  -0.157  0.00  0.00     0.002 C 
ATOM     34  C   UNL d   1      22.067 -17.753  -0.520  0.00  0.00     0.000 C 
ATOM     35  C   UNL d   1      22.620 -16.527  -0.892  0.00  0.00     0.002 C 
ATOM     36  C   UNL d   1      23.998 -16.319  -0.776  0.00  0.00     0.031 C 
ENDBRANCH  24  31
ENDBRANCH  19  20
ENDBRANCH   1  19
TORSDOF 7
ENDMDL
MODEL 4
REMARK VINA RESULT:    -7.472      2.422      4.499
REMARK INTER + INTRA:         -13.174
REMARK INTER:                  -9.560
REMARK INTRA:                  -3.614
REMARK CONF_INDEPENDENT:        2.088
REMARK UNBOUND:                -3.614
REMARK  7 active torsions:
REMARK  status: ('A' for Active; 'I' for Inactive)
REMARK    1  A    between atoms: C_8  and  N_9 
REMARK       I    between atoms: N_9  and  C_10 
REMARK    2  A    between atoms: C_10  and  C_12 
REMARK    3  A    between atoms: C_12  and  N_13 
REMARK       I    between atoms: N_13  and  C_14 
REMARK    4  A    between atoms: C_14  and  C_16 
REMARK    5  A    between atoms: C_16  and  C_17 
REMARK    6  A    between atoms: C_17  and  C_18 
REMARK    7  A    between atoms: N_24  and  C_25 
ROOT
ATOM      1  C   UNL d   1      27.163 -11.811   1.417  0.00  0.00     0.110 C 
ENDROOT
BRANCH   1   2
ATOM      2  C   UNL d   1      27.458 -13.269   1.785  0.00  0.00     0.218 C 
ATOM      3  N   UNL d   1      28.130 -14.008   0.858  0.00  0.00    -0.352 N 
ATOM      4  H   UNL d   1      28.427 -13.609  -0.036  0.00  0.00     0.162 HD
ATOM      5  O   UNL d   1      27.115 -13.769   2.851  0.00  0.00    -0.274 OA
BRANCH   3   6
ATOM      6  C   UNL d   1      28.500 -15.442   1.054  0.00  0.00     0.225 C 
BRANCH   6   7
ATOM      7  C   UNL d   1      29.191 -15.842  -0.243  0.00  0.00     0.239 C 
ATOM      8  N   UNL d   1      29.536 -17.172  -0.491  0.00  0.00    -0.325 N 
ATOM      9  H   UNL d   1      29.306 -17.847   0.235  0.00  0.00     0.169 HD
ATOM     10  O   UNL d   1      29.379 -14.871  -0.975  0.00  0.00    -0.271 OA
BRANCH   8  11
ATOM     11  C   UNL d   1      30.192 -17.743  -1.666  0.00  0.00     0.042 A 
ATOM     12  C   UNL d   1      31.132 -18.785  -1.455  0.00  0.00     0.030 A 
ATOM     13  C   UNL d   1      31.818 -19.397  -2.526  0.00  0.00     0.004 A 
ATOM     14  C   UNL d   1      31.582 -18.996  -3.834  0.00  0.00     0.024 A 
ATOM     15  C   UNL d   1      30.667 -17.986  -4.077  0.00  0.00     0.042 A 
ATOM     16  C   UNL d   1      29.977 -17.352  -3.019  0.00  0.00    -0.013 A 
ATOM     17 CL   UNL d   1      30.420 -17.557  -5.741  0.00  0.00    -0.084 Cl
ATOM     18  C   UNL d   1      29.030 -16.269  -3.404  0.00  0.00     0.052 C 
ENDBRANCH   8  11
ENDBRANCH   6   7
ENDBRANCH   3   6
ENDBRANCH   1   2
BRANCH   1  19
ATOM     19  C   UNL d   1      27.730 -11.484   0.021  0.00  0.00     0.088 C 
BRANCH  19  20
ATOM     20  C   UNL d   1      27.072 -12.127  -1.201  0.00  0.00     0.109 A 
ATOM     21  N   UNL d   1      26.557 -13.330  -1.126  0.00  0.00    -0.215 NA
ATOM     22  C   UNL d   1      26.014 -13.789  -2.299  0.00  0.00     0.170 A 
ATOM     23  C   UNL d   1      25.984 -13.098  -3.490  0.00  0.00     0.099 A 
ATOM     24  N   UNL d   1      25.475 -15.048  -2.595  0.00  0.00    -0.215 N 
ATOM     25  C   UNL d   1      25.407 -13.948  -4.430  0.00  0.00     0.160 A 
ATOM     26  C   UNL d   1      26.526 -11.780  -3.551  0.00  0.00     0.262 A 
ATOM     27  N   UNL d   1      25.156 -15.158  -3.924  0.00  0.00    -0.177 NA
ATOM     28  O   UNL d   1      26.540 -11.077  -4.562  0.00  0.00    -0.267 OA
ATOM     29  N   UNL d   1      27.061 -11.362  -2.358  0.00  0.00    -0.311 N 
ATOM     30  H   UNL d   1      27.455 -10.436  -2.392  0.00  0.00     0.170 HD
BRANCH  24  31
ATOM     31  C   UNL d   1      25.265 -16.149  -1.730  0.00  0.00     0.060 C 
ATOM     32  C   UNL d   1      26.357 -16.900  -1.277  0.00  0.00     0.031 C 
ATOM     33  C   UNL d   1      26.170 -17.812  -0.233  0.00  0.00     0.002 C 
ATOM     34  C   UNL d   1      24.881 -18.177   0.150  0.00  0.00     0.000 C 
ATOM     35  C   UNL d   1      23.781 -17.551  -0.437  0.00  0.00     0.002 C 
ATOM     36  C   UNL d   1      23.973 -16.475  -1.309  0.00  0.00     0.031 C 
ENDBRANCH  24  31
ENDBRANCH  19  20
ENDBRANCH   1  19
TORSDOF 7
ENDMDL
MODEL 5
REMARK VINA RESULT:    -7.212      3.278      5.801
REMARK INTER + INTRA:         -13.342
REMARK INTER:                  -9.300
REMARK INTRA:                  -4.042
REMARK CONF_INDEPENDENT:        2.088
REMARK UNBOUND:                -4.042
REMARK  7 active torsions:
REMARK  status: ('A' for Active; 'I' for Inactive)
REMARK    1  A    between atoms: C_8  and  N_9 
REMARK       I    between atoms: N_9  and  C_10 
REMARK    2  A    between atoms: C_10  and  C_12 
REMARK    3  A    between atoms: C_12  and  N_13 
REMARK       I    between atoms: N_13  and  C_14 
REMARK    4  A    between atoms: C_14  and  C_16 
REMARK    5  A    between atoms: C_16  and  C_17 
REMARK    6  A    between atoms: C_17  and  C_18 
REMARK    7  A    between atoms: N_24  and  C_25 
ROOT
ATOM      1  C   UNL d   1      29.747 -15.419  -4.497  0.00  0.00     0.110 C 
ENDROOT
BRANCH   1   2
ATOM      2  C   UNL d   1      28.348 -15.342  -5.116  0.00  0.00     0.218 C 
ATOM      3  N   UNL d   1      27.299 -15.605  -4.288  0.00  0.00    -0.352 N 
ATOM      4  H   UNL d   1      27.437 -15.840  -3.302  0.00  0.00     0.162 HD
ATOM      5  O   UNL d   1      28.156 -15.060  -6.294  0.00  0.00    -0.274 OA
BRANCH   3   6
ATOM      6  C   UNL d   1      25.871 -15.572  -4.725  0.00  0.00     0.225 C 
BRANCH   6   7
ATOM      7  C   UNL d   1      25.440 -14.124  -4.527  0.00  0.00     0.239 C 
ATOM      8  N   UNL d   1      26.207 -13.073  -5.034  0.00  0.00    -0.325 N 
ATOM      9  H   UNL d   1      27.057 -13.325  -5.532  0.00  0.00     0.169 HD
ATOM     10  O   UNL d   1      24.388 -14.047  -3.894  0.00  0.00    -0.271 OA
BRANCH   8  11
ATOM     11  C   UNL d   1      25.956 -11.636  -4.949  0.00  0.00     0.042 A 
ATOM     12  C   UNL d   1      25.531 -10.969  -6.128  0.00  0.00     0.030 A 
ATOM     13  C   UNL d   1      25.265  -9.583  -6.145  0.00  0.00     0.004 A 
ATOM     14  C   UNL d   1      25.406  -8.825  -4.991  0.00  0.00     0.024 A 
ATOM     15  C   UNL d   1      25.812  -9.443  -3.821  0.00  0.00     0.042 A 
ATOM     16  C   UNL d   1      26.094 -10.827  -3.783  0.00  0.00    -0.013 A 
ATOM     17 CL   UNL d   1      25.948  -8.425  -2.421  0.00  0.00    -0.084 Cl
ATOM     18  C   UNL d   1      26.540 -11.375  -2.472  0.00  0.00     0.052 C 
ENDBRANCH   8  11
ENDBRANCH   6   7
ENDBRANCH   3   6
ENDBRANCH   1   2
BRANCH   1  19
ATOM     19  C   UNL d   1      30.082 -14.108  -3.760  0.00  0.00     0.088 C 
BRANCH  19  20
ATOM     20  C   UNL d   1      29.354 -13.802  -2.450  0.00  0.00     0.109 A 
ATOM     21  N   UNL d   1      28.408 -14.598  -2.011  0.00  0.00    -0.215 NA
ATOM     22  C   UNL d   1      27.830 -14.195  -0.834  0.00  0.00     0.170 A 
ATOM     23  C   UNL d   1      28.163 -13.062  -0.126  0.00  0.00     0.099 A 
ATOM     24  N   UNL d   1      26.741 -14.748  -0.146  0.00  0.00    -0.215 N 
ATOM     25  C   UNL d   1      27.294 -13.000   0.960  0.00  0.00     0.160 A 
ATOM     26  C   UNL d   1      29.210 -12.219  -0.602  0.00  0.00     0.262 A 
ATOM     27  N   UNL d   1      26.381 -13.975   0.928  0.00  0.00    -0.177 NA
ATOM     28  O   UNL d   1      29.588 -11.191  -0.040  0.00  0.00    -0.267 OA
ATOM     29  N   UNL d   1      29.758 -12.656  -1.783  0.00  0.00    -0.311 N 
ATOM     30  H   UNL d   1      30.492 -12.062  -2.133  0.00  0.00     0.170 HD
BRANCH  24  31
ATOM     31  C   UNL d   1      26.012 -15.927  -0.438  0.00  0.00     0.060 C 
ATOM     32  C   UNL d   1      26.314 -17.119   0.232  0.00  0.00     0.031 C 
ATOM     33  C   UNL d   1      25.433 -18.200   0.128  0.00  0.00     0.002 C 
ATOM     34  C   UNL d   1      24.436 -18.194  -0.846  0.00  0.00     0.000 C 
ATOM     35  C   UNL d   1      24.253 -17.064  -1.643  0.00  0.00     0.002 C 
ATOM     36  C   UNL d   1      24.979 -15.898  -1.378  0.00  0.00     0.031 C 
ENDBRANCH  24  31
ENDBRANCH  19  20
ENDBRANCH   1  19
TORSDOF 7
ENDMDL
MODEL 6
REMARK VINA RESULT:    -6.542      2.507      4.813
REMARK INTER + INTRA:         -13.173
REMARK INTER:                  -8.630
REMARK INTRA:                  -4.543
REMARK CONF_INDEPENDENT:        2.088
REMARK UNBOUND:                -4.543
REMARK  7 active torsions:
REMARK  status: ('A' for Active; 'I' for Inactive)
REMARK    1  A    between atoms: C_8  and  N_9 
REMARK       I    between atoms: N_9  and  C_10 
REMARK    2  A    between atoms: C_10  and  C_12 
REMARK    3  A    between atoms: C_12  and  N_13 
REMARK       I    between atoms: N_13  and  C_14 
REMARK    4  A    between atoms: C_14  and  C_16 
REMARK    5  A    between atoms: C_16  and  C_17 
REMARK    6  A    between atoms: C_17  and  C_18 
REMARK    7  A    between atoms: N_24  and  C_25 
ROOT
ATOM      1  C   UNL d   1      31.000 -18.304  -3.244  0.00  0.00     0.110 C 
ENDROOT
BRANCH   1   2
ATOM      2  C   UNL d   1      31.064 -17.080  -4.163  0.00  0.00     0.218 C 
ATOM      3  N   UNL d   1      30.584 -17.241  -5.428  0.00  0.00    -0.352 N 
ATOM      4  H   UNL d   1      30.196 -18.132  -5.747  0.00  0.00     0.162 HD
ATOM      5  O   UNL d   1      31.522 -16.000  -3.803  0.00  0.00    -0.274 OA
BRANCH   3   6
ATOM      6  C   UNL d   1      30.569 -16.153  -6.451  0.00  0.00     0.225 C 
BRANCH   6   7
ATOM      7  C   UNL d   1      29.261 -15.410  -6.205  0.00  0.00     0.239 C 
ATOM      8  N   UNL d   1      28.829 -15.129  -4.908  0.00  0.00    -0.325 N 
ATOM      9  H   UNL d   1      29.427 -15.446  -4.148  0.00  0.00     0.169 HD
ATOM     10  O   UNL d   1      28.697 -15.126  -7.261  0.00  0.00    -0.271 OA
BRANCH   8  11
ATOM     11  C   UNL d   1      27.619 -14.431  -4.479  0.00  0.00     0.042 A 
ATOM     12  C   UNL d   1      26.469 -15.215  -4.200  0.00  0.00     0.030 A 
ATOM     13  C   UNL d   1      25.254 -14.632  -3.781  0.00  0.00     0.004 A 
ATOM     14  C   UNL d   1      25.151 -13.257  -3.620  0.00  0.00     0.024 A 
ATOM     15  C   UNL d   1      26.255 -12.462  -3.878  0.00  0.00     0.042 A 
ATOM     16  C   UNL d   1      27.478 -13.023  -4.308  0.00  0.00    -0.013 A 
ATOM     17 CL   UNL d   1      26.046 -10.755  -3.637  0.00  0.00    -0.084 Cl
ATOM     18  C   UNL d   1      28.589 -12.065  -4.569  0.00  0.00     0.052 C 
ENDBRANCH   8  11
ENDBRANCH   6   7
ENDBRANCH   3   6
ENDBRANCH   1   2
BRANCH   1  19
ATOM     19  C   UNL d   1      30.786 -17.867  -1.782  0.00  0.00     0.088 C 
BRANCH  19  20
ATOM     20  C   UNL d   1      29.885 -16.661  -1.506  0.00  0.00     0.109 A 
ATOM     21  N   UNL d   1      28.615 -16.828  -1.223  0.00  0.00    -0.215 NA
ATOM     22  C   UNL d   1      27.924 -15.662  -1.015  0.00  0.00     0.170 A 
ATOM     23  C   UNL d   1      28.455 -14.393  -1.086  0.00  0.00     0.099 A 
ATOM     24  N   UNL d   1      26.553 -15.471  -0.792  0.00  0.00    -0.215 N 
ATOM     25  C   UNL d   1      27.401 -13.507  -0.874  0.00  0.00     0.160 A 
ATOM     26  C   UNL d   1      29.842 -14.228  -1.370  0.00  0.00     0.262 A 
ATOM     27  N   UNL d   1      26.230 -14.139  -0.763  0.00  0.00    -0.177 NA
ATOM     28  O   UNL d   1      30.414 -13.140  -1.447  0.00  0.00    -0.267 OA
ATOM     29  N   UNL d   1      30.495 -15.418  -1.575  0.00  0.00    -0.311 N 
ATOM     30  H   UNL d   1      31.474 -15.312  -1.786  0.00  0.00     0.170 HD
BRANCH  24  31
ATOM     31  C   UNL d   1      25.536 -16.444  -0.630  0.00  0.00     0.060 C 
ATOM     32  C   UNL d   1      24.278 -16.242  -1.211  0.00  0.00     0.031 C 
ATOM     33  C   UNL d   1      23.375 -17.309  -1.264  0.00  0.00     0.002 C 
ATOM     34  C   UNL d   1      23.604 -18.454  -0.505  0.00  0.00     0.000 C 
ATOM     35  C   UNL d   1      24.787 -18.576   0.225  0.00  0.00     0.002 C 
ATOM     36  C   UNL d   1      25.793 -17.613   0.090  0.00  0.00     0.031 C 
ENDBRANCH  24  31
ENDBRANCH  19  20
ENDBRANCH   1  19
TORSDOF 7
ENDMDL
MODEL 7
REMARK VINA RESULT:    -6.414      3.253      4.877
REMARK INTER + INTRA:         -13.204
REMARK INTER:                  -8.502
REMARK INTRA:                  -4.702
REMARK CONF_INDEPENDENT:        2.088
REMARK UNBOUND:                -4.702
REMARK  7 active torsions:
REMARK  status: ('A' for Active; 'I' for Inactive)
REMARK    1  A    between atoms: C_8  and  N_9 
REMARK       I    between atoms: N_9  and  C_10 
REMARK    2  A    between atoms: C_10  and  C_12 
REMARK    3  A    between atoms: C_12  and  N_13 
REMARK       I    between atoms: N_13  and  C_14 
REMARK    4  A    between atoms: C_14  and  C_16 
REMARK    5  A    between atoms: C_16  and  C_17 
REMARK    6  A    between atoms: C_17  and  C_18 
REMARK    7  A    between atoms: N_24  and  C_25 
ROOT
ATOM      1  C   UNL d   1      27.495 -10.777   1.630  0.00  0.00     0.110 C 
ENDROOT
BRANCH   1   2
ATOM      2  C   UNL d   1      27.785 -10.238   0.226  0.00  0.00     0.218 C 
ATOM      3  N   UNL d   1      26.795  -9.514  -0.366  0.00  0.00    -0.352 N 
ATOM      4  H   UNL d   1      25.904  -9.336   0.104  0.00  0.00     0.162 HD
ATOM      5  O   UNL d   1      28.847 -10.435  -0.356  0.00  0.00    -0.274 OA
BRANCH   3   6
ATOM      6  C   UNL d   1      26.911  -8.914  -1.729  0.00  0.00     0.225 C 
BRANCH   6   7
ATOM      7  C   UNL d   1      26.637 -10.069  -2.684  0.00  0.00     0.239 C 
ATOM      8  N   UNL d   1      26.902 -11.388  -2.308  0.00  0.00    -0.325 N 
ATOM      9  H   UNL d   1      27.286 -11.530  -1.377  0.00  0.00     0.169 HD
ATOM     10  O   UNL d   1      26.181  -9.673  -3.755  0.00  0.00    -0.271 OA
BRANCH   8  11
ATOM     11  C   UNL d   1      26.703 -12.614  -3.078  0.00  0.00     0.042 A 
ATOM     12  C   UNL d   1      25.441 -13.256  -2.981  0.00  0.00     0.030 A 
ATOM     13  C   UNL d   1      25.155 -14.446  -3.685  0.00  0.00     0.004 A 
ATOM     14  C   UNL d   1      26.110 -15.024  -4.509  0.00  0.00     0.024 A 
ATOM     15  C   UNL d   1      27.351 -14.421  -4.632  0.00  0.00     0.042 A 
ATOM     16  C   UNL d   1      27.663 -13.236  -3.929  0.00  0.00    -0.013 A 
ATOM     17 CL   UNL d   1      28.481 -15.200  -5.695  0.00  0.00    -0.084 Cl
ATOM     18  C   UNL d   1      29.034 -12.691  -4.129  0.00  0.00     0.052 C 
ENDBRANCH   8  11
ENDBRANCH   6   7
ENDBRANCH   3   6
ENDBRANCH   1   2
BRANCH   1  19
ATOM     19  C   UNL d   1      26.661 -12.072   1.546  0.00  0.00     0.088 C 
BRANCH  19  20
ATOM     20  C   UNL d   1      27.153 -13.197   0.634  0.00  0.00     0.109 A 
ATOM     21  N   UNL d   1      26.356 -14.184   0.303  0.00  0.00    -0.215 NA
ATOM     22  C   UNL d   1      26.932 -15.130  -0.507  0.00  0.00     0.170 A 
ATOM     23  C   UNL d   1      28.231 -15.108  -0.964  0.00  0.00     0.099 A 
ATOM     24  N   UNL d   1      26.405 -16.347  -0.963  0.00  0.00    -0.215 N 
ATOM     25  C   UNL d   1      28.417 -16.280  -1.692  0.00  0.00     0.160 A 
ATOM     26  C   UNL d   1      29.079 -14.016  -0.616  0.00  0.00     0.262 A 
ATOM     27  N   UNL d   1      27.345 -17.076  -1.645  0.00  0.00    -0.177 NA
ATOM     28  O   UNL d   1      30.249 -13.898  -0.980  0.00  0.00    -0.267 OA
ATOM     29  N   UNL d   1      28.465 -13.095   0.196  0.00  0.00    -0.311 N 
ATOM     30  H   UNL d   1      29.058 -12.324   0.455  0.00  0.00     0.170 HD
BRANCH  24  31
ATOM     31  C   UNL d   1      25.103 -16.873  -0.783  0.00  0.00     0.060 C 
ATOM     32  C   UNL d   1      24.937 -18.165  -0.269  0.00  0.00     0.031 C 
ATOM     33  C   UNL d   1      23.665 -18.576   0.142  0.00  0.00     0.002 C 
ATOM     34  C   UNL d   1      22.543 -17.831  -0.216  0.00  0.00     0.000 C 
ATOM     35  C   UNL d   1      22.702 -16.622  -0.895  0.00  0.00     0.002 C 
ATOM     36  C   UNL d   1      23.983 -16.098  -1.096  0.00  0.00     0.031 C 
ENDBRANCH  24  31
ENDBRANCH  19  20
ENDBRANCH   1  19
TORSDOF 7
ENDMDL
MODEL 8
REMARK VINA RESULT:    -6.395      2.718      4.856
REMARK INTER + INTRA:         -13.438
REMARK INTER:                  -8.483
REMARK INTRA:                  -4.956
REMARK CONF_INDEPENDENT:        2.088
REMARK UNBOUND:                -4.956
REMARK  7 active torsions:
REMARK  status: ('A' for Active; 'I' for Inactive)
REMARK    1  A    between atoms: C_8  and  N_9 
REMARK       I    between atoms: N_9  and  C_10 
REMARK    2  A    between atoms: C_10  and  C_12 
REMARK    3  A    between atoms: C_12  and  N_13 
REMARK       I    between atoms: N_13  and  C_14 
REMARK    4  A    between atoms: C_14  and  C_16 
REMARK    5  A    between atoms: C_16  and  C_17 
REMARK    6  A    between atoms: C_17  and  C_18 
REMARK    7  A    between atoms: N_24  and  C_25 
ROOT
ATOM      1  C   UNL d   1      26.813 -15.018  -5.732  0.00  0.00     0.110 C 
ENDROOT
BRANCH   1   2
ATOM      2  C   UNL d   1      25.999 -14.216  -4.713  0.00  0.00     0.218 C 
ATOM      3  N   UNL d   1      26.260 -12.880  -4.639  0.00  0.00    -0.352 N 
ATOM      4  H   UNL d   1      26.961 -12.435  -5.237  0.00  0.00     0.162 HD
ATOM      5  O   UNL d   1      25.151 -14.726  -3.988  0.00  0.00    -0.274 OA
BRANCH   3   6
ATOM      6  C   UNL d   1      25.558 -11.951  -3.704  0.00  0.00     0.225 C 
BRANCH   6   7
ATOM      7  C   UNL d   1      26.365 -12.021  -2.413  0.00  0.00     0.239 C 
ATOM      8  N   UNL d   1      26.711 -13.251  -1.850  0.00  0.00    -0.325 N 
ATOM      9  H   UNL d   1      26.396 -14.084  -2.341  0.00  0.00     0.169 HD
ATOM     10  O   UNL d   1      26.636 -10.899  -1.987  0.00  0.00    -0.271 OA
BRANCH   8  11
ATOM     11  C   UNL d   1      27.476 -13.516  -0.633  0.00  0.00     0.042 A 
ATOM     12  C   UNL d   1      26.755 -13.889   0.531  0.00  0.00     0.030 A 
ATOM     13  C   UNL d   1      27.405 -14.163   1.754  0.00  0.00     0.004 A 
ATOM     14  C   UNL d   1      28.788 -14.082   1.850  0.00  0.00     0.024 A 
ATOM     15  C   UNL d   1      29.523 -13.727   0.732  0.00  0.00     0.042 A 
ATOM     16  C   UNL d   1      28.893 -13.438  -0.499  0.00  0.00    -0.013 A 
ATOM     17 CL   UNL d   1      31.247 -13.665   0.935  0.00  0.00    -0.084 Cl
ATOM     18  C   UNL d   1      29.789 -13.052  -1.625  0.00  0.00     0.052 C 
ENDBRANCH   8  11
ENDBRANCH   6   7
ENDBRANCH   3   6
ENDBRANCH   1   2
BRANCH   1  19
ATOM     19  C   UNL d   1      28.285 -15.118  -5.285  0.00  0.00     0.088 C 
BRANCH  19  20
ATOM     20  C   UNL d   1      28.588 -15.679  -3.895  0.00  0.00     0.109 A 
ATOM     21  N   UNL d   1      27.614 -16.070  -3.107  0.00  0.00    -0.215 NA
ATOM     22  C   UNL d   1      28.028 -16.536  -1.885  0.00  0.00     0.170 A 
ATOM     23  C   UNL d   1      29.335 -16.609  -1.457  0.00  0.00     0.099 A 
ATOM     24  N   UNL d   1      27.260 -16.936  -0.782  0.00  0.00    -0.215 N 
ATOM     25  C   UNL d   1      29.300 -17.075  -0.145  0.00  0.00     0.160 A 
ATOM     26  C   UNL d   1      30.384 -16.204  -2.333  0.00  0.00     0.262 A 
ATOM     27  N   UNL d   1      28.049 -17.212   0.305  0.00  0.00    -0.177 NA
ATOM     28  O   UNL d   1      31.582 -16.239  -2.051  0.00  0.00    -0.267 OA
ATOM     29  N   UNL d   1      29.927 -15.742  -3.542  0.00  0.00    -0.311 N 
ATOM     30  H   UNL d   1      30.660 -15.444  -4.165  0.00  0.00     0.170 HD
BRANCH  24  31
ATOM     31  C   UNL d   1      25.853 -17.052  -0.676  0.00  0.00     0.060 C 
ATOM     32  C   UNL d   1      25.030 -16.026  -1.156  0.00  0.00     0.031 C 
ATOM     33  C   UNL d   1      23.656 -16.258  -1.280  0.00  0.00     0.002 C 
ATOM     34  C   UNL d   1      23.080 -17.372  -0.674  0.00  0.00     0.000 C 
ATOM     35  C   UNL d   1      23.892 -18.309  -0.033  0.00  0.00     0.002 C 
ATOM     36  C   UNL d   1      25.283 -18.197  -0.113  0.00  0.00     0.031 C 
ENDBRANCH  24  31
ENDBRANCH  19  20
ENDBRANCH   1  19
TORSDOF 7
ENDMDL
MODEL 9
REMARK VINA RESULT:    -6.216      3.065      4.788
REMARK INTER + INTRA:         -13.388
REMARK INTER:                  -8.304
REMARK INTRA:                  -5.084
REMARK CONF_INDEPENDENT:        2.088
REMARK UNBOUND:                -5.084
REMARK  7 active torsions:
REMARK  status: ('A' for Active; 'I' for Inactive)
REMARK    1  A    between atoms: C_8  and  N_9 
REMARK       I    between atoms: N_9  and  C_10 
REMARK    2  A    between atoms: C_10  and  C_12 
REMARK    3  A    between atoms: C_12  and  N_13 
REMARK       I    between atoms: N_13  and  C_14 
REMARK    4  A    between atoms: C_14  and  C_16 
REMARK    5  A    between atoms: C_16  and  C_17 
REMARK    6  A    between atoms: C_17  and  C_18 
REMARK    7  A    between atoms: N_24  and  C_25 
ROOT
ATOM      1  C   UNL d   1      28.242 -12.818   1.402  0.00  0.00     0.110 C 
ENDROOT
BRANCH   1   2
ATOM      2  C   UNL d   1      29.085 -14.009   0.934  0.00  0.00     0.218 C 
ATOM      3  N   UNL d   1      28.411 -15.051   0.373  0.00  0.00    -0.352 N 
ATOM      4  H   UNL d   1      27.393 -15.038   0.266  0.00  0.00     0.162 HD
ATOM      5  O   UNL d   1      30.306 -14.046   1.049  0.00  0.00    -0.274 OA
BRANCH   3   6
ATOM      6  C   UNL d   1      29.075 -16.287  -0.137  0.00  0.00     0.225 C 
BRANCH   6   7
ATOM      7  C   UNL d   1      29.111 -16.109  -1.650  0.00  0.00     0.239 C 
ATOM      8  N   UNL d   1      28.784 -14.885  -2.236  0.00  0.00    -0.325 N 
ATOM      9  H   UNL d   1      28.521 -14.132  -1.604  0.00  0.00     0.169 HD
ATOM     10  O   UNL d   1      29.449 -17.146  -2.220  0.00  0.00    -0.271 OA
BRANCH   8  11
ATOM     11  C   UNL d   1      28.765 -14.526  -3.652  0.00  0.00     0.042 A 
ATOM     12  C   UNL d   1      28.160 -15.438  -4.556  0.00  0.00     0.030 A 
ATOM     13  C   UNL d   1      28.095 -15.180  -5.942  0.00  0.00     0.004 A 
ATOM     14  C   UNL d   1      28.620 -14.006  -6.465  0.00  0.00     0.024 A 
ATOM     15  C   UNL d   1      29.212 -13.091  -5.612  0.00  0.00     0.042 A 
ATOM     16  C   UNL d   1      29.299 -13.333  -4.223  0.00  0.00    -0.013 A 
ATOM     17 CL   UNL d   1      29.829 -11.643  -6.346  0.00  0.00    -0.084 Cl
ATOM     18  C   UNL d   1      29.972 -12.283  -3.410  0.00  0.00     0.052 C 
ENDBRANCH   8  11
ENDBRANCH   6   7
ENDBRANCH   3   6
ENDBRANCH   1   2
BRANCH   1  19
ATOM     19  C   UNL d   1      28.031 -11.822   0.245  0.00  0.00     0.088 C 
BRANCH  19  20
ATOM     20  C   UNL d   1      27.214 -12.274  -0.966  0.00  0.00     0.109 A 
ATOM     21  N   UNL d   1      26.583 -13.425  -0.953  0.00  0.00    -0.215 NA
ATOM     22  C   UNL d   1      25.904 -13.711  -2.110  0.00  0.00     0.170 A 
ATOM     23  C   UNL d   1      25.851 -12.907  -3.226  0.00  0.00     0.099 A 
ATOM     24  N   UNL d   1      25.215 -14.878  -2.468  0.00  0.00    -0.215 N 
ATOM     25  C   UNL d   1      25.115 -13.601  -4.183  0.00  0.00     0.160 A 
ATOM     26  C   UNL d   1      26.520 -11.648  -3.217  0.00  0.00     0.262 A 
ATOM     27  N   UNL d   1      24.780 -14.825  -3.768  0.00  0.00    -0.177 NA
ATOM     28  O   UNL d   1      26.527 -10.854  -4.158  0.00  0.00    -0.267 OA
ATOM     29  N   UNL d   1      27.190 -11.403  -2.044  0.00  0.00    -0.311 N 
ATOM     30  H   UNL d   1      27.674 -10.520  -2.030  0.00  0.00     0.170 HD
BRANCH  24  31
ATOM     31  C   UNL d   1      24.960 -16.033  -1.689  0.00  0.00     0.060 C 
ATOM     32  C   UNL d   1      26.019 -16.872  -1.319  0.00  0.00     0.031 C 
ATOM     33  C   UNL d   1      25.801 -17.854  -0.348  0.00  0.00     0.002 C 
ATOM     34  C   UNL d   1      24.500 -18.183   0.030  0.00  0.00     0.000 C 
ATOM     35  C   UNL d   1      23.425 -17.458  -0.485  0.00  0.00     0.002 C 
ATOM     36  C   UNL d   1      23.660 -16.325  -1.271  0.00  0.00     0.031 C 
ENDBRANCH  24  31
ENDBRANCH  19  20
ENDBRANCH   1  19
TORSDOF 7
ENDMDL
