MODEL 1
REMARK VINA RESULT:    -7.103      0.000      0.000
REMARK INTER + INTRA:          -9.793
REMARK INTER:                  -8.595
REMARK INTRA:                  -1.198
REMARK CONF_INDEPENDENT:        1.492
REMARK UNBOUND:                -1.198
REMARK  5 active torsions:
REMARK  status: ('A' for Active; 'I' for Inactive)
REMARK    1  A    between atoms: C_2  and  C_3 
REMARK       I    between atoms: C_2  and  N_10 
REMARK    2  A    between atoms: C_3  and  C_4 
REMARK    3  A    between atoms: N_10  and  N_11 
REMARK       I    between atoms: N_11  and  C_12 
REMARK    4  A    between atoms: C_12  and  C_14 
REMARK    5  A    between atoms: C_19  and  O_20 
ROOT
ATOM      1  N   UNL d   1      28.359 -15.479   1.150  0.00  0.00    -0.263 N 
ATOM      2  C   UNL d   1      27.768 -14.481   1.906  0.00  0.00     0.272 C 
ATOM      3  O   UNL d   1      26.881 -13.738   1.481  0.00  0.00    -0.266 OA
ATOM      4  H   UNL d   1      29.174 -15.964   1.513  0.00  0.00     0.190 HD
ENDROOT
BRANCH   1   5
ATOM      5  N   UNL d   1      28.044 -15.555  -0.207  0.00  0.00    -0.267 N 
ATOM      6  C   UNL d   1      27.042 -16.315  -0.759  0.00  0.00     0.240 C 
ATOM      7  O   UNL d   1      26.811 -16.188  -1.962  0.00  0.00    -0.272 OA
ATOM      8  H   UNL d   1      28.535 -14.912  -0.829  0.00  0.00     0.190 HD
BRANCH   6   9
ATOM      9  C   UNL d   1      26.289 -17.283   0.158  0.00  0.00     0.143 C 
BRANCH   9  10
ATOM     10  C   UNL d   1      24.823 -17.481  -0.186  0.00  0.00    -0.049 A 
ATOM     11  C   UNL d   1      23.993 -16.400  -0.519  0.00  0.00     0.007 A 
ATOM     12  C   UNL d   1      22.619 -16.579  -0.675  0.00  0.00     0.001 A 
ATOM     13  C   UNL d   1      22.073 -17.858  -0.623  0.00  0.00     0.000 A 
ATOM     14  C   UNL d   1      22.897 -18.953  -0.377  0.00  0.00     0.001 A 
ATOM     15  C   UNL d   1      24.263 -18.767  -0.154  0.00  0.00     0.007 A 
ENDBRANCH   9  10
ENDBRANCH   6   9
ENDBRANCH   1   5
BRANCH   2  16
ATOM     16  C   UNL d   1      28.254 -14.338   3.306  0.00  0.00     0.066 A 
ATOM     17  C   UNL d   1      27.333 -13.999   4.310  0.00  0.00     0.020 A 
ATOM     18  C   UNL d   1      27.773 -13.730   5.609  0.00  0.00     0.001 A 
ATOM     19  C   UNL d   1      29.128 -13.837   5.923  0.00  0.00     0.003 A 
ATOM     20  C   UNL d   1      30.049 -14.193   4.936  0.00  0.00     0.037 A 
ATOM     21  C   UNL d   1      29.611 -14.450   3.633  0.00  0.00     0.081 A 
BRANCH  21  22
ATOM     22  O   UNL d   1      30.517 -14.813   2.673  0.00  0.00    -0.360 OA
ATOM     23  H   UNL d   1      30.412 -15.761   2.481  0.00  0.00     0.217 HD
ENDBRANCH  21  22
ENDBRANCH   2  16
TORSDOF 5
ENDMDL
MODEL 2
REMARK VINA RESULT:    -6.913      4.292      8.480
REMARK INTER + INTRA:          -9.774
REMARK INTER:                  -8.404
REMARK INTRA:                  -1.370
REMARK CONF_INDEPENDENT:        1.492
REMARK UNBOUND:                -1.370
REMARK  5 active torsions:
REMARK  status: ('A' for Active; 'I' for Inactive)
REMARK    1  A    between atoms: C_2  and  C_3 
REMARK       I    between atoms: C_2  and  N_10 
REMARK    2  A    between atoms: C_3  and  C_4 
REMARK    3  A    between atoms: N_10  and  N_11 
REMARK       I    between atoms: N_11  and  C_12 
REMARK    4  A    between atoms: C_12  and  C_14 
REMARK    5  A    between atoms: C_19  and  O_20 
ROOT
ATOM      1  N   UNL d   1      22.154 -18.930  -0.561  0.00  0.00    -0.263 N 
ATOM      2  C   UNL d   1      20.847 -19.329  -0.777  0.00  0.00     0.272 C 
ATOM      3  O   UNL d   1      20.323 -19.374  -1.893  0.00  0.00    -0.266 OA
ATOM      4  H   UNL d   1      22.481 -18.785   0.389  0.00  0.00     0.190 HD
ENDROOT
BRANCH   1   5
ATOM      5  N   UNL d   1      22.875 -18.409  -1.637  0.00  0.00    -0.267 N 
ATOM      6  C   UNL d   1      24.074 -17.745  -1.556  0.00  0.00     0.240 C 
ATOM      7  O   UNL d   1      24.647 -17.447  -2.604  0.00  0.00    -0.272 OA
ATOM      8  H   UNL d   1      22.531 -18.633  -2.571  0.00  0.00     0.190 HD
BRANCH   6   9
ATOM      9  C   UNL d   1      24.612 -17.405  -0.163  0.00  0.00     0.143 C 
BRANCH   9  10
ATOM     10  C   UNL d   1      26.009 -16.809  -0.142  0.00  0.00    -0.049 A 
ATOM     11  C   UNL d   1      27.153 -17.618  -0.207  0.00  0.00     0.007 A 
ATOM     12  C   UNL d   1      28.423 -17.070  -0.028  0.00  0.00     0.001 A 
ATOM     13  C   UNL d   1      28.575 -15.692   0.095  0.00  0.00     0.000 A 
ATOM     14  C   UNL d   1      27.454 -14.867   0.076  0.00  0.00     0.001 A 
ATOM     15  C   UNL d   1      26.177 -15.421  -0.036  0.00  0.00     0.007 A 
ENDBRANCH   9  10
ENDBRANCH   6   9
ENDBRANCH   1   5
BRANCH   2  16
ATOM     16  C   UNL d   1      20.068 -19.725   0.428  0.00  0.00     0.066 A 
ATOM     17  C   UNL d   1      20.655 -19.570   1.694  0.00  0.00     0.020 A 
ATOM     18  C   UNL d   1      20.007 -20.049   2.835  0.00  0.00     0.001 A 
ATOM     19  C   UNL d   1      18.752 -20.649   2.726  0.00  0.00     0.003 A 
ATOM     20  C   UNL d   1      18.152 -20.790   1.473  0.00  0.00     0.037 A 
ATOM     21  C   UNL d   1      18.805 -20.322   0.329  0.00  0.00     0.081 A 
BRANCH  21  22
ATOM     22  O   UNL d   1      18.205 -20.450  -0.895  0.00  0.00    -0.360 OA
ATOM     23  H   UNL d   1      18.482 -19.710  -1.462  0.00  0.00     0.217 HD
ENDBRANCH  21  22
ENDBRANCH   2  16
TORSDOF 5
ENDMDL
MODEL 3
REMARK VINA RESULT:    -6.875      7.936     11.044
REMARK INTER + INTRA:          -9.817
REMARK INTER:                  -8.367
REMARK INTRA:                  -1.450
REMARK CONF_INDEPENDENT:        1.492
REMARK UNBOUND:                -1.450
REMARK  5 active torsions:
REMARK  status: ('A' for Active; 'I' for Inactive)
REMARK    1  A    between atoms: C_2  and  C_3 
REMARK       I    between atoms: C_2  and  N_10 
REMARK    2  A    between atoms: C_3  and  C_4 
REMARK    3  A    between atoms: N_10  and  N_11 
REMARK       I    between atoms: N_11  and  C_12 
REMARK    4  A    between atoms: C_12  and  C_14 
REMARK    5  A    between atoms: C_19  and  O_20 
ROOT
ATOM      1  N   UNL d   1      30.947 -21.531   3.084  0.00  0.00    -0.263 N 
ATOM      2  C   UNL d   1      30.077 -21.950   2.093  0.00  0.00     0.272 C 
ATOM      3  O   UNL d   1      28.905 -22.272   2.306  0.00  0.00    -0.266 OA
ATOM      4  H   UNL d   1      31.932 -21.412   2.865  0.00  0.00     0.190 HD
ENDROOT
BRANCH   1   5
ATOM      5  N   UNL d   1      30.531 -21.619   4.413  0.00  0.00    -0.267 N 
ATOM      6  C   UNL d   1      31.318 -21.407   5.518  0.00  0.00     0.240 C 
ATOM      7  O   UNL d   1      30.779 -21.405   6.625  0.00  0.00    -0.272 OA
ATOM      8  H   UNL d   1      29.531 -21.750   4.572  0.00  0.00     0.190 HD
BRANCH   6   9
ATOM      9  C   UNL d   1      32.820 -21.201   5.299  0.00  0.00     0.143 C 
BRANCH   9  10
ATOM     10  C   UNL d   1      33.708 -21.727   6.414  0.00  0.00    -0.049 A 
ATOM     11  C   UNL d   1      34.484 -20.865   7.203  0.00  0.00     0.007 A 
ATOM     12  C   UNL d   1      35.410 -21.374   8.112  0.00  0.00     0.001 A 
ATOM     13  C   UNL d   1      35.486 -22.746   8.334  0.00  0.00     0.000 A 
ATOM     14  C   UNL d   1      34.662 -23.610   7.619  0.00  0.00     0.001 A 
ATOM     15  C   UNL d   1      33.781 -23.105   6.660  0.00  0.00     0.007 A 
ENDBRANCH   9  10
ENDBRANCH   6   9
ENDBRANCH   1   5
BRANCH   2  16
ATOM     16  C   UNL d   1      30.620 -21.990   0.708  0.00  0.00     0.066 A 
ATOM     17  C   UNL d   1      30.176 -22.996  -0.164  0.00  0.00     0.020 A 
ATOM     18  C   UNL d   1      30.759 -23.142  -1.427  0.00  0.00     0.001 A 
ATOM     19  C   UNL d   1      31.758 -22.262  -1.841  0.00  0.00     0.003 A 
ATOM     20  C   UNL d   1      32.192 -21.246  -0.987  0.00  0.00     0.037 A 
ATOM     21  C   UNL d   1      31.619 -21.106   0.280  0.00  0.00     0.081 A 
BRANCH  21  22
ATOM     22  O   UNL d   1      32.039 -20.098   1.106  0.00  0.00    -0.360 OA
ATOM     23  H   UNL d   1      31.333 -19.432   1.177  0.00  0.00     0.217 HD
ENDBRANCH  21  22
ENDBRANCH   2  16
TORSDOF 5
ENDMDL
MODEL 4
REMARK VINA RESULT:    -6.195      4.705      7.372
REMARK INTER + INTRA:          -8.885
REMARK INTER:                  -7.687
REMARK INTRA:                  -1.198
REMARK CONF_INDEPENDENT:        1.492
REMARK UNBOUND:                -1.198
REMARK  5 active torsions:
REMARK  status: ('A' for Active; 'I' for Inactive)
REMARK    1  A    between atoms: C_2  and  C_3 
REMARK       I    between atoms: C_2  and  N_10 
REMARK    2  A    between atoms: C_3  and  C_4 
REMARK    3  A    between atoms: N_10  and  N_11 
REMARK       I    between atoms: N_11  and  C_12 
REMARK    4  A    between atoms: C_12  and  C_14 
REMARK    5  A    between atoms: C_19  and  O_20 
ROOT
ATOM      1  N   UNL d   1      26.095 -13.619  -5.029  0.00  0.00    -0.263 N 
ATOM      2  C   UNL d   1      26.860 -14.706  -5.416  0.00  0.00     0.272 C 
ATOM      3  O   UNL d   1      26.452 -15.870  -5.392  0.00  0.00    -0.266 OA
ATOM      4  H   UNL d   1      26.533 -12.707  -4.943  0.00  0.00     0.190 HD
ENDROOT
BRANCH   1   5
ATOM      5  N   UNL d   1      24.852 -13.858  -4.442  0.00  0.00    -0.267 N 
ATOM      6  C   UNL d   1      24.642 -14.409  -3.202  0.00  0.00     0.240 C 
ATOM      7  O   UNL d   1      23.488 -14.450  -2.771  0.00  0.00    -0.272 OA
ATOM      8  H   UNL d   1      24.034 -13.497  -4.935  0.00  0.00     0.190 HD
BRANCH   6   9
ATOM      9  C   UNL d   1      25.856 -14.951  -2.443  0.00  0.00     0.143 C 
BRANCH   9  10
ATOM     10  C   UNL d   1      25.576 -16.153  -1.559  0.00  0.00    -0.049 A 
ATOM     11  C   UNL d   1      24.349 -16.833  -1.610  0.00  0.00     0.007 A 
ATOM     12  C   UNL d   1      24.050 -17.832  -0.684  0.00  0.00     0.001 A 
ATOM     13  C   UNL d   1      25.016 -18.250   0.226  0.00  0.00     0.000 A 
ATOM     14  C   UNL d   1      26.269 -17.642   0.234  0.00  0.00     0.001 A 
ATOM     15  C   UNL d   1      26.547 -16.597  -0.649  0.00  0.00     0.007 A 
ENDBRANCH   9  10
ENDBRANCH   6   9
ENDBRANCH   1   5
BRANCH   2  16
ATOM     16  C   UNL d   1      28.240 -14.410  -5.888  0.00  0.00     0.066 A 
ATOM     17  C   UNL d   1      28.452 -13.277  -6.690  0.00  0.00     0.020 A 
ATOM     18  C   UNL d   1      29.708 -13.040  -7.256  0.00  0.00     0.001 A 
ATOM     19  C   UNL d   1      30.768 -13.907  -6.992  0.00  0.00     0.003 A 
ATOM     20  C   UNL d   1      30.571 -15.025  -6.179  0.00  0.00     0.037 A 
ATOM     21  C   UNL d   1      29.313 -15.271  -5.623  0.00  0.00     0.081 A 
BRANCH  21  22
ATOM     22  O   UNL d   1      29.129 -16.360  -4.814  0.00  0.00    -0.360 OA
ATOM     23  H   UNL d   1      28.207 -16.660  -4.892  0.00  0.00     0.217 HD
ENDBRANCH  21  22
ENDBRANCH   2  16
TORSDOF 5
ENDMDL
MODEL 5
REMARK VINA RESULT:    -6.103      4.828      6.965
REMARK INTER + INTRA:          -9.147
REMARK INTER:                  -7.595
REMARK INTRA:                  -1.552
REMARK CONF_INDEPENDENT:        1.492
REMARK UNBOUND:                -1.552
REMARK  5 active torsions:
REMARK  status: ('A' for Active; 'I' for Inactive)
REMARK    1  A    between atoms: C_2  and  C_3 
REMARK       I    between atoms: C_2  and  N_10 
REMARK    2  A    between atoms: C_3  and  C_4 
REMARK    3  A    between atoms: N_10  and  N_11 
REMARK       I    between atoms: N_11  and  C_12 
REMARK    4  A    between atoms: C_12  and  C_14 
REMARK    5  A    between atoms: C_19  and  O_20 
ROOT
ATOM      1  N   UNL d   1      27.331 -15.143  -4.222  0.00  0.00    -0.263 N 
ATOM      2  C   UNL d   1      28.030 -15.359  -5.397  0.00  0.00     0.272 C 
ATOM      3  O   UNL d   1      27.576 -15.108  -6.516  0.00  0.00    -0.266 OA
ATOM      4  H   UNL d   1      27.707 -15.496  -3.346  0.00  0.00     0.190 HD
ENDROOT
BRANCH   1   5
ATOM      5  N   UNL d   1      25.991 -14.765  -4.307  0.00  0.00    -0.267 N 
ATOM      6  C   UNL d   1      25.156 -14.515  -3.246  0.00  0.00     0.240 C 
ATOM      7  O   UNL d   1      24.030 -14.075  -3.481  0.00  0.00    -0.272 OA
ATOM      8  H   UNL d   1      25.632 -14.557  -5.240  0.00  0.00     0.190 HD
BRANCH   6   9
ATOM      9  C   UNL d   1      25.679 -14.814  -1.838  0.00  0.00     0.143 C 
BRANCH   9  10
ATOM     10  C   UNL d   1      25.106 -16.065  -1.194  0.00  0.00    -0.049 A 
ATOM     11  C   UNL d   1      25.926 -16.992  -0.534  0.00  0.00     0.007 A 
ATOM     12  C   UNL d   1      25.410 -18.209  -0.089  0.00  0.00     0.001 A 
ATOM     13  C   UNL d   1      24.045 -18.464  -0.187  0.00  0.00     0.000 A 
ATOM     14  C   UNL d   1      23.204 -17.516  -0.765  0.00  0.00     0.001 A 
ATOM     15  C   UNL d   1      23.731 -16.326  -1.270  0.00  0.00     0.007 A 
ENDBRANCH   9  10
ENDBRANCH   6   9
ENDBRANCH   1   5
BRANCH   2  16
ATOM     16  C   UNL d   1      29.404 -15.915  -5.257  0.00  0.00     0.066 A 
ATOM     17  C   UNL d   1      29.697 -16.722  -4.146  0.00  0.00     0.020 A 
ATOM     18  C   UNL d   1      31.006 -17.154  -3.915  0.00  0.00     0.001 A 
ATOM     19  C   UNL d   1      32.021 -16.819  -4.812  0.00  0.00     0.003 A 
ATOM     20  C   UNL d   1      31.734 -16.033  -5.930  0.00  0.00     0.037 A 
ATOM     21  C   UNL d   1      30.428 -15.589  -6.155  0.00  0.00     0.081 A 
BRANCH  21  22
ATOM     22  O   UNL d   1      30.150 -14.832  -7.261  0.00  0.00    -0.360 OA
ATOM     23  H   UNL d   1      29.368 -15.199  -7.708  0.00  0.00     0.217 HD
ENDBRANCH  21  22
ENDBRANCH   2  16
TORSDOF 5
ENDMDL
MODEL 6
REMARK VINA RESULT:    -5.904      1.884      2.753
REMARK INTER + INTRA:          -8.710
REMARK INTER:                  -7.395
REMARK INTRA:                  -1.314
REMARK CONF_INDEPENDENT:        1.492
REMARK UNBOUND:                -1.314
REMARK  5 active torsions:
REMARK  status: ('A' for Active; 'I' for Inactive)
REMARK    1  A    between atoms: C_2  and  C_3 
REMARK       I    between atoms: C_2  and  N_10 
REMARK    2  A    between atoms: C_3  and  C_4 
REMARK    3  A    between atoms: N_10  and  N_11 
REMARK       I    between atoms: N_11  and  C_12 
REMARK    4  A    between atoms: C_12  and  C_14 
REMARK    5  A    between atoms: C_19  and  O_20 
ROOT
ATOM      1  N   UNL d   1      27.084 -15.194  -1.199  0.00  0.00    -0.263 N 
ATOM      2  C   UNL d   1      26.811 -13.950  -0.658  0.00  0.00     0.272 C 
ATOM      3  O   UNL d   1      26.276 -13.034  -1.288  0.00  0.00    -0.266 OA
ATOM      4  H   UNL d   1      27.647 -15.854  -0.672  0.00  0.00     0.190 HD
ENDROOT
BRANCH   1   5
ATOM      5  N   UNL d   1      26.883 -15.380  -2.567  0.00  0.00    -0.267 N 
ATOM      6  C   UNL d   1      25.676 -15.309  -3.219  0.00  0.00     0.240 C 
ATOM      7  O   UNL d   1      25.674 -15.381  -4.449  0.00  0.00    -0.272 OA
ATOM      8  H   UNL d   1      27.718 -15.475  -3.145  0.00  0.00     0.190 HD
BRANCH   6   9
ATOM      9  C   UNL d   1      24.411 -15.160  -2.370  0.00  0.00     0.143 C 
BRANCH   9  10
ATOM     10  C   UNL d   1      24.122 -16.325  -1.439  0.00  0.00    -0.049 A 
ATOM     11  C   UNL d   1      25.108 -17.270  -1.118  0.00  0.00     0.007 A 
ATOM     12  C   UNL d   1      24.785 -18.417  -0.393  0.00  0.00     0.001 A 
ATOM     13  C   UNL d   1      23.504 -18.574   0.127  0.00  0.00     0.000 A 
ATOM     14  C   UNL d   1      22.536 -17.602  -0.112  0.00  0.00     0.001 A 
ATOM     15  C   UNL d   1      22.840 -16.487  -0.895  0.00  0.00     0.007 A 
ENDBRANCH   9  10
ENDBRANCH   6   9
ENDBRANCH   1   5
BRANCH   2  16
ATOM     16  C   UNL d   1      27.192 -13.750   0.767  0.00  0.00     0.066 A 
ATOM     17  C   UNL d   1      26.895 -12.523   1.381  0.00  0.00     0.020 A 
ATOM     18  C   UNL d   1      27.351 -12.253   2.675  0.00  0.00     0.001 A 
ATOM     19  C   UNL d   1      28.071 -13.220   3.377  0.00  0.00     0.003 A 
ATOM     20  C   UNL d   1      28.355 -14.450   2.781  0.00  0.00     0.037 A 
ATOM     21  C   UNL d   1      27.910 -14.717   1.483  0.00  0.00     0.081 A 
BRANCH  21  22
ATOM     22  O   UNL d   1      28.179 -15.930   0.910  0.00  0.00    -0.360 OA
ATOM     23  H   UNL d   1      28.930 -16.340   1.373  0.00  0.00     0.217 HD
ENDBRANCH  21  22
ENDBRANCH   2  16
TORSDOF 5
ENDMDL
MODEL 7
REMARK VINA RESULT:    -5.470      3.869      7.229
REMARK INTER + INTRA:          -8.784
REMARK INTER:                  -6.961
REMARK INTRA:                  -1.822
REMARK CONF_INDEPENDENT:        1.492
REMARK UNBOUND:                -1.822
REMARK  5 active torsions:
REMARK  status: ('A' for Active; 'I' for Inactive)
REMARK    1  A    between atoms: C_2  and  C_3 
REMARK       I    between atoms: C_2  and  N_10 
REMARK    2  A    between atoms: C_3  and  C_4 
REMARK    3  A    between atoms: N_10  and  N_11 
REMARK       I    between atoms: N_11  and  C_12 
REMARK    4  A    between atoms: C_12  and  C_14 
REMARK    5  A    between atoms: C_19  and  O_20 
ROOT
ATOM      1  N   UNL d   1      25.261 -15.370  -2.756  0.00  0.00    -0.263 N 
ATOM      2  C   UNL d   1      25.089 -14.424  -3.751  0.00  0.00     0.272 C 
ATOM      3  O   UNL d   1      24.034 -13.812  -3.935  0.00  0.00    -0.266 OA
ATOM      4  H   UNL d   1      26.107 -15.933  -2.745  0.00  0.00     0.190 HD
ENDROOT
BRANCH   1   5
ATOM      5  N   UNL d   1      24.146 -15.765  -2.017  0.00  0.00    -0.267 N 
ATOM      6  C   UNL d   1      24.138 -16.700  -1.011  0.00  0.00     0.240 C 
ATOM      7  O   UNL d   1      23.098 -16.858  -0.370  0.00  0.00    -0.272 OA
ATOM      8  H   UNL d   1      23.285 -15.238  -2.168  0.00  0.00     0.190 HD
BRANCH   6   9
ATOM      9  C   UNL d   1      25.422 -17.497  -0.763  0.00  0.00     0.143 C 
BRANCH   9  10
ATOM     10  C   UNL d   1      26.638 -16.658  -0.409  0.00  0.00    -0.049 A 
ATOM     11  C   UNL d   1      27.941 -17.109  -0.667  0.00  0.00     0.007 A 
ATOM     12  C   UNL d   1      29.046 -16.401  -0.194  0.00  0.00     0.001 A 
ATOM     13  C   UNL d   1      28.868 -15.173   0.435  0.00  0.00     0.000 A 
ATOM     14  C   UNL d   1      27.583 -14.671   0.624  0.00  0.00     0.001 A 
ATOM     15  C   UNL d   1      26.474 -15.411   0.210  0.00  0.00     0.007 A 
ENDBRANCH   9  10
ENDBRANCH   6   9
ENDBRANCH   1   5
BRANCH   2  16
ATOM     16  C   UNL d   1      26.269 -14.152  -4.617  0.00  0.00     0.066 A 
ATOM     17  C   UNL d   1      27.158 -15.201  -4.897  0.00  0.00     0.020 A 
ATOM     18  C   UNL d   1      28.342 -14.954  -5.598  0.00  0.00     0.001 A 
ATOM     19  C   UNL d   1      28.625 -13.669  -6.060  0.00  0.00     0.003 A 
ATOM     20  C   UNL d   1      27.736 -12.623  -5.803  0.00  0.00     0.037 A 
ATOM     21  C   UNL d   1      26.558 -12.866  -5.091  0.00  0.00     0.081 A 
BRANCH  21  22
ATOM     22  O   UNL d   1      25.683 -11.840  -4.856  0.00  0.00    -0.360 OA
ATOM     23  H   UNL d   1      24.776 -12.192  -4.846  0.00  0.00     0.217 HD
ENDBRANCH  21  22
ENDBRANCH   2  16
TORSDOF 5
ENDMDL
MODEL 8
REMARK VINA RESULT:    -5.338      3.520      6.247
REMARK INTER + INTRA:          -8.706
REMARK INTER:                  -6.830
REMARK INTRA:                  -1.877
REMARK CONF_INDEPENDENT:        1.492
REMARK UNBOUND:                -1.877
REMARK  5 active torsions:
REMARK  status: ('A' for Active; 'I' for Inactive)
REMARK    1  A    between atoms: C_2  and  C_3 
REMARK       I    between atoms: C_2  and  N_10 
REMARK    2  A    between atoms: C_3  and  C_4 
REMARK    3  A    between atoms: N_10  and  N_11 
REMARK       I    between atoms: N_11  and  C_12 
REMARK    4  A    between atoms: C_12  and  C_14 
REMARK    5  A    between atoms: C_19  and  O_20 
ROOT
ATOM      1  N   UNL d   1      27.231 -16.899  -0.300  0.00  0.00    -0.263 N 
ATOM      2  C   UNL d   1      26.427 -17.960   0.080  0.00  0.00     0.272 C 
ATOM      3  O   UNL d   1      26.857 -18.987   0.611  0.00  0.00    -0.266 OA
ATOM      4  H   UNL d   1      26.833 -16.146  -0.853  0.00  0.00     0.190 HD
ENDROOT
BRANCH   1   5
ATOM      5  N   UNL d   1      28.615 -17.054  -0.217  0.00  0.00    -0.267 N 
ATOM      6  C   UNL d   1      29.550 -16.095  -0.518  0.00  0.00     0.240 C 
ATOM      7  O   UNL d   1      30.734 -16.342  -0.283  0.00  0.00    -0.272 OA
ATOM      8  H   UNL d   1      28.955 -17.920   0.202  0.00  0.00     0.190 HD
BRANCH   6   9
ATOM      9  C   UNL d   1      29.059 -14.785  -1.140  0.00  0.00     0.143 C 
BRANCH   9  10
ATOM     10  C   UNL d   1      28.253 -14.945  -2.418  0.00  0.00    -0.049 A 
ATOM     11  C   UNL d   1      28.789 -15.575  -3.551  0.00  0.00     0.007 A 
ATOM     12  C   UNL d   1      28.096 -15.572  -4.761  0.00  0.00     0.001 A 
ATOM     13  C   UNL d   1      26.807 -15.051  -4.824  0.00  0.00     0.000 A 
ATOM     14  C   UNL d   1      26.227 -14.498  -3.685  0.00  0.00     0.001 A 
ATOM     15  C   UNL d   1      26.946 -14.440  -2.490  0.00  0.00     0.007 A 
ENDBRANCH   9  10
ENDBRANCH   6   9
ENDBRANCH   1   5
BRANCH   2  16
ATOM     16  C   UNL d   1      24.968 -17.810  -0.176  0.00  0.00     0.066 A 
ATOM     17  C   UNL d   1      24.156 -18.954  -0.157  0.00  0.00     0.020 A 
ATOM     18  C   UNL d   1      22.808 -18.870  -0.519  0.00  0.00     0.001 A 
ATOM     19  C   UNL d   1      22.254 -17.637  -0.863  0.00  0.00     0.003 A 
ATOM     20  C   UNL d   1      23.050 -16.489  -0.866  0.00  0.00     0.037 A 
ATOM     21  C   UNL d   1      24.400 -16.575  -0.516  0.00  0.00     0.081 A 
BRANCH  21  22
ATOM     22  O   UNL d   1      25.172 -15.444  -0.507  0.00  0.00    -0.360 OA
ATOM     23  H   UNL d   1      25.592 -15.354   0.366  0.00  0.00     0.217 HD
ENDBRANCH  21  22
ENDBRANCH   2  16
TORSDOF 5
ENDMDL
