MODEL 1
REMARK VINA RESULT:    -9.096      0.000      0.000
REMARK INTER + INTRA:         -11.173
REMARK INTER:                  -9.991
REMARK INTRA:                  -1.182
REMARK CONF_INDEPENDENT:        0.895
REMARK UNBOUND:                -1.182
REMARK  3 active torsions:
REMARK  status: ('A' for Active; 'I' for Inactive)
REMARK       I    between atoms: C_2  and  N_3 
REMARK    1  A    between atoms: C_2  and  C_11 
REMARK    2  A    between atoms: N_3  and  C_4 
REMARK    3  A    between atoms: C_9  and  O_10 
ROOT
ATOM      1  O   UNL d   1      21.226 -17.239  -0.996  0.00  0.00    -0.267 OA
ATOM      2  C   UNL d   1      22.080 -17.958  -0.476  0.00  0.00     0.256 C 
ATOM      3  N   UNL d   1      21.841 -19.045   0.356  0.00  0.00    -0.321 N 
ATOM      4  H   UNL d   1      22.572 -19.326   0.996  0.00  0.00     0.169 HD
ENDROOT
BRANCH   3   5
ATOM      5  C   UNL d   1      20.550 -19.595   0.570  0.00  0.00     0.068 A 
ATOM      6  C   UNL d   1      20.167 -19.944   1.873  0.00  0.00     0.032 A 
ATOM      7  C   UNL d   1      18.910 -20.517   2.117  0.00  0.00     0.002 A 
ATOM      8  C   UNL d   1      18.040 -20.777   1.058  0.00  0.00     0.003 A 
ATOM      9  C   UNL d   1      18.417 -20.450  -0.245  0.00  0.00     0.039 A 
ATOM     10  C   UNL d   1      19.666 -19.869  -0.484  0.00  0.00     0.092 A 
BRANCH  10  11
ATOM     11  O   UNL d   1      20.081 -19.700  -1.778  0.00  0.00    -0.358 OA
ATOM     12  H   UNL d   1      20.102 -18.753  -1.983  0.00  0.00     0.217 HD
ENDBRANCH  10  11
ENDBRANCH   3   5
BRANCH   2  13
ATOM     13  C   UNL d   1      23.503 -17.561  -0.659  0.00  0.00     0.032 A 
ATOM     14  C   UNL d   1      24.510 -18.366  -0.101  0.00  0.00     0.018 A 
ATOM     15  C   UNL d   1      25.852 -17.974  -0.168  0.00  0.00     0.020 A 
ATOM     16  C   UNL d   1      26.185 -16.769  -0.782  0.00  0.00     0.011 A 
ATOM     17 BR   UNL d   1      27.995 -16.223  -0.857  0.00  0.00    -0.051 Br
ATOM     18  C   UNL d   1      25.192 -15.956  -1.330  0.00  0.00     0.020 A 
ATOM     19  C   UNL d   1      23.848 -16.352  -1.273  0.00  0.00     0.018 A 
ENDBRANCH   2  13
TORSDOF 3
ENDMDL
MODEL 2
REMARK VINA RESULT:    -8.705      1.305      2.127
REMARK INTER + INTRA:         -10.212
REMARK INTER:                  -9.600
REMARK INTRA:                  -0.612
REMARK CONF_INDEPENDENT:        0.895
REMARK UNBOUND:                -0.612
REMARK  3 active torsions:
REMARK  status: ('A' for Active; 'I' for Inactive)
REMARK       I    between atoms: C_2  and  N_3 
REMARK    1  A    between atoms: C_2  and  C_11 
REMARK    2  A    between atoms: N_3  and  C_4 
REMARK    3  A    between atoms: C_9  and  O_10 
ROOT
ATOM      1  O   UNL d   1      22.149 -19.325  -1.798  0.00  0.00    -0.267 OA
ATOM      2  C   UNL d   1      22.405 -18.774  -0.726  0.00  0.00     0.256 C 
ATOM      3  N   UNL d   1      21.586 -18.743   0.395  0.00  0.00    -0.321 N 
ATOM      4  H   UNL d   1      21.716 -17.992   1.060  0.00  0.00     0.169 HD
ENDROOT
BRANCH   3   5
ATOM      5  C   UNL d   1      20.402 -19.517   0.521  0.00  0.00     0.068 A 
ATOM      6  C   UNL d   1      19.596 -19.714  -0.609  0.00  0.00     0.032 A 
ATOM      7  C   UNL d   1      18.404 -20.449  -0.514  0.00  0.00     0.002 A 
ATOM      8  C   UNL d   1      17.993 -20.963   0.716  0.00  0.00     0.003 A 
ATOM      9  C   UNL d   1      18.778 -20.758   1.851  0.00  0.00     0.039 A 
ATOM     10  C   UNL d   1      19.971 -20.035   1.751  0.00  0.00     0.092 A 
BRANCH  10  11
ATOM     11  O   UNL d   1      20.647 -19.711   2.897  0.00  0.00    -0.358 OA
ATOM     12  H   UNL d   1      21.237 -20.442   3.135  0.00  0.00     0.217 HD
ENDBRANCH  10  11
ENDBRANCH   3   5
BRANCH   2  13
ATOM     13  C   UNL d   1      23.655 -17.969  -0.661  0.00  0.00     0.032 A 
ATOM     14  C   UNL d   1      23.667 -16.685  -1.230  0.00  0.00     0.018 A 
ATOM     15  C   UNL d   1      24.848 -15.938  -1.275  0.00  0.00     0.020 A 
ATOM     16  C   UNL d   1      26.024 -16.482  -0.761  0.00  0.00     0.011 A 
ATOM     17 BR   UNL d   1      27.630 -15.486  -0.838  0.00  0.00    -0.051 Br
ATOM     18  C   UNL d   1      26.026 -17.760  -0.203  0.00  0.00     0.020 A 
ATOM     19  C   UNL d   1      24.841 -18.507  -0.149  0.00  0.00     0.018 A 
ENDBRANCH   2  13
TORSDOF 3
ENDMDL
MODEL 3
REMARK VINA RESULT:    -7.445      3.279      6.815
REMARK INTER + INTRA:          -8.945
REMARK INTER:                  -8.340
REMARK INTRA:                  -0.604
REMARK CONF_INDEPENDENT:        0.895
REMARK UNBOUND:                -0.604
REMARK  3 active torsions:
REMARK  status: ('A' for Active; 'I' for Inactive)
REMARK       I    between atoms: C_2  and  N_3 
REMARK    1  A    between atoms: C_2  and  C_11 
REMARK    2  A    between atoms: N_3  and  C_4 
REMARK    3  A    between atoms: C_9  and  O_10 
ROOT
ATOM      1  O   UNL d   1      22.329 -16.460  -0.755  0.00  0.00    -0.267 OA
ATOM      2  C   UNL d   1      22.583 -17.633  -0.474  0.00  0.00     0.256 C 
ATOM      3  N   UNL d   1      23.829 -18.242  -0.544  0.00  0.00    -0.321 N 
ATOM      4  H   UNL d   1      23.863 -19.248  -0.645  0.00  0.00     0.169 HD
ENDROOT
BRANCH   3   5
ATOM      5  C   UNL d   1      25.035 -17.530  -0.776  0.00  0.00     0.068 A 
ATOM      6  C   UNL d   1      25.141 -16.724  -1.918  0.00  0.00     0.032 A 
ATOM      7  C   UNL d   1      26.328 -16.030  -2.192  0.00  0.00     0.002 A 
ATOM      8  C   UNL d   1      27.429 -16.161  -1.346  0.00  0.00     0.003 A 
ATOM      9  C   UNL d   1      27.342 -16.975  -0.216  0.00  0.00     0.039 A 
ATOM     10  C   UNL d   1      26.154 -17.657   0.061  0.00  0.00     0.092 A 
BRANCH  10  11
ATOM     11  O   UNL d   1      26.136 -18.569   1.082  0.00  0.00    -0.358 OA
ATOM     12  H   UNL d   1      27.042 -18.858   1.265  0.00  0.00     0.217 HD
ENDBRANCH  10  11
ENDBRANCH   3   5
BRANCH   2  13
ATOM     13  C   UNL d   1      21.430 -18.512  -0.137  0.00  0.00     0.032 A 
ATOM     14  C   UNL d   1      21.274 -18.950   1.188  0.00  0.00     0.018 A 
ATOM     15  C   UNL d   1      20.261 -19.855   1.524  0.00  0.00     0.020 A 
ATOM     16  C   UNL d   1      19.411 -20.333   0.529  0.00  0.00     0.011 A 
ATOM     17 BR   UNL d   1      18.053 -21.574   0.971  0.00  0.00    -0.051 Br
ATOM     18  C   UNL d   1      19.563 -19.913  -0.793  0.00  0.00     0.020 A 
ATOM     19  C   UNL d   1      20.572 -18.999  -1.129  0.00  0.00     0.018 A 
ENDBRANCH   2  13
TORSDOF 3
ENDMDL
MODEL 4
REMARK VINA RESULT:    -7.097      3.197      6.628
REMARK INTER + INTRA:          -9.217
REMARK INTER:                  -7.992
REMARK INTRA:                  -1.225
REMARK CONF_INDEPENDENT:        0.895
REMARK UNBOUND:                -1.225
REMARK  3 active torsions:
REMARK  status: ('A' for Active; 'I' for Inactive)
REMARK       I    between atoms: C_2  and  N_3 
REMARK    1  A    between atoms: C_2  and  C_11 
REMARK    2  A    between atoms: N_3  and  C_4 
REMARK    3  A    between atoms: C_9  and  O_10 
ROOT
ATOM      1  O   UNL d   1      22.464 -16.672  -0.374  0.00  0.00    -0.267 OA
ATOM      2  C   UNL d   1      22.619 -17.871  -0.135  0.00  0.00     0.256 C 
ATOM      3  N   UNL d   1      23.820 -18.566  -0.176  0.00  0.00    -0.321 N 
ATOM      4  H   UNL d   1      23.788 -19.566  -0.320  0.00  0.00     0.169 HD
ENDROOT
BRANCH   3   5
ATOM      5  C   UNL d   1      25.084 -17.935  -0.319  0.00  0.00     0.068 A 
ATOM      6  C   UNL d   1      26.052 -18.117   0.679  0.00  0.00     0.032 A 
ATOM      7  C   UNL d   1      27.300 -17.484   0.584  0.00  0.00     0.002 A 
ATOM      8  C   UNL d   1      27.579 -16.640  -0.491  0.00  0.00     0.003 A 
ATOM      9  C   UNL d   1      26.618 -16.437  -1.481  0.00  0.00     0.039 A 
ATOM     10  C   UNL d   1      25.378 -17.077  -1.389  0.00  0.00     0.092 A 
BRANCH  10  11
ATOM     11  O   UNL d   1      24.394 -16.746  -2.282  0.00  0.00    -0.358 OA
ATOM     12  H   UNL d   1      23.624 -16.412  -1.797  0.00  0.00     0.217 HD
ENDBRANCH  10  11
ENDBRANCH   3   5
BRANCH   2  13
ATOM     13  C   UNL d   1      21.391 -18.677   0.108  0.00  0.00     0.032 A 
ATOM     14  C   UNL d   1      21.030 -18.984   1.430  0.00  0.00     0.018 A 
ATOM     15  C   UNL d   1      19.940 -19.820   1.695  0.00  0.00     0.020 A 
ATOM     16  C   UNL d   1      19.218 -20.361   0.633  0.00  0.00     0.011 A 
ATOM     17 BR   UNL d   1      17.756 -21.510   0.982  0.00  0.00    -0.051 Br
ATOM     18  C   UNL d   1      19.573 -20.071  -0.685  0.00  0.00     0.020 A 
ATOM     19  C   UNL d   1      20.660 -19.226  -0.951  0.00  0.00     0.018 A 
ENDBRANCH   2  13
TORSDOF 3
ENDMDL
MODEL 5
REMARK VINA RESULT:    -6.645      3.952      7.666
REMARK INTER + INTRA:          -8.249
REMARK INTER:                  -7.540
REMARK INTRA:                  -0.709
REMARK CONF_INDEPENDENT:        0.895
REMARK UNBOUND:                -0.709
REMARK  3 active torsions:
REMARK  status: ('A' for Active; 'I' for Inactive)
REMARK       I    between atoms: C_2  and  N_3 
REMARK    1  A    between atoms: C_2  and  C_11 
REMARK    2  A    between atoms: N_3  and  C_4 
REMARK    3  A    between atoms: C_9  and  O_10 
ROOT
ATOM      1  O   UNL d   1      26.392 -16.639  -0.817  0.00  0.00    -0.267 OA
ATOM      2  C   UNL d   1      25.375 -16.614  -1.513  0.00  0.00     0.256 C 
ATOM      3  N   UNL d   1      25.210 -15.908  -2.697  0.00  0.00    -0.321 N 
ATOM      4  H   UNL d   1      24.270 -15.666  -2.981  0.00  0.00     0.169 HD
ENDROOT
BRANCH   3   5
ATOM      5  C   UNL d   1      26.275 -15.258  -3.375  0.00  0.00     0.068 A 
ATOM      6  C   UNL d   1      27.595 -15.530  -2.987  0.00  0.00     0.032 A 
ATOM      7  C   UNL d   1      28.669 -14.883  -3.615  0.00  0.00     0.002 A 
ATOM      8  C   UNL d   1      28.433 -13.937  -4.612  0.00  0.00     0.003 A 
ATOM      9  C   UNL d   1      27.123 -13.644  -4.995  0.00  0.00     0.039 A 
ATOM     10  C   UNL d   1      26.054 -14.298  -4.374  0.00  0.00     0.092 A 
BRANCH  10  11
ATOM     11  O   UNL d   1      24.777 -13.888  -4.650  0.00  0.00    -0.358 OA
ATOM     12  H   UNL d   1      24.793 -13.290  -5.412  0.00  0.00     0.217 HD
ENDBRANCH  10  11
ENDBRANCH   3   5
BRANCH   2  13
ATOM     13  C   UNL d   1      24.172 -17.309  -0.979  0.00  0.00     0.032 A 
ATOM     14  C   UNL d   1      24.290 -18.644  -0.558  0.00  0.00     0.018 A 
ATOM     15  C   UNL d   1      23.163 -19.362  -0.143  0.00  0.00     0.020 A 
ATOM     16  C   UNL d   1      21.913 -18.746  -0.163  0.00  0.00     0.011 A 
ATOM     17 BR   UNL d   1      20.381 -19.717   0.376  0.00  0.00    -0.051 Br
ATOM     18  C   UNL d   1      21.782 -17.424  -0.589  0.00  0.00     0.020 A 
ATOM     19  C   UNL d   1      22.912 -16.701  -0.996  0.00  0.00     0.018 A 
ENDBRANCH   2  13
TORSDOF 3
ENDMDL
MODEL 6
REMARK VINA RESULT:    -6.515      3.948      7.733
REMARK INTER + INTRA:          -8.116
REMARK INTER:                  -7.410
REMARK INTRA:                  -0.706
REMARK CONF_INDEPENDENT:        0.895
REMARK UNBOUND:                -0.706
REMARK  3 active torsions:
REMARK  status: ('A' for Active; 'I' for Inactive)
REMARK       I    between atoms: C_2  and  N_3 
REMARK    1  A    between atoms: C_2  and  C_11 
REMARK    2  A    between atoms: N_3  and  C_4 
REMARK    3  A    between atoms: C_9  and  O_10 
ROOT
ATOM      1  O   UNL d   1      25.440 -15.336  -1.402  0.00  0.00    -0.267 OA
ATOM      2  C   UNL d   1      25.437 -16.353  -0.707  0.00  0.00     0.256 C 
ATOM      3  N   UNL d   1      26.507 -16.848   0.027  0.00  0.00    -0.321 N 
ATOM      4  H   UNL d   1      26.516 -17.834   0.252  0.00  0.00     0.169 HD
ENDROOT
BRANCH   3   5
ATOM      5  C   UNL d   1      27.717 -16.131   0.225  0.00  0.00     0.068 A 
ATOM      6  C   UNL d   1      27.655 -14.779   0.591  0.00  0.00     0.032 A 
ATOM      7  C   UNL d   1      28.830 -14.034   0.767  0.00  0.00     0.002 A 
ATOM      8  C   UNL d   1      30.074 -14.624   0.547  0.00  0.00     0.003 A 
ATOM      9  C   UNL d   1      30.149 -15.964   0.166  0.00  0.00     0.039 A 
ATOM     10  C   UNL d   1      28.976 -16.708   0.002  0.00  0.00     0.092 A 
BRANCH  10  11
ATOM     11  O   UNL d   1      29.060 -17.970  -0.521  0.00  0.00    -0.358 OA
ATOM     12  H   UNL d   1      29.702 -18.484  -0.009  0.00  0.00     0.217 HD
ENDBRANCH  10  11
ENDBRANCH   3   5
BRANCH   2  13
ATOM     13  C   UNL d   1      24.210 -17.195  -0.744  0.00  0.00     0.032 A 
ATOM     14  C   UNL d   1      22.962 -16.570  -0.904  0.00  0.00     0.018 A 
ATOM     15  C   UNL d   1      21.780 -17.316  -0.846  0.00  0.00     0.020 A 
ATOM     16  C   UNL d   1      21.846 -18.688  -0.615  0.00  0.00     0.011 A 
ATOM     17 BR   UNL d   1      20.251 -19.700  -0.513  0.00  0.00    -0.051 Br
ATOM     18  C   UNL d   1      23.080 -19.318  -0.443  0.00  0.00     0.020 A 
ATOM     19  C   UNL d   1      24.265 -18.573  -0.510  0.00  0.00     0.018 A 
ENDBRANCH   2  13
TORSDOF 3
ENDMDL
