MODEL 1
REMARK VINA RESULT:    -9.829      0.000      0.000
REMARK INTER + INTRA:         -15.458
REMARK INTER:                 -13.110
REMARK INTRA:                  -2.348
REMARK CONF_INDEPENDENT:        3.281
REMARK UNBOUND:                -2.348
REMARK  11 active torsions:
REMARK  status: ('A' for Active; 'I' for Inactive)
REMARK    1  A    between atoms: C_2  and  O_3 
REMARK    2  A    between atoms: O_3  and  C_4 
REMARK    3  A    between atoms: C_4  and  C_6 
REMARK    4  A    between atoms: C_9  and  N_10 
REMARK       I    between atoms: N_10  and  C_11 
REMARK    5  A    between atoms: C_11  and  C_13 
REMARK    6  A    between atoms: C_13  and  S_14 
REMARK    7  A    between atoms: S_14  and  C_15 
REMARK    8  A    between atoms: C_18  and  C_19 
REMARK    9  A    between atoms: C_19  and  N_20 
REMARK   10  A    between atoms: N_20  and  C_21 
REMARK   11  A    between atoms: N_29  and  C_30 
ROOT
ATOM      1  C   UNL d   1      28.806 -15.764  -2.622  0.00  0.00     0.196 A 
ATOM      2  N   UNL d   1      29.897 -16.349  -3.074  0.00  0.00    -0.122 NA
ATOM      3  N   UNL d   1      29.902 -16.265  -4.453  0.00  0.00    -0.132 NA
ATOM      4  C   UNL d   1      28.817 -15.609  -4.825  0.00  0.00     0.153 A 
ATOM      5  N   UNL d   1      28.064 -15.333  -3.687  0.00  0.00    -0.274 N 
ENDROOT
BRANCH   1   6
ATOM      6  S   UNL d   1      28.416 -15.528  -0.941  0.00  0.00    -0.080 SA
BRANCH   6   7
ATOM      7  C   UNL d   1      28.452 -17.157  -0.018  0.00  0.00     0.185 C 
BRANCH   7   8
ATOM      8  C   UNL d   1      27.058 -17.800  -0.060  0.00  0.00     0.231 C 
ATOM      9  N   UNL d   1      25.980 -16.994  -0.479  0.00  0.00    -0.327 N 
ATOM     10  H   UNL d   1      26.139 -16.008  -0.665  0.00  0.00     0.169 HD
ATOM     11  O   UNL d   1      26.931 -18.961   0.329  0.00  0.00    -0.272 OA
BRANCH   9  12
ATOM     12  C   UNL d   1      24.613 -17.449  -0.530  0.00  0.00     0.034 A 
ATOM     13  C   UNL d   1      24.278 -18.814  -0.591  0.00  0.00     0.030 A 
ATOM     14  C   UNL d   1      22.923 -19.222  -0.756  0.00  0.00     0.020 A 
ATOM     15  C   UNL d   1      21.886 -18.277  -0.815  0.00  0.00     0.039 A 
ATOM     16  C   UNL d   1      22.211 -16.936  -0.686  0.00  0.00     0.020 A 
ATOM     17  C   UNL d   1      23.544 -16.546  -0.540  0.00  0.00     0.030 A 
BRANCH  15  18
ATOM     18  C   UNL d   1      20.450 -18.654  -0.884  0.00  0.00     0.293 C 
ATOM     19  O   UNL d   1      19.542 -17.825  -0.894  0.00  0.00    -0.259 OA
BRANCH  18  20
ATOM     20  O   UNL d   1      20.299 -20.006  -0.945  0.00  0.00    -0.318 OA
BRANCH  20  21
ATOM     21  C   UNL d   1      19.543 -20.587   0.137  0.00  0.00     0.174 C 
ATOM     22  C   UNL d   1      19.826 -19.837   1.432  0.00  0.00     0.034 C 
ENDBRANCH  20  21
ENDBRANCH  18  20
ENDBRANCH  15  18
ENDBRANCH   9  12
ENDBRANCH   7   8
ENDBRANCH   6   7
ENDBRANCH   1   6
BRANCH   5  23
ATOM     23  C   UNL d   1      26.862 -14.620  -3.627  0.00  0.00     0.043 C 
ATOM     24  C   UNL d   1      25.879 -15.030  -2.721  0.00  0.00     0.030 C 
ATOM     25  C   UNL d   1      24.586 -14.559  -2.907  0.00  0.00     0.002 C 
ATOM     26  C   UNL d   1      24.326 -13.571  -3.860  0.00  0.00     0.000 C 
ATOM     27  C   UNL d   1      25.335 -13.118  -4.715  0.00  0.00     0.002 C 
ATOM     28  C   UNL d   1      26.600 -13.687  -4.644  0.00  0.00     0.030 C 
ENDBRANCH   5  23
BRANCH   4  29
ATOM     29  C   UNL d   1      28.477 -15.200  -6.239  0.00  0.00     0.201 C 
BRANCH  29  30
ATOM     30  N   UNL d   1      29.605 -15.049  -7.127  0.00  0.00    -0.382 N 
ATOM     31  H   UNL d   1      29.467 -15.475  -8.022  0.00  0.00     0.160 HD
BRANCH  30  32
ATOM     32  C   UNL d   1      30.719 -14.259  -7.157  0.00  0.00     0.040 A 
ATOM     33  C   UNL d   1      31.979 -14.903  -6.998  0.00  0.00    -0.035 A 
ATOM     34  C   UNL d   1      32.143 -16.408  -6.964  0.00  0.00     0.050 C 
ATOM     35  C   UNL d   1      33.149 -14.141  -6.960  0.00  0.00     0.009 A 
ATOM     36  C   UNL d   1      33.090 -12.775  -7.201  0.00  0.00     0.001 A 
ATOM     37  C   UNL d   1      31.860 -12.141  -7.362  0.00  0.00     0.009 A 
ATOM     38  C   UNL d   1      30.667 -12.869  -7.316  0.00  0.00    -0.035 A 
ATOM     39  C   UNL d   1      29.361 -12.141  -7.415  0.00  0.00     0.050 C 
ENDBRANCH  30  32
ENDBRANCH  29  30
ENDBRANCH   4  29
TORSDOF 11
ENDMDL
MODEL 2
REMARK VINA RESULT:    -9.405      2.089      3.867
REMARK INTER + INTRA:         -16.348
REMARK INTER:                 -12.686
REMARK INTRA:                  -3.661
REMARK CONF_INDEPENDENT:        3.281
REMARK UNBOUND:                -3.661
REMARK  11 active torsions:
REMARK  status: ('A' for Active; 'I' for Inactive)
REMARK    1  A    between atoms: C_2  and  O_3 
REMARK    2  A    between atoms: O_3  and  C_4 
REMARK    3  A    between atoms: C_4  and  C_6 
REMARK    4  A    between atoms: C_9  and  N_10 
REMARK       I    between atoms: N_10  and  C_11 
REMARK    5  A    between atoms: C_11  and  C_13 
REMARK    6  A    between atoms: C_13  and  S_14 
REMARK    7  A    between atoms: S_14  and  C_15 
REMARK    8  A    between atoms: C_18  and  C_19 
REMARK    9  A    between atoms: C_19  and  N_20 
REMARK   10  A    between atoms: N_20  and  C_21 
REMARK   11  A    between atoms: N_29  and  C_30 
ROOT
ATOM      1  C   UNL d   1      27.382 -14.686  -1.994  0.00  0.00     0.196 A 
ATOM      2  N   UNL d   1      26.266 -14.355  -1.374  0.00  0.00    -0.122 NA
ATOM      3  N   UNL d   1      25.458 -13.671  -2.262  0.00  0.00    -0.132 NA
ATOM      4  C   UNL d   1      26.086 -13.610  -3.422  0.00  0.00     0.153 A 
ATOM      5  N   UNL d   1      27.342 -14.189  -3.267  0.00  0.00    -0.274 N 
ENDROOT
BRANCH   1   6
ATOM      6  S   UNL d   1      28.660 -15.651  -1.310  0.00  0.00    -0.080 SA
BRANCH   6   7
ATOM      7  C   UNL d   1      28.177 -16.288   0.383  0.00  0.00     0.185 C 
BRANCH   7   8
ATOM      8  C   UNL d   1      26.927 -17.172   0.261  0.00  0.00     0.231 C 
ATOM      9  N   UNL d   1      25.749 -16.572  -0.228  0.00  0.00    -0.327 N 
ATOM     10  H   UNL d   1      25.739 -15.573  -0.413  0.00  0.00     0.169 HD
ATOM     11  O   UNL d   1      26.987 -18.338   0.651  0.00  0.00    -0.272 OA
BRANCH   9  12
ATOM     12  C   UNL d   1      24.492 -17.265  -0.359  0.00  0.00     0.034 A 
ATOM     13  C   UNL d   1      24.399 -18.667  -0.299  0.00  0.00     0.030 A 
ATOM     14  C   UNL d   1      23.158 -19.324  -0.547  0.00  0.00     0.020 A 
ATOM     15  C   UNL d   1      21.992 -18.587  -0.808  0.00  0.00     0.039 A 
ATOM     16  C   UNL d   1      22.071 -17.204  -0.799  0.00  0.00     0.020 A 
ATOM     17  C   UNL d   1      23.295 -16.572  -0.571  0.00  0.00     0.030 A 
BRANCH  15  18
ATOM     18  C   UNL d   1      20.656 -19.218  -0.972  0.00  0.00     0.293 C 
ATOM     19  O   UNL d   1      20.274 -19.706  -2.035  0.00  0.00    -0.259 OA
BRANCH  18  20
ATOM     20  O   UNL d   1      19.951 -19.187   0.193  0.00  0.00    -0.318 OA
BRANCH  20  21
ATOM     21  C   UNL d   1      19.896 -20.437   0.909  0.00  0.00     0.174 C 
ATOM     22  C   UNL d   1      18.448 -20.877   1.081  0.00  0.00     0.034 C 
ENDBRANCH  20  21
ENDBRANCH  18  20
ENDBRANCH  15  18
ENDBRANCH   9  12
ENDBRANCH   7   8
ENDBRANCH   6   7
ENDBRANCH   1   6
BRANCH   5  23
ATOM     23  C   UNL d   1      28.314 -14.368  -4.258  0.00  0.00     0.043 C 
ATOM     24  C   UNL d   1      29.111 -13.279  -4.625  0.00  0.00     0.030 C 
ATOM     25  C   UNL d   1      29.809 -13.358  -5.823  0.00  0.00     0.002 C 
ATOM     26  C   UNL d   1      29.846 -14.559  -6.538  0.00  0.00     0.000 C 
ATOM     27  C   UNL d   1      29.099 -15.663  -6.122  0.00  0.00     0.002 C 
ATOM     28  C   UNL d   1      28.276 -15.554  -5.009  0.00  0.00     0.030 C 
ENDBRANCH   5  23
BRANCH   4  29
ATOM     29  C   UNL d   1      25.519 -13.040  -4.702  0.00  0.00     0.201 C 
BRANCH  29  30
ATOM     30  N   UNL d   1      25.739 -11.628  -4.901  0.00  0.00    -0.382 N 
ATOM     31  H   UNL d   1      24.909 -11.078  -4.799  0.00  0.00     0.160 HD
BRANCH  30  32
ATOM     32  C   UNL d   1      26.833 -10.812  -4.945  0.00  0.00     0.040 A 
ATOM     33  C   UNL d   1      27.436 -10.597  -6.217  0.00  0.00    -0.035 A 
ATOM     34  C   UNL d   1      26.830 -11.092  -7.515  0.00  0.00     0.050 C 
ATOM     35  C   UNL d   1      28.592  -9.822  -6.317  0.00  0.00     0.009 A 
ATOM     36  C   UNL d   1      29.078  -9.162  -5.196  0.00  0.00     0.001 A 
ATOM     37  C   UNL d   1      28.489  -9.364  -3.950  0.00  0.00     0.009 A 
ATOM     38  C   UNL d   1      27.382 -10.207  -3.808  0.00  0.00    -0.035 A 
ATOM     39  C   UNL d   1      26.826 -10.461  -2.440  0.00  0.00     0.050 C 
ENDBRANCH  30  32
ENDBRANCH  29  30
ENDBRANCH   4  29
TORSDOF 11
ENDMDL
MODEL 3
REMARK VINA RESULT:    -9.178      1.566      2.923
REMARK INTER + INTRA:         -16.092
REMARK INTER:                 -12.459
REMARK INTRA:                  -3.633
REMARK CONF_INDEPENDENT:        3.281
REMARK UNBOUND:                -3.633
REMARK  11 active torsions:
REMARK  status: ('A' for Active; 'I' for Inactive)
REMARK    1  A    between atoms: C_2  and  O_3 
REMARK    2  A    between atoms: O_3  and  C_4 
REMARK    3  A    between atoms: C_4  and  C_6 
REMARK    4  A    between atoms: C_9  and  N_10 
REMARK       I    between atoms: N_10  and  C_11 
REMARK    5  A    between atoms: C_11  and  C_13 
REMARK    6  A    between atoms: C_13  and  S_14 
REMARK    7  A    between atoms: S_14  and  C_15 
REMARK    8  A    between atoms: C_18  and  C_19 
REMARK    9  A    between atoms: C_19  and  N_20 
REMARK   10  A    between atoms: N_20  and  C_21 
REMARK   11  A    between atoms: N_29  and  C_30 
ROOT
ATOM      1  C   UNL d   1      26.755 -14.389  -2.112  0.00  0.00     0.196 A 
ATOM      2  N   UNL d   1      25.512 -14.492  -2.539  0.00  0.00    -0.122 NA
ATOM      3  N   UNL d   1      25.532 -14.693  -3.905  0.00  0.00    -0.132 NA
ATOM      4  C   UNL d   1      26.794 -14.730  -4.293  0.00  0.00     0.153 A 
ATOM      5  N   UNL d   1      27.597 -14.473  -3.186  0.00  0.00    -0.274 N 
ENDROOT
BRANCH   1   6
ATOM      6  S   UNL d   1      27.234 -14.234  -0.445  0.00  0.00    -0.080 SA
BRANCH   6   7
ATOM      7  C   UNL d   1      27.723 -15.898   0.261  0.00  0.00     0.185 C 
BRANCH   7   8
ATOM      8  C   UNL d   1      26.545 -16.875   0.135  0.00  0.00     0.231 C 
ATOM      9  N   UNL d   1      25.360 -16.395  -0.459  0.00  0.00    -0.327 N 
ATOM     10  H   UNL d   1      25.293 -15.414  -0.714  0.00  0.00     0.169 HD
ATOM     11  O   UNL d   1      26.661 -18.005   0.610  0.00  0.00    -0.272 OA
BRANCH   9  12
ATOM     12  C   UNL d   1      24.162 -17.183  -0.608  0.00  0.00     0.034 A 
ATOM     13  C   UNL d   1      22.909 -16.601  -0.868  0.00  0.00     0.030 A 
ATOM     14  C   UNL d   1      21.728 -17.399  -0.895  0.00  0.00     0.020 A 
ATOM     15  C   UNL d   1      21.794 -18.790  -0.709  0.00  0.00     0.039 A 
ATOM     16  C   UNL d   1      23.038 -19.370  -0.521  0.00  0.00     0.020 A 
ATOM     17  C   UNL d   1      24.185 -18.576  -0.481  0.00  0.00     0.030 A 
BRANCH  15  18
ATOM     18  C   UNL d   1      20.608 -19.678  -0.829  0.00  0.00     0.293 C 
ATOM     19  O   UNL d   1      19.889 -19.701  -1.827  0.00  0.00    -0.259 OA
BRANCH  18  20
ATOM     20  O   UNL d   1      20.452 -20.443   0.287  0.00  0.00    -0.318 OA
BRANCH  20  21
ATOM     21  C   UNL d   1      19.610 -19.872   1.308  0.00  0.00     0.174 C 
ATOM     22  C   UNL d   1      18.451 -20.811   1.615  0.00  0.00     0.034 C 
ENDBRANCH  20  21
ENDBRANCH  18  20
ENDBRANCH  15  18
ENDBRANCH   9  12
ENDBRANCH   7   8
ENDBRANCH   6   7
ENDBRANCH   1   6
BRANCH   5  23
ATOM     23  C   UNL d   1      28.996 -14.459  -3.146  0.00  0.00     0.043 C 
ATOM     24  C   UNL d   1      29.669 -13.296  -3.533  0.00  0.00     0.030 C 
ATOM     25  C   UNL d   1      31.022 -13.395  -3.830  0.00  0.00     0.002 C 
ATOM     26  C   UNL d   1      31.714 -14.582  -3.574  0.00  0.00     0.000 C 
ATOM     27  C   UNL d   1      31.040 -15.719  -3.121  0.00  0.00     0.002 C 
ATOM     28  C   UNL d   1      29.661 -15.682  -2.963  0.00  0.00     0.030 C 
ENDBRANCH   5  23
BRANCH   4  29
ATOM     29  C   UNL d   1      27.276 -15.034  -5.693  0.00  0.00     0.201 C 
BRANCH  29  30
ATOM     30  N   UNL d   1      28.614 -15.568  -5.783  0.00  0.00    -0.382 N 
ATOM     31  H   UNL d   1      28.715 -16.465  -5.351  0.00  0.00     0.160 HD
BRANCH  30  32
ATOM     32  C   UNL d   1      29.726 -15.283  -6.523  0.00  0.00     0.040 A 
ATOM     33  C   UNL d   1      30.666 -16.335  -6.720  0.00  0.00    -0.035 A 
ATOM     34  C   UNL d   1      30.409 -17.766  -6.293  0.00  0.00     0.050 C 
ATOM     35  C   UNL d   1      31.850 -16.088  -7.416  0.00  0.00     0.009 A 
ATOM     36  C   UNL d   1      32.050 -14.854  -8.020  0.00  0.00     0.001 A 
ATOM     37  C   UNL d   1      31.132 -13.823  -7.834  0.00  0.00     0.009 A 
ATOM     38  C   UNL d   1      29.979 -14.019  -7.067  0.00  0.00    -0.035 A 
ATOM     39  C   UNL d   1      29.056 -12.863  -6.826  0.00  0.00     0.050 C 
ENDBRANCH  30  32
ENDBRANCH  29  30
ENDBRANCH   4  29
TORSDOF 11
ENDMDL
MODEL 4
REMARK VINA RESULT:    -9.101      1.851      2.679
REMARK INTER + INTRA:         -15.507
REMARK INTER:                 -12.383
REMARK INTRA:                  -3.124
REMARK CONF_INDEPENDENT:        3.281
REMARK UNBOUND:                -3.124
REMARK  11 active torsions:
REMARK  status: ('A' for Active; 'I' for Inactive)
REMARK    1  A    between atoms: C_2  and  O_3 
REMARK    2  A    between atoms: O_3  and  C_4 
REMARK    3  A    between atoms: C_4  and  C_6 
REMARK    4  A    between atoms: C_9  and  N_10 
REMARK       I    between atoms: N_10  and  C_11 
REMARK    5  A    between atoms: C_11  and  C_13 
REMARK    6  A    between atoms: C_13  and  S_14 
REMARK    7  A    between atoms: S_14  and  C_15 
REMARK    8  A    between atoms: C_18  and  C_19 
REMARK    9  A    between atoms: C_19  and  N_20 
REMARK   10  A    between atoms: N_20  and  C_21 
REMARK   11  A    between atoms: N_29  and  C_30 
ROOT
ATOM      1  C   UNL d   1      29.029 -13.991  -0.585  0.00  0.00     0.196 A 
ATOM      2  N   UNL d   1      30.152 -13.351  -0.324  0.00  0.00    -0.122 NA
ATOM      3  N   UNL d   1      30.442 -12.521  -1.388  0.00  0.00    -0.132 NA
ATOM      4  C   UNL d   1      29.477 -12.650  -2.281  0.00  0.00     0.153 A 
ATOM      5  N   UNL d   1      28.596 -13.628  -1.830  0.00  0.00    -0.274 N 
ENDROOT
BRANCH   1   6
ATOM      6  S   UNL d   1      28.210 -15.069   0.510  0.00  0.00    -0.080 SA
BRANCH   6   7
ATOM      7  C   UNL d   1      28.374 -16.845  -0.061  0.00  0.00     0.185 C 
BRANCH   7   8
ATOM      8  C   UNL d   1      26.998 -17.525  -0.020  0.00  0.00     0.231 C 
ATOM      9  N   UNL d   1      25.921 -16.857  -0.636  0.00  0.00    -0.327 N 
ATOM     10  H   UNL d   1      26.065 -15.927  -1.018  0.00  0.00     0.169 HD
ATOM     11  O   UNL d   1      26.881 -18.583   0.598  0.00  0.00    -0.272 OA
BRANCH   9  12
ATOM     12  C   UNL d   1      24.568 -17.354  -0.641  0.00  0.00     0.034 A 
ATOM     13  C   UNL d   1      24.271 -18.724  -0.520  0.00  0.00     0.030 A 
ATOM     14  C   UNL d   1      22.930 -19.191  -0.645  0.00  0.00     0.020 A 
ATOM     15  C   UNL d   1      21.870 -18.292  -0.844  0.00  0.00     0.039 A 
ATOM     16  C   UNL d   1      22.156 -16.938  -0.895  0.00  0.00     0.020 A 
ATOM     17  C   UNL d   1      23.475 -16.493  -0.787  0.00  0.00     0.030 A 
BRANCH  15  18
ATOM     18  C   UNL d   1      20.445 -18.718  -0.879  0.00  0.00     0.293 C 
ATOM     19  O   UNL d   1      19.511 -17.918  -0.895  0.00  0.00    -0.259 OA
BRANCH  18  20
ATOM     20  O   UNL d   1      20.337 -20.075  -0.902  0.00  0.00    -0.318 OA
BRANCH  20  21
ATOM     21  C   UNL d   1      19.667 -20.654   0.235  0.00  0.00     0.174 C 
ATOM     22  C   UNL d   1      19.958 -19.835   1.486  0.00  0.00     0.034 C 
ENDBRANCH  20  21
ENDBRANCH  18  20
ENDBRANCH  15  18
ENDBRANCH   9  12
ENDBRANCH   7   8
ENDBRANCH   6   7
ENDBRANCH   1   6
BRANCH   5  23
ATOM     23  C   UNL d   1      27.415 -14.047  -2.453  0.00  0.00     0.043 C 
ATOM     24  C   UNL d   1      27.486 -15.044  -3.431  0.00  0.00     0.030 C 
ATOM     25  C   UNL d   1      26.398 -15.201  -4.280  0.00  0.00     0.002 C 
ATOM     26  C   UNL d   1      25.210 -14.505  -4.039  0.00  0.00     0.000 C 
ATOM     27  C   UNL d   1      25.131 -13.560  -3.013  0.00  0.00     0.002 C 
ATOM     28  C   UNL d   1      26.257 -13.280  -2.250  0.00  0.00     0.030 C 
ENDBRANCH   5  23
BRANCH   4  29
ATOM     29  C   UNL d   1      29.342 -11.845  -3.553  0.00  0.00     0.201 C 
BRANCH  29  30
ATOM     30  N   UNL d   1      28.377 -12.347  -4.502  0.00  0.00    -0.382 N 
ATOM     31  H   UNL d   1      27.538 -12.688  -4.075  0.00  0.00     0.160 HD
BRANCH  30  32
ATOM     32  C   UNL d   1      28.202 -12.252  -5.854  0.00  0.00     0.040 A 
ATOM     33  C   UNL d   1      29.041 -13.055  -6.678  0.00  0.00    -0.035 A 
ATOM     34  C   UNL d   1      29.981 -14.108  -6.128  0.00  0.00     0.050 C 
ATOM     35  C   UNL d   1      28.950 -12.956  -8.067  0.00  0.00     0.009 A 
ATOM     36  C   UNL d   1      27.959 -12.169  -8.639  0.00  0.00     0.001 A 
ATOM     37  C   UNL d   1      27.133 -11.384  -7.837  0.00  0.00     0.009 A 
ATOM     38  C   UNL d   1      27.263 -11.399  -6.444  0.00  0.00    -0.035 A 
ATOM     39  C   UNL d   1      26.409 -10.484  -5.620  0.00  0.00     0.050 C 
ENDBRANCH  30  32
ENDBRANCH  29  30
ENDBRANCH   4  29
TORSDOF 11
ENDMDL
MODEL 5
REMARK VINA RESULT:    -9.088      2.562      3.862
REMARK INTER + INTRA:         -15.818
REMARK INTER:                 -12.369
REMARK INTRA:                  -3.449
REMARK CONF_INDEPENDENT:        3.281
REMARK UNBOUND:                -3.449
REMARK  11 active torsions:
REMARK  status: ('A' for Active; 'I' for Inactive)
REMARK    1  A    between atoms: C_2  and  O_3 
REMARK    2  A    between atoms: O_3  and  C_4 
REMARK    3  A    between atoms: C_4  and  C_6 
REMARK    4  A    between atoms: C_9  and  N_10 
REMARK       I    between atoms: N_10  and  C_11 
REMARK    5  A    between atoms: C_11  and  C_13 
REMARK    6  A    between atoms: C_13  and  S_14 
REMARK    7  A    between atoms: S_14  and  C_15 
REMARK    8  A    between atoms: C_18  and  C_19 
REMARK    9  A    between atoms: C_19  and  N_20 
REMARK   10  A    between atoms: N_20  and  C_21 
REMARK   11  A    between atoms: N_29  and  C_30 
ROOT
ATOM      1  C   UNL d   1      28.499 -14.023  -0.932  0.00  0.00     0.196 A 
ATOM      2  N   UNL d   1      29.041 -13.310   0.036  0.00  0.00    -0.122 NA
ATOM      3  N   UNL d   1      28.717 -11.982  -0.164  0.00  0.00    -0.132 NA
ATOM      4  C   UNL d   1      27.962 -11.904  -1.245  0.00  0.00     0.153 A 
ATOM      5  N   UNL d   1      27.859 -13.178  -1.796  0.00  0.00    -0.274 N 
ENDROOT
BRANCH   1   6
ATOM      6  S   UNL d   1      28.546 -15.760  -1.045  0.00  0.00    -0.080 SA
BRANCH   6   7
ATOM      7  C   UNL d   1      28.103 -16.543   0.597  0.00  0.00     0.185 C 
BRANCH   7   8
ATOM      8  C   UNL d   1      26.798 -17.339   0.450  0.00  0.00     0.231 C 
ATOM      9  N   UNL d   1      25.729 -16.719  -0.228  0.00  0.00    -0.327 N 
ATOM     10  H   UNL d   1      25.824 -15.754  -0.530  0.00  0.00     0.169 HD
ATOM     11  O   UNL d   1      26.719 -18.447   0.980  0.00  0.00    -0.272 OA
BRANCH   9  12
ATOM     12  C   UNL d   1      24.434 -17.327  -0.407  0.00  0.00     0.034 A 
ATOM     13  C   UNL d   1      24.250 -18.721  -0.382  0.00  0.00     0.030 A 
ATOM     14  C   UNL d   1      22.977 -19.291  -0.676  0.00  0.00     0.020 A 
ATOM     15  C   UNL d   1      21.868 -18.476  -0.951  0.00  0.00     0.039 A 
ATOM     16  C   UNL d   1      22.036 -17.101  -0.909  0.00  0.00     0.020 A 
ATOM     17  C   UNL d   1      23.290 -16.554  -0.634  0.00  0.00     0.030 A 
BRANCH  15  18
ATOM     18  C   UNL d   1      20.499 -19.016  -1.164  0.00  0.00     0.293 C 
ATOM     19  O   UNL d   1      20.214 -19.761  -2.100  0.00  0.00    -0.259 OA
BRANCH  18  20
ATOM     20  O   UNL d   1      19.645 -18.588  -0.194  0.00  0.00    -0.318 OA
BRANCH  20  21
ATOM     21  C   UNL d   1      19.555 -19.443   0.963  0.00  0.00     0.174 C 
ATOM     22  C   UNL d   1      19.017 -20.810   0.561  0.00  0.00     0.034 C 
ENDBRANCH  20  21
ENDBRANCH  18  20
ENDBRANCH  15  18
ENDBRANCH   9  12
ENDBRANCH   7   8
ENDBRANCH   6   7
ENDBRANCH   1   6
BRANCH   5  23
ATOM     23  C   UNL d   1      27.120 -13.549  -2.924  0.00  0.00     0.043 C 
ATOM     24  C   UNL d   1      25.734 -13.363  -2.913  0.00  0.00     0.030 C 
ATOM     25  C   UNL d   1      24.978 -14.042  -3.860  0.00  0.00     0.002 C 
ATOM     26  C   UNL d   1      25.607 -14.741  -4.893  0.00  0.00     0.000 C 
ATOM     27  C   UNL d   1      26.999 -14.862  -4.932  0.00  0.00     0.002 C 
ATOM     28  C   UNL d   1      27.763 -14.317  -3.909  0.00  0.00     0.030 C 
ENDBRANCH   5  23
BRANCH   4  29
ATOM     29  C   UNL d   1      27.299 -10.651  -1.767  0.00  0.00     0.201 C 
BRANCH  29  30
ATOM     30  N   UNL d   1      27.788 -10.178  -3.040  0.00  0.00    -0.382 N 
ATOM     31  H   UNL d   1      28.605  -9.604  -2.964  0.00  0.00     0.160 HD
BRANCH  30  32
ATOM     32  C   UNL d   1      27.576 -10.510  -4.348  0.00  0.00     0.040 A 
ATOM     33  C   UNL d   1      26.268 -10.299  -4.870  0.00  0.00    -0.035 A 
ATOM     34  C   UNL d   1      25.174  -9.584  -4.104  0.00  0.00     0.050 C 
ATOM     35  C   UNL d   1      25.975 -10.676  -6.182  0.00  0.00     0.009 A 
ATOM     36  C   UNL d   1      26.989 -11.140  -7.009  0.00  0.00     0.001 A 
ATOM     37  C   UNL d   1      28.271 -11.344  -6.504  0.00  0.00     0.009 A 
ATOM     38  C   UNL d   1      28.569 -11.056  -5.168  0.00  0.00    -0.035 A 
ATOM     39  C   UNL d   1      29.938 -11.363  -4.642  0.00  0.00     0.050 C 
ENDBRANCH  30  32
ENDBRANCH  29  30
ENDBRANCH   4  29
TORSDOF 11
ENDMDL
MODEL 6
REMARK VINA RESULT:    -8.929      4.906      7.871
REMARK INTER + INTRA:         -15.710
REMARK INTER:                 -12.210
REMARK INTRA:                  -3.500
REMARK CONF_INDEPENDENT:        3.281
REMARK UNBOUND:                -3.500
REMARK  11 active torsions:
REMARK  status: ('A' for Active; 'I' for Inactive)
REMARK    1  A    between atoms: C_2  and  O_3 
REMARK    2  A    between atoms: O_3  and  C_4 
REMARK    3  A    between atoms: C_4  and  C_6 
REMARK    4  A    between atoms: C_9  and  N_10 
REMARK       I    between atoms: N_10  and  C_11 
REMARK    5  A    between atoms: C_11  and  C_13 
REMARK    6  A    between atoms: C_13  and  S_14 
REMARK    7  A    between atoms: S_14  and  C_15 
REMARK    8  A    between atoms: C_18  and  C_19 
REMARK    9  A    between atoms: C_19  and  N_20 
REMARK   10  A    between atoms: N_20  and  C_21 
REMARK   11  A    between atoms: N_29  and  C_30 
ROOT
ATOM      1  C   UNL d   1      27.566 -14.074   0.556  0.00  0.00     0.196 A 
ATOM      2  N   UNL d   1      26.280 -13.787   0.612  0.00  0.00    -0.122 NA
ATOM      3  N   UNL d   1      26.101 -12.751   1.508  0.00  0.00    -0.132 NA
ATOM      4  C   UNL d   1      27.287 -12.404   1.974  0.00  0.00     0.153 A 
ATOM      5  N   UNL d   1      28.235 -13.271   1.438  0.00  0.00    -0.274 N 
ENDROOT
BRANCH   1   6
ATOM      6  S   UNL d   1      28.287 -15.242  -0.516  0.00  0.00    -0.080 SA
BRANCH   6   7
ATOM      7  C   UNL d   1      28.381 -16.923   0.301  0.00  0.00     0.185 C 
BRANCH   7   8
ATOM      8  C   UNL d   1      27.054 -17.668   0.095  0.00  0.00     0.231 C 
ATOM      9  N   UNL d   1      25.903 -16.893  -0.156  0.00  0.00    -0.327 N 
ATOM     10  H   UNL d   1      25.968 -15.880  -0.122  0.00  0.00     0.169 HD
ATOM     11  O   UNL d   1      27.038 -18.892   0.221  0.00  0.00    -0.272 OA
BRANCH   9  12
ATOM     12  C   UNL d   1      24.585 -17.450  -0.329  0.00  0.00     0.034 A 
ATOM     13  C   UNL d   1      24.335 -18.831  -0.231  0.00  0.00     0.030 A 
ATOM     14  C   UNL d   1      23.043 -19.357  -0.521  0.00  0.00     0.020 A 
ATOM     15  C   UNL d   1      21.979 -18.508  -0.865  0.00  0.00     0.039 A 
ATOM     16  C   UNL d   1      22.210 -17.143  -0.895  0.00  0.00     0.020 A 
ATOM     17  C   UNL d   1      23.484 -16.639  -0.624  0.00  0.00     0.030 A 
BRANCH  15  18
ATOM     18  C   UNL d   1      20.590 -18.997  -1.077  0.00  0.00     0.293 C 
ATOM     19  O   UNL d   1      20.269 -19.699  -2.034  0.00  0.00    -0.259 OA
BRANCH  18  20
ATOM     20  O   UNL d   1      19.763 -18.575  -0.081  0.00  0.00    -0.318 OA
BRANCH  20  21
ATOM     21  C   UNL d   1      19.728 -19.423   1.085  0.00  0.00     0.174 C 
ATOM     22  C   UNL d   1      19.051 -20.745   0.748  0.00  0.00     0.034 C 
ENDBRANCH  20  21
ENDBRANCH  18  20
ENDBRANCH  15  18
ENDBRANCH   9  12
ENDBRANCH   7   8
ENDBRANCH   6   7
ENDBRANCH   1   6
BRANCH   5  23
ATOM     23  C   UNL d   1      29.619 -13.232   1.639  0.00  0.00     0.043 C 
ATOM     24  C   UNL d   1      30.392 -12.381   0.844  0.00  0.00     0.030 C 
ATOM     25  C   UNL d   1      31.763 -12.600   0.798  0.00  0.00     0.002 C 
ATOM     26  C   UNL d   1      32.357 -13.527   1.659  0.00  0.00     0.000 C 
ATOM     27  C   UNL d   1      31.577 -14.325   2.499  0.00  0.00     0.002 C 
ATOM     28  C   UNL d   1      30.193 -14.225   2.449  0.00  0.00     0.030 C 
ENDBRANCH   5  23
BRANCH   4  29
ATOM     29  C   UNL d   1      27.564 -11.243   2.901  0.00  0.00     0.201 C 
BRANCH  29  30
ATOM     30  N   UNL d   1      27.579 -11.566   4.307  0.00  0.00    -0.382 N 
ATOM     31  H   UNL d   1      26.685 -11.466   4.748  0.00  0.00     0.160 HD
BRANCH  30  32
ATOM     32  C   UNL d   1      28.440 -12.213   5.147  0.00  0.00     0.040 A 
ATOM     33  C   UNL d   1      28.316 -13.629   5.243  0.00  0.00    -0.035 A 
ATOM     34  C   UNL d   1      27.403 -14.443   4.350  0.00  0.00     0.050 C 
ATOM     35  C   UNL d   1      29.127 -14.339   6.130  0.00  0.00     0.009 A 
ATOM     36  C   UNL d   1      30.134 -13.679   6.822  0.00  0.00     0.001 A 
ATOM     37  C   UNL d   1      30.262 -12.295   6.728  0.00  0.00     0.009 A 
ATOM     38  C   UNL d   1      29.405 -11.549   5.913  0.00  0.00    -0.035 A 
ATOM     39  C   UNL d   1      29.524 -10.055   5.899  0.00  0.00     0.050 C 
ENDBRANCH  30  32
ENDBRANCH  29  30
ENDBRANCH   4  29
TORSDOF 11
ENDMDL
MODEL 7
REMARK VINA RESULT:    -8.839      5.290      7.895
REMARK INTER + INTRA:         -15.489
REMARK INTER:                 -12.120
REMARK INTRA:                  -3.369
REMARK CONF_INDEPENDENT:        3.281
REMARK UNBOUND:                -3.369
REMARK  11 active torsions:
REMARK  status: ('A' for Active; 'I' for Inactive)
REMARK    1  A    between atoms: C_2  and  O_3 
REMARK    2  A    between atoms: O_3  and  C_4 
REMARK    3  A    between atoms: C_4  and  C_6 
REMARK    4  A    between atoms: C_9  and  N_10 
REMARK       I    between atoms: N_10  and  C_11 
REMARK    5  A    between atoms: C_11  and  C_13 
REMARK    6  A    between atoms: C_13  and  S_14 
REMARK    7  A    between atoms: S_14  and  C_15 
REMARK    8  A    between atoms: C_18  and  C_19 
REMARK    9  A    between atoms: C_19  and  N_20 
REMARK   10  A    between atoms: N_20  and  C_21 
REMARK   11  A    between atoms: N_29  and  C_30 
ROOT
ATOM      1  C   UNL d   1      27.398 -13.802   0.734  0.00  0.00     0.196 A 
ATOM      2  N   UNL d   1      27.552 -15.106   0.854  0.00  0.00    -0.122 NA
ATOM      3  N   UNL d   1      27.779 -15.401   2.184  0.00  0.00    -0.132 NA
ATOM      4  C   UNL d   1      27.741 -14.269   2.865  0.00  0.00     0.153 A 
ATOM      5  N   UNL d   1      27.566 -13.224   1.962  0.00  0.00    -0.274 N 
ENDROOT
BRANCH   1   6
ATOM      6  S   UNL d   1      26.986 -12.972  -0.740  0.00  0.00    -0.080 SA
BRANCH   6   7
ATOM      7  C   UNL d   1      27.007 -14.152  -2.194  0.00  0.00     0.185 C 
BRANCH   7   8
ATOM      8  C   UNL d   1      25.757 -15.043  -2.149  0.00  0.00     0.231 C 
ATOM      9  N   UNL d   1      25.556 -15.828  -0.996  0.00  0.00    -0.327 N 
ATOM     10  H   UNL d   1      26.269 -15.840  -0.271  0.00  0.00     0.169 HD
ATOM     11  O   UNL d   1      25.023 -15.082  -3.137  0.00  0.00    -0.272 OA
BRANCH   9  12
ATOM     12  C   UNL d   1      24.452 -16.740  -0.830  0.00  0.00     0.034 A 
ATOM     13  C   UNL d   1      24.643 -18.107  -0.559  0.00  0.00     0.030 A 
ATOM     14  C   UNL d   1      23.533 -19.001  -0.515  0.00  0.00     0.020 A 
ATOM     15  C   UNL d   1      22.222 -18.531  -0.693  0.00  0.00     0.039 A 
ATOM     16  C   UNL d   1      22.031 -17.173  -0.892  0.00  0.00     0.020 A 
ATOM     17  C   UNL d   1      23.126 -16.310  -0.949  0.00  0.00     0.030 A 
BRANCH  15  18
ATOM     18  C   UNL d   1      21.025 -19.402  -0.556  0.00  0.00     0.293 C 
ATOM     19  O   UNL d   1      20.287 -19.676  -1.502  0.00  0.00    -0.259 OA
BRANCH  18  20
ATOM     20  O   UNL d   1      20.882 -19.844   0.724  0.00  0.00    -0.318 OA
BRANCH  20  21
ATOM     21  C   UNL d   1      19.553 -19.718   1.270  0.00  0.00     0.174 C 
ATOM     22  C   UNL d   1      18.685 -20.878   0.801  0.00  0.00     0.034 C 
ENDBRANCH  20  21
ENDBRANCH  18  20
ENDBRANCH  15  18
ENDBRANCH   9  12
ENDBRANCH   7   8
ENDBRANCH   6   7
ENDBRANCH   1   6
BRANCH   5  23
ATOM     23  C   UNL d   1      27.433 -11.865   2.264  0.00  0.00     0.043 C 
ATOM     24  C   UNL d   1      28.441 -11.236   3.001  0.00  0.00     0.030 C 
ATOM     25  C   UNL d   1      28.148 -10.014   3.593  0.00  0.00     0.002 C 
ATOM     26  C   UNL d   1      26.946  -9.362   3.306  0.00  0.00     0.000 C 
ATOM     27  C   UNL d   1      25.973  -9.973   2.510  0.00  0.00     0.002 C 
ATOM     28  C   UNL d   1      26.187 -11.260   2.034  0.00  0.00     0.030 C 
ENDBRANCH   5  23
BRANCH   4  29
ATOM     29  C   UNL d   1      27.836 -14.142   4.368  0.00  0.00     0.201 C 
BRANCH  29  30
ATOM     30  N   UNL d   1      29.172 -13.989   4.892  0.00  0.00    -0.382 N 
ATOM     31  H   UNL d   1      29.790 -14.733   4.630  0.00  0.00     0.160 HD
BRANCH  30  32
ATOM     32  C   UNL d   1      29.888 -12.966   5.446  0.00  0.00     0.040 A 
ATOM     33  C   UNL d   1      30.979 -12.450   4.691  0.00  0.00    -0.035 A 
ATOM     34  C   UNL d   1      31.269 -12.865   3.264  0.00  0.00     0.050 C 
ATOM     35  C   UNL d   1      31.785 -11.446   5.232  0.00  0.00     0.009 A 
ATOM     36  C   UNL d   1      31.444 -10.870   6.448  0.00  0.00     0.001 A 
ATOM     37  C   UNL d   1      30.375 -11.368   7.189  0.00  0.00     0.009 A 
ATOM     38  C   UNL d   1      29.605 -12.433   6.709  0.00  0.00    -0.035 A 
ATOM     39  C   UNL d   1      28.512 -12.992   7.569  0.00  0.00     0.050 C 
ENDBRANCH  30  32
ENDBRANCH  29  30
ENDBRANCH   4  29
TORSDOF 11
ENDMDL
MODEL 8
REMARK VINA RESULT:    -8.759      2.832      4.211
REMARK INTER + INTRA:         -15.629
REMARK INTER:                 -12.040
REMARK INTRA:                  -3.589
REMARK CONF_INDEPENDENT:        3.281
REMARK UNBOUND:                -3.589
REMARK  11 active torsions:
REMARK  status: ('A' for Active; 'I' for Inactive)
REMARK    1  A    between atoms: C_2  and  O_3 
REMARK    2  A    between atoms: O_3  and  C_4 
REMARK    3  A    between atoms: C_4  and  C_6 
REMARK    4  A    between atoms: C_9  and  N_10 
REMARK       I    between atoms: N_10  and  C_11 
REMARK    5  A    between atoms: C_11  and  C_13 
REMARK    6  A    between atoms: C_13  and  S_14 
REMARK    7  A    between atoms: S_14  and  C_15 
REMARK    8  A    between atoms: C_18  and  C_19 
REMARK    9  A    between atoms: C_19  and  N_20 
REMARK   10  A    between atoms: N_20  and  C_21 
REMARK   11  A    between atoms: N_29  and  C_30 
ROOT
ATOM      1  C   UNL d   1      26.286 -13.964  -1.802  0.00  0.00     0.196 A 
ATOM      2  N   UNL d   1      25.208 -14.625  -2.175  0.00  0.00    -0.122 NA
ATOM      3  N   UNL d   1      24.957 -14.340  -3.503  0.00  0.00    -0.132 NA
ATOM      4  C   UNL d   1      25.901 -13.521  -3.930  0.00  0.00     0.153 A 
ATOM      5  N   UNL d   1      26.726 -13.209  -2.853  0.00  0.00    -0.274 N 
ENDROOT
BRANCH   1   6
ATOM      6  S   UNL d   1      27.050 -14.091  -0.242  0.00  0.00    -0.080 SA
BRANCH   6   7
ATOM      7  C   UNL d   1      27.747 -15.809   0.018  0.00  0.00     0.185 C 
BRANCH   7   8
ATOM      8  C   UNL d   1      26.628 -16.846  -0.145  0.00  0.00     0.231 C 
ATOM      9  N   UNL d   1      25.307 -16.368  -0.268  0.00  0.00    -0.327 N 
ATOM     10  H   UNL d   1      25.128 -15.372  -0.172  0.00  0.00     0.169 HD
ATOM     11  O   UNL d   1      26.918 -18.041  -0.099  0.00  0.00    -0.272 OA
BRANCH   9  12
ATOM     12  C   UNL d   1      24.153 -17.223  -0.386  0.00  0.00     0.034 A 
ATOM     13  C   UNL d   1      24.236 -18.619  -0.239  0.00  0.00     0.030 A 
ATOM     14  C   UNL d   1      23.098 -19.444  -0.476  0.00  0.00     0.020 A 
ATOM     15  C   UNL d   1      21.857 -18.880  -0.816  0.00  0.00     0.039 A 
ATOM     16  C   UNL d   1      21.761 -17.500  -0.894  0.00  0.00     0.020 A 
ATOM     17  C   UNL d   1      22.886 -16.703  -0.675  0.00  0.00     0.030 A 
BRANCH  15  18
ATOM     18  C   UNL d   1      20.618 -19.686  -0.973  0.00  0.00     0.293 C 
ATOM     19  O   UNL d   1      19.956 -19.696  -2.010  0.00  0.00    -0.259 OA
BRANCH  18  20
ATOM     20  O   UNL d   1      20.346 -20.396   0.156  0.00  0.00    -0.318 OA
BRANCH  20  21
ATOM     21  C   UNL d   1      18.953 -20.706   0.363  0.00  0.00     0.174 C 
ATOM     22  C   UNL d   1      18.515 -20.241   1.746  0.00  0.00     0.034 C 
ENDBRANCH  20  21
ENDBRANCH  18  20
ENDBRANCH  15  18
ENDBRANCH   9  12
ENDBRANCH   7   8
ENDBRANCH   6   7
ENDBRANCH   1   6
BRANCH   5  23
ATOM     23  C   UNL d   1      27.870 -12.405  -2.876  0.00  0.00     0.043 C 
ATOM     24  C   UNL d   1      27.941 -11.309  -2.012  0.00  0.00     0.030 C 
ATOM     25  C   UNL d   1      28.891 -10.330  -2.278  0.00  0.00     0.002 C 
ATOM     26  C   UNL d   1      29.852 -10.534  -3.271  0.00  0.00     0.000 C 
ATOM     27  C   UNL d   1      29.811 -11.669  -4.085  0.00  0.00     0.002 C 
ATOM     28  C   UNL d   1      28.779 -12.585  -3.932  0.00  0.00     0.030 C 
ENDBRANCH   5  23
BRANCH   4  29
ATOM     29  C   UNL d   1      26.070 -13.038  -5.352  0.00  0.00     0.201 C 
BRANCH  29  30
ATOM     30  N   UNL d   1      25.739 -11.652  -5.577  0.00  0.00    -0.382 N 
ATOM     31  H   UNL d   1      24.784 -11.432  -5.372  0.00  0.00     0.160 HD
BRANCH  30  32
ATOM     32  C   UNL d   1      26.450 -10.500  -5.760  0.00  0.00     0.040 A 
ATOM     33  C   UNL d   1      26.299  -9.478  -4.779  0.00  0.00    -0.035 A 
ATOM     34  C   UNL d   1      25.530  -9.675  -3.489  0.00  0.00     0.050 C 
ATOM     35  C   UNL d   1      26.952  -8.256  -4.943  0.00  0.00     0.009 A 
ATOM     36  C   UNL d   1      27.844  -8.086  -5.995  0.00  0.00     0.001 A 
ATOM     37  C   UNL d   1      27.999  -9.084  -6.954  0.00  0.00     0.009 A 
ATOM     38  C   UNL d   1      27.288 -10.285  -6.860  0.00  0.00    -0.035 A 
ATOM     39  C   UNL d   1      27.422 -11.302  -7.953  0.00  0.00     0.050 C 
ENDBRANCH  30  32
ENDBRANCH  29  30
ENDBRANCH   4  29
TORSDOF 11
ENDMDL
MODEL 9
REMARK VINA RESULT:    -8.382      2.521      3.966
REMARK INTER + INTRA:         -16.132
REMARK INTER:                 -11.664
REMARK INTRA:                  -4.469
REMARK CONF_INDEPENDENT:        3.281
REMARK UNBOUND:                -4.469
REMARK  11 active torsions:
REMARK  status: ('A' for Active; 'I' for Inactive)
REMARK    1  A    between atoms: C_2  and  O_3 
REMARK    2  A    between atoms: O_3  and  C_4 
REMARK    3  A    between atoms: C_4  and  C_6 
REMARK    4  A    between atoms: C_9  and  N_10 
REMARK       I    between atoms: N_10  and  C_11 
REMARK    5  A    between atoms: C_11  and  C_13 
REMARK    6  A    between atoms: C_13  and  S_14 
REMARK    7  A    between atoms: S_14  and  C_15 
REMARK    8  A    between atoms: C_18  and  C_19 
REMARK    9  A    between atoms: C_19  and  N_20 
REMARK   10  A    between atoms: N_20  and  C_21 
REMARK   11  A    between atoms: N_29  and  C_30 
ROOT
ATOM      1  C   UNL d   1      28.062 -15.116  -2.393  0.00  0.00     0.196 A 
ATOM      2  N   UNL d   1      27.590 -15.950  -3.298  0.00  0.00    -0.122 NA
ATOM      3  N   UNL d   1      26.442 -15.406  -3.840  0.00  0.00    -0.132 NA
ATOM      4  C   UNL d   1      26.238 -14.232  -3.270  0.00  0.00     0.153 A 
ATOM      5  N   UNL d   1      27.215 -14.047  -2.296  0.00  0.00    -0.274 N 
ENDROOT
BRANCH   1   6
ATOM      6  S   UNL d   1      29.553 -15.324  -1.519  0.00  0.00    -0.080 SA
BRANCH   6   7
ATOM      7  C   UNL d   1      29.222 -15.909   0.228  0.00  0.00     0.185 C 
BRANCH   7   8
ATOM      8  C   UNL d   1      27.728 -16.228   0.388  0.00  0.00     0.231 C 
ATOM      9  N   UNL d   1      27.114 -16.996  -0.622  0.00  0.00    -0.327 N 
ATOM     10  H   UNL d   1      27.648 -17.251  -1.448  0.00  0.00     0.169 HD
ATOM     11  O   UNL d   1      27.121 -15.751   1.346  0.00  0.00    -0.272 OA
BRANCH   9  12
ATOM     12  C   UNL d   1      25.713 -17.338  -0.628  0.00  0.00     0.034 A 
ATOM     13  C   UNL d   1      25.241 -18.572  -0.145  0.00  0.00     0.030 A 
ATOM     14  C   UNL d   1      23.865 -18.922  -0.272  0.00  0.00     0.020 A 
ATOM     15  C   UNL d   1      22.942 -18.028  -0.837  0.00  0.00     0.039 A 
ATOM     16  C   UNL d   1      23.397 -16.786  -1.250  0.00  0.00     0.020 A 
ATOM     17  C   UNL d   1      24.750 -16.459  -1.135  0.00  0.00     0.030 A 
BRANCH  15  18
ATOM     18  C   UNL d   1      21.482 -18.303  -0.900  0.00  0.00     0.293 C 
ATOM     19  O   UNL d   1      20.656 -17.451  -1.222  0.00  0.00    -0.259 OA
BRANCH  18  20
ATOM     20  O   UNL d   1      21.211 -19.596  -0.571  0.00  0.00    -0.318 OA
BRANCH  20  21
ATOM     21  C   UNL d   1      19.849 -19.854  -0.174  0.00  0.00     0.174 C 
ATOM     22  C   UNL d   1      19.761 -19.969   1.342  0.00  0.00     0.034 C 
ENDBRANCH  20  21
ENDBRANCH  18  20
ENDBRANCH  15  18
ENDBRANCH   9  12
ENDBRANCH   7   8
ENDBRANCH   6   7
ENDBRANCH   1   6
BRANCH   5  23
ATOM     23  C   UNL d   1      27.390 -12.921  -1.485  0.00  0.00     0.043 C 
ATOM     24  C   UNL d   1      28.277 -11.922  -1.899  0.00  0.00     0.030 C 
ATOM     25  C   UNL d   1      28.711 -11.003  -0.953  0.00  0.00     0.002 C 
ATOM     26  C   UNL d   1      28.136 -10.979   0.321  0.00  0.00     0.000 C 
ATOM     27  C   UNL d   1      27.198 -11.943   0.701  0.00  0.00     0.002 C 
ATOM     28  C   UNL d   1      26.865 -12.961  -0.183  0.00  0.00     0.030 C 
ENDBRANCH   5  23
BRANCH   4  29
ATOM     29  C   UNL d   1      25.151 -13.250  -3.641  0.00  0.00     0.201 C 
BRANCH  29  30
ATOM     30  N   UNL d   1      25.529 -12.244  -4.603  0.00  0.00    -0.382 N 
ATOM     31  H   UNL d   1      24.754 -11.874  -5.118  0.00  0.00     0.160 HD
BRANCH  30  32
ATOM     32  C   UNL d   1      26.639 -11.480  -4.826  0.00  0.00     0.040 A 
ATOM     33  C   UNL d   1      26.627 -10.149  -4.320  0.00  0.00    -0.035 A 
ATOM     34  C   UNL d   1      25.530  -9.613  -3.424  0.00  0.00     0.050 C 
ATOM     35  C   UNL d   1      27.708  -9.301  -4.569  0.00  0.00     0.009 A 
ATOM     36  C   UNL d   1      28.841  -9.796  -5.200  0.00  0.00     0.001 A 
ATOM     37  C   UNL d   1      28.860 -11.099  -5.693  0.00  0.00     0.009 A 
ATOM     38  C   UNL d   1      27.755 -11.941  -5.534  0.00  0.00    -0.035 A 
ATOM     39  C   UNL d   1      27.784 -13.309  -6.146  0.00  0.00     0.050 C 
ENDBRANCH  30  32
ENDBRANCH  29  30
ENDBRANCH   4  29
TORSDOF 11
ENDMDL
