MODEL 1
REMARK VINA RESULT:   -21.286      0.000      0.000
REMARK INTER + INTRA:         -24.248
REMARK INTER:                 -23.374
REMARK INTRA:                  -0.873
REMARK CONF_INDEPENDENT:        2.088
REMARK UNBOUND:                -0.873
REMARK  7 active torsions:
REMARK  status: ('A' for Active; 'I' for Inactive)
REMARK    1  A    between atoms: C_2  and  C_4 
REMARK    2  A    between atoms: C_7  and  N_8 
REMARK    3  A    between atoms: C_12  and  S_13 
REMARK    4  A    between atoms: S_13  and  C_14 
REMARK    5  A    between atoms: C_14  and  C_15 
REMARK    6  A    between atoms: C_15  and  C_17 
REMARK    7  A    between atoms: C_20  and  C_21 
REMARK       I    between atoms: C_21  and  N_23 
ROOT
ATOM      1  N   UNL d   1      28.106 -15.366   0.215  0.00  0.00    -0.259 N 
ATOM      2  N   UNL d   1      29.201 -15.987  -0.387  0.00  0.00    -0.042 NA
ATOM      3  N   UNL d   1      28.979 -17.395  -0.346  0.00  0.00     0.072 N 
ATOM      4  N   UNL d   1      27.539 -17.616  -0.216  0.00  0.00    -0.105 NA
ATOM      5  C   UNL d   1      26.994 -16.304   0.229  0.00  0.00     0.267 C 
ATOM      6  H   UNL d   1      30.128 -15.634  -0.122  0.00  0.00     0.181 HD
ATOM      7  H   UNL d   1      29.500 -17.813   0.446  0.00  0.00     0.325 HD
ATOM      8  H   UNL d   1      29.331 -17.850  -1.214  0.00  0.00     0.325 HD
ATOM      9  H   UNL d   1      27.275 -18.351   0.442  0.00  0.00     0.158 HD
ENDROOT
BRANCH   5  10
ATOM     10  S   UNL d   1      25.742 -15.796  -1.000  0.00  0.00    -0.118 SA
BRANCH  10  11
ATOM     11  C   UNL d   1      24.523 -17.199  -0.999  0.00  0.00     0.161 C 
BRANCH  11  12
ATOM     12  C   UNL d   1      23.090 -16.632  -1.040  0.00  0.00     0.166 C 
ATOM     13  O   UNL d   1      22.847 -15.449  -1.287  0.00  0.00    -0.292 OA
BRANCH  12  14
ATOM     14  C   UNL d   1      21.919 -17.530  -0.851  0.00  0.00     0.012 A 
ATOM     15  C   UNL d   1      20.694 -17.503  -1.385  0.00  0.00     0.128 A 
ATOM     16  N   UNL d   1      19.903 -18.579  -1.031  0.00  0.00    -0.259 NA
ATOM     17  C   UNL d   1      20.667 -19.318  -0.266  0.00  0.00     0.106 A 
ATOM     18  C   UNL d   1      22.060 -18.771  -0.025  0.00  0.00     0.109 A 
BRANCH  17  19
ATOM     19  C   UNL d   1      20.238 -20.581   0.488  0.00  0.00     0.268 C 
ATOM     20  O   UNL d   1      21.139 -21.269   0.972  0.00  0.00    -0.266 OA
ATOM     21  N   UNL d   1      18.890 -20.780   0.739  0.00  0.00    -0.347 N 
ATOM     22  C   UNL d   1      18.373 -21.205   2.028  0.00  0.00     0.126 C 
ATOM     23  C   UNL d   1      17.912 -21.037  -0.301  0.00  0.00     0.126 C 
ATOM     24  C   UNL d   1      17.345 -22.282   1.729  0.00  0.00     0.021 C 
ATOM     25  C   UNL d   1      16.832 -21.925   0.337  0.00  0.00     0.021 C 
ENDBRANCH  17  19
ENDBRANCH  12  14
ENDBRANCH  11  12
ENDBRANCH  10  11
ENDBRANCH   5  10
BRANCH   1  26
ATOM     26  C   UNL d   1      28.258 -14.371   1.184  0.00  0.00     0.050 A 
ATOM     27  C   UNL d   1      29.279 -14.373   2.141  0.00  0.00     0.031 A 
ATOM     28  C   UNL d   1      29.228 -13.523   3.254  0.00  0.00     0.010 A 
ATOM     29  C   UNL d   1      28.195 -12.592   3.416  0.00  0.00    -0.055 A 
ATOM     30  C   UNL d   1      27.210 -12.529   2.426  0.00  0.00     0.010 A 
ATOM     31  C   UNL d   1      27.252 -13.398   1.321  0.00  0.00     0.031 A 
BRANCH  29  32
ATOM     32  C   UNL d   1      28.174 -11.663   4.623  0.00  0.00     0.010 C 
ATOM     33  C   UNL d   1      29.199 -12.105   5.673  0.00  0.00     0.015 C 
ATOM     34  C   UNL d   1      28.449 -10.217   4.194  0.00  0.00     0.015 C 
ENDBRANCH  29  32
ENDBRANCH   1  26
TORSDOF 7
ENDMDL
MODEL 2
REMARK VINA RESULT:   -20.610      1.620      2.029
REMARK INTER + INTRA:         -23.494
REMARK INTER:                 -22.698
REMARK INTRA:                  -0.796
REMARK CONF_INDEPENDENT:        2.088
REMARK UNBOUND:                -0.796
REMARK  7 active torsions:
REMARK  status: ('A' for Active; 'I' for Inactive)
REMARK    1  A    between atoms: C_2  and  C_4 
REMARK    2  A    between atoms: C_7  and  N_8 
REMARK    3  A    between atoms: C_12  and  S_13 
REMARK    4  A    between atoms: S_13  and  C_14 
REMARK    5  A    between atoms: C_14  and  C_15 
REMARK    6  A    between atoms: C_15  and  C_17 
REMARK    7  A    between atoms: C_20  and  C_21 
REMARK       I    between atoms: C_21  and  N_23 
ROOT
ATOM      1  N   UNL d   1      27.875 -15.567   0.429  0.00  0.00    -0.259 N 
ATOM      2  N   UNL d   1      28.966 -16.039  -0.303  0.00  0.00    -0.042 NA
ATOM      3  N   UNL d   1      29.013 -17.456  -0.147  0.00  0.00     0.072 N 
ATOM      4  N   UNL d   1      27.672 -17.909   0.221  0.00  0.00    -0.105 NA
ATOM      5  C   UNL d   1      26.967 -16.677   0.671  0.00  0.00     0.267 C 
ATOM      6  H   UNL d   1      29.841 -15.511  -0.208  0.00  0.00     0.181 HD
ATOM      7  H   UNL d   1      29.710 -17.711   0.575  0.00  0.00     0.325 HD
ATOM      8  H   UNL d   1      29.311 -17.915  -1.033  0.00  0.00     0.325 HD
ATOM      9  H   UNL d   1      27.644 -18.620   0.953  0.00  0.00     0.158 HD
ENDROOT
BRANCH   5  10
ATOM     10  S   UNL d   1      25.478 -16.496  -0.371  0.00  0.00    -0.118 SA
BRANCH  10  11
ATOM     11  C   UNL d   1      24.421 -17.947   0.108  0.00  0.00     0.161 C 
BRANCH  11  12
ATOM     12  C   UNL d   1      23.488 -18.311  -1.064  0.00  0.00     0.166 C 
ATOM     13  O   UNL d   1      23.877 -18.372  -2.233  0.00  0.00    -0.292 OA
BRANCH  12  14
ATOM     14  C   UNL d   1      22.070 -18.683  -0.812  0.00  0.00     0.012 A 
ATOM     15  C   UNL d   1      21.054 -18.900  -1.652  0.00  0.00     0.128 A 
ATOM     16  N   UNL d   1      19.894 -19.324  -1.034  0.00  0.00    -0.259 NA
ATOM     17  C   UNL d   1      20.200 -19.396   0.237  0.00  0.00     0.106 A 
ATOM     18  C   UNL d   1      21.621 -18.995   0.582  0.00  0.00     0.109 A 
BRANCH  17  19
ATOM     19  C   UNL d   1      19.233 -19.711   1.383  0.00  0.00     0.268 C 
ATOM     20  O   UNL d   1      18.031 -19.708   1.111  0.00  0.00    -0.266 OA
ATOM     21  N   UNL d   1      19.754 -20.154   2.589  0.00  0.00    -0.347 N 
ATOM     22  C   UNL d   1      19.208 -21.278   3.329  0.00  0.00     0.126 C 
ATOM     23  C   UNL d   1      20.562 -19.325   3.463  0.00  0.00     0.126 C 
ATOM     24  C   UNL d   1      19.154 -20.834   4.780  0.00  0.00     0.021 C 
ATOM     25  C   UNL d   1      20.280 -19.811   4.895  0.00  0.00     0.021 C 
ENDBRANCH  17  19
ENDBRANCH  12  14
ENDBRANCH  11  12
ENDBRANCH  10  11
ENDBRANCH   5  10
BRANCH   1  26
ATOM     26  C   UNL d   1      27.982 -14.482   1.303  0.00  0.00     0.050 A 
ATOM     27  C   UNL d   1      29.116 -14.226   2.082  0.00  0.00     0.031 A 
ATOM     28  C   UNL d   1      29.075 -13.308   3.139  0.00  0.00     0.010 A 
ATOM     29  C   UNL d   1      27.923 -12.559   3.412  0.00  0.00    -0.055 A 
ATOM     30  C   UNL d   1      26.809 -12.752   2.591  0.00  0.00     0.010 A 
ATOM     31  C   UNL d   1      26.846 -13.690   1.544  0.00  0.00     0.031 A 
BRANCH  29  32
ATOM     32  C   UNL d   1      27.910 -11.550   4.553  0.00  0.00     0.010 C 
ATOM     33  C   UNL d   1      27.815 -12.256   5.910  0.00  0.00     0.015 C 
ATOM     34  C   UNL d   1      29.163 -10.667   4.505  0.00  0.00     0.015 C 
ENDBRANCH  29  32
ENDBRANCH   1  26
TORSDOF 7
ENDMDL
MODEL 3
REMARK VINA RESULT:   -20.479      2.975      3.863
REMARK INTER + INTRA:         -23.486
REMARK INTER:                 -22.567
REMARK INTRA:                  -0.919
REMARK CONF_INDEPENDENT:        2.088
REMARK UNBOUND:                -0.919
REMARK  7 active torsions:
REMARK  status: ('A' for Active; 'I' for Inactive)
REMARK    1  A    between atoms: C_2  and  C_4 
REMARK    2  A    between atoms: C_7  and  N_8 
REMARK    3  A    between atoms: C_12  and  S_13 
REMARK    4  A    between atoms: S_13  and  C_14 
REMARK    5  A    between atoms: C_14  and  C_15 
REMARK    6  A    between atoms: C_15  and  C_17 
REMARK    7  A    between atoms: C_20  and  C_21 
REMARK       I    between atoms: C_21  and  N_23 
ROOT
ATOM      1  N   UNL d   1      28.173 -15.565  -1.616  0.00  0.00    -0.259 N 
ATOM      2  N   UNL d   1      29.204 -16.351  -1.101  0.00  0.00    -0.042 NA
ATOM      3  N   UNL d   1      28.852 -16.708   0.234  0.00  0.00     0.072 N 
ATOM      4  N   UNL d   1      27.398 -16.606   0.355  0.00  0.00    -0.105 NA
ATOM      5  C   UNL d   1      26.979 -15.788  -0.817  0.00  0.00     0.267 C 
ATOM      6  H   UNL d   1      30.161 -16.022  -1.279  0.00  0.00     0.181 HD
ATOM      7  H   UNL d   1      29.333 -16.084   0.907  0.00  0.00     0.325 HD
ATOM      8  H   UNL d   1      29.159 -17.680   0.449  0.00  0.00     0.325 HD
ATOM      9  H   UNL d   1      27.068 -16.178   1.221  0.00  0.00     0.158 HD
ENDROOT
BRANCH   5  10
ATOM     10  S   UNL d   1      25.777 -16.785  -1.766  0.00  0.00    -0.118 SA
BRANCH  10  11
ATOM     11  C   UNL d   1      24.541 -17.327  -0.489  0.00  0.00     0.161 C 
BRANCH  11  12
ATOM     12  C   UNL d   1      23.158 -16.743  -0.835  0.00  0.00     0.166 C 
ATOM     13  O   UNL d   1      23.009 -15.619  -1.322  0.00  0.00    -0.292 OA
BRANCH  12  14
ATOM     14  C   UNL d   1      21.928 -17.562  -0.660  0.00  0.00     0.012 A 
ATOM     15  C   UNL d   1      20.790 -17.602  -1.359  0.00  0.00     0.128 A 
ATOM     16  N   UNL d   1      19.905 -18.576  -0.937  0.00  0.00    -0.259 NA
ATOM     17  C   UNL d   1      20.520 -19.183   0.046  0.00  0.00     0.106 A 
ATOM     18  C   UNL d   1      21.894 -18.636   0.383  0.00  0.00     0.109 A 
BRANCH  17  19
ATOM     19  C   UNL d   1      19.931 -20.277   0.942  0.00  0.00     0.268 C 
ATOM     20  O   UNL d   1      20.675 -20.746   1.806  0.00  0.00    -0.266 OA
ATOM     21  N   UNL d   1      18.575 -20.546   0.859  0.00  0.00    -0.347 N 
ATOM     22  C   UNL d   1      17.722 -20.716   2.021  0.00  0.00     0.126 C 
ATOM     23  C   UNL d   1      17.945 -21.128  -0.312  0.00  0.00     0.126 C 
ATOM     24  C   UNL d   1      16.856 -21.929   1.730  0.00  0.00     0.021 C 
ATOM     25  C   UNL d   1      16.754 -21.950   0.207  0.00  0.00     0.021 C 
ENDBRANCH  17  19
ENDBRANCH  12  14
ENDBRANCH  11  12
ENDBRANCH  10  11
ENDBRANCH   5  10
BRANCH   1  26
ATOM     26  C   UNL d   1      28.419 -14.356  -2.273  0.00  0.00     0.050 A 
ATOM     27  C   UNL d   1      29.196 -13.326  -1.732  0.00  0.00     0.031 A 
ATOM     28  C   UNL d   1      29.182 -12.041  -2.290  0.00  0.00     0.010 A 
ATOM     29  C   UNL d   1      28.450 -11.755  -3.449  0.00  0.00    -0.055 A 
ATOM     30  C   UNL d   1      27.731 -12.797  -4.041  0.00  0.00     0.010 A 
ATOM     31  C   UNL d   1      27.729 -14.080  -3.467  0.00  0.00     0.031 A 
BRANCH  29  32
ATOM     32  C   UNL d   1      28.469 -10.355  -4.049  0.00  0.00     0.010 C 
ATOM     33  C   UNL d   1      27.821 -10.345  -5.438  0.00  0.00     0.015 C 
ATOM     34  C   UNL d   1      27.751  -9.364  -3.126  0.00  0.00     0.015 C 
ENDBRANCH  29  32
ENDBRANCH   1  26
TORSDOF 7
ENDMDL
