MODEL 1
REMARK VINA RESULT:    -8.448      0.000      0.000
REMARK INTER + INTRA:         -10.286
REMARK INTER:                  -9.641
REMARK INTRA:                  -0.645
REMARK CONF_INDEPENDENT:        1.193
REMARK UNBOUND:                -0.645
REMARK  4 active torsions:
REMARK  status: ('A' for Active; 'I' for Inactive)
REMARK    1  A    between atoms: C_4  and  C_5 
REMARK    2  A    between atoms: C_5  and  C_6 
REMARK       I    between atoms: C_6  and  N_8 
REMARK    3  A    between atoms: N_8  and  N_9 
REMARK    4  A    between atoms: N_9  and  C_10 
ROOT
ATOM      1  C   UNL d   1      23.283 -18.329  -0.663  0.00  0.00     0.240 C 
ATOM      2  O   UNL d   1      23.300 -19.040  -1.678  0.00  0.00    -0.272 OA
ATOM      3  N   UNL d   1      22.057 -17.814  -0.250  0.00  0.00    -0.269 N 
ATOM      4  H   UNL d   1      21.906 -17.489   0.700  0.00  0.00     0.190 HD
ENDROOT
BRANCH   1   5
ATOM      5  C   UNL d   1      24.527 -17.956   0.184  0.00  0.00     0.145 C 
BRANCH   5   6
ATOM      6  C   UNL d   1      25.632 -17.232  -0.574  0.00  0.00    -0.021 A 
ATOM      7  C   UNL d   1      26.988 -17.485  -0.485  0.00  0.00     0.099 A 
ATOM      8  N   UNL d   1      27.677 -16.665  -1.322  0.00  0.00    -0.360 N 
ATOM      9  C   UNL d   1      29.109 -16.725  -1.497  0.00  0.00     0.155 C 
ATOM     10  C   UNL d   1      26.812 -15.825  -1.973  0.00  0.00     0.044 A 
ATOM     11  C   UNL d   1      27.074 -14.815  -2.909  0.00  0.00     0.030 A 
ATOM     12  C   UNL d   1      25.517 -16.155  -1.538  0.00  0.00    -0.001 A 
ATOM     13  C   UNL d   1      25.992 -14.119  -3.442  0.00  0.00     0.002 A 
ATOM     14  C   UNL d   1      24.692 -14.421  -3.045  0.00  0.00     0.001 A 
ATOM     15  C   UNL d   1      24.441 -15.426  -2.096  0.00  0.00     0.014 A 
ENDBRANCH   5   6
ENDBRANCH   1   5
BRANCH   3  16
ATOM     16  N   UNL d   1      20.954 -18.444  -0.862  0.00  0.00    -0.298 N 
ATOM     17  H   UNL d   1      20.565 -17.959  -1.680  0.00  0.00     0.187 HD
BRANCH  16  18
ATOM     18  C   UNL d   1      20.140 -19.322  -0.140  0.00  0.00     0.049 A 
ATOM     19  C   UNL d   1      19.002 -19.932  -0.676  0.00  0.00     0.031 A 
ATOM     20  C   UNL d   1      18.167 -20.723   0.122  0.00  0.00     0.004 A 
ATOM     21  C   UNL d   1      18.444 -20.890   1.478  0.00  0.00     0.024 A 
ATOM     22  C   UNL d   1      19.573 -20.286   2.022  0.00  0.00     0.036 A 
ATOM     23 CL   UNL d   1      19.897 -20.457   3.705  0.00  0.00    -0.084 Cl
ATOM     24  C   UNL d   1      20.426 -19.527   1.220  0.00  0.00     0.054 A 
ENDBRANCH  16  18
ENDBRANCH   3  16
TORSDOF 4
ENDMDL
MODEL 2
REMARK VINA RESULT:    -7.126      4.312      8.674
REMARK INTER + INTRA:          -9.528
REMARK INTER:                  -8.319
REMARK INTRA:                  -1.209
REMARK CONF_INDEPENDENT:        1.193
REMARK UNBOUND:                -1.209
REMARK  4 active torsions:
REMARK  status: ('A' for Active; 'I' for Inactive)
REMARK    1  A    between atoms: C_4  and  C_5 
REMARK    2  A    between atoms: C_5  and  C_6 
REMARK       I    between atoms: C_6  and  N_8 
REMARK    3  A    between atoms: N_8  and  N_9 
REMARK    4  A    between atoms: N_9  and  C_10 
ROOT
ATOM      1  C   UNL d   1      25.821 -14.539  -3.909  0.00  0.00     0.240 C 
ATOM      2  O   UNL d   1      25.156 -14.458  -4.951  0.00  0.00    -0.272 OA
ATOM      3  N   UNL d   1      27.191 -14.763  -4.029  0.00  0.00    -0.269 N 
ATOM      4  H   UNL d   1      27.836 -14.548  -3.275  0.00  0.00     0.190 HD
ENDROOT
BRANCH   1   5
ATOM      5  C   UNL d   1      25.249 -14.422  -2.473  0.00  0.00     0.145 C 
BRANCH   5   6
ATOM      6  C   UNL d   1      25.367 -15.681  -1.626  0.00  0.00    -0.021 A 
ATOM      7  C   UNL d   1      26.539 -16.261  -1.178  0.00  0.00     0.099 A 
ATOM      8  N   UNL d   1      26.265 -17.361  -0.427  0.00  0.00    -0.360 N 
ATOM      9  C   UNL d   1      27.280 -18.151   0.230  0.00  0.00     0.155 C 
ATOM     10  C   UNL d   1      24.912 -17.565  -0.372  0.00  0.00     0.044 A 
ATOM     11  C   UNL d   1      24.181 -18.575   0.271  0.00  0.00     0.030 A 
ATOM     12  C   UNL d   1      24.311 -16.527  -1.104  0.00  0.00    -0.001 A 
ATOM     13  C   UNL d   1      22.792 -18.532   0.189  0.00  0.00     0.002 A 
ATOM     14  C   UNL d   1      22.157 -17.516  -0.520  0.00  0.00     0.001 A 
ATOM     15  C   UNL d   1      22.898 -16.516  -1.172  0.00  0.00     0.014 A 
ENDBRANCH   5   6
ENDBRANCH   1   5
BRANCH   3  16
ATOM     16  N   UNL d   1      27.679 -14.539  -5.333  0.00  0.00    -0.298 N 
ATOM     17  H   UNL d   1      26.972 -14.278  -6.031  0.00  0.00     0.187 HD
BRANCH  16  18
ATOM     18  C   UNL d   1      28.875 -15.123  -5.760  0.00  0.00     0.049 A 
ATOM     19  C   UNL d   1      29.639 -14.626  -6.819  0.00  0.00     0.031 A 
ATOM     20  C   UNL d   1      30.775 -15.309  -7.270  0.00  0.00     0.004 A 
ATOM     21  C   UNL d   1      31.146 -16.517  -6.684  0.00  0.00     0.024 A 
ATOM     22  C   UNL d   1      30.392 -17.023  -5.630  0.00  0.00     0.036 A 
ATOM     23 CL   UNL d   1      30.822 -18.536  -4.929  0.00  0.00    -0.084 Cl
ATOM     24  C   UNL d   1      29.280 -16.325  -5.155  0.00  0.00     0.054 A 
ENDBRANCH  16  18
ENDBRANCH   3  16
TORSDOF 4
ENDMDL
MODEL 3
REMARK VINA RESULT:    -7.031      3.943      6.591
REMARK INTER + INTRA:          -9.397
REMARK INTER:                  -8.224
REMARK INTRA:                  -1.173
REMARK CONF_INDEPENDENT:        1.193
REMARK UNBOUND:                -1.173
REMARK  4 active torsions:
REMARK  status: ('A' for Active; 'I' for Inactive)
REMARK    1  A    between atoms: C_4  and  C_5 
REMARK    2  A    between atoms: C_5  and  C_6 
REMARK       I    between atoms: C_6  and  N_8 
REMARK    3  A    between atoms: N_8  and  N_9 
REMARK    4  A    between atoms: N_9  and  C_10 
ROOT
ATOM      1  C   UNL d   1      25.304 -13.811  -3.668  0.00  0.00     0.240 C 
ATOM      2  O   UNL d   1      24.781 -14.494  -4.559  0.00  0.00    -0.272 OA
ATOM      3  N   UNL d   1      25.715 -14.462  -2.507  0.00  0.00    -0.269 N 
ATOM      4  H   UNL d   1      26.400 -14.054  -1.879  0.00  0.00     0.190 HD
ENDROOT
BRANCH   1   5
ATOM      5  C   UNL d   1      25.530 -12.279  -3.735  0.00  0.00     0.145 C 
BRANCH   5   6
ATOM      6  C   UNL d   1      26.150 -11.774  -5.031  0.00  0.00    -0.021 A 
ATOM      7  C   UNL d   1      25.905 -10.555  -5.636  0.00  0.00     0.099 A 
ATOM      8  N   UNL d   1      26.651 -10.430  -6.765  0.00  0.00    -0.360 N 
ATOM      9  C   UNL d   1      26.658  -9.243  -7.589  0.00  0.00     0.155 C 
ATOM     10  C   UNL d   1      27.391 -11.565  -6.966  0.00  0.00     0.044 A 
ATOM     11  C   UNL d   1      28.284 -11.884  -7.999  0.00  0.00     0.030 A 
ATOM     12  C   UNL d   1      27.113 -12.430  -5.894  0.00  0.00    -0.001 A 
ATOM     13  C   UNL d   1      28.934 -13.114  -7.946  0.00  0.00     0.002 A 
ATOM     14  C   UNL d   1      28.694 -13.997  -6.897  0.00  0.00     0.001 A 
ATOM     15  C   UNL d   1      27.787 -13.673  -5.873  0.00  0.00     0.014 A 
ENDBRANCH   5   6
ENDBRANCH   1   5
BRANCH   3  16
ATOM     16  N   UNL d   1      25.774 -15.864  -2.646  0.00  0.00    -0.298 N 
ATOM     17  H   UNL d   1      25.788 -16.212  -3.613  0.00  0.00     0.187 HD
BRANCH  16  18
ATOM     18  C   UNL d   1      25.319 -16.706  -1.627  0.00  0.00     0.049 A 
ATOM     19  C   UNL d   1      26.154 -17.248  -0.647  0.00  0.00     0.031 A 
ATOM     20  C   UNL d   1      25.663 -18.165   0.290  0.00  0.00     0.004 A 
ATOM     21  C   UNL d   1      24.332 -18.575   0.240  0.00  0.00     0.024 A 
ATOM     22  C   UNL d   1      23.491 -18.043  -0.733  0.00  0.00     0.036 A 
ATOM     23 CL   UNL d   1      21.857 -18.576  -0.824  0.00  0.00    -0.084 Cl
ATOM     24  C   UNL d   1      23.971 -17.101  -1.644  0.00  0.00     0.054 A 
ENDBRANCH  16  18
ENDBRANCH   3  16
TORSDOF 4
ENDMDL
MODEL 4
REMARK VINA RESULT:    -6.984      3.690      6.310
REMARK INTER + INTRA:          -9.430
REMARK INTER:                  -8.177
REMARK INTRA:                  -1.254
REMARK CONF_INDEPENDENT:        1.193
REMARK UNBOUND:                -1.254
REMARK  4 active torsions:
REMARK  status: ('A' for Active; 'I' for Inactive)
REMARK    1  A    between atoms: C_4  and  C_5 
REMARK    2  A    between atoms: C_5  and  C_6 
REMARK       I    between atoms: C_6  and  N_8 
REMARK    3  A    between atoms: N_8  and  N_9 
REMARK    4  A    between atoms: N_9  and  C_10 
ROOT
ATOM      1  C   UNL d   1      25.580 -14.159  -4.139  0.00  0.00     0.240 C 
ATOM      2  O   UNL d   1      24.450 -14.441  -4.561  0.00  0.00    -0.272 OA
ATOM      3  N   UNL d   1      26.142 -14.996  -3.177  0.00  0.00    -0.269 N 
ATOM      4  H   UNL d   1      27.142 -15.017  -3.006  0.00  0.00     0.190 HD
ENDROOT
BRANCH   1   5
ATOM      5  C   UNL d   1      26.421 -12.937  -4.589  0.00  0.00     0.145 C 
BRANCH   5   6
ATOM      6  C   UNL d   1      27.523 -13.246  -5.594  0.00  0.00    -0.021 A 
ATOM      7  C   UNL d   1      27.873 -12.478  -6.688  0.00  0.00     0.099 A 
ATOM      8  N   UNL d   1      28.916 -13.045  -7.349  0.00  0.00    -0.360 N 
ATOM      9  C   UNL d   1      29.547 -12.450  -8.504  0.00  0.00     0.155 C 
ATOM     10  C   UNL d   1      29.277 -14.217  -6.738  0.00  0.00     0.044 A 
ATOM     11  C   UNL d   1      30.282 -15.135  -7.077  0.00  0.00     0.030 A 
ATOM     12  C   UNL d   1      28.433 -14.375  -5.626  0.00  0.00    -0.001 A 
ATOM     13  C   UNL d   1      30.456 -16.247  -6.258  0.00  0.00     0.002 A 
ATOM     14  C   UNL d   1      29.646 -16.437  -5.141  0.00  0.00     0.001 A 
ATOM     15  C   UNL d   1      28.633 -15.518  -4.817  0.00  0.00     0.014 A 
ENDBRANCH   5   6
ENDBRANCH   1   5
BRANCH   3  16
ATOM     16  N   UNL d   1      25.476 -16.234  -3.059  0.00  0.00    -0.298 N 
ATOM     17  H   UNL d   1      24.851 -16.475  -3.838  0.00  0.00     0.187 HD
BRANCH  16  18
ATOM     18  C   UNL d   1      25.259 -16.814  -1.807  0.00  0.00     0.049 A 
ATOM     19  C   UNL d   1      26.280 -17.057  -0.883  0.00  0.00     0.031 A 
ATOM     20  C   UNL d   1      26.020 -17.733   0.315  0.00  0.00     0.004 A 
ATOM     21  C   UNL d   1      24.737 -18.200   0.593  0.00  0.00     0.024 A 
ATOM     22  C   UNL d   1      23.713 -17.965  -0.319  0.00  0.00     0.036 A 
ATOM     23 CL   UNL d   1      22.135 -18.575   0.002  0.00  0.00    -0.084 Cl
ATOM     24  C   UNL d   1      23.963 -17.259  -1.497  0.00  0.00     0.054 A 
ENDBRANCH  16  18
ENDBRANCH   3  16
TORSDOF 4
ENDMDL
MODEL 5
REMARK VINA RESULT:    -6.938      3.410      5.518
REMARK INTER + INTRA:          -9.375
REMARK INTER:                  -8.131
REMARK INTRA:                  -1.245
REMARK CONF_INDEPENDENT:        1.193
REMARK UNBOUND:                -1.245
REMARK  4 active torsions:
REMARK  status: ('A' for Active; 'I' for Inactive)
REMARK    1  A    between atoms: C_4  and  C_5 
REMARK    2  A    between atoms: C_5  and  C_6 
REMARK       I    between atoms: C_6  and  N_8 
REMARK    3  A    between atoms: N_8  and  N_9 
REMARK    4  A    between atoms: N_9  and  C_10 
ROOT
ATOM      1  C   UNL d   1      25.576 -14.047  -4.014  0.00  0.00     0.240 C 
ATOM      2  O   UNL d   1      24.510 -14.046  -4.645  0.00  0.00    -0.272 OA
ATOM      3  N   UNL d   1      25.566 -14.564  -2.721  0.00  0.00    -0.269 N 
ATOM      4  H   UNL d   1      26.417 -14.874  -2.262  0.00  0.00     0.190 HD
ENDROOT
BRANCH   1   5
ATOM      5  C   UNL d   1      26.928 -13.506  -4.546  0.00  0.00     0.145 C 
BRANCH   5   6
ATOM      6  C   UNL d   1      27.998 -14.563  -4.786  0.00  0.00    -0.021 A 
ATOM      7  C   UNL d   1      28.609 -14.852  -5.992  0.00  0.00     0.099 A 
ATOM      8  N   UNL d   1      29.533 -15.835  -5.829  0.00  0.00    -0.360 N 
ATOM      9  C   UNL d   1      30.379 -16.319  -6.895  0.00  0.00     0.155 C 
ATOM     10  C   UNL d   1      29.549 -16.252  -4.524  0.00  0.00     0.044 A 
ATOM     11  C   UNL d   1      30.325 -17.244  -3.907  0.00  0.00     0.030 A 
ATOM     12  C   UNL d   1      28.606 -15.471  -3.833  0.00  0.00    -0.001 A 
ATOM     13  C   UNL d   1      30.158 -17.450  -2.540  0.00  0.00     0.002 A 
ATOM     14  C   UNL d   1      29.241 -16.692  -1.817  0.00  0.00     0.001 A 
ATOM     15  C   UNL d   1      28.459 -15.709  -2.447  0.00  0.00     0.014 A 
ENDBRANCH   5   6
ENDBRANCH   1   5
BRANCH   3  16
ATOM     16  N   UNL d   1      24.408 -15.316  -2.431  0.00  0.00    -0.298 N 
ATOM     17  H   UNL d   1      23.516 -14.849  -2.635  0.00  0.00     0.187 HD
BRANCH  16  18
ATOM     18  C   UNL d   1      24.439 -16.342  -1.483  0.00  0.00     0.049 A 
ATOM     19  C   UNL d   1      25.609 -16.771  -0.850  0.00  0.00     0.031 A 
ATOM     20  C   UNL d   1      25.597 -17.870   0.017  0.00  0.00     0.004 A 
ATOM     21  C   UNL d   1      24.416 -18.575   0.239  0.00  0.00     0.024 A 
ATOM     22  C   UNL d   1      23.245 -18.158  -0.386  0.00  0.00     0.036 A 
ATOM     23 CL   UNL d   1      21.792 -19.051  -0.145  0.00  0.00    -0.084 Cl
ATOM     24  C   UNL d   1      23.248 -17.041  -1.222  0.00  0.00     0.054 A 
ENDBRANCH  16  18
ENDBRANCH   3  16
TORSDOF 4
ENDMDL
MODEL 6
REMARK VINA RESULT:    -6.836      6.131      8.823
REMARK INTER + INTRA:          -9.128
REMARK INTER:                  -8.030
REMARK INTRA:                  -1.099
REMARK CONF_INDEPENDENT:        1.193
REMARK UNBOUND:                -1.099
REMARK  4 active torsions:
REMARK  status: ('A' for Active; 'I' for Inactive)
REMARK    1  A    between atoms: C_4  and  C_5 
REMARK    2  A    between atoms: C_5  and  C_6 
REMARK       I    between atoms: C_6  and  N_8 
REMARK    3  A    between atoms: N_8  and  N_9 
REMARK    4  A    between atoms: N_9  and  C_10 
ROOT
ATOM      1  C   UNL d   1      27.715 -14.505   2.037  0.00  0.00     0.240 C 
ATOM      2  O   UNL d   1      27.015 -13.502   1.847  0.00  0.00    -0.272 OA
ATOM      3  N   UNL d   1      28.288 -14.670   3.296  0.00  0.00    -0.269 N 
ATOM      4  H   UNL d   1      28.611 -15.575   3.623  0.00  0.00     0.190 HD
ENDROOT
BRANCH   1   5
ATOM      5  C   UNL d   1      28.017 -15.596   0.977  0.00  0.00     0.145 C 
BRANCH   5   6
ATOM      6  C   UNL d   1      26.959 -15.753  -0.107  0.00  0.00    -0.021 A 
ATOM      7  C   UNL d   1      26.830 -14.976  -1.244  0.00  0.00     0.099 A 
ATOM      8  N   UNL d   1      25.790 -15.417  -2.001  0.00  0.00    -0.360 N 
ATOM      9  C   UNL d   1      25.436 -14.845  -3.279  0.00  0.00     0.155 C 
ATOM     10  C   UNL d   1      25.179 -16.477  -1.386  0.00  0.00     0.044 A 
ATOM     11  C   UNL d   1      24.069 -17.233  -1.791  0.00  0.00     0.030 A 
ATOM     12  C   UNL d   1      25.888 -16.726  -0.198  0.00  0.00    -0.001 A 
ATOM     13  C   UNL d   1      23.665 -18.289  -0.979  0.00  0.00     0.002 A 
ATOM     14  C   UNL d   1      24.345 -18.575   0.201  0.00  0.00     0.001 A 
ATOM     15  C   UNL d   1      25.449 -17.804   0.605  0.00  0.00     0.014 A 
ENDBRANCH   5   6
ENDBRANCH   1   5
BRANCH   3  16
ATOM     16  N   UNL d   1      27.720 -13.833   4.279  0.00  0.00    -0.298 N 
ATOM     17  H   UNL d   1      26.985 -13.197   3.947  0.00  0.00     0.187 HD
BRANCH  16  18
ATOM     18  C   UNL d   1      28.428 -13.508   5.439  0.00  0.00     0.049 A 
ATOM     19  C   UNL d   1      28.905 -14.462   6.343  0.00  0.00     0.031 A 
ATOM     20  C   UNL d   1      29.519 -14.075   7.540  0.00  0.00     0.004 A 
ATOM     21  C   UNL d   1      29.640 -12.725   7.863  0.00  0.00     0.024 A 
ATOM     22  C   UNL d   1      29.169 -11.766   6.971  0.00  0.00     0.036 A 
ATOM     23 CL   UNL d   1      29.280 -10.098   7.383  0.00  0.00    -0.084 Cl
ATOM     24  C   UNL d   1      28.589 -12.150   5.761  0.00  0.00     0.054 A 
ENDBRANCH  16  18
ENDBRANCH   3  16
TORSDOF 4
ENDMDL
MODEL 7
REMARK VINA RESULT:    -6.753      4.259      6.720
REMARK INTER + INTRA:          -9.024
REMARK INTER:                  -7.946
REMARK INTRA:                  -1.078
REMARK CONF_INDEPENDENT:        1.193
REMARK UNBOUND:                -1.078
REMARK  4 active torsions:
REMARK  status: ('A' for Active; 'I' for Inactive)
REMARK    1  A    between atoms: C_4  and  C_5 
REMARK    2  A    between atoms: C_5  and  C_6 
REMARK       I    between atoms: C_6  and  N_8 
REMARK    3  A    between atoms: N_8  and  N_9 
REMARK    4  A    between atoms: N_9  and  C_10 
ROOT
ATOM      1  C   UNL d   1      25.306 -13.795  -3.681  0.00  0.00     0.240 C 
ATOM      2  O   UNL d   1      24.913 -14.514  -4.610  0.00  0.00    -0.272 OA
ATOM      3  N   UNL d   1      25.649 -14.414  -2.481  0.00  0.00    -0.269 N 
ATOM      4  H   UNL d   1      26.246 -13.960  -1.797  0.00  0.00     0.190 HD
ENDROOT
BRANCH   1   5
ATOM      5  C   UNL d   1      25.440 -12.252  -3.742  0.00  0.00     0.145 C 
BRANCH   5   6
ATOM      6  C   UNL d   1      26.087 -11.709  -5.010  0.00  0.00    -0.021 A 
ATOM      7  C   UNL d   1      26.977 -12.380  -5.828  0.00  0.00     0.099 A 
ATOM      8  N   UNL d   1      27.329 -11.599  -6.883  0.00  0.00    -0.360 N 
ATOM      9  C   UNL d   1      28.203 -12.039  -7.945  0.00  0.00     0.155 C 
ATOM     10  C   UNL d   1      26.712 -10.379  -6.790  0.00  0.00     0.044 A 
ATOM     11  C   UNL d   1      26.791  -9.265  -7.638  0.00  0.00     0.030 A 
ATOM     12  C   UNL d   1      25.915 -10.411  -5.632  0.00  0.00    -0.001 A 
ATOM     13  C   UNL d   1      26.027  -8.145  -7.320  0.00  0.00     0.002 A 
ATOM     14  C   UNL d   1      25.218  -8.138  -6.188  0.00  0.00     0.001 A 
ATOM     15  C   UNL d   1      25.156  -9.255  -5.337  0.00  0.00     0.014 A 
ENDBRANCH   5   6
ENDBRANCH   1   5
BRANCH   3  16
ATOM     16  N   UNL d   1      25.810 -15.810  -2.601  0.00  0.00    -0.298 N 
ATOM     17  H   UNL d   1      25.896 -16.164  -3.562  0.00  0.00     0.187 HD
BRANCH  16  18
ATOM     18  C   UNL d   1      25.362 -16.672  -1.596  0.00  0.00     0.049 A 
ATOM     19  C   UNL d   1      26.204 -17.229  -0.629  0.00  0.00     0.031 A 
ATOM     20  C   UNL d   1      25.720 -18.166   0.292  0.00  0.00     0.004 A 
ATOM     21  C   UNL d   1      24.390 -18.579   0.240  0.00  0.00     0.024 A 
ATOM     22  C   UNL d   1      23.543 -18.032  -0.719  0.00  0.00     0.036 A 
ATOM     23 CL   UNL d   1      21.910 -18.569  -0.813  0.00  0.00    -0.084 Cl
ATOM     24  C   UNL d   1      24.015 -17.071  -1.615  0.00  0.00     0.054 A 
ENDBRANCH  16  18
ENDBRANCH   3  16
TORSDOF 4
ENDMDL
MODEL 8
REMARK VINA RESULT:    -6.675      4.006      8.462
REMARK INTER + INTRA:          -9.380
REMARK INTER:                  -7.868
REMARK INTRA:                  -1.511
REMARK CONF_INDEPENDENT:        1.193
REMARK UNBOUND:                -1.511
REMARK  4 active torsions:
REMARK  status: ('A' for Active; 'I' for Inactive)
REMARK    1  A    between atoms: C_4  and  C_5 
REMARK    2  A    between atoms: C_5  and  C_6 
REMARK       I    between atoms: C_6  and  N_8 
REMARK    3  A    between atoms: N_8  and  N_9 
REMARK    4  A    between atoms: N_9  and  C_10 
ROOT
ATOM      1  C   UNL d   1      25.623 -14.687  -3.876  0.00  0.00     0.240 C 
ATOM      2  O   UNL d   1      25.156 -14.845  -5.012  0.00  0.00    -0.272 OA
ATOM      3  N   UNL d   1      27.009 -14.659  -3.741  0.00  0.00    -0.269 N 
ATOM      4  H   UNL d   1      27.459 -14.246  -2.930  0.00  0.00     0.190 HD
ENDROOT
BRANCH   1   5
ATOM      5  C   UNL d   1      24.785 -14.527  -2.582  0.00  0.00     0.145 C 
BRANCH   5   6
ATOM      6  C   UNL d   1      24.718 -15.766  -1.698  0.00  0.00    -0.021 A 
ATOM      7  C   UNL d   1      23.570 -16.406  -1.270  0.00  0.00     0.099 A 
ATOM      8  N   UNL d   1      23.888 -17.492  -0.517  0.00  0.00    -0.360 N 
ATOM      9  C   UNL d   1      22.905 -18.400   0.028  0.00  0.00     0.155 C 
ATOM     10  C   UNL d   1      25.249 -17.597  -0.396  0.00  0.00     0.044 A 
ATOM     11  C   UNL d   1      26.019 -18.544   0.293  0.00  0.00     0.030 A 
ATOM     12  C   UNL d   1      25.807 -16.537  -1.131  0.00  0.00    -0.001 A 
ATOM     13  C   UNL d   1      27.406 -18.431   0.230  0.00  0.00     0.002 A 
ATOM     14  C   UNL d   1      27.999 -17.402  -0.494  0.00  0.00     0.001 A 
ATOM     15  C   UNL d   1      27.218 -16.450  -1.171  0.00  0.00     0.014 A 
ENDBRANCH   5   6
ENDBRANCH   1   5
BRANCH   3  16
ATOM     16  N   UNL d   1      27.684 -14.487  -4.967  0.00  0.00    -0.298 N 
ATOM     17  H   UNL d   1      27.129 -14.066  -5.722  0.00  0.00     0.187 HD
BRANCH  16  18
ATOM     18  C   UNL d   1      28.788 -15.279  -5.294  0.00  0.00     0.049 A 
ATOM     19  C   UNL d   1      29.367 -15.305  -6.566  0.00  0.00     0.031 A 
ATOM     20  C   UNL d   1      30.408 -16.193  -6.865  0.00  0.00     0.004 A 
ATOM     21  C   UNL d   1      30.865 -17.089  -5.900  0.00  0.00     0.024 A 
ATOM     22  C   UNL d   1      30.295 -17.073  -4.631  0.00  0.00     0.036 A 
ATOM     23 CL   UNL d   1      30.829 -18.205  -3.448  0.00  0.00    -0.084 Cl
ATOM     24  C   UNL d   1      29.283 -16.164  -4.321  0.00  0.00     0.054 A 
ENDBRANCH  16  18
ENDBRANCH   3  16
TORSDOF 4
ENDMDL
MODEL 9
REMARK VINA RESULT:    -6.617      4.923      9.016
REMARK INTER + INTRA:          -9.122
REMARK INTER:                  -7.811
REMARK INTRA:                  -1.312
REMARK CONF_INDEPENDENT:        1.193
REMARK UNBOUND:                -1.312
REMARK  4 active torsions:
REMARK  status: ('A' for Active; 'I' for Inactive)
REMARK    1  A    between atoms: C_4  and  C_5 
REMARK    2  A    between atoms: C_5  and  C_6 
REMARK       I    between atoms: C_6  and  N_8 
REMARK    3  A    between atoms: N_8  and  N_9 
REMARK    4  A    between atoms: N_9  and  C_10 
ROOT
ATOM      1  C   UNL d   1      27.273 -15.161  -4.562  0.00  0.00     0.240 C 
ATOM      2  O   UNL d   1      26.949 -15.323  -5.746  0.00  0.00    -0.272 OA
ATOM      3  N   UNL d   1      28.512 -15.651  -4.154  0.00  0.00    -0.269 N 
ATOM      4  H   UNL d   1      28.973 -15.309  -3.317  0.00  0.00     0.190 HD
ENDROOT
BRANCH   1   5
ATOM      5  C   UNL d   1      26.403 -14.462  -3.486  0.00  0.00     0.145 C 
BRANCH   5   6
ATOM      6  C   UNL d   1      25.771 -15.394  -2.461  0.00  0.00    -0.021 A 
ATOM      7  C   UNL d   1      24.418 -15.565  -2.232  0.00  0.00     0.099 A 
ATOM      8  N   UNL d   1      24.217 -16.495  -1.261  0.00  0.00    -0.360 N 
ATOM      9  C   UNL d   1      22.909 -16.935  -0.837  0.00  0.00     0.155 C 
ATOM     10  C   UNL d   1      25.421 -16.952  -0.794  0.00  0.00     0.044 A 
ATOM     11  C   UNL d   1      25.697 -17.895   0.206  0.00  0.00     0.030 A 
ATOM     12  C   UNL d   1      26.422 -16.292  -1.528  0.00  0.00    -0.001 A 
ATOM     13  C   UNL d   1      27.030 -18.200   0.470  0.00  0.00     0.002 A 
ATOM     14  C   UNL d   1      28.052 -17.576  -0.240  0.00  0.00     0.001 A 
ATOM     15  C   UNL d   1      27.766 -16.622  -1.232  0.00  0.00     0.014 A 
ENDBRANCH   5   6
ENDBRANCH   1   5
BRANCH   3  16
ATOM     16  N   UNL d   1      29.364 -15.974  -5.231  0.00  0.00    -0.298 N 
ATOM     17  H   UNL d   1      29.177 -15.473  -6.108  0.00  0.00     0.187 HD
BRANCH  16  18
ATOM     18  C   UNL d   1      30.024 -17.205  -5.277  0.00  0.00     0.049 A 
ATOM     19  C   UNL d   1      30.405 -17.918  -4.137  0.00  0.00     0.031 A 
ATOM     20  C   UNL d   1      31.154 -19.096  -4.242  0.00  0.00     0.004 A 
ATOM     21  C   UNL d   1      31.555 -19.564  -5.491  0.00  0.00     0.024 A 
ATOM     22  C   UNL d   1      31.181 -18.863  -6.634  0.00  0.00     0.036 A 
ATOM     23 CL   UNL d   1      31.709 -19.415  -8.177  0.00  0.00    -0.084 Cl
ATOM     24  C   UNL d   1      30.405 -17.707  -6.533  0.00  0.00     0.054 A 
ENDBRANCH  16  18
ENDBRANCH   3  16
TORSDOF 4
ENDMDL
