MODEL 1
REMARK VINA RESULT:    -5.677      0.000      0.000
REMARK INTER + INTRA:         -12.386
REMARK INTER:                  -9.555
REMARK INTRA:                  -2.831
REMARK CONF_INDEPENDENT:        3.878
REMARK UNBOUND:                -2.831
REMARK  13 active torsions:
REMARK  status: ('A' for Active; 'I' for Inactive)
REMARK    1  A    between atoms: C_3  and  O_2 
REMARK    2  A    between atoms: C_3  and  C_32 
REMARK    3  A    between atoms: C_3  and  C_4 
REMARK       I    between atoms: C_4  and  N_6 
REMARK    4  A    between atoms: N_6  and  C_7 
REMARK    5  A    between atoms: N_6  and  C_28 
REMARK    6  A    between atoms: C_7  and  C_8 
REMARK    7  A    between atoms: C_7  and  C_19 
REMARK       I    between atoms: C_8  and  N_10 
REMARK    8  A    between atoms: N_10  and  C_11 
REMARK    9  A    between atoms: C_11  and  C_14 
REMARK   10  A    between atoms: C_14  and  C_15 
REMARK   11  A    between atoms: C_20  and  O_21 
REMARK   12  A    between atoms: C_23  and  O_24 
REMARK   13  A    between atoms: C_26  and  O_27 
ROOT
ATOM      1  C   UNL d   1      26.437 -14.416  -3.320  0.00  0.00     0.219 C 
ENDROOT
BRANCH   1   2
ATOM      2  N   UNL d   1      26.662 -13.069  -2.578  0.00  0.00    -0.324 N 
ATOM      3  C   UNL d   1      27.067 -12.642  -1.240  0.00  0.00     0.255 C 
ATOM      4  O   UNL d   1      27.290 -11.411  -1.096  0.00  0.00    -0.270 OA
BRANCH   3   5
ATOM      5  C   UNL d   1      27.108 -13.361   0.285  0.00  0.00     0.245 C 
BRANCH   5   6
ATOM      6  C   UNL d   1      26.742 -12.764   1.646  0.00  0.00    -0.021 C 
ATOM      7  C   UNL d   1      26.680 -11.169   2.192  0.00  0.00     0.007 C 
ATOM      8  C   UNL d   1      27.390 -10.590   3.799  0.00  0.00    -0.017 C 
ATOM      9  C   UNL d   1      28.244 -11.766   4.978  0.00  0.00     0.042 C 
ATOM     10  C   UNL d   1      28.143 -13.466   4.445  0.00  0.00    -0.017 C 
ATOM     11  C   UNL d   1      27.190 -13.775   2.675  0.00  0.00     0.007 C 
ENDBRANCH   5   6
BRANCH   5  12
ATOM     12  O   UNL d   1      28.472 -13.683   0.555  0.00  0.00    -0.377 OA
ATOM     13  C   UNL d   1      29.270 -12.497   0.425  0.00  0.00     0.203 C 
ENDBRANCH   5  12
ENDBRANCH   3   5
BRANCH   2  14
ATOM     14  C   UNL d   1      26.589 -11.940  -3.557  0.00  0.00     0.025 C 
ATOM     15  C   UNL d   1      25.644 -10.849  -3.144  0.00  0.00     0.037 C 
ATOM     16  C   UNL d   1      28.019 -11.487  -3.916  0.00  0.00     0.037 C 
ATOM     17  C   UNL d   1      25.973 -12.348  -4.876  0.00  0.00     0.037 C 
ENDBRANCH   2  14
ENDBRANCH   1   2
BRANCH   1  18
ATOM     18  C   UNL d   1      27.297 -14.901  -4.482  0.00  0.00     0.246 C 
ATOM     19  O   UNL d   1      26.882 -15.579  -5.430  0.00  0.00    -0.271 OA
ATOM     20  N   UNL d   1      28.563 -14.473  -4.517  0.00  0.00    -0.351 N 
ATOM     21  H   UNL d   1      28.852 -13.594  -4.126  0.00  0.00     0.163 HD
BRANCH  20  22
ATOM     22  C   UNL d   1      29.419 -15.091  -5.430  0.00  0.00     0.026 C 
ATOM     23  C   UNL d   1      28.893 -14.824  -6.860  0.00  0.00     0.038 C 
ATOM     24  C   UNL d   1      30.712 -14.379  -5.066  0.00  0.00     0.038 C 
BRANCH  22  25
ATOM     25  C   UNL d   1      29.354 -16.589  -5.067  0.00  0.00     0.038 C 
BRANCH  25  26
ATOM     26  C   UNL d   1      30.645 -17.329  -5.424  0.00  0.00    -0.049 C 
ATOM     27  C   UNL d   1      31.171 -16.921  -6.798  0.00  0.00     0.014 C 
ATOM     28  C   UNL d   1      31.716 -17.127  -4.356  0.00  0.00     0.014 C 
ATOM     29  C   UNL d   1      30.389 -18.818  -5.487  0.00  0.00     0.014 C 
ENDBRANCH  25  26
ENDBRANCH  22  25
ENDBRANCH  20  22
ENDBRANCH   1  18
BRANCH   1  30
ATOM     30  C   UNL d   1      26.696 -15.631  -2.617  0.00  0.00     0.040 A 
ATOM     31  C   UNL d   1      25.330 -16.536  -1.804  0.00  0.00     0.076 A 
ATOM     32  C   UNL d   1      25.511 -17.298  -0.298  0.00  0.00     0.055 A 
ATOM     33  C   UNL d   1      27.049 -17.188   0.419  0.00  0.00     0.137 A 
ATOM     34  C   UNL d   1      28.626 -16.254  -0.521  0.00  0.00     0.055 A 
ATOM     35  C   UNL d   1      28.395 -15.488  -1.980  0.00  0.00     0.076 A 
BRANCH  31  36
ATOM     36  O   UNL d   1      24.015 -16.271  -2.020  0.00  0.00    -0.360 OA
ATOM     37  H   UNL d   1      23.947 -15.344  -1.793  0.00  0.00     0.217 HD
ENDBRANCH  31  36
BRANCH  33  38
ATOM     38  O   UNL d   1      27.034 -18.661   0.989  0.00  0.00    -0.378 OA
ATOM     39  H   UNL d   1      27.895 -19.048   1.172  0.00  0.00     0.211 HD
ENDBRANCH  33  38
BRANCH  35  40
ATOM     40  O   UNL d   1      29.255 -14.400  -2.075  0.00  0.00    -0.360 OA
ATOM     41  H   UNL d   1      29.621 -14.284  -1.167  0.00  0.00     0.217 HD
ENDBRANCH  35  40
ENDBRANCH   1  30
TORSDOF 13
ENDMDL
MODEL 2
REMARK VINA RESULT:    -5.565      2.716      6.586
REMARK INTER + INTRA:         -12.810
REMARK INTER:                  -9.443
REMARK INTRA:                  -3.367
REMARK CONF_INDEPENDENT:        3.878
REMARK UNBOUND:                -3.367
REMARK  13 active torsions:
REMARK  status: ('A' for Active; 'I' for Inactive)
REMARK    1  A    between atoms: C_3  and  O_2 
REMARK    2  A    between atoms: C_3  and  C_32 
REMARK    3  A    between atoms: C_3  and  C_4 
REMARK       I    between atoms: C_4  and  N_6 
REMARK    4  A    between atoms: N_6  and  C_7 
REMARK    5  A    between atoms: N_6  and  C_28 
REMARK    6  A    between atoms: C_7  and  C_8 
REMARK    7  A    between atoms: C_7  and  C_19 
REMARK       I    between atoms: C_8  and  N_10 
REMARK    8  A    between atoms: N_10  and  C_11 
REMARK    9  A    between atoms: C_11  and  C_14 
REMARK   10  A    between atoms: C_14  and  C_15 
REMARK   11  A    between atoms: C_20  and  O_21 
REMARK   12  A    between atoms: C_23  and  O_24 
REMARK   13  A    between atoms: C_26  and  O_27 
ROOT
ATOM      1  C   UNL d   1      28.550 -15.645  -3.959  0.00  0.00     0.219 C 
ENDROOT
BRANCH   1   2
ATOM      2  N   UNL d   1      30.095 -15.770  -4.092  0.00  0.00    -0.324 N 
ATOM      3  C   UNL d   1      31.229 -15.991  -3.197  0.00  0.00     0.255 C 
ATOM      4  O   UNL d   1      32.340 -16.195  -3.753  0.00  0.00    -0.270 OA
BRANCH   3   5
ATOM      5  C   UNL d   1      31.497 -15.824  -1.540  0.00  0.00     0.245 C 
BRANCH   5   6
ATOM      6  C   UNL d   1      31.307 -16.851  -0.422  0.00  0.00    -0.021 C 
ATOM      7  C   UNL d   1      32.283 -17.281   0.886  0.00  0.00     0.007 C 
ATOM      8  C   UNL d   1      32.654 -19.024   1.380  0.00  0.00    -0.017 C 
ATOM      9  C   UNL d   1      31.944 -20.483   0.447  0.00  0.00     0.042 C 
ATOM     10  C   UNL d   1      30.788 -19.991  -0.820  0.00  0.00    -0.017 C 
ATOM     11  C   UNL d   1      30.519 -17.986  -1.032  0.00  0.00     0.007 C 
ENDBRANCH   5   6
BRANCH   5  12
ATOM     12  O   UNL d   1      30.589 -14.829  -1.070  0.00  0.00    -0.377 OA
ATOM     13  C   UNL d   1      30.380 -15.012   0.338  0.00  0.00     0.203 C 
ENDBRANCH   5  12
ENDBRANCH   3   5
BRANCH   2  14
ATOM     14  C   UNL d   1      30.468 -15.832  -5.540  0.00  0.00     0.025 C 
ATOM     15  C   UNL d   1      31.388 -14.726  -5.969  0.00  0.00     0.037 C 
ATOM     16  C   UNL d   1      30.935 -17.262  -5.882  0.00  0.00     0.037 C 
ATOM     17  C   UNL d   1      29.295 -15.581  -6.459  0.00  0.00     0.037 C 
ENDBRANCH   2  14
ENDBRANCH   1   2
BRANCH   1  18
ATOM     18  C   UNL d   1      27.799 -15.762  -2.638  0.00  0.00     0.246 C 
ATOM     19  O   UNL d   1      28.207 -15.323  -1.555  0.00  0.00    -0.271 OA
ATOM     20  N   UNL d   1      26.571 -16.289  -2.685  0.00  0.00    -0.351 N 
ATOM     21  H   UNL d   1      25.979 -16.220  -3.493  0.00  0.00     0.163 HD
BRANCH  20  22
ATOM     22  C   UNL d   1      25.974 -16.619  -1.467  0.00  0.00     0.026 C 
ATOM     23  C   UNL d   1      26.979 -17.444  -0.631  0.00  0.00     0.038 C 
ATOM     24  C   UNL d   1      25.691 -15.216  -0.952  0.00  0.00     0.038 C 
BRANCH  22  25
ATOM     25  C   UNL d   1      24.735 -17.451  -1.857  0.00  0.00     0.038 C 
BRANCH  25  26
ATOM     26  C   UNL d   1      23.744 -17.595  -0.700  0.00  0.00    -0.049 C 
ATOM     27  C   UNL d   1      24.444 -17.974   0.602  0.00  0.00     0.014 C 
ATOM     28  C   UNL d   1      22.916 -16.327  -0.516  0.00  0.00     0.014 C 
ATOM     29  C   UNL d   1      22.758 -18.702  -0.996  0.00  0.00     0.014 C 
ENDBRANCH  25  26
ENDBRANCH  22  25
ENDBRANCH  20  22
ENDBRANCH   1  18
BRANCH   1  30
ATOM     30  C   UNL d   1      27.950 -14.371  -4.192  0.00  0.00     0.040 A 
ATOM     31  C   UNL d   1      28.274 -12.976  -3.054  0.00  0.00     0.076 A 
ATOM     32  C   UNL d   1      27.070 -11.867  -2.606  0.00  0.00     0.055 A 
ATOM     33  C   UNL d   1      25.532 -12.112  -3.288  0.00  0.00     0.137 A 
ATOM     34  C   UNL d   1      25.169 -13.620  -4.644  0.00  0.00     0.055 A 
ATOM     35  C   UNL d   1      26.368 -14.707  -5.026  0.00  0.00     0.076 A 
BRANCH  31  36
ATOM     36  O   UNL d   1      29.254 -12.983  -2.113  0.00  0.00    -0.360 OA
ATOM     37  H   UNL d   1      29.118 -13.821  -1.673  0.00  0.00     0.217 HD
ENDBRANCH  31  36
BRANCH  33  38
ATOM     38  O   UNL d   1      25.231 -10.575  -3.490  0.00  0.00    -0.378 OA
ATOM     39  H   UNL d   1      24.767 -10.342  -4.299  0.00  0.00     0.211 HD
ENDBRANCH  33  38
BRANCH  35  40
ATOM     40  O   UNL d   1      25.800 -15.943  -5.316  0.00  0.00    -0.360 OA
ATOM     41  H   UNL d   1      25.158 -15.765  -6.043  0.00  0.00     0.217 HD
ENDBRANCH  35  40
ENDBRANCH   1  30
TORSDOF 13
ENDMDL
MODEL 3
REMARK VINA RESULT:    -5.547      2.581      6.522
REMARK INTER + INTRA:         -12.670
REMARK INTER:                  -9.425
REMARK INTRA:                  -3.245
REMARK CONF_INDEPENDENT:        3.878
REMARK UNBOUND:                -3.245
REMARK  13 active torsions:
REMARK  status: ('A' for Active; 'I' for Inactive)
REMARK    1  A    between atoms: C_3  and  O_2 
REMARK    2  A    between atoms: C_3  and  C_32 
REMARK    3  A    between atoms: C_3  and  C_4 
REMARK       I    between atoms: C_4  and  N_6 
REMARK    4  A    between atoms: N_6  and  C_7 
REMARK    5  A    between atoms: N_6  and  C_28 
REMARK    6  A    between atoms: C_7  and  C_8 
REMARK    7  A    between atoms: C_7  and  C_19 
REMARK       I    between atoms: C_8  and  N_10 
REMARK    8  A    between atoms: N_10  and  C_11 
REMARK    9  A    between atoms: C_11  and  C_14 
REMARK   10  A    between atoms: C_14  and  C_15 
REMARK   11  A    between atoms: C_20  and  O_21 
REMARK   12  A    between atoms: C_23  and  O_24 
REMARK   13  A    between atoms: C_26  and  O_27 
ROOT
ATOM      1  C   UNL d   1      28.869 -15.306  -5.170  0.00  0.00     0.219 C 
ENDROOT
BRANCH   1   2
ATOM      2  N   UNL d   1      29.614 -16.201  -4.138  0.00  0.00    -0.324 N 
ATOM      3  C   UNL d   1      29.522 -16.484  -2.708  0.00  0.00     0.255 C 
ATOM      4  O   UNL d   1      30.237 -17.430  -2.284  0.00  0.00    -0.270 OA
BRANCH   3   5
ATOM      5  C   UNL d   1      28.844 -15.705  -1.374  0.00  0.00     0.245 C 
BRANCH   5   6
ATOM      6  C   UNL d   1      27.533 -16.005  -0.642  0.00  0.00    -0.021 C 
ATOM      7  C   UNL d   1      27.162 -17.086   0.598  0.00  0.00     0.007 C 
ATOM      8  C   UNL d   1      25.685 -18.199   0.603  0.00  0.00    -0.017 C 
ATOM      9  C   UNL d   1      24.449 -18.200  -0.803  0.00  0.00     0.042 C 
ATOM     10  C   UNL d   1      24.785 -16.930  -2.012  0.00  0.00    -0.017 C 
ATOM     11  C   UNL d   1      26.435 -15.796  -1.658  0.00  0.00     0.007 C 
ENDBRANCH   5   6
BRANCH   5  12
ATOM     12  O   UNL d   1      28.561 -14.365  -1.775  0.00  0.00    -0.377 OA
ATOM     13  C   UNL d   1      29.228 -13.458  -0.884  0.00  0.00     0.203 C 
ENDBRANCH   5  12
ENDBRANCH   3   5
BRANCH   2  14
ATOM     14  C   UNL d   1      30.559 -17.110  -4.858  0.00  0.00     0.025 C 
ATOM     15  C   UNL d   1      31.995 -16.918  -4.459  0.00  0.00     0.037 C 
ATOM     16  C   UNL d   1      30.030 -18.558  -4.779  0.00  0.00     0.037 C 
ATOM     17  C   UNL d   1      30.647 -16.814  -6.337  0.00  0.00     0.037 C 
ENDBRANCH   2  14
ENDBRANCH   1   2
BRANCH   1  18
ATOM     18  C   UNL d   1      27.451 -14.782  -4.972  0.00  0.00     0.246 C 
ATOM     19  O   UNL d   1      26.456 -15.199  -5.579  0.00  0.00    -0.271 OA
ATOM     20  N   UNL d   1      27.269 -13.879  -4.004  0.00  0.00    -0.351 N 
ATOM     21  H   UNL d   1      27.843 -13.840  -3.181  0.00  0.00     0.163 HD
BRANCH  20  22
ATOM     22  C   UNL d   1      26.038 -13.221  -3.971  0.00  0.00     0.026 C 
ATOM     23  C   UNL d   1      24.922 -14.271  -3.765  0.00  0.00     0.038 C 
ATOM     24  C   UNL d   1      26.293 -12.297  -2.789  0.00  0.00     0.038 C 
BRANCH  22  25
ATOM     25  C   UNL d   1      25.931 -12.533  -5.347  0.00  0.00     0.038 C 
BRANCH  25  26
ATOM     26  C   UNL d   1      26.512 -11.118  -5.335  0.00  0.00    -0.049 C 
ATOM     27  C   UNL d   1      25.637 -10.151  -4.542  0.00  0.00     0.014 C 
ATOM     28  C   UNL d   1      27.942 -11.109  -4.804  0.00  0.00     0.014 C 
ATOM     29  C   UNL d   1      26.584 -10.574  -6.745  0.00  0.00     0.014 C 
ENDBRANCH  25  26
ENDBRANCH  22  25
ENDBRANCH  20  22
ENDBRANCH   1  18
BRANCH   1  30
ATOM     30  C   UNL d   1      29.337 -13.973  -5.375  0.00  0.00     0.040 A 
ATOM     31  C   UNL d   1      29.254 -13.213  -7.037  0.00  0.00     0.076 A 
ATOM     32  C   UNL d   1      30.485 -12.215  -7.644  0.00  0.00     0.055 A 
ATOM     33  C   UNL d   1      31.809 -11.942  -6.612  0.00  0.00     0.137 A 
ATOM     34  C   UNL d   1      31.879 -12.712  -4.703  0.00  0.00     0.055 A 
ATOM     35  C   UNL d   1      30.668 -13.717  -4.162  0.00  0.00     0.076 A 
BRANCH  31  36
ATOM     36  O   UNL d   1      28.546 -13.736  -8.072  0.00  0.00    -0.360 OA
ATOM     37  H   UNL d   1      29.231 -14.075  -8.646  0.00  0.00     0.217 HD
ENDBRANCH  31  36
BRANCH  33  38
ATOM     38  O   UNL d   1      31.985 -10.427  -7.020  0.00  0.00    -0.378 OA
ATOM     39  H   UNL d   1      31.686 -10.193  -7.903  0.00  0.00     0.211 HD
ENDBRANCH  33  38
BRANCH  35  40
ATOM     40  O   UNL d   1      31.195 -14.638  -3.263  0.00  0.00    -0.360 OA
ATOM     41  H   UNL d   1      30.608 -14.587  -2.472  0.00  0.00     0.217 HD
ENDBRANCH  35  40
ENDBRANCH   1  30
TORSDOF 13
ENDMDL
MODEL 4
REMARK VINA RESULT:    -5.404      1.950      5.936
REMARK INTER + INTRA:         -12.415
REMARK INTER:                  -9.282
REMARK INTRA:                  -3.133
REMARK CONF_INDEPENDENT:        3.878
REMARK UNBOUND:                -3.133
REMARK  13 active torsions:
REMARK  status: ('A' for Active; 'I' for Inactive)
REMARK    1  A    between atoms: C_3  and  O_2 
REMARK    2  A    between atoms: C_3  and  C_32 
REMARK    3  A    between atoms: C_3  and  C_4 
REMARK       I    between atoms: C_4  and  N_6 
REMARK    4  A    between atoms: N_6  and  C_7 
REMARK    5  A    between atoms: N_6  and  C_28 
REMARK    6  A    between atoms: C_7  and  C_8 
REMARK    7  A    between atoms: C_7  and  C_19 
REMARK       I    between atoms: C_8  and  N_10 
REMARK    8  A    between atoms: N_10  and  C_11 
REMARK    9  A    between atoms: C_11  and  C_14 
REMARK   10  A    between atoms: C_14  and  C_15 
REMARK   11  A    between atoms: C_20  and  O_21 
REMARK   12  A    between atoms: C_23  and  O_24 
REMARK   13  A    between atoms: C_26  and  O_27 
ROOT
ATOM      1  C   UNL d   1      26.883 -14.810  -1.013  0.00  0.00     0.219 C 
ENDROOT
BRANCH   1   2
ATOM      2  N   UNL d   1      28.350 -14.765  -0.498  0.00  0.00    -0.324 N 
ATOM      3  C   UNL d   1      29.636 -15.337  -0.888  0.00  0.00     0.255 C 
ATOM      4  O   UNL d   1      30.645 -14.900  -0.274  0.00  0.00    -0.270 OA
BRANCH   3   5
ATOM      5  C   UNL d   1      30.129 -16.641  -1.838  0.00  0.00     0.245 C 
BRANCH   5   6
ATOM      6  C   UNL d   1      29.684 -17.033  -3.249  0.00  0.00    -0.021 C 
ATOM      7  C   UNL d   1      30.182 -18.272  -4.279  0.00  0.00     0.007 C 
ATOM      8  C   UNL d   1      30.565 -18.044  -6.075  0.00  0.00    -0.017 C 
ATOM      9  C   UNL d   1      30.411 -16.375  -6.908  0.00  0.00     0.042 C 
ATOM     10  C   UNL d   1      29.725 -15.130  -5.830  0.00  0.00    -0.017 C 
ATOM     11  C   UNL d   1      29.306 -15.742  -3.937  0.00  0.00     0.007 C 
ENDBRANCH   5   6
BRANCH   5  12
ATOM     12  O   UNL d   1      29.731 -17.827  -1.153  0.00  0.00    -0.377 OA
ATOM     13  C   UNL d   1      30.902 -18.564  -0.770  0.00  0.00     0.203 C 
ENDBRANCH   5  12
ENDBRANCH   3   5
BRANCH   2  14
ATOM     14  C   UNL d   1      28.467 -13.738   0.584  0.00  0.00     0.025 C 
ATOM     15  C   UNL d   1      29.031 -14.280   1.866  0.00  0.00     0.037 C 
ATOM     16  C   UNL d   1      29.170 -12.485   0.020  0.00  0.00     0.037 C 
ATOM     17  C   UNL d   1      27.125 -13.240   1.067  0.00  0.00     0.037 C 
ENDBRANCH   2  14
ENDBRANCH   1   2
BRANCH   1  18
ATOM     18  C   UNL d   1      26.466 -14.413  -2.424  0.00  0.00     0.246 C 
ATOM     19  O   UNL d   1      26.403 -15.191  -3.385  0.00  0.00    -0.271 OA
ATOM     20  N   UNL d   1      26.044 -13.157  -2.600  0.00  0.00    -0.351 N 
ATOM     21  H   UNL d   1      25.604 -12.623  -1.872  0.00  0.00     0.163 HD
BRANCH  20  22
ATOM     22  C   UNL d   1      25.889 -12.716  -3.916  0.00  0.00     0.026 C 
ATOM     23  C   UNL d   1      24.781 -13.558  -4.591  0.00  0.00     0.038 C 
ATOM     24  C   UNL d   1      25.530 -11.264  -3.640  0.00  0.00     0.038 C 
BRANCH  22  25
ATOM     25  C   UNL d   1      27.266 -12.952  -4.568  0.00  0.00     0.038 C 
BRANCH  25  26
ATOM     26  C   UNL d   1      27.614 -11.874  -5.596  0.00  0.00    -0.049 C 
ATOM     27  C   UNL d   1      26.394 -11.451  -6.409  0.00  0.00     0.014 C 
ATOM     28  C   UNL d   1      28.266 -10.664  -4.934  0.00  0.00     0.014 C 
ATOM     29  C   UNL d   1      28.626 -12.407  -6.586  0.00  0.00     0.014 C 
ENDBRANCH  25  26
ENDBRANCH  22  25
ENDBRANCH  20  22
ENDBRANCH   1  18
BRANCH   1  30
ATOM     30  C   UNL d   1      26.263 -16.085  -1.185  0.00  0.00     0.040 A 
ATOM     31  C   UNL d   1      24.504 -16.197  -1.674  0.00  0.00     0.076 A 
ATOM     32  C   UNL d   1      23.453 -17.365  -1.034  0.00  0.00     0.055 A 
ATOM     33  C   UNL d   1      24.129 -18.450   0.088  0.00  0.00     0.137 A 
ATOM     34  C   UNL d   1      26.128 -18.401   0.582  0.00  0.00     0.055 A 
ATOM     35  C   UNL d   1      27.115 -17.214  -0.040  0.00  0.00     0.076 A 
BRANCH  31  36
ATOM     36  O   UNL d   1      23.781 -15.142  -2.133  0.00  0.00    -0.360 OA
ATOM     37  H   UNL d   1      24.266 -14.877  -2.913  0.00  0.00     0.217 HD
ENDBRANCH  31  36
BRANCH  33  38
ATOM     38  O   UNL d   1      23.322 -19.702  -0.436  0.00  0.00    -0.378 OA
ATOM     39  H   UNL d   1      23.074 -20.349   0.231  0.00  0.00     0.211 HD
ENDBRANCH  33  38
BRANCH  35  40
ATOM     40  O   UNL d   1      28.112 -16.908   0.880  0.00  0.00    -0.360 OA
ATOM     41  H   UNL d   1      28.888 -17.450   0.605  0.00  0.00     0.217 HD
ENDBRANCH  35  40
ENDBRANCH   1  30
TORSDOF 13
ENDMDL
MODEL 5
REMARK VINA RESULT:    -5.345      2.148      5.837
REMARK INTER + INTRA:         -12.406
REMARK INTER:                  -9.223
REMARK INTRA:                  -3.182
REMARK CONF_INDEPENDENT:        3.878
REMARK UNBOUND:                -3.182
REMARK  13 active torsions:
REMARK  status: ('A' for Active; 'I' for Inactive)
REMARK    1  A    between atoms: C_3  and  O_2 
REMARK    2  A    between atoms: C_3  and  C_32 
REMARK    3  A    between atoms: C_3  and  C_4 
REMARK       I    between atoms: C_4  and  N_6 
REMARK    4  A    between atoms: N_6  and  C_7 
REMARK    5  A    between atoms: N_6  and  C_28 
REMARK    6  A    between atoms: C_7  and  C_8 
REMARK    7  A    between atoms: C_7  and  C_19 
REMARK       I    between atoms: C_8  and  N_10 
REMARK    8  A    between atoms: N_10  and  C_11 
REMARK    9  A    between atoms: C_11  and  C_14 
REMARK   10  A    between atoms: C_14  and  C_15 
REMARK   11  A    between atoms: C_20  and  O_21 
REMARK   12  A    between atoms: C_23  and  O_24 
REMARK   13  A    between atoms: C_26  and  O_27 
ROOT
ATOM      1  C   UNL d   1      28.466 -14.981  -2.491  0.00  0.00     0.219 C 
ENDROOT
BRANCH   1   2
ATOM      2  N   UNL d   1      29.704 -15.050  -1.552  0.00  0.00    -0.324 N 
ATOM      3  C   UNL d   1      30.023 -14.676  -0.177  0.00  0.00     0.255 C 
ATOM      4  O   UNL d   1      31.137 -15.069   0.259  0.00  0.00    -0.270 OA
BRANCH   3   5
ATOM      5  C   UNL d   1      29.357 -13.627   0.964  0.00  0.00     0.245 C 
BRANCH   5   6
ATOM      6  C   UNL d   1      29.673 -13.493   2.456  0.00  0.00    -0.021 C 
ATOM      7  C   UNL d   1      30.584 -14.454   3.501  0.00  0.00     0.007 C 
ATOM      8  C   UNL d   1      30.030 -14.971   5.189  0.00  0.00    -0.017 C 
ATOM      9  C   UNL d   1      28.377 -14.441   5.887  0.00  0.00     0.042 C 
ATOM     10  C   UNL d   1      27.519 -13.293   4.823  0.00  0.00    -0.017 C 
ATOM     11  C   UNL d   1      28.461 -12.841   3.079  0.00  0.00     0.007 C 
ENDBRANCH   5   6
BRANCH   5  12
ATOM     12  O   UNL d   1      27.972 -13.953   1.070  0.00  0.00    -0.377 OA
ATOM     13  C   UNL d   1      27.837 -15.368   1.271  0.00  0.00     0.203 C 
ENDBRANCH   5  12
ENDBRANCH   3   5
BRANCH   2  14
ATOM     14  C   UNL d   1      30.782 -15.855  -2.207  0.00  0.00     0.025 C 
ATOM     15  C   UNL d   1      32.067 -15.098  -2.389  0.00  0.00     0.037 C 
ATOM     16  C   UNL d   1      30.903 -17.217  -1.494  0.00  0.00     0.037 C 
ATOM     17  C   UNL d   1      30.466 -16.200  -3.644  0.00  0.00     0.037 C 
ENDBRANCH   2  14
ENDBRANCH   1   2
BRANCH   1  18
ATOM     18  C   UNL d   1      27.026 -14.915  -1.994  0.00  0.00     0.246 C 
ATOM     19  O   UNL d   1      26.529 -13.948  -1.404  0.00  0.00    -0.271 OA
ATOM     20  N   UNL d   1      26.228 -15.939  -2.313  0.00  0.00    -0.351 N 
ATOM     21  H   UNL d   1      26.355 -16.491  -3.142  0.00  0.00     0.163 HD
BRANCH  20  22
ATOM     22  C   UNL d   1      24.990 -16.006  -1.670  0.00  0.00     0.026 C 
ATOM     23  C   UNL d   1      25.209 -15.793  -0.154  0.00  0.00     0.038 C 
ATOM     24  C   UNL d   1      24.283 -14.871  -2.395  0.00  0.00     0.038 C 
BRANCH  22  25
ATOM     25  C   UNL d   1      24.470 -17.425  -1.980  0.00  0.00     0.038 C 
BRANCH  25  26
ATOM     26  C   UNL d   1      23.374 -17.866  -1.008  0.00  0.00    -0.049 C 
ATOM     27  C   UNL d   1      22.528 -16.687  -0.534  0.00  0.00     0.014 C 
ATOM     28  C   UNL d   1      22.492 -18.950  -1.620  0.00  0.00     0.014 C 
ATOM     29  C   UNL d   1      23.992 -18.476   0.230  0.00  0.00     0.014 C 
ENDBRANCH  25  26
ENDBRANCH  22  25
ENDBRANCH  20  22
ENDBRANCH   1  18
BRANCH   1  30
ATOM     30  C   UNL d   1      28.259 -13.795  -3.257  0.00  0.00     0.040 A 
ATOM     31  C   UNL d   1      28.108 -12.173  -2.424  0.00  0.00     0.076 A 
ATOM     32  C   UNL d   1      27.012 -10.984  -2.938  0.00  0.00     0.055 A 
ATOM     33  C   UNL d   1      26.061 -11.374  -4.293  0.00  0.00     0.137 A 
ATOM     34  C   UNL d   1      26.281 -13.156  -5.302  0.00  0.00     0.055 A 
ATOM     35  C   UNL d   1      27.340 -14.310  -4.741  0.00  0.00     0.076 A 
BRANCH  31  36
ATOM     36  O   UNL d   1      28.422 -11.964  -1.119  0.00  0.00    -0.360 OA
ATOM     37  H   UNL d   1      28.044 -12.728  -0.686  0.00  0.00     0.217 HD
ENDBRANCH  31  36
BRANCH  33  38
ATOM     38  O   UNL d   1      26.123  -9.926  -4.920  0.00  0.00    -0.378 OA
ATOM     39  H   UNL d   1      26.659  -9.836  -5.712  0.00  0.00     0.211 HD
ENDBRANCH  33  38
BRANCH  35  40
ATOM     40  O   UNL d   1      26.856 -15.576  -5.050  0.00  0.00    -0.360 OA
ATOM     41  H   UNL d   1      26.047 -15.681  -4.498  0.00  0.00     0.217 HD
ENDBRANCH  35  40
ENDBRANCH   1  30
TORSDOF 13
ENDMDL
MODEL 6
REMARK VINA RESULT:    -5.334      1.916      6.499
REMARK INTER + INTRA:         -12.607
REMARK INTER:                  -9.212
REMARK INTRA:                  -3.394
REMARK CONF_INDEPENDENT:        3.878
REMARK UNBOUND:                -3.394
REMARK  13 active torsions:
REMARK  status: ('A' for Active; 'I' for Inactive)
REMARK    1  A    between atoms: C_3  and  O_2 
REMARK    2  A    between atoms: C_3  and  C_32 
REMARK    3  A    between atoms: C_3  and  C_4 
REMARK       I    between atoms: C_4  and  N_6 
REMARK    4  A    between atoms: N_6  and  C_7 
REMARK    5  A    between atoms: N_6  and  C_28 
REMARK    6  A    between atoms: C_7  and  C_8 
REMARK    7  A    between atoms: C_7  and  C_19 
REMARK       I    between atoms: C_8  and  N_10 
REMARK    8  A    between atoms: N_10  and  C_11 
REMARK    9  A    between atoms: C_11  and  C_14 
REMARK   10  A    between atoms: C_14  and  C_15 
REMARK   11  A    between atoms: C_20  and  O_21 
REMARK   12  A    between atoms: C_23  and  O_24 
REMARK   13  A    between atoms: C_26  and  O_27 
ROOT
ATOM      1  C   UNL d   1      28.338 -15.308  -2.389  0.00  0.00     0.219 C 
ENDROOT
BRANCH   1   2
ATOM      2  N   UNL d   1      28.452 -14.729  -3.828  0.00  0.00    -0.324 N 
ATOM      3  C   UNL d   1      27.825 -13.659  -4.601  0.00  0.00     0.255 C 
ATOM      4  O   UNL d   1      28.343 -13.410  -5.721  0.00  0.00    -0.270 OA
BRANCH   3   5
ATOM      5  C   UNL d   1      26.395 -12.773  -4.479  0.00  0.00     0.245 C 
BRANCH   5   6
ATOM      6  C   UNL d   1      25.917 -11.588  -5.321  0.00  0.00    -0.021 C 
ATOM      7  C   UNL d   1      26.384 -11.031  -6.843  0.00  0.00     0.007 C 
ATOM      8  C   UNL d   1      26.729  -9.258  -7.242  0.00  0.00    -0.017 C 
ATOM      9  C   UNL d   1      26.568  -7.910  -5.953  0.00  0.00     0.042 C 
ATOM     10  C   UNL d   1      25.912  -8.514  -4.407  0.00  0.00    -0.017 C 
ATOM     11  C   UNL d   1      25.531 -10.510  -4.335  0.00  0.00     0.007 C 
ENDBRANCH   5   6
BRANCH   5  12
ATOM     12  O   UNL d   1      26.410 -12.134  -3.203  0.00  0.00    -0.377 OA
ATOM     13  C   UNL d   1      27.759 -11.766  -2.877  0.00  0.00     0.203 C 
ENDBRANCH   5  12
ENDBRANCH   3   5
BRANCH   2  14
ATOM     14  C   UNL d   1      29.625 -15.345  -4.522  0.00  0.00     0.025 C 
ATOM     15  C   UNL d   1      29.283 -15.950  -5.854  0.00  0.00     0.037 C 
ATOM     16  C   UNL d   1      30.799 -14.343  -4.523  0.00  0.00     0.037 C 
ATOM     17  C   UNL d   1      30.160 -16.562  -3.802  0.00  0.00     0.037 C 
ENDBRANCH   2  14
ENDBRANCH   1   2
BRANCH   1  18
ATOM     18  C   UNL d   1      27.820 -14.518  -1.193  0.00  0.00     0.246 C 
ATOM     19  O   UNL d   1      26.768 -13.865  -1.184  0.00  0.00    -0.271 OA
ATOM     20  N   UNL d   1      28.507 -14.627  -0.052  0.00  0.00    -0.351 N 
ATOM     21  H   UNL d   1      29.033 -15.447   0.191  0.00  0.00     0.163 HD
BRANCH  20  22
ATOM     22  C   UNL d   1      28.187 -13.733   0.972  0.00  0.00     0.026 C 
ATOM     23  C   UNL d   1      28.202 -12.298   0.396  0.00  0.00     0.038 C 
ATOM     24  C   UNL d   1      26.815 -14.275   1.342  0.00  0.00     0.038 C 
BRANCH  22  25
ATOM     25  C   UNL d   1      29.294 -13.940   2.025  0.00  0.00     0.038 C 
BRANCH  25  26
ATOM     26  C   UNL d   1      28.816 -13.615   3.442  0.00  0.00    -0.049 C 
ATOM     27  C   UNL d   1      27.877 -12.412   3.461  0.00  0.00     0.014 C 
ATOM     28  C   UNL d   1      28.155 -14.824   4.096  0.00  0.00     0.014 C 
ATOM     29  C   UNL d   1      29.995 -13.254   4.318  0.00  0.00     0.014 C 
ENDBRANCH  25  26
ENDBRANCH  22  25
ENDBRANCH  20  22
ENDBRANCH   1  18
BRANCH   1  30
ATOM     30  C   UNL d   1      27.366 -16.325  -2.142  0.00  0.00     0.040 A 
ATOM     31  C   UNL d   1      25.587 -15.980  -2.389  0.00  0.00     0.076 A 
ATOM     32  C   UNL d   1      24.389 -16.582  -1.348  0.00  0.00     0.055 A 
ATOM     33  C   UNL d   1      24.932 -17.545  -0.056  0.00  0.00     0.137 A 
ATOM     34  C   UNL d   1      26.921 -18.023   0.187  0.00  0.00     0.055 A 
ATOM     35  C   UNL d   1      28.066 -17.380  -0.836  0.00  0.00     0.076 A 
BRANCH  31  36
ATOM     36  O   UNL d   1      25.114 -14.882  -3.034  0.00  0.00    -0.360 OA
ATOM     37  H   UNL d   1      25.679 -14.185  -2.706  0.00  0.00     0.217 HD
ENDBRANCH  31  36
BRANCH  33  38
ATOM     38  O   UNL d   1      23.725 -18.561  -0.132  0.00  0.00    -0.378 OA
ATOM     39  H   UNL d   1      23.637 -19.163   0.612  0.00  0.00     0.211 HD
ENDBRANCH  33  38
BRANCH  35  40
ATOM     40  O   UNL d   1      29.261 -17.208  -0.146  0.00  0.00    -0.360 OA
ATOM     41  H   UNL d   1      29.260 -17.911   0.545  0.00  0.00     0.217 HD
ENDBRANCH  35  40
ENDBRANCH   1  30
TORSDOF 13
ENDMDL
MODEL 7
REMARK VINA RESULT:    -4.082      2.473      6.675
REMARK INTER + INTRA:         -12.352
REMARK INTER:                  -7.960
REMARK INTRA:                  -4.393
REMARK CONF_INDEPENDENT:        3.878
REMARK UNBOUND:                -4.393
REMARK  13 active torsions:
REMARK  status: ('A' for Active; 'I' for Inactive)
REMARK    1  A    between atoms: C_3  and  O_2 
REMARK    2  A    between atoms: C_3  and  C_32 
REMARK    3  A    between atoms: C_3  and  C_4 
REMARK       I    between atoms: C_4  and  N_6 
REMARK    4  A    between atoms: N_6  and  C_7 
REMARK    5  A    between atoms: N_6  and  C_28 
REMARK    6  A    between atoms: C_7  and  C_8 
REMARK    7  A    between atoms: C_7  and  C_19 
REMARK       I    between atoms: C_8  and  N_10 
REMARK    8  A    between atoms: N_10  and  C_11 
REMARK    9  A    between atoms: C_11  and  C_14 
REMARK   10  A    between atoms: C_14  and  C_15 
REMARK   11  A    between atoms: C_20  and  O_21 
REMARK   12  A    between atoms: C_23  and  O_24 
REMARK   13  A    between atoms: C_26  and  O_27 
ROOT
ATOM      1  C   UNL d   1      27.202 -12.588  -1.725  0.00  0.00     0.219 C 
ENDROOT
BRANCH   1   2
ATOM      2  N   UNL d   1      26.779 -13.565  -2.859  0.00  0.00    -0.324 N 
ATOM      3  C   UNL d   1      26.402 -14.972  -2.970  0.00  0.00     0.255 C 
ATOM      4  O   UNL d   1      25.957 -15.339  -4.089  0.00  0.00    -0.270 OA
BRANCH   3   5
ATOM      5  C   UNL d   1      26.617 -16.348  -2.018  0.00  0.00     0.245 C 
BRANCH   5   6
ATOM      6  C   UNL d   1      25.709 -16.921  -0.926  0.00  0.00    -0.021 C 
ATOM      7  C   UNL d   1      25.360 -18.508  -0.475  0.00  0.00     0.007 C 
ATOM      8  C   UNL d   1      23.655 -19.146  -0.145  0.00  0.00    -0.017 C 
ATOM      9  C   UNL d   1      22.149 -18.042  -0.278  0.00  0.00     0.042 C 
ATOM     10  C   UNL d   1      22.573 -16.338  -0.593  0.00  0.00    -0.017 C 
ATOM     11  C   UNL d   1      24.559 -15.950  -0.794  0.00  0.00     0.007 C 
ENDBRANCH   5   6
BRANCH   5  12
ATOM     12  O   UNL d   1      27.785 -16.129  -1.228  0.00  0.00    -0.377 OA
ATOM     13  C   UNL d   1      28.306 -17.396  -0.798  0.00  0.00     0.203 C 
ENDBRANCH   5  12
ENDBRANCH   3   5
BRANCH   2  14
ATOM     14  C   UNL d   1      26.557 -12.796  -4.123  0.00  0.00     0.025 C 
ATOM     15  C   UNL d   1      26.612 -11.307  -3.936  0.00  0.00     0.037 C 
ATOM     16  C   UNL d   1      27.470 -13.365  -5.229  0.00  0.00     0.037 C 
ATOM     17  C   UNL d   1      25.155 -12.950  -4.665  0.00  0.00     0.037 C 
ENDBRANCH   2  14
ENDBRANCH   1   2
BRANCH   1  18
ATOM     18  C   UNL d   1      27.436 -13.013  -0.280  0.00  0.00     0.246 C 
ATOM     19  O   UNL d   1      26.778 -12.610   0.687  0.00  0.00    -0.271 OA
ATOM     20  N   UNL d   1      28.352 -13.964  -0.069  0.00  0.00    -0.351 N 
ATOM     21  H   UNL d   1      28.571 -14.670  -0.749  0.00  0.00     0.163 HD
BRANCH  20  22
ATOM     22  C   UNL d   1      28.743 -14.189   1.252  0.00  0.00     0.026 C 
ATOM     23  C   UNL d   1      27.558 -14.825   2.015  0.00  0.00     0.038 C 
ATOM     24  C   UNL d   1      29.926 -15.110   0.997  0.00  0.00     0.038 C 
BRANCH  22  25
ATOM     25  C   UNL d   1      29.090 -12.789   1.797  0.00  0.00     0.038 C 
BRANCH  25  26
ATOM     26  C   UNL d   1      29.158 -12.761   3.325  0.00  0.00    -0.049 C 
ATOM     27  C   UNL d   1      27.782 -12.553   3.950  0.00  0.00     0.014 C 
ATOM     28  C   UNL d   1      29.813 -14.025   3.875  0.00  0.00     0.014 C 
ATOM     29  C   UNL d   1      30.018 -11.606   3.786  0.00  0.00     0.014 C 
ENDBRANCH  25  26
ENDBRANCH  22  25
ENDBRANCH  20  22
ENDBRANCH   1  18
BRANCH   1  30
ATOM     30  C   UNL d   1      28.511 -12.019  -1.773  0.00  0.00     0.040 A 
ATOM     31  C   UNL d   1      29.978 -13.095  -1.961  0.00  0.00     0.076 A 
ATOM     32  C   UNL d   1      31.434 -12.802  -1.138  0.00  0.00     0.055 A 
ATOM     33  C   UNL d   1      31.464 -11.432  -0.130  0.00  0.00     0.137 A 
ATOM     34  C   UNL d   1      29.855 -10.156   0.023  0.00  0.00     0.055 A 
ATOM     35  C   UNL d   1      28.435 -10.502  -0.771  0.00  0.00     0.076 A 
BRANCH  31  36
ATOM     36  O   UNL d   1      29.912 -14.407  -2.308  0.00  0.00    -0.360 OA
ATOM     37  H   UNL d   1      28.983 -14.606  -2.205  0.00  0.00     0.217 HD
ENDBRANCH  31  36
BRANCH  33  38
ATOM     38  O   UNL d   1      32.948 -11.033  -0.495  0.00  0.00    -0.378 OA
ATOM     39  H   UNL d   1      33.543 -10.908   0.250  0.00  0.00     0.211 HD
ENDBRANCH  33  38
BRANCH  35  40
ATOM     40  O   UNL d   1      27.359 -10.017  -0.035  0.00  0.00    -0.360 OA
ATOM     41  H   UNL d   1      27.310 -10.600   0.758  0.00  0.00     0.217 HD
ENDBRANCH  35  40
ENDBRANCH   1  30
TORSDOF 13
ENDMDL
MODEL 8
REMARK VINA RESULT:    -4.021      2.641      5.961
REMARK INTER + INTRA:         -12.828
REMARK INTER:                  -7.899
REMARK INTRA:                  -4.929
REMARK CONF_INDEPENDENT:        3.878
REMARK UNBOUND:                -4.929
REMARK  13 active torsions:
REMARK  status: ('A' for Active; 'I' for Inactive)
REMARK    1  A    between atoms: C_3  and  O_2 
REMARK    2  A    between atoms: C_3  and  C_32 
REMARK    3  A    between atoms: C_3  and  C_4 
REMARK       I    between atoms: C_4  and  N_6 
REMARK    4  A    between atoms: N_6  and  C_7 
REMARK    5  A    between atoms: N_6  and  C_28 
REMARK    6  A    between atoms: C_7  and  C_8 
REMARK    7  A    between atoms: C_7  and  C_19 
REMARK       I    between atoms: C_8  and  N_10 
REMARK    8  A    between atoms: N_10  and  C_11 
REMARK    9  A    between atoms: C_11  and  C_14 
REMARK   10  A    between atoms: C_14  and  C_15 
REMARK   11  A    between atoms: C_20  and  O_21 
REMARK   12  A    between atoms: C_23  and  O_24 
REMARK   13  A    between atoms: C_26  and  O_27 
ROOT
ATOM      1  C   UNL d   1      29.716 -14.782   1.517  0.00  0.00     0.219 C 
ENDROOT
BRANCH   1   2
ATOM      2  N   UNL d   1      28.438 -13.988   1.910  0.00  0.00    -0.324 N 
ATOM      3  C   UNL d   1      27.088 -13.809   1.380  0.00  0.00     0.255 C 
ATOM      4  O   UNL d   1      26.282 -13.185   2.120  0.00  0.00    -0.270 OA
BRANCH   3   5
ATOM      5  C   UNL d   1      26.348 -14.039  -0.118  0.00  0.00     0.245 C 
BRANCH   5   6
ATOM      6  C   UNL d   1      25.962 -15.346  -0.816  0.00  0.00    -0.021 C 
ATOM      7  C   UNL d   1      24.630 -15.760  -1.765  0.00  0.00     0.007 C 
ATOM      8  C   UNL d   1      23.654 -17.319  -1.564  0.00  0.00    -0.017 C 
ATOM      9  C   UNL d   1      24.091 -18.593  -0.265  0.00  0.00     0.042 C 
ATOM     10  C   UNL d   1      25.599 -18.198   0.604  0.00  0.00    -0.017 C 
ATOM     11  C   UNL d   1      26.494 -16.455   0.061  0.00  0.00     0.007 C 
ENDBRANCH   5   6
BRANCH   5  12
ATOM     12  O   UNL d   1      27.243 -13.528  -1.106  0.00  0.00    -0.377 OA
ATOM     13  C   UNL d   1      26.480 -12.931  -2.165  0.00  0.00     0.203 C 
ENDBRANCH   5  12
ENDBRANCH   3   5
BRANCH   2  14
ATOM     14  C   UNL d   1      28.621 -13.387   3.268  0.00  0.00     0.025 C 
ATOM     15  C   UNL d   1      28.611 -11.886   3.265  0.00  0.00     0.037 C 
ATOM     16  C   UNL d   1      27.646 -14.061   4.256  0.00  0.00     0.037 C 
ATOM     17  C   UNL d   1      29.993 -13.648   3.844  0.00  0.00     0.037 C 
ENDBRANCH   2  14
ENDBRANCH   1   2
BRANCH   1  18
ATOM     18  C   UNL d   1      29.843 -15.613   0.245  0.00  0.00     0.246 C 
ATOM     19  O   UNL d   1      30.219 -16.791   0.209  0.00  0.00    -0.271 OA
ATOM     20  N   UNL d   1      29.422 -15.048  -0.891  0.00  0.00    -0.351 N 
ATOM     21  H   UNL d   1      28.693 -14.358  -0.919  0.00  0.00     0.163 HD
BRANCH  20  22
ATOM     22  C   UNL d   1      29.750 -15.696  -2.083  0.00  0.00     0.026 C 
ATOM     23  C   UNL d   1      31.249 -16.073  -2.045  0.00  0.00     0.038 C 
ATOM     24  C   UNL d   1      28.780 -16.865  -1.995  0.00  0.00     0.038 C 
BRANCH  22  25
ATOM     25  C   UNL d   1      29.448 -14.658  -3.183  0.00  0.00     0.038 C 
BRANCH  25  26
ATOM     26  C   UNL d   1      28.926 -15.307  -4.467  0.00  0.00    -0.049 C 
ATOM     27  C   UNL d   1      29.674 -16.596  -4.795  0.00  0.00     0.014 C 
ATOM     28  C   UNL d   1      27.424 -15.562  -4.389  0.00  0.00     0.014 C 
ATOM     29  C   UNL d   1      29.135 -14.378  -5.641  0.00  0.00     0.014 C 
ENDBRANCH  25  26
ENDBRANCH  22  25
ENDBRANCH  20  22
ENDBRANCH   1  18
BRANCH   1  30
ATOM     30  C   UNL d   1      30.888 -14.049   1.160  0.00  0.00     0.040 A 
ATOM     31  C   UNL d   1      30.840 -12.847  -0.218  0.00  0.00     0.076 A 
ATOM     32  C   UNL d   1      32.125 -12.662  -1.311  0.00  0.00     0.055 A 
ATOM     33  C   UNL d   1      33.482 -13.653  -1.049  0.00  0.00     0.137 A 
ATOM     34  C   UNL d   1      33.595 -14.946   0.551  0.00  0.00     0.055 A 
ATOM     35  C   UNL d   1      32.297 -15.123   1.576  0.00  0.00     0.076 A 
BRANCH  31  36
ATOM     36  O   UNL d   1      29.691 -12.404  -0.793  0.00  0.00    -0.360 OA
ATOM     37  H   UNL d   1      29.016 -12.770  -0.224  0.00  0.00     0.217 HD
ENDBRANCH  31  36
BRANCH  33  38
ATOM     38  O   UNL d   1      34.535 -12.539  -1.432  0.00  0.00    -0.378 OA
ATOM     39  H   UNL d   1      34.705 -12.430  -2.371  0.00  0.00     0.211 HD
ENDBRANCH  33  38
BRANCH  35  40
ATOM     40  O   UNL d   1      32.265 -16.424   2.066  0.00  0.00    -0.360 OA
ATOM     41  H   UNL d   1      31.311 -16.671   2.071  0.00  0.00     0.217 HD
ENDBRANCH  35  40
ENDBRANCH   1  30
TORSDOF 13
ENDMDL
MODEL 9
REMARK VINA RESULT:    -4.008      2.474      6.390
REMARK INTER + INTRA:         -12.600
REMARK INTER:                  -7.886
REMARK INTRA:                  -4.714
REMARK CONF_INDEPENDENT:        3.878
REMARK UNBOUND:                -4.714
REMARK  13 active torsions:
REMARK  status: ('A' for Active; 'I' for Inactive)
REMARK    1  A    between atoms: C_3  and  O_2 
REMARK    2  A    between atoms: C_3  and  C_32 
REMARK    3  A    between atoms: C_3  and  C_4 
REMARK       I    between atoms: C_4  and  N_6 
REMARK    4  A    between atoms: N_6  and  C_7 
REMARK    5  A    between atoms: N_6  and  C_28 
REMARK    6  A    between atoms: C_7  and  C_8 
REMARK    7  A    between atoms: C_7  and  C_19 
REMARK       I    between atoms: C_8  and  N_10 
REMARK    8  A    between atoms: N_10  and  C_11 
REMARK    9  A    between atoms: C_11  and  C_14 
REMARK   10  A    between atoms: C_14  and  C_15 
REMARK   11  A    between atoms: C_20  and  O_21 
REMARK   12  A    between atoms: C_23  and  O_24 
REMARK   13  A    between atoms: C_26  and  O_27 
ROOT
ATOM      1  C   UNL d   1      29.784 -16.047  -4.263  0.00  0.00     0.219 C 
ENDROOT
BRANCH   1   2
ATOM      2  N   UNL d   1      29.949 -16.725  -2.873  0.00  0.00    -0.324 N 
ATOM      3  C   UNL d   1      29.105 -17.000  -1.713  0.00  0.00     0.255 C 
ATOM      4  O   UNL d   1      29.605 -17.745  -0.829  0.00  0.00    -0.270 OA
BRANCH   3   5
ATOM      5  C   UNL d   1      27.654 -16.382  -1.113  0.00  0.00     0.245 C 
BRANCH   5   6
ATOM      6  C   UNL d   1      26.219 -16.697  -1.541  0.00  0.00    -0.021 C 
ATOM      7  C   UNL d   1      24.912 -15.697  -1.909  0.00  0.00     0.007 C 
ATOM      8  C   UNL d   1      23.194 -15.950  -1.270  0.00  0.00    -0.017 C 
ATOM      9  C   UNL d   1      22.764 -17.384  -0.147  0.00  0.00     0.042 C 
ATOM     10  C   UNL d   1      24.130 -18.509   0.083  0.00  0.00    -0.017 C 
ATOM     11  C   UNL d   1      25.859 -17.994  -0.854  0.00  0.00     0.007 C 
ENDBRANCH   5   6
BRANCH   5  12
ATOM     12  O   UNL d   1      27.654 -14.982  -1.389  0.00  0.00    -0.377 OA
ATOM     13  C   UNL d   1      27.599 -14.260  -0.149  0.00  0.00     0.203 C 
ENDBRANCH   5  12
ENDBRANCH   3   5
BRANCH   2  14
ATOM     14  C   UNL d   1      31.283 -17.398  -2.802  0.00  0.00     0.025 C 
ATOM     15  C   UNL d   1      32.220 -16.767  -1.812  0.00  0.00     0.037 C 
ATOM     16  C   UNL d   1      31.077 -18.920  -2.652  0.00  0.00     0.037 C 
ATOM     17  C   UNL d   1      32.087 -17.243  -4.072  0.00  0.00     0.037 C 
ENDBRANCH   2  14
ENDBRANCH   1   2
BRANCH   1  18
ATOM     18  C   UNL d   1      28.525 -15.311  -4.705  0.00  0.00     0.246 C 
ATOM     19  O   UNL d   1      27.885 -15.566  -5.734  0.00  0.00    -0.271 OA
ATOM     20  N   UNL d   1      28.032 -14.396  -3.865  0.00  0.00    -0.351 N 
ATOM     21  H   UNL d   1      28.151 -14.450  -2.869  0.00  0.00     0.163 HD
BRANCH  20  22
ATOM     22  C   UNL d   1      27.030 -13.555  -4.355  0.00  0.00     0.026 C 
ATOM     23  C   UNL d   1      25.780 -14.409  -4.671  0.00  0.00     0.038 C 
ATOM     24  C   UNL d   1      26.899 -12.620  -3.163  0.00  0.00     0.038 C 
BRANCH  22  25
ATOM     25  C   UNL d   1      27.636 -12.934  -5.629  0.00  0.00     0.038 C 
BRANCH  25  26
ATOM     26  C   UNL d   1      27.038 -11.562  -5.947  0.00  0.00    -0.049 C 
ATOM     27  C   UNL d   1      25.531 -11.531  -5.711  0.00  0.00     0.014 C 
ATOM     28  C   UNL d   1      27.730 -10.457  -5.154  0.00  0.00     0.014 C 
ATOM     29  C   UNL d   1      27.251 -11.228  -7.407  0.00  0.00     0.014 C 
ENDBRANCH  25  26
ENDBRANCH  22  25
ENDBRANCH  20  22
ENDBRANCH   1  18
BRANCH   1  30
ATOM     30  C   UNL d   1      30.567 -14.887  -4.549  0.00  0.00     0.040 A 
ATOM     31  C   UNL d   1      30.517 -13.442  -3.430  0.00  0.00     0.076 A 
ATOM     32  C   UNL d   1      30.537 -11.844  -4.003  0.00  0.00     0.055 A 
ATOM     33  C   UNL d   1      30.622 -11.653  -5.691  0.00  0.00     0.137 A 
ATOM     34  C   UNL d   1      30.772 -13.266  -6.964  0.00  0.00     0.055 A 
ATOM     35  C   UNL d   1      30.710 -14.815  -6.362  0.00  0.00     0.076 A 
BRANCH  31  36
ATOM     36  O   UNL d   1      29.968 -13.468  -2.187  0.00  0.00    -0.360 OA
ATOM     37  H   UNL d   1      29.508 -14.306  -2.178  0.00  0.00     0.217 HD
ENDBRANCH  31  36
BRANCH  33  38
ATOM     38  O   UNL d   1      31.591 -10.407  -5.635  0.00  0.00    -0.378 OA
ATOM     39  H   UNL d   1      31.166  -9.550  -5.545  0.00  0.00     0.211 HD
ENDBRANCH  33  38
BRANCH  35  40
ATOM     40  O   UNL d   1      30.123 -15.656  -7.301  0.00  0.00    -0.360 OA
ATOM     41  H   UNL d   1      29.291 -15.972  -6.875  0.00  0.00     0.217 HD
ENDBRANCH  35  40
ENDBRANCH   1  30
TORSDOF 13
ENDMDL
