MODEL 1
REMARK VINA RESULT:    -7.533      0.000      0.000
REMARK INTER + INTRA:          -9.528
REMARK INTER:                  -8.726
REMARK INTRA:                  -0.802
REMARK CONF_INDEPENDENT:        1.193
REMARK UNBOUND:                -0.802
REMARK  4 active torsions:
REMARK  status: ('A' for Active; 'I' for Inactive)
REMARK    1  A    between atoms: O_2  and  C_3 
REMARK    2  A    between atoms: C_8  and  N_9 
REMARK       I    between atoms: N_9  and  C_10 
REMARK       I    between atoms: C_10  and  N_12 
REMARK    3  A    between atoms: N_12  and  N_13 
REMARK    4  A    between atoms: N_13  and  C_14 
ROOT
ATOM      1  N   UNL d   1      24.131 -17.209  -0.274  0.00  0.00    -0.305 N 
ATOM      2  C   UNL d   1      23.139 -18.094  -0.704  0.00  0.00     0.339 C 
ATOM      3  O   UNL d   1      23.237 -18.845  -1.681  0.00  0.00    -0.245 OA
ATOM      4  N   UNL d   1      21.899 -17.884  -0.070  0.00  0.00    -0.251 N 
ATOM      5  H   UNL d   1      24.188 -17.024   0.716  0.00  0.00     0.171 HD
ATOM      6  H   UNL d   1      21.862 -17.770   0.937  0.00  0.00     0.191 HD
ENDROOT
BRANCH   1   7
ATOM      7  C   UNL d   1      25.172 -16.672  -1.105  0.00  0.00     0.069 C 
ATOM      8  C   UNL d   1      24.832 -16.173  -2.380  0.00  0.00     0.032 C 
ATOM      9  C   UNL d   1      25.789 -15.552  -3.209  0.00  0.00     0.002 C 
ATOM     10  C   UNL d   1      27.102 -15.410  -2.777  0.00  0.00     0.003 C 
ATOM     11  C   UNL d   1      27.475 -15.991  -1.569  0.00  0.00     0.039 C 
ATOM     12  C   UNL d   1      26.537 -16.659  -0.758  0.00  0.00     0.095 C 
BRANCH  12  13
ATOM     13  O   UNL d   1      27.100 -17.253   0.340  0.00  0.00    -0.354 OA
ATOM     14  C   UNL d   1      26.651 -18.571   0.644  0.00  0.00     0.210 C 
ENDBRANCH  12  13
ENDBRANCH   1   7
BRANCH   4  15
ATOM     15  N   UNL d   1      20.812 -18.579  -0.648  0.00  0.00    -0.294 N 
ATOM     16  H   UNL d   1      20.344 -18.061  -1.399  0.00  0.00     0.187 HD
BRANCH  15  17
ATOM     17  C   UNL d   1      19.957 -19.369   0.144  0.00  0.00     0.086 A 
ATOM     18  C   UNL d   1      18.912 -20.040  -0.522  0.00  0.00     0.034 A 
ATOM     19  C   UNL d   1      18.036 -20.896   0.156  0.00  0.00     0.002 A 
ATOM     20  C   UNL d   1      18.205 -21.122   1.519  0.00  0.00     0.003 A 
ATOM     21  C   UNL d   1      19.216 -20.450   2.206  0.00  0.00     0.045 A 
ATOM     22  C   UNL d   1      20.075 -19.581   1.522  0.00  0.00     0.144 A 
ATOM     23  F   UNL d   1      21.025 -18.949   2.227  0.00  0.00    -0.204 F 
ENDBRANCH  15  17
ENDBRANCH   4  15
TORSDOF 4
ENDMDL
MODEL 2
REMARK VINA RESULT:    -7.409      2.239      7.677
REMARK INTER + INTRA:          -9.351
REMARK INTER:                  -8.602
REMARK INTRA:                  -0.749
REMARK CONF_INDEPENDENT:        1.193
REMARK UNBOUND:                -0.749
REMARK  4 active torsions:
REMARK  status: ('A' for Active; 'I' for Inactive)
REMARK    1  A    between atoms: O_2  and  C_3 
REMARK    2  A    between atoms: C_8  and  N_9 
REMARK       I    between atoms: N_9  and  C_10 
REMARK       I    between atoms: C_10  and  N_12 
REMARK    3  A    between atoms: N_12  and  N_13 
REMARK    4  A    between atoms: N_13  and  C_14 
ROOT
ATOM      1  N   UNL d   1      21.414 -18.570   0.720  0.00  0.00    -0.305 N 
ATOM      2  C   UNL d   1      22.442 -18.631  -0.225  0.00  0.00     0.339 C 
ATOM      3  O   UNL d   1      22.330 -19.102  -1.362  0.00  0.00    -0.245 OA
ATOM      4  N   UNL d   1      23.706 -18.331   0.317  0.00  0.00    -0.251 N 
ATOM      5  H   UNL d   1      21.423 -17.795   1.365  0.00  0.00     0.171 HD
ATOM      6  H   UNL d   1      23.818 -17.517   0.912  0.00  0.00     0.191 HD
ENDROOT
BRANCH   1   7
ATOM      7  C   UNL d   1      20.261 -19.427   0.738  0.00  0.00     0.069 C 
ATOM      8  C   UNL d   1      19.493 -19.556  -0.438  0.00  0.00     0.032 C 
ATOM      9  C   UNL d   1      18.404 -20.449  -0.516  0.00  0.00     0.002 C 
ATOM     10  C   UNL d   1      18.066 -21.236   0.579  0.00  0.00     0.003 C 
ATOM     11  C   UNL d   1      18.746 -21.043   1.778  0.00  0.00     0.039 C 
ATOM     12  C   UNL d   1      19.803 -20.116   1.878  0.00  0.00     0.095 C 
BRANCH  12  13
ATOM     13  O   UNL d   1      20.287 -19.987   3.152  0.00  0.00    -0.354 OA
ATOM     14  C   UNL d   1      19.693 -20.825   4.141  0.00  0.00     0.210 C 
ENDBRANCH  12  13
ENDBRANCH   1   7
BRANCH   4  15
ATOM     15  N   UNL d   1      24.800 -18.624  -0.531  0.00  0.00    -0.294 N 
ATOM     16  H   UNL d   1      25.078 -19.610  -0.519  0.00  0.00     0.187 HD
BRANCH  15  17
ATOM     17  C   UNL d   1      25.864 -17.714  -0.679  0.00  0.00     0.086 A 
ATOM     18  C   UNL d   1      26.915 -17.806   0.254  0.00  0.00     0.034 A 
ATOM     19  C   UNL d   1      28.049 -16.989   0.169  0.00  0.00     0.002 A 
ATOM     20  C   UNL d   1      28.168 -16.075  -0.873  0.00  0.00     0.003 A 
ATOM     21  C   UNL d   1      27.129 -15.946  -1.795  0.00  0.00     0.045 A 
ATOM     22  C   UNL d   1      25.991 -16.755  -1.690  0.00  0.00     0.144 A 
ATOM     23  F   UNL d   1      25.013 -16.587  -2.593  0.00  0.00    -0.204 F 
ENDBRANCH  15  17
ENDBRANCH   4  15
TORSDOF 4
ENDMDL
MODEL 3
REMARK VINA RESULT:    -7.397      1.691      2.637
REMARK INTER + INTRA:          -9.488
REMARK INTER:                  -8.590
REMARK INTRA:                  -0.898
REMARK CONF_INDEPENDENT:        1.193
REMARK UNBOUND:                -0.898
REMARK  4 active torsions:
REMARK  status: ('A' for Active; 'I' for Inactive)
REMARK    1  A    between atoms: O_2  and  C_3 
REMARK    2  A    between atoms: C_8  and  N_9 
REMARK       I    between atoms: N_9  and  C_10 
REMARK       I    between atoms: C_10  and  N_12 
REMARK    3  A    between atoms: N_12  and  N_13 
REMARK    4  A    between atoms: N_13  and  C_14 
ROOT
ATOM      1  N   UNL d   1      24.284 -17.897  -1.403  0.00  0.00    -0.305 N 
ATOM      2  C   UNL d   1      23.131 -17.620  -0.664  0.00  0.00     0.339 C 
ATOM      3  O   UNL d   1      22.863 -16.526  -0.157  0.00  0.00    -0.245 OA
ATOM      4  N   UNL d   1      22.401 -18.777  -0.328  0.00  0.00    -0.251 N 
ATOM      5  H   UNL d   1      24.207 -18.578  -2.143  0.00  0.00     0.171 HD
ATOM      6  H   UNL d   1      22.209 -19.474  -1.038  0.00  0.00     0.191 HD
ENDROOT
BRANCH   1   7
ATOM      7  C   UNL d   1      25.521 -17.173  -1.301  0.00  0.00     0.069 C 
ATOM      8  C   UNL d   1      26.386 -17.459  -0.224  0.00  0.00     0.032 C 
ATOM      9  C   UNL d   1      27.654 -16.851  -0.114  0.00  0.00     0.002 C 
ATOM     10  C   UNL d   1      28.085 -15.953  -1.083  0.00  0.00     0.003 C 
ATOM     11  C   UNL d   1      27.201 -15.581  -2.092  0.00  0.00     0.039 C 
ATOM     12  C   UNL d   1      25.913 -16.145  -2.180  0.00  0.00     0.095 C 
BRANCH  12  13
ATOM     13  O   UNL d   1      25.149 -15.591  -3.172  0.00  0.00    -0.354 OA
ATOM     14  C   UNL d   1      25.007 -14.173  -3.140  0.00  0.00     0.210 C 
ENDBRANCH  12  13
ENDBRANCH   1   7
BRANCH   4  15
ATOM     15  N   UNL d   1      21.375 -18.575   0.625  0.00  0.00    -0.294 N 
ATOM     16  H   UNL d   1      21.712 -18.211   1.522  0.00  0.00     0.187 HD
BRANCH  15  17
ATOM     17  C   UNL d   1      20.292 -19.469   0.721  0.00  0.00     0.086 A 
ATOM     18  C   UNL d   1      19.891 -19.846   2.017  0.00  0.00     0.034 A 
ATOM     19  C   UNL d   1      18.792 -20.686   2.232  0.00  0.00     0.002 A 
ATOM     20  C   UNL d   1      18.048 -21.147   1.150  0.00  0.00     0.003 A 
ATOM     21  C   UNL d   1      18.441 -20.808  -0.145  0.00  0.00     0.045 A 
ATOM     22  C   UNL d   1      19.553 -19.983  -0.351  0.00  0.00     0.144 A 
ATOM     23  F   UNL d   1      19.899 -19.694  -1.615  0.00  0.00    -0.204 F 
ENDBRANCH  15  17
ENDBRANCH   4  15
TORSDOF 4
ENDMDL
MODEL 4
REMARK VINA RESULT:    -7.351      2.106      7.608
REMARK INTER + INTRA:          -9.413
REMARK INTER:                  -8.545
REMARK INTRA:                  -0.868
REMARK CONF_INDEPENDENT:        1.193
REMARK UNBOUND:                -0.868
REMARK  4 active torsions:
REMARK  status: ('A' for Active; 'I' for Inactive)
REMARK    1  A    between atoms: O_2  and  C_3 
REMARK    2  A    between atoms: C_8  and  N_9 
REMARK       I    between atoms: N_9  and  C_10 
REMARK       I    between atoms: C_10  and  N_12 
REMARK    3  A    between atoms: N_12  and  N_13 
REMARK    4  A    between atoms: N_13  and  C_14 
ROOT
ATOM      1  N   UNL d   1      21.680 -18.932   0.804  0.00  0.00    -0.305 N 
ATOM      2  C   UNL d   1      22.123 -18.076  -0.209  0.00  0.00     0.339 C 
ATOM      3  O   UNL d   1      21.387 -17.480  -1.002  0.00  0.00    -0.245 OA
ATOM      4  N   UNL d   1      23.515 -18.140  -0.414  0.00  0.00    -0.251 N 
ATOM      5  H   UNL d   1      22.230 -18.974   1.648  0.00  0.00     0.171 HD
ATOM      6  H   UNL d   1      24.143 -18.104   0.382  0.00  0.00     0.191 HD
ENDROOT
BRANCH   1   7
ATOM      7  C   UNL d   1      20.423 -19.627   0.803  0.00  0.00     0.069 C 
ATOM      8  C   UNL d   1      19.692 -19.703  -0.401  0.00  0.00     0.032 C 
ATOM      9  C   UNL d   1      18.497 -20.446  -0.494  0.00  0.00     0.002 C 
ATOM     10  C   UNL d   1      18.013 -21.133   0.613  0.00  0.00     0.003 C 
ATOM     11  C   UNL d   1      18.665 -20.981   1.833  0.00  0.00     0.039 C 
ATOM     12  C   UNL d   1      19.832 -20.199   1.946  0.00  0.00     0.095 C 
BRANCH  12  13
ATOM     13  O   UNL d   1      20.278 -20.081   3.235  0.00  0.00    -0.354 OA
ATOM     14  C   UNL d   1      19.566 -20.825   4.220  0.00  0.00     0.210 C 
ENDBRANCH  12  13
ENDBRANCH   1   7
BRANCH   4  15
ATOM     15  N   UNL d   1      23.972 -17.490  -1.584  0.00  0.00    -0.294 N 
ATOM     16  H   UNL d   1      23.638 -17.921  -2.452  0.00  0.00     0.187 HD
BRANCH  15  17
ATOM     17  C   UNL d   1      25.274 -16.958  -1.653  0.00  0.00     0.086 A 
ATOM     18  C   UNL d   1      25.496 -15.941  -2.601  0.00  0.00     0.034 A 
ATOM     19  C   UNL d   1      26.737 -15.302  -2.719  0.00  0.00     0.002 A 
ATOM     20  C   UNL d   1      27.780 -15.651  -1.867  0.00  0.00     0.003 A 
ATOM     21  C   UNL d   1      27.593 -16.674  -0.938  0.00  0.00     0.045 A 
ATOM     22  C   UNL d   1      26.354 -17.320  -0.840  0.00  0.00     0.144 A 
ATOM     23  F   UNL d   1      26.226 -18.305   0.061  0.00  0.00    -0.204 F 
ENDBRANCH  15  17
ENDBRANCH   4  15
TORSDOF 4
ENDMDL
MODEL 5
REMARK VINA RESULT:    -7.050      1.290      2.320
REMARK INTER + INTRA:          -9.597
REMARK INTER:                  -8.243
REMARK INTRA:                  -1.354
REMARK CONF_INDEPENDENT:        1.193
REMARK UNBOUND:                -1.354
REMARK  4 active torsions:
REMARK  status: ('A' for Active; 'I' for Inactive)
REMARK    1  A    between atoms: O_2  and  C_3 
REMARK    2  A    between atoms: C_8  and  N_9 
REMARK       I    between atoms: N_9  and  C_10 
REMARK       I    between atoms: C_10  and  N_12 
REMARK    3  A    between atoms: N_12  and  N_13 
REMARK    4  A    between atoms: N_13  and  C_14 
ROOT
ATOM      1  N   UNL d   1      23.796 -18.218  -1.513  0.00  0.00    -0.305 N 
ATOM      2  C   UNL d   1      22.474 -17.835  -1.270  0.00  0.00     0.339 C 
ATOM      3  O   UNL d   1      22.133 -16.782  -0.720  0.00  0.00    -0.245 OA
ATOM      4  N   UNL d   1      21.551 -18.876  -1.485  0.00  0.00    -0.251 N 
ATOM      5  H   UNL d   1      23.973 -18.776  -2.333  0.00  0.00     0.171 HD
ATOM      6  H   UNL d   1      21.609 -19.434  -2.329  0.00  0.00     0.191 HD
ENDROOT
BRANCH   1   7
ATOM      7  C   UNL d   1      24.938 -17.744  -0.781  0.00  0.00     0.069 C 
ATOM      8  C   UNL d   1      25.482 -18.563   0.230  0.00  0.00     0.032 C 
ATOM      9  C   UNL d   1      26.655 -18.199   0.923  0.00  0.00     0.002 C 
ATOM     10  C   UNL d   1      27.311 -17.013   0.615  0.00  0.00     0.003 C 
ATOM     11  C   UNL d   1      26.727 -16.145  -0.304  0.00  0.00     0.039 C 
ATOM     12  C   UNL d   1      25.528 -16.478  -0.965  0.00  0.00     0.095 C 
BRANCH  12  13
ATOM     13  O   UNL d   1      25.050 -15.467  -1.755  0.00  0.00    -0.354 OA
ATOM     14  C   UNL d   1      25.635 -15.348  -3.049  0.00  0.00     0.210 C 
ENDBRANCH  12  13
ENDBRANCH   1   7
BRANCH   4  15
ATOM     15  N   UNL d   1      20.243 -18.616  -1.014  0.00  0.00    -0.294 N 
ATOM     16  H   UNL d   1      20.029 -17.618  -0.922  0.00  0.00     0.187 HD
BRANCH  15  17
ATOM     17  C   UNL d   1      19.650 -19.438  -0.037  0.00  0.00     0.086 A 
ATOM     18  C   UNL d   1      18.586 -20.261  -0.457  0.00  0.00     0.034 A 
ATOM     19  C   UNL d   1      17.959 -21.158   0.417  0.00  0.00     0.002 A 
ATOM     20  C   UNL d   1      18.404 -21.272   1.730  0.00  0.00     0.003 A 
ATOM     21  C   UNL d   1      19.439 -20.450   2.177  0.00  0.00     0.045 A 
ATOM     22  C   UNL d   1      20.046 -19.542   1.301  0.00  0.00     0.144 A 
ATOM     23  F   UNL d   1      21.030 -18.765   1.780  0.00  0.00    -0.204 F 
ENDBRANCH  15  17
ENDBRANCH   4  15
TORSDOF 4
ENDMDL
MODEL 6
REMARK VINA RESULT:    -6.560      2.312      7.492
REMARK INTER + INTRA:          -8.832
REMARK INTER:                  -7.753
REMARK INTRA:                  -1.079
REMARK CONF_INDEPENDENT:        1.193
REMARK UNBOUND:                -1.079
REMARK  4 active torsions:
REMARK  status: ('A' for Active; 'I' for Inactive)
REMARK    1  A    between atoms: O_2  and  C_3 
REMARK    2  A    between atoms: C_8  and  N_9 
REMARK       I    between atoms: N_9  and  C_10 
REMARK       I    between atoms: C_10  and  N_12 
REMARK    3  A    between atoms: N_12  and  N_13 
REMARK    4  A    between atoms: N_13  and  C_14 
ROOT
ATOM      1  N   UNL d   1      22.581 -18.200   0.591  0.00  0.00    -0.305 N 
ATOM      2  C   UNL d   1      22.892 -17.040  -0.123  0.00  0.00     0.339 C 
ATOM      3  O   UNL d   1      22.063 -16.283  -0.639  0.00  0.00    -0.245 OA
ATOM      4  N   UNL d   1      24.264 -16.929  -0.422  0.00  0.00    -0.251 N 
ATOM      5  H   UNL d   1      23.200 -18.462   1.343  0.00  0.00     0.171 HD
ATOM      6  H   UNL d   1      24.952 -17.095   0.303  0.00  0.00     0.191 HD
ENDROOT
BRANCH   1   7
ATOM      7  C   UNL d   1      21.367 -18.955   0.446  0.00  0.00     0.069 C 
ATOM      8  C   UNL d   1      20.655 -19.322   1.606  0.00  0.00     0.032 C 
ATOM      9  C   UNL d   1      19.411 -19.984   1.532  0.00  0.00     0.002 C 
ATOM     10  C   UNL d   1      18.852 -20.283   0.296  0.00  0.00     0.003 C 
ATOM     11  C   UNL d   1      19.591 -20.022  -0.854  0.00  0.00     0.039 C 
ATOM     12  C   UNL d   1      20.857 -19.408  -0.787  0.00  0.00     0.095 C 
BRANCH  12  13
ATOM     13  O   UNL d   1      21.479 -19.321  -2.003  0.00  0.00    -0.354 OA
ATOM     14  C   UNL d   1      22.905 -19.324  -1.984  0.00  0.00     0.210 C 
ENDBRANCH  12  13
ENDBRANCH   1   7
BRANCH   4  15
ATOM     15  N   UNL d   1      24.588 -15.913  -1.351  0.00  0.00    -0.294 N 
ATOM     16  H   UNL d   1      23.793 -15.605  -1.919  0.00  0.00     0.187 HD
BRANCH  15  17
ATOM     17  C   UNL d   1      25.826 -15.915  -2.022  0.00  0.00     0.086 A 
ATOM     18  C   UNL d   1      25.867 -15.288  -3.283  0.00  0.00     0.034 A 
ATOM     19  C   UNL d   1      27.057 -15.183  -4.014  0.00  0.00     0.002 A 
ATOM     20  C   UNL d   1      28.243 -15.682  -3.484  0.00  0.00     0.003 A 
ATOM     21  C   UNL d   1      28.223 -16.330  -2.249  0.00  0.00     0.045 A 
ATOM     22  C   UNL d   1      27.025 -16.447  -1.534  0.00  0.00     0.144 A 
ATOM     23  F   UNL d   1      27.053 -17.088  -0.356  0.00  0.00    -0.204 F 
ENDBRANCH  15  17
ENDBRANCH   4  15
TORSDOF 4
ENDMDL
MODEL 7
REMARK VINA RESULT:    -6.329      3.831      8.441
REMARK INTER + INTRA:          -8.838
REMARK INTER:                  -7.522
REMARK INTRA:                  -1.316
REMARK CONF_INDEPENDENT:        1.193
REMARK UNBOUND:                -1.316
REMARK  4 active torsions:
REMARK  status: ('A' for Active; 'I' for Inactive)
REMARK    1  A    between atoms: O_2  and  C_3 
REMARK    2  A    between atoms: C_8  and  N_9 
REMARK       I    between atoms: N_9  and  C_10 
REMARK       I    between atoms: C_10  and  N_12 
REMARK    3  A    between atoms: N_12  and  N_13 
REMARK    4  A    between atoms: N_13  and  C_14 
ROOT
ATOM      1  N   UNL d   1      25.557 -15.763  -1.236  0.00  0.00    -0.305 N 
ATOM      2  C   UNL d   1      25.592 -15.060  -2.443  0.00  0.00     0.339 C 
ATOM      3  O   UNL d   1      24.611 -14.836  -3.160  0.00  0.00    -0.245 OA
ATOM      4  N   UNL d   1      26.901 -14.832  -2.910  0.00  0.00    -0.251 N 
ATOM      5  H   UNL d   1      26.219 -15.494  -0.524  0.00  0.00     0.171 HD
ATOM      6  H   UNL d   1      27.609 -14.482  -2.273  0.00  0.00     0.191 HD
ENDROOT
BRANCH   1   7
ATOM      7  C   UNL d   1      24.551 -16.721  -0.871  0.00  0.00     0.069 C 
ATOM      8  C   UNL d   1      23.197 -16.325  -0.895  0.00  0.00     0.032 C 
ATOM      9  C   UNL d   1      22.155 -17.239  -0.636  0.00  0.00     0.002 C 
ATOM     10  C   UNL d   1      22.445 -18.569  -0.356  0.00  0.00     0.003 C 
ATOM     11  C   UNL d   1      23.777 -18.950  -0.225  0.00  0.00     0.039 C 
ATOM     12  C   UNL d   1      24.825 -18.031  -0.431  0.00  0.00     0.095 C 
BRANCH  12  13
ATOM     13  O   UNL d   1      26.061 -18.553  -0.162  0.00  0.00    -0.354 OA
ATOM     14  C   UNL d   1      26.940 -17.733   0.605  0.00  0.00     0.210 C 
ENDBRANCH  12  13
ENDBRANCH   1   7
BRANCH   4  15
ATOM     15  N   UNL d   1      26.983 -14.354  -4.238  0.00  0.00    -0.294 N 
ATOM     16  H   UNL d   1      26.071 -14.249  -4.695  0.00  0.00     0.187 HD
BRANCH  15  17
ATOM     17  C   UNL d   1      28.025 -14.762  -5.091  0.00  0.00     0.086 A 
ATOM     18  C   UNL d   1      28.155 -14.075  -6.313  0.00  0.00     0.034 A 
ATOM     19  C   UNL d   1      29.189 -14.361  -7.214  0.00  0.00     0.002 A 
ATOM     20  C   UNL d   1      30.138 -15.327  -6.895  0.00  0.00     0.003 A 
ATOM     21  C   UNL d   1      30.017 -16.040  -5.702  0.00  0.00     0.045 A 
ATOM     22  C   UNL d   1      28.968 -15.760  -4.818  0.00  0.00     0.144 A 
ATOM     23  F   UNL d   1      28.887 -16.479  -3.688  0.00  0.00    -0.204 F 
ENDBRANCH  15  17
ENDBRANCH   4  15
TORSDOF 4
ENDMDL
MODEL 8
REMARK VINA RESULT:    -6.316      4.178      8.580
REMARK INTER + INTRA:          -8.886
REMARK INTER:                  -7.510
REMARK INTRA:                  -1.377
REMARK CONF_INDEPENDENT:        1.193
REMARK UNBOUND:                -1.377
REMARK  4 active torsions:
REMARK  status: ('A' for Active; 'I' for Inactive)
REMARK    1  A    between atoms: O_2  and  C_3 
REMARK    2  A    between atoms: C_8  and  N_9 
REMARK       I    between atoms: N_9  and  C_10 
REMARK       I    between atoms: C_10  and  N_12 
REMARK    3  A    between atoms: N_12  and  N_13 
REMARK    4  A    between atoms: N_13  and  C_14 
ROOT
ATOM      1  N   UNL d   1      25.552 -15.773  -1.298  0.00  0.00    -0.305 N 
ATOM      2  C   UNL d   1      25.689 -15.234  -2.580  0.00  0.00     0.339 C 
ATOM      3  O   UNL d   1      24.782 -15.158  -3.415  0.00  0.00    -0.245 OA
ATOM      4  N   UNL d   1      27.031 -15.001  -2.938  0.00  0.00    -0.251 N 
ATOM      5  H   UNL d   1      26.122 -15.379  -0.566  0.00  0.00     0.171 HD
ATOM      6  H   UNL d   1      27.652 -14.534  -2.287  0.00  0.00     0.191 HD
ENDROOT
BRANCH   1   7
ATOM      7  C   UNL d   1      24.550 -16.727  -0.909  0.00  0.00     0.069 C 
ATOM      8  C   UNL d   1      23.199 -16.322  -0.896  0.00  0.00     0.032 C 
ATOM      9  C   UNL d   1      22.158 -17.231  -0.613  0.00  0.00     0.002 C 
ATOM     10  C   UNL d   1      22.447 -18.564  -0.344  0.00  0.00     0.003 C 
ATOM     11  C   UNL d   1      23.780 -18.953  -0.249  0.00  0.00     0.039 C 
ATOM     12  C   UNL d   1      24.828 -18.039  -0.480  0.00  0.00     0.095 C 
BRANCH  12  13
ATOM     13  O   UNL d   1      26.067 -18.570  -0.245  0.00  0.00    -0.354 OA
ATOM     14  C   UNL d   1      26.927 -17.813   0.605  0.00  0.00     0.210 C 
ENDBRANCH  12  13
ENDBRANCH   1   7
BRANCH   4  15
ATOM     15  N   UNL d   1      27.236 -14.698  -4.304  0.00  0.00    -0.294 N 
ATOM     16  H   UNL d   1      26.373 -14.683  -4.857  0.00  0.00     0.187 HD
BRANCH  15  17
ATOM     17  C   UNL d   1      28.366 -15.182  -4.991  0.00  0.00     0.086 A 
ATOM     18  C   UNL d   1      29.115 -16.189  -4.353  0.00  0.00     0.034 A 
ATOM     19  C   UNL d   1      30.226 -16.781  -4.967  0.00  0.00     0.002 A 
ATOM     20  C   UNL d   1      30.596 -16.395  -6.252  0.00  0.00     0.003 A 
ATOM     21  C   UNL d   1      29.885 -15.382  -6.894  0.00  0.00     0.045 A 
ATOM     22  C   UNL d   1      28.787 -14.782  -6.264  0.00  0.00     0.144 A 
ATOM     23  F   UNL d   1      28.142 -13.804  -6.917  0.00  0.00    -0.204 F 
ENDBRANCH  15  17
ENDBRANCH   4  15
TORSDOF 4
ENDMDL
MODEL 9
REMARK VINA RESULT:    -6.058      4.766      8.225
REMARK INTER + INTRA:          -8.647
REMARK INTER:                  -7.251
REMARK INTRA:                  -1.395
REMARK CONF_INDEPENDENT:        1.193
REMARK UNBOUND:                -1.395
REMARK  4 active torsions:
REMARK  status: ('A' for Active; 'I' for Inactive)
REMARK    1  A    between atoms: O_2  and  C_3 
REMARK    2  A    between atoms: C_8  and  N_9 
REMARK       I    between atoms: N_9  and  C_10 
REMARK       I    between atoms: C_10  and  N_12 
REMARK    3  A    between atoms: N_12  and  N_13 
REMARK    4  A    between atoms: N_13  and  C_14 
ROOT
ATOM      1  N   UNL d   1      26.465 -15.222  -0.117  0.00  0.00    -0.305 N 
ATOM      2  C   UNL d   1      27.669 -15.373   0.577  0.00  0.00     0.339 C 
ATOM      3  O   UNL d   1      28.325 -16.419   0.635  0.00  0.00    -0.245 OA
ATOM      4  N   UNL d   1      27.957 -14.285   1.424  0.00  0.00    -0.251 N 
ATOM      5  H   UNL d   1      26.270 -14.316  -0.512  0.00  0.00     0.171 HD
ATOM      6  H   UNL d   1      27.864 -13.338   1.075  0.00  0.00     0.191 HD
ENDROOT
BRANCH   1   7
ATOM      7  C   UNL d   1      25.568 -16.293  -0.450  0.00  0.00     0.069 C 
ATOM      8  C   UNL d   1      25.683 -17.515   0.246  0.00  0.00     0.032 C 
ATOM      9  C   UNL d   1      24.777 -18.575   0.032  0.00  0.00     0.002 C 
ATOM     10  C   UNL d   1      23.734 -18.431  -0.875  0.00  0.00     0.003 C 
ATOM     11  C   UNL d   1      23.672 -17.274  -1.645  0.00  0.00     0.039 C 
ATOM     12  C   UNL d   1      24.603 -16.230  -1.474  0.00  0.00     0.095 C 
BRANCH  12  13
ATOM     13  O   UNL d   1      24.450 -15.217  -2.382  0.00  0.00    -0.354 OA
ATOM     14  C   UNL d   1      25.520 -15.029  -3.305  0.00  0.00     0.210 C 
ENDBRANCH  12  13
ENDBRANCH   1   7
BRANCH   4  15
ATOM     15  N   UNL d   1      29.023 -14.503   2.327  0.00  0.00    -0.294 N 
ATOM     16  H   UNL d   1      29.592 -15.325   2.104  0.00  0.00     0.187 HD
BRANCH  15  17
ATOM     17  C   UNL d   1      28.866 -14.252   3.704  0.00  0.00     0.086 A 
ATOM     18  C   UNL d   1      29.899 -14.693   4.553  0.00  0.00     0.034 A 
ATOM     19  C   UNL d   1      29.875 -14.449   5.932  0.00  0.00     0.002 A 
ATOM     20  C   UNL d   1      28.823 -13.728   6.489  0.00  0.00     0.003 A 
ATOM     21  C   UNL d   1      27.775 -13.302   5.673  0.00  0.00     0.045 A 
ATOM     22  C   UNL d   1      27.799 -13.568   4.299  0.00  0.00     0.144 A 
ATOM     23  F   UNL d   1      26.764 -13.148   3.556  0.00  0.00    -0.204 F 
ENDBRANCH  15  17
ENDBRANCH   4  15
TORSDOF 4
ENDMDL
