MODEL 1
REMARK VINA RESULT:    -9.215      0.000      0.000
REMARK INTER + INTRA:         -12.328
REMARK INTER:                 -11.303
REMARK INTRA:                  -1.025
REMARK CONF_INDEPENDENT:        2.088
REMARK UNBOUND:                -1.025
REMARK  7 active torsions:
REMARK  status: ('A' for Active; 'I' for Inactive)
REMARK    1  A    between atoms: C_5  and  N_6 
REMARK    2  A    between atoms: C_10  and  N_11 
REMARK       I    between atoms: N_11  and  C_12 
REMARK    3  A    between atoms: C_12  and  C_14 
REMARK    4  A    between atoms: C_18  and  N_19 
REMARK       I    between atoms: N_19  and  C_20 
REMARK    5  A    between atoms: C_20  and  C_22 
REMARK    6  A    between atoms: C_22  and  C_23 
REMARK    7  A    between atoms: C_23  and  N_24 
ROOT
ATOM      1  C   UNL d   1      25.354 -14.819  -2.702  0.00  0.00     0.034 C 
ATOM      2  C   UNL d   1      26.414 -14.303  -1.948  0.00  0.00     0.017 C 
ATOM      3  C   UNL d   1      26.895 -15.032  -0.848  0.00  0.00     0.003 C 
ATOM      4  C   UNL d   1      26.286 -16.246  -0.458  0.00  0.00     0.029 C 
ATOM      5  C   UNL d   1      25.209 -16.761  -1.193  0.00  0.00     0.035 C 
ATOM      6  C   UNL d   1      24.846 -16.086  -2.369  0.00  0.00     0.046 C 
ENDROOT
BRANCH   1   7
ATOM      7  C   UNL d   1      24.574 -13.917  -3.636  0.00  0.00     0.256 C 
ATOM      8  N   UNL d   1      25.227 -12.881  -4.309  0.00  0.00    -0.322 N 
ATOM      9  H   UNL d   1      24.654 -12.047  -4.395  0.00  0.00     0.169 HD
ATOM     10  O   UNL d   1      23.375 -14.075  -3.774  0.00  0.00    -0.267 OA
BRANCH   8  11
ATOM     11  C   UNL d   1      26.397 -12.935  -5.127  0.00  0.00     0.043 C 
ATOM     12  C   UNL d   1      27.159 -14.128  -5.092  0.00  0.00     0.066 C 
ATOM     13  C   UNL d   1      28.254 -14.292  -5.965  0.00  0.00     0.105 C 
ATOM     14  C   UNL d   1      28.589 -13.297  -6.885  0.00  0.00     0.037 C 
ATOM     15  C   UNL d   1      27.875 -12.111  -6.886  0.00  0.00     0.011 C 
ATOM     16  C   UNL d   1      26.833 -11.883  -5.972  0.00  0.00    -0.035 C 
ATOM     17  C   UNL d   1      26.279 -10.488  -5.999  0.00  0.00     0.050 C 
BRANCH  13  18
ATOM     18  N   UNL d   1      29.052 -15.525  -5.961  0.00  0.00    -0.116 N 
ATOM     19  O   UNL d   1      28.872 -16.319  -5.022  0.00  0.00    -0.532 OA
ATOM     20  O   UNL d   1      29.876 -15.691  -6.868  0.00  0.00    -0.532 OA
ENDBRANCH  13  18
ENDBRANCH   8  11
ENDBRANCH   1   7
BRANCH   5  21
ATOM     21  N   UNL d   1      24.432 -17.860  -0.697  0.00  0.00    -0.327 N 
ATOM     22  C   UNL d   1      23.045 -17.833  -0.554  0.00  0.00     0.223 C 
ATOM     23  O   UNL d   1      22.317 -16.867  -0.735  0.00  0.00    -0.273 OA
ATOM     24  H   UNL d   1      24.955 -18.653  -0.340  0.00  0.00     0.169 HD
BRANCH  22  25
ATOM     25  C   UNL d   1      22.372 -19.120  -0.149  0.00  0.00     0.123 C 
BRANCH  25  26
ATOM     26  C   UNL d   1      20.929 -19.087  -0.696  0.00  0.00     0.138 C 
BRANCH  26  27
ATOM     27  N   UNL d   1      19.995 -19.745   0.225  0.00  0.00    -0.351 N 
ATOM     28  C   UNL d   1      18.807 -20.384  -0.115  0.00  0.00     0.108 A 
ATOM     29  C   UNL d   1      18.324 -20.940   1.037  0.00  0.00     0.106 A 
ATOM     30  N   UNL d   1      19.194 -20.574   2.037  0.00  0.00    -0.361 N 
ATOM     31  C   UNL d   1      20.168 -19.804   1.553  0.00  0.00     0.182 A 
ATOM     32  H   UNL d   1      19.109 -20.835   3.016  0.00  0.00     0.166 HD
ENDBRANCH  26  27
ENDBRANCH  25  26
ENDBRANCH  22  25
ENDBRANCH   5  21
TORSDOF 7
ENDMDL
MODEL 2
REMARK VINA RESULT:    -8.822      2.087      2.647
REMARK INTER + INTRA:         -11.952
REMARK INTER:                 -10.910
REMARK INTRA:                  -1.042
REMARK CONF_INDEPENDENT:        2.088
REMARK UNBOUND:                -1.042
REMARK  7 active torsions:
REMARK  status: ('A' for Active; 'I' for Inactive)
REMARK    1  A    between atoms: C_5  and  N_6 
REMARK    2  A    between atoms: C_10  and  N_11 
REMARK       I    between atoms: N_11  and  C_12 
REMARK    3  A    between atoms: C_12  and  C_14 
REMARK    4  A    between atoms: C_18  and  N_19 
REMARK       I    between atoms: N_19  and  C_20 
REMARK    5  A    between atoms: C_20  and  C_22 
REMARK    6  A    between atoms: C_22  and  C_23 
REMARK    7  A    between atoms: C_23  and  N_24 
ROOT
ATOM      1  C   UNL d   1      26.728 -15.136  -0.216  0.00  0.00     0.034 C 
ATOM      2  C   UNL d   1      27.550 -15.954   0.569  0.00  0.00     0.017 C 
ATOM      3  C   UNL d   1      27.353 -17.345   0.552  0.00  0.00     0.003 C 
ATOM      4  C   UNL d   1      26.303 -17.922  -0.197  0.00  0.00     0.029 C 
ATOM      5  C   UNL d   1      25.460 -17.109  -0.969  0.00  0.00     0.035 C 
ATOM      6  C   UNL d   1      25.771 -15.743  -1.046  0.00  0.00     0.046 C 
ENDROOT
BRANCH   1   7
ATOM      7  C   UNL d   1      26.656 -13.648   0.055  0.00  0.00     0.256 C 
ATOM      8  N   UNL d   1      27.148 -12.744  -0.890  0.00  0.00    -0.322 N 
ATOM      9  H   UNL d   1      27.600 -11.939  -0.464  0.00  0.00     0.169 HD
ATOM     10  O   UNL d   1      26.199 -13.242   1.108  0.00  0.00    -0.267 OA
BRANCH   8  11
ATOM     11  C   UNL d   1      26.841 -12.637  -2.281  0.00  0.00     0.043 C 
ATOM     12  C   UNL d   1      26.862 -13.831  -3.042  0.00  0.00     0.066 C 
ATOM     13  C   UNL d   1      26.450 -13.814  -4.391  0.00  0.00     0.105 C 
ATOM     14  C   UNL d   1      25.999 -12.636  -4.986  0.00  0.00     0.037 C 
ATOM     15  C   UNL d   1      26.024 -11.459  -4.256  0.00  0.00     0.011 C 
ATOM     16  C   UNL d   1      26.508 -11.426  -2.938  0.00  0.00    -0.035 C 
ATOM     17  C   UNL d   1      26.622 -10.048  -2.354  0.00  0.00     0.050 C 
BRANCH  13  18
ATOM     18  N   UNL d   1      26.447 -15.041  -5.200  0.00  0.00    -0.116 N 
ATOM     19  O   UNL d   1      25.531 -15.857  -4.998  0.00  0.00    -0.532 OA
ATOM     20  O   UNL d   1      27.365 -15.208  -6.011  0.00  0.00    -0.532 OA
ENDBRANCH  13  18
ENDBRANCH   8  11
ENDBRANCH   1   7
BRANCH   5  21
ATOM     21  N   UNL d   1      24.259 -17.632  -1.553  0.00  0.00    -0.327 N 
ATOM     22  C   UNL d   1      23.465 -18.612  -0.957  0.00  0.00     0.223 C 
ATOM     23  O   UNL d   1      23.716 -19.221   0.073  0.00  0.00    -0.273 OA
ATOM     24  H   UNL d   1      24.053 -17.331  -2.500  0.00  0.00     0.169 HD
BRANCH  22  25
ATOM     25  C   UNL d   1      22.164 -18.950  -1.641  0.00  0.00     0.123 C 
BRANCH  25  26
ATOM     26  C   UNL d   1      21.037 -18.204  -0.897  0.00  0.00     0.138 C 
BRANCH  26  27
ATOM     27  N   UNL d   1      20.199 -19.132  -0.128  0.00  0.00    -0.351 N 
ATOM     28  C   UNL d   1      19.020 -19.733  -0.555  0.00  0.00     0.108 A 
ATOM     29  C   UNL d   1      18.644 -20.595   0.437  0.00  0.00     0.106 A 
ATOM     30  N   UNL d   1      19.566 -20.447   1.447  0.00  0.00    -0.361 N 
ATOM     31  C   UNL d   1      20.469 -19.521   1.126  0.00  0.00     0.182 A 
ATOM     32  H   UNL d   1      19.562 -20.957   2.327  0.00  0.00     0.166 HD
ENDBRANCH  26  27
ENDBRANCH  25  26
ENDBRANCH  22  25
ENDBRANCH   5  21
TORSDOF 7
ENDMDL
MODEL 3
REMARK VINA RESULT:    -8.682      1.557      2.019
REMARK INTER + INTRA:         -11.775
REMARK INTER:                 -10.770
REMARK INTRA:                  -1.006
REMARK CONF_INDEPENDENT:        2.088
REMARK UNBOUND:                -1.006
REMARK  7 active torsions:
REMARK  status: ('A' for Active; 'I' for Inactive)
REMARK    1  A    between atoms: C_5  and  N_6 
REMARK    2  A    between atoms: C_10  and  N_11 
REMARK       I    between atoms: N_11  and  C_12 
REMARK    3  A    between atoms: C_12  and  C_14 
REMARK    4  A    between atoms: C_18  and  N_19 
REMARK       I    between atoms: N_19  and  C_20 
REMARK    5  A    between atoms: C_20  and  C_22 
REMARK    6  A    between atoms: C_22  and  C_23 
REMARK    7  A    between atoms: C_23  and  N_24 
ROOT
ATOM      1  C   UNL d   1      26.146 -14.952  -2.793  0.00  0.00     0.034 C 
ATOM      2  C   UNL d   1      26.720 -14.252  -1.726  0.00  0.00     0.017 C 
ATOM      3  C   UNL d   1      26.661 -14.799  -0.433  0.00  0.00     0.003 C 
ATOM      4  C   UNL d   1      25.979 -16.012  -0.187  0.00  0.00     0.029 C 
ATOM      5  C   UNL d   1      25.381 -16.710  -1.246  0.00  0.00     0.035 C 
ATOM      6  C   UNL d   1      25.582 -16.215  -2.544  0.00  0.00     0.046 C 
ENDROOT
BRANCH   1   7
ATOM      7  C   UNL d   1      25.859 -14.244  -4.101  0.00  0.00     0.256 C 
ATOM      8  N   UNL d   1      26.915 -13.751  -4.871  0.00  0.00    -0.322 N 
ATOM      9  H   UNL d   1      26.691 -12.868  -5.323  0.00  0.00     0.169 HD
ATOM     10  O   UNL d   1      24.708 -14.076  -4.462  0.00  0.00    -0.267 OA
BRANCH   8  11
ATOM     11  C   UNL d   1      28.079 -14.430  -5.345  0.00  0.00     0.043 C 
ATOM     12  C   UNL d   1      28.527 -15.546  -4.597  0.00  0.00     0.066 C 
ATOM     13  C   UNL d   1      29.595 -16.332  -5.076  0.00  0.00     0.105 C 
ATOM     14  C   UNL d   1      30.208 -16.039  -6.295  0.00  0.00     0.037 C 
ATOM     15  C   UNL d   1      29.801 -14.921  -7.003  0.00  0.00     0.011 C 
ATOM     16  C   UNL d   1      28.799 -14.069  -6.512  0.00  0.00    -0.035 C 
ATOM     17  C   UNL d   1      28.599 -12.818  -7.318  0.00  0.00     0.050 C 
BRANCH  13  18
ATOM     18  N   UNL d   1      30.072 -17.504  -4.329  0.00  0.00    -0.116 N 
ATOM     19  O   UNL d   1      30.027 -18.605  -4.903  0.00  0.00    -0.532 OA
ATOM     20  O   UNL d   1      30.460 -17.337  -3.167  0.00  0.00    -0.532 OA
ENDBRANCH  13  18
ENDBRANCH   8  11
ENDBRANCH   1   7
BRANCH   5  21
ATOM     21  N   UNL d   1      24.498 -17.814  -1.001  0.00  0.00    -0.327 N 
ATOM     22  C   UNL d   1      23.113 -17.694  -0.888  0.00  0.00     0.223 C 
ATOM     23  O   UNL d   1      22.473 -16.651  -0.887  0.00  0.00    -0.273 OA
ATOM     24  H   UNL d   1      24.940 -18.705  -0.798  0.00  0.00     0.169 HD
BRANCH  22  25
ATOM     25  C   UNL d   1      22.322 -18.972  -0.767  0.00  0.00     0.123 C 
BRANCH  25  26
ATOM     26  C   UNL d   1      21.607 -18.952   0.600  0.00  0.00     0.138 C 
BRANCH  26  27
ATOM     27  N   UNL d   1      20.298 -19.613   0.528  0.00  0.00    -0.351 N 
ATOM     28  C   UNL d   1      19.625 -20.237   1.573  0.00  0.00     0.108 A 
ATOM     29  C   UNL d   1      18.407 -20.614   1.078  0.00  0.00     0.106 A 
ATOM     30  N   UNL d   1      18.406 -20.263  -0.252  0.00  0.00    -0.361 N 
ATOM     31  C   UNL d   1      19.571 -19.713  -0.594  0.00  0.00     0.182 A 
ATOM     32  H   UNL d   1      17.635 -20.411  -0.899  0.00  0.00     0.166 HD
ENDBRANCH  26  27
ENDBRANCH  25  26
ENDBRANCH  22  25
ENDBRANCH   5  21
TORSDOF 7
ENDMDL
MODEL 4
REMARK VINA RESULT:    -8.299      2.392      3.230
REMARK INTER + INTRA:         -11.474
REMARK INTER:                 -10.387
REMARK INTRA:                  -1.087
REMARK CONF_INDEPENDENT:        2.088
REMARK UNBOUND:                -1.087
REMARK  7 active torsions:
REMARK  status: ('A' for Active; 'I' for Inactive)
REMARK    1  A    between atoms: C_5  and  N_6 
REMARK    2  A    between atoms: C_10  and  N_11 
REMARK       I    between atoms: N_11  and  C_12 
REMARK    3  A    between atoms: C_12  and  C_14 
REMARK    4  A    between atoms: C_18  and  N_19 
REMARK       I    between atoms: N_19  and  C_20 
REMARK    5  A    between atoms: C_20  and  C_22 
REMARK    6  A    between atoms: C_22  and  C_23 
REMARK    7  A    between atoms: C_23  and  N_24 
ROOT
ATOM      1  C   UNL d   1      25.903 -15.827  -3.058  0.00  0.00     0.034 C 
ATOM      2  C   UNL d   1      27.092 -15.585  -2.359  0.00  0.00     0.017 C 
ATOM      3  C   UNL d   1      27.186 -15.967  -1.010  0.00  0.00     0.003 C 
ATOM      4  C   UNL d   1      26.081 -16.535  -0.336  0.00  0.00     0.029 C 
ATOM      5  C   UNL d   1      24.879 -16.761  -1.022  0.00  0.00     0.035 C 
ATOM      6  C   UNL d   1      24.862 -16.505  -2.401  0.00  0.00     0.046 C 
ENDROOT
BRANCH   1   7
ATOM      7  C   UNL d   1      25.630 -15.110  -4.364  0.00  0.00     0.256 C 
ATOM      8  N   UNL d   1      25.258 -13.764  -4.353  0.00  0.00    -0.322 N 
ATOM      9  H   UNL d   1      24.570 -13.541  -5.067  0.00  0.00     0.169 HD
ATOM     10  O   UNL d   1      25.702 -15.716  -5.417  0.00  0.00    -0.267 OA
BRANCH   8  11
ATOM     11  C   UNL d   1      25.907 -12.654  -3.730  0.00  0.00     0.043 C 
ATOM     12  C   UNL d   1      26.194 -12.764  -2.347  0.00  0.00     0.066 C 
ATOM     13  C   UNL d   1      26.941 -11.758  -1.700  0.00  0.00     0.105 C 
ATOM     14  C   UNL d   1      27.424 -10.659  -2.410  0.00  0.00     0.037 C 
ATOM     15  C   UNL d   1      27.103 -10.527  -3.750  0.00  0.00     0.011 C 
ATOM     16  C   UNL d   1      26.290 -11.467  -4.404  0.00  0.00    -0.035 C 
ATOM     17  C   UNL d   1      25.905 -11.087  -5.804  0.00  0.00     0.050 C 
BRANCH  13  18
ATOM     18  N   UNL d   1      27.265 -11.853  -0.270  0.00  0.00    -0.116 N 
ATOM     19  O   UNL d   1      28.148 -11.094   0.167  0.00  0.00    -0.532 OA
ATOM     20  O   UNL d   1      26.670 -12.697   0.409  0.00  0.00    -0.532 OA
ENDBRANCH  13  18
ENDBRANCH   8  11
ENDBRANCH   1   7
BRANCH   5  21
ATOM     21  N   UNL d   1      23.682 -17.121  -0.318  0.00  0.00    -0.327 N 
ATOM     22  C   UNL d   1      22.946 -18.278  -0.573  0.00  0.00     0.223 C 
ATOM     23  O   UNL d   1      23.151 -19.085  -1.469  0.00  0.00    -0.273 OA
ATOM     24  H   UNL d   1      23.315 -16.428   0.325  0.00  0.00     0.169 HD
BRANCH  22  25
ATOM     25  C   UNL d   1      21.792 -18.574   0.351  0.00  0.00     0.123 C 
BRANCH  25  26
ATOM     26  C   UNL d   1      20.657 -19.185  -0.498  0.00  0.00     0.138 C 
BRANCH  26  27
ATOM     27  N   UNL d   1      19.712 -19.937   0.336  0.00  0.00    -0.351 N 
ATOM     28  C   UNL d   1      19.790 -20.129   1.711  0.00  0.00     0.108 A 
ATOM     29  C   UNL d   1      18.651 -20.792   2.074  0.00  0.00     0.106 A 
ATOM     30  N   UNL d   1      17.955 -21.029   0.912  0.00  0.00    -0.361 N 
ATOM     31  C   UNL d   1      18.627 -20.564  -0.141  0.00  0.00     0.182 A 
ATOM     32  H   UNL d   1      17.058 -21.505   0.848  0.00  0.00     0.166 HD
ENDBRANCH  26  27
ENDBRANCH  25  26
ENDBRANCH  22  25
ENDBRANCH   5  21
TORSDOF 7
ENDMDL
MODEL 5
REMARK VINA RESULT:    -7.878      2.148      3.826
REMARK INTER + INTRA:         -12.013
REMARK INTER:                  -9.966
REMARK INTRA:                  -2.047
REMARK CONF_INDEPENDENT:        2.088
REMARK UNBOUND:                -2.047
REMARK  7 active torsions:
REMARK  status: ('A' for Active; 'I' for Inactive)
REMARK    1  A    between atoms: C_5  and  N_6 
REMARK    2  A    between atoms: C_10  and  N_11 
REMARK       I    between atoms: N_11  and  C_12 
REMARK    3  A    between atoms: C_12  and  C_14 
REMARK    4  A    between atoms: C_18  and  N_19 
REMARK       I    between atoms: N_19  and  C_20 
REMARK    5  A    between atoms: C_20  and  C_22 
REMARK    6  A    between atoms: C_22  and  C_23 
REMARK    7  A    between atoms: C_23  and  N_24 
ROOT
ATOM      1  C   UNL d   1      28.989 -16.294  -1.023  0.00  0.00     0.034 C 
ATOM      2  C   UNL d   1      29.352 -15.305  -0.101  0.00  0.00     0.017 C 
ATOM      3  C   UNL d   1      28.368 -14.750   0.735  0.00  0.00     0.003 C 
ATOM      4  C   UNL d   1      27.013 -15.132   0.616  0.00  0.00     0.029 C 
ATOM      5  C   UNL d   1      26.636 -16.106  -0.320  0.00  0.00     0.035 C 
ATOM      6  C   UNL d   1      27.659 -16.745  -1.037  0.00  0.00     0.046 C 
ENDROOT
BRANCH   1   7
ATOM      7  C   UNL d   1      29.913 -16.638  -2.172  0.00  0.00     0.256 C 
ATOM      8  N   UNL d   1      29.398 -16.769  -3.464  0.00  0.00    -0.322 N 
ATOM      9  H   UNL d   1      29.849 -17.510  -3.993  0.00  0.00     0.169 HD
ATOM     10  O   UNL d   1      31.097 -16.832  -1.964  0.00  0.00    -0.267 OA
BRANCH   8  11
ATOM     11  C   UNL d   1      28.597 -15.853  -4.212  0.00  0.00     0.043 C 
ATOM     12  C   UNL d   1      27.298 -15.576  -3.719  0.00  0.00     0.066 C 
ATOM     13  C   UNL d   1      26.504 -14.590  -4.341  0.00  0.00     0.105 C 
ATOM     14  C   UNL d   1      26.989 -13.863  -5.429  0.00  0.00     0.037 C 
ATOM     15  C   UNL d   1      28.239 -14.167  -5.940  0.00  0.00     0.011 C 
ATOM     16  C   UNL d   1      29.020 -15.201  -5.397  0.00  0.00    -0.035 C 
ATOM     17  C   UNL d   1      30.269 -15.506  -6.173  0.00  0.00     0.050 C 
BRANCH  13  18
ATOM     18  N   UNL d   1      25.159 -14.272  -3.843  0.00  0.00    -0.116 N 
ATOM     19  O   UNL d   1      24.927 -14.494  -2.642  0.00  0.00    -0.532 OA
ATOM     20  O   UNL d   1      24.327 -13.832  -4.645  0.00  0.00    -0.532 OA
ENDBRANCH  13  18
ENDBRANCH   8  11
ENDBRANCH   1   7
BRANCH   5  21
ATOM     21  N   UNL d   1      25.254 -16.349  -0.619  0.00  0.00    -0.327 N 
ATOM     22  C   UNL d   1      24.640 -17.597  -0.511  0.00  0.00     0.223 C 
ATOM     23  O   UNL d   1      25.193 -18.655  -0.245  0.00  0.00    -0.273 OA
ATOM     24  H   UNL d   1      24.741 -15.575  -1.029  0.00  0.00     0.169 HD
BRANCH  22  25
ATOM     25  C   UNL d   1      23.150 -17.650  -0.731  0.00  0.00     0.123 C 
BRANCH  25  26
ATOM     26  C   UNL d   1      22.550 -18.577   0.347  0.00  0.00     0.138 C 
BRANCH  26  27
ATOM     27  N   UNL d   1      21.212 -19.044  -0.036  0.00  0.00    -0.351 N 
ATOM     28  C   UNL d   1      20.291 -19.687   0.785  0.00  0.00     0.108 A 
ATOM     29  C   UNL d   1      19.152 -19.838   0.044  0.00  0.00     0.106 A 
ATOM     30  N   UNL d   1      19.436 -19.340  -1.206  0.00  0.00    -0.361 N 
ATOM     31  C   UNL d   1      20.698 -18.916  -1.268  0.00  0.00     0.182 A 
ATOM     32  H   UNL d   1      18.786 -19.307  -1.989  0.00  0.00     0.166 HD
ENDBRANCH  26  27
ENDBRANCH  25  26
ENDBRANCH  22  25
ENDBRANCH   5  21
TORSDOF 7
ENDMDL
MODEL 6
REMARK VINA RESULT:    -7.269      3.884      8.268
REMARK INTER + INTRA:         -11.786
REMARK INTER:                  -9.357
REMARK INTRA:                  -2.429
REMARK CONF_INDEPENDENT:        2.088
REMARK UNBOUND:                -2.429
REMARK  7 active torsions:
REMARK  status: ('A' for Active; 'I' for Inactive)
REMARK    1  A    between atoms: C_5  and  N_6 
REMARK    2  A    between atoms: C_10  and  N_11 
REMARK       I    between atoms: N_11  and  C_12 
REMARK    3  A    between atoms: C_12  and  C_14 
REMARK    4  A    between atoms: C_18  and  N_19 
REMARK       I    between atoms: N_19  and  C_20 
REMARK    5  A    between atoms: C_20  and  C_22 
REMARK    6  A    between atoms: C_22  and  C_23 
REMARK    7  A    between atoms: C_23  and  N_24 
ROOT
ATOM      1  C   UNL d   1      26.045 -16.765  -0.357  0.00  0.00     0.034 C 
ATOM      2  C   UNL d   1      24.732 -17.236  -0.234  0.00  0.00     0.017 C 
ATOM      3  C   UNL d   1      23.734 -16.719  -1.079  0.00  0.00     0.003 C 
ATOM      4  C   UNL d   1      24.025 -15.692  -2.003  0.00  0.00     0.029 C 
ATOM      5  C   UNL d   1      25.332 -15.197  -2.118  0.00  0.00     0.035 C 
ATOM      6  C   UNL d   1      26.333 -15.832  -1.367  0.00  0.00     0.046 C 
ENDROOT
BRANCH   1   7
ATOM      7  C   UNL d   1      27.046 -17.007   0.753  0.00  0.00     0.256 C 
ATOM      8  N   UNL d   1      28.011 -16.039   1.043  0.00  0.00    -0.322 N 
ATOM      9  H   UNL d   1      28.908 -16.443   1.299  0.00  0.00     0.169 HD
ATOM     10  O   UNL d   1      27.030 -18.057   1.369  0.00  0.00    -0.267 OA
BRANCH   8  11
ATOM     11  C   UNL d   1      27.837 -14.650   1.326  0.00  0.00     0.043 C 
ATOM     12  C   UNL d   1      27.707 -13.774   0.220  0.00  0.00     0.066 C 
ATOM     13  C   UNL d   1      27.411 -12.412   0.432  0.00  0.00     0.105 C 
ATOM     14  C   UNL d   1      27.222 -11.913   1.721  0.00  0.00     0.037 C 
ATOM     15  C   UNL d   1      27.398 -12.758   2.803  0.00  0.00     0.011 C 
ATOM     16  C   UNL d   1      27.775 -14.099   2.631  0.00  0.00    -0.035 C 
ATOM     17  C   UNL d   1      28.084 -14.826   3.908  0.00  0.00     0.050 C 
BRANCH  13  18
ATOM     18  N   UNL d   1      27.256 -11.483  -0.697  0.00  0.00    -0.116 N 
ATOM     19  O   UNL d   1      26.913 -11.966  -1.790  0.00  0.00    -0.532 OA
ATOM     20  O   UNL d   1      27.501 -10.287  -0.507  0.00  0.00    -0.532 OA
ENDBRANCH  13  18
ENDBRANCH   8  11
ENDBRANCH   1   7
BRANCH   5  21
ATOM     21  N   UNL d   1      25.611 -14.012  -2.877  0.00  0.00    -0.327 N 
ATOM     22  C   UNL d   1      25.449 -13.915  -4.259  0.00  0.00     0.223 C 
ATOM     23  O   UNL d   1      25.146 -14.824  -5.019  0.00  0.00    -0.273 OA
ATOM     24  H   UNL d   1      26.047 -13.248  -2.371  0.00  0.00     0.169 HD
BRANCH  22  25
ATOM     25  C   UNL d   1      25.655 -12.557  -4.879  0.00  0.00     0.123 C 
BRANCH  25  26
ATOM     26  C   UNL d   1      27.172 -12.269  -4.884  0.00  0.00     0.138 C 
BRANCH  26  27
ATOM     27  N   UNL d   1      27.911 -13.316  -5.600  0.00  0.00    -0.351 N 
ATOM     28  C   UNL d   1      28.465 -14.467  -5.048  0.00  0.00     0.108 A 
ATOM     29  C   UNL d   1      28.958 -15.198  -6.092  0.00  0.00     0.106 A 
ATOM     30  N   UNL d   1      28.741 -14.449  -7.225  0.00  0.00    -0.361 N 
ATOM     31  C   UNL d   1      28.163 -13.289  -6.917  0.00  0.00     0.182 A 
ATOM     32  H   UNL d   1      28.996 -14.724  -8.171  0.00  0.00     0.166 HD
ENDBRANCH  26  27
ENDBRANCH  25  26
ENDBRANCH  22  25
ENDBRANCH   5  21
TORSDOF 7
ENDMDL
MODEL 7
REMARK VINA RESULT:    -6.635      4.048      8.702
REMARK INTER + INTRA:         -11.816
REMARK INTER:                  -8.723
REMARK INTRA:                  -3.093
REMARK CONF_INDEPENDENT:        2.088
REMARK UNBOUND:                -3.093
REMARK  7 active torsions:
REMARK  status: ('A' for Active; 'I' for Inactive)
REMARK    1  A    between atoms: C_5  and  N_6 
REMARK    2  A    between atoms: C_10  and  N_11 
REMARK       I    between atoms: N_11  and  C_12 
REMARK    3  A    between atoms: C_12  and  C_14 
REMARK    4  A    between atoms: C_18  and  N_19 
REMARK       I    between atoms: N_19  and  C_20 
REMARK    5  A    between atoms: C_20  and  C_22 
REMARK    6  A    between atoms: C_22  and  C_23 
REMARK    7  A    between atoms: C_23  and  N_24 
ROOT
ATOM      1  C   UNL d   1      30.407 -17.344  -2.929  0.00  0.00     0.034 C 
ATOM      2  C   UNL d   1      30.772 -18.543  -3.551  0.00  0.00     0.017 C 
ATOM      3  C   UNL d   1      30.696 -18.643  -4.951  0.00  0.00     0.003 C 
ATOM      4  C   UNL d   1      30.199 -17.574  -5.730  0.00  0.00     0.029 C 
ATOM      5  C   UNL d   1      29.809 -16.376  -5.114  0.00  0.00     0.035 C 
ATOM      6  C   UNL d   1      30.034 -16.254  -3.734  0.00  0.00     0.046 C 
ENDROOT
BRANCH   1   7
ATOM      7  C   UNL d   1      30.119 -17.315  -1.442  0.00  0.00     0.256 C 
ATOM      8  N   UNL d   1      29.056 -16.551  -0.954  0.00  0.00    -0.322 N 
ATOM      9  H   UNL d   1      29.265 -16.114  -0.061  0.00  0.00     0.169 HD
ATOM     10  O   UNL d   1      30.832 -17.932  -0.672  0.00  0.00    -0.267 OA
BRANCH   8  11
ATOM     11  C   UNL d   1      27.684 -16.557  -1.353  0.00  0.00     0.043 C 
ATOM     12  C   UNL d   1      27.354 -15.874  -2.549  0.00  0.00     0.066 C 
ATOM     13  C   UNL d   1      26.041 -15.945  -3.061  0.00  0.00     0.105 C 
ATOM     14  C   UNL d   1      25.061 -16.699  -2.415  0.00  0.00     0.037 C 
ATOM     15  C   UNL d   1      25.372 -17.326  -1.220  0.00  0.00     0.011 C 
ATOM     16  C   UNL d   1      26.645 -17.206  -0.639  0.00  0.00    -0.035 C 
ATOM     17  C   UNL d   1      26.760 -17.807   0.731  0.00  0.00     0.050 C 
BRANCH  13  18
ATOM     18  N   UNL d   1      25.674 -15.259  -4.308  0.00  0.00    -0.116 N 
ATOM     19  O   UNL d   1      26.296 -15.573  -5.337  0.00  0.00    -0.532 OA
ATOM     20  O   UNL d   1      24.794 -14.392  -4.259  0.00  0.00    -0.532 OA
ENDBRANCH  13  18
ENDBRANCH   8  11
ENDBRANCH   1   7
BRANCH   5  21
ATOM     21  N   UNL d   1      29.097 -15.366  -5.843  0.00  0.00    -0.327 N 
ATOM     22  C   UNL d   1      29.698 -14.482  -6.739  0.00  0.00     0.223 C 
ATOM     23  O   UNL d   1      30.896 -14.375  -6.958  0.00  0.00    -0.273 OA
ATOM     24  H   UNL d   1      28.120 -15.242  -5.598  0.00  0.00     0.169 HD
BRANCH  22  25
ATOM     25  C   UNL d   1      28.784 -13.575  -7.523  0.00  0.00     0.123 C 
BRANCH  25  26
ATOM     26  C   UNL d   1      28.806 -12.188  -6.846  0.00  0.00     0.138 C 
BRANCH  26  27
ATOM     27  N   UNL d   1      27.471 -11.805  -6.372  0.00  0.00    -0.351 N 
ATOM     28  C   UNL d   1      26.751 -10.674  -6.744  0.00  0.00     0.108 A 
ATOM     29  C   UNL d   1      25.528 -10.780  -6.143  0.00  0.00     0.106 A 
ATOM     30  N   UNL d   1      25.566 -11.929  -5.388  0.00  0.00    -0.361 N 
ATOM     31  C   UNL d   1      26.760 -12.513  -5.482  0.00  0.00     0.182 A 
ATOM     32  H   UNL d   1      24.801 -12.287  -4.820  0.00  0.00     0.166 HD
ENDBRANCH  26  27
ENDBRANCH  25  26
ENDBRANCH  22  25
ENDBRANCH   5  21
TORSDOF 7
ENDMDL
MODEL 8
REMARK VINA RESULT:    -6.391      3.731      7.785
REMARK INTER + INTRA:         -11.640
REMARK INTER:                  -8.479
REMARK INTRA:                  -3.161
REMARK CONF_INDEPENDENT:        2.088
REMARK UNBOUND:                -3.161
REMARK  7 active torsions:
REMARK  status: ('A' for Active; 'I' for Inactive)
REMARK    1  A    between atoms: C_5  and  N_6 
REMARK    2  A    between atoms: C_10  and  N_11 
REMARK       I    between atoms: N_11  and  C_12 
REMARK    3  A    between atoms: C_12  and  C_14 
REMARK    4  A    between atoms: C_18  and  N_19 
REMARK       I    between atoms: N_19  and  C_20 
REMARK    5  A    between atoms: C_20  and  C_22 
REMARK    6  A    between atoms: C_22  and  C_23 
REMARK    7  A    between atoms: C_23  and  N_24 
ROOT
ATOM      1  C   UNL d   1      25.571 -17.727  -0.257  0.00  0.00     0.034 C 
ATOM      2  C   UNL d   1      24.286 -18.096   0.157  0.00  0.00     0.017 C 
ATOM      3  C   UNL d   1      23.173 -17.423  -0.375  0.00  0.00     0.003 C 
ATOM      4  C   UNL d   1      23.335 -16.343  -1.270  0.00  0.00     0.029 C 
ATOM      5  C   UNL d   1      24.620 -15.950  -1.672  0.00  0.00     0.035 C 
ATOM      6  C   UNL d   1      25.702 -16.732  -1.240  0.00  0.00     0.046 C 
ENDROOT
BRANCH   1   7
ATOM      7  C   UNL d   1      26.781 -18.152   0.550  0.00  0.00     0.256 C 
ATOM      8  N   UNL d   1      28.045 -17.656   0.221  0.00  0.00    -0.322 N 
ATOM      9  H   UNL d   1      28.781 -18.347   0.341  0.00  0.00     0.169 HD
ATOM     10  O   UNL d   1      26.655 -18.950   1.461  0.00  0.00    -0.267 OA
BRANCH   8  11
ATOM     11  C   UNL d   1      28.467 -16.301   0.059  0.00  0.00     0.043 C 
ATOM     12  C   UNL d   1      27.701 -15.302   0.707  0.00  0.00     0.066 C 
ATOM     13  C   UNL d   1      28.133 -13.959   0.688  0.00  0.00     0.105 C 
ATOM     14  C   UNL d   1      29.324 -13.601   0.054  0.00  0.00     0.037 C 
ATOM     15  C   UNL d   1      30.047 -14.569  -0.620  0.00  0.00     0.011 C 
ATOM     16  C   UNL d   1      29.601 -15.899  -0.692  0.00  0.00    -0.035 C 
ATOM     17  C   UNL d   1      30.414 -16.778  -1.598  0.00  0.00     0.050 C 
BRANCH  13  18
ATOM     18  N   UNL d   1      27.366 -12.904   1.364  0.00  0.00    -0.116 N 
ATOM     19  O   UNL d   1      28.009 -11.993   1.914  0.00  0.00    -0.532 OA
ATOM     20  O   UNL d   1      26.133 -12.994   1.374  0.00  0.00    -0.532 OA
ENDBRANCH  13  18
ENDBRANCH   8  11
ENDBRANCH   1   7
BRANCH   5  21
ATOM     21  N   UNL d   1      24.828 -14.727  -2.394  0.00  0.00    -0.327 N 
ATOM     22  C   UNL d   1      25.221 -14.668  -3.731  0.00  0.00     0.223 C 
ATOM     23  O   UNL d   1      25.530 -15.617  -4.438  0.00  0.00    -0.273 OA
ATOM     24  H   UNL d   1      24.780 -13.872  -1.850  0.00  0.00     0.169 HD
BRANCH  22  25
ATOM     25  C   UNL d   1      25.260 -13.305  -4.374  0.00  0.00     0.123 C 
BRANCH  25  26
ATOM     26  C   UNL d   1      26.709 -12.782  -4.275  0.00  0.00     0.138 C 
BRANCH  26  27
ATOM     27  N   UNL d   1      26.901 -11.968  -3.069  0.00  0.00    -0.351 N 
ATOM     28  C   UNL d   1      27.045 -10.586  -3.014  0.00  0.00     0.108 A 
ATOM     29  C   UNL d   1      27.089 -10.254  -1.689  0.00  0.00     0.106 A 
ATOM     30  N   UNL d   1      27.030 -11.437  -0.992  0.00  0.00    -0.361 N 
ATOM     31  C   UNL d   1      26.976 -12.473  -1.829  0.00  0.00     0.182 A 
ATOM     32  H   UNL d   1      27.040 -11.526   0.022  0.00  0.00     0.166 HD
ENDBRANCH  26  27
ENDBRANCH  25  26
ENDBRANCH  22  25
ENDBRANCH   5  21
TORSDOF 7
ENDMDL
