MODEL 1
REMARK VINA RESULT:   -30.339      0.000      0.000
REMARK INTER + INTRA:         -32.417
REMARK INTER:                 -31.532
REMARK INTRA:                  -0.885
REMARK CONF_INDEPENDENT:        1.193
REMARK UNBOUND:                -0.885
REMARK  4 active torsions:
REMARK  status: ('A' for Active; 'I' for Inactive)
REMARK    1  A    between atoms: C_2  and  C_13 
REMARK    2  A    between atoms: C_2  and  N_3 
REMARK       I    between atoms: N_3  and  C_4 
REMARK    3  A    between atoms: C_4  and  C_6 
REMARK       I    between atoms: C_13  and  N_15 
REMARK    4  A    between atoms: N_15  and  C_16 
ROOT
ATOM      1  C   UNL d   1      25.666 -17.847   0.712  0.00  0.00     0.042 C 
ATOM      2  C   UNL d   1      25.132 -17.513  -0.679  0.00  0.00     0.173 C 
ENDROOT
BRANCH   2   3
ATOM      3  C   UNL d   1      23.590 -17.679  -0.721  0.00  0.00     0.244 C 
ATOM      4  O   UNL d   1      22.883 -16.815  -1.248  0.00  0.00    -0.271 OA
ATOM      5  N   UNL d   1      23.061 -18.810  -0.083  0.00  0.00    -0.324 N 
ATOM      6  H   UNL d   1      23.620 -19.322   0.588  0.00  0.00     0.169 HD
BRANCH   5   7
ATOM      7  C   UNL d   1      21.660 -19.032  -0.085  0.00  0.00     0.052 A 
ATOM      8  C   UNL d   1      21.008 -19.325   1.112  0.00  0.00     0.032 A 
ATOM      9  C   UNL d   1      19.658 -19.649   1.118  0.00  0.00     0.021 A 
ATOM     10  C   UNL d   1      18.985 -19.657  -0.090  0.00  0.00     0.116 A 
ATOM     11  N   UNL d   1      19.560 -19.325  -1.270  0.00  0.00    -0.271 NA
ATOM     12  C   UNL d   1      20.884 -19.009  -1.240  0.00  0.00     0.145 A 
ENDBRANCH   5   7
ENDBRANCH   2   3
BRANCH   2  13
ATOM     13  N   UNL d   1      25.529 -16.132  -1.031  0.00  0.00    -0.344 N 
ATOM     14  C   UNL d   1      25.583 -15.712  -2.349  0.00  0.00     0.252 C 
ATOM     15  O   UNL d   1      25.406 -16.469  -3.303  0.00  0.00    -0.268 OA
ATOM     16  H   UNL d   1      25.397 -15.417  -0.325  0.00  0.00     0.163 HD
BRANCH  14  17
ATOM     17  C   UNL d   1      25.904 -14.271  -2.596  0.00  0.00     0.032 A 
ATOM     18  C   UNL d   1      25.314 -13.592  -3.671  0.00  0.00     0.018 A 
ATOM     19  C   UNL d   1      25.530 -12.218  -3.846  0.00  0.00     0.025 A 
ATOM     20  C   UNL d   1      26.340 -11.518  -2.954  0.00  0.00     0.034 A 
ATOM     21 CL   UNL d   1      26.600  -9.832  -3.183  0.00  0.00    -0.084 Cl
ATOM     22  C   UNL d   1      26.929 -12.178  -1.875  0.00  0.00     0.025 A 
ATOM     23  C   UNL d   1      26.705 -13.552  -1.693  0.00  0.00     0.018 A 
ENDBRANCH  14  17
ENDBRANCH   2  13
TORSDOF 4
ENDMDL
MODEL 2
REMARK VINA RESULT:   -30.150      0.750      1.287
REMARK INTER + INTRA:         -32.328
REMARK INTER:                 -31.343
REMARK INTRA:                  -0.985
REMARK CONF_INDEPENDENT:        1.193
REMARK UNBOUND:                -0.985
REMARK  4 active torsions:
REMARK  status: ('A' for Active; 'I' for Inactive)
REMARK    1  A    between atoms: C_2  and  C_13 
REMARK    2  A    between atoms: C_2  and  N_3 
REMARK       I    between atoms: N_3  and  C_4 
REMARK    3  A    between atoms: C_4  and  C_6 
REMARK       I    between atoms: C_13  and  N_15 
REMARK    4  A    between atoms: N_15  and  C_16 
ROOT
ATOM      1  C   UNL d   1      25.952 -17.486  -0.217  0.00  0.00     0.042 C 
ATOM      2  C   UNL d   1      25.114 -17.069  -1.423  0.00  0.00     0.173 C 
ENDROOT
BRANCH   2   3
ATOM      3  C   UNL d   1      23.603 -17.267  -1.126  0.00  0.00     0.244 C 
ATOM      4  O   UNL d   1      22.832 -16.304  -1.148  0.00  0.00    -0.271 OA
ATOM      5  N   UNL d   1      23.195 -18.562  -0.777  0.00  0.00    -0.324 N 
ATOM      6  H   UNL d   1      23.877 -19.245  -0.473  0.00  0.00     0.169 HD
BRANCH   5   7
ATOM      7  C   UNL d   1      21.829 -18.821  -0.498  0.00  0.00     0.052 A 
ATOM      8  C   UNL d   1      21.413 -18.970   0.825  0.00  0.00     0.032 A 
ATOM      9  C   UNL d   1      20.103 -19.327   1.115  0.00  0.00     0.021 A 
ATOM     10  C   UNL d   1      19.230 -19.513   0.059  0.00  0.00     0.116 A 
ATOM     11  N   UNL d   1      19.571 -19.325  -1.237  0.00  0.00    -0.271 NA
ATOM     12  C   UNL d   1      20.861 -18.972  -1.487  0.00  0.00     0.145 A 
ENDBRANCH   5   7
ENDBRANCH   2   3
BRANCH   2  13
ATOM     13  N   UNL d   1      25.411 -15.659  -1.757  0.00  0.00    -0.344 N 
ATOM     14  C   UNL d   1      25.527 -15.239  -3.071  0.00  0.00     0.252 C 
ATOM     15  O   UNL d   1      25.491 -16.010  -4.028  0.00  0.00    -0.268 OA
ATOM     16  H   UNL d   1      25.162 -14.958  -1.069  0.00  0.00     0.163 HD
BRANCH  14  17
ATOM     17  C   UNL d   1      25.735 -13.774  -3.305  0.00  0.00     0.032 A 
ATOM     18  C   UNL d   1      26.173 -12.949  -2.260  0.00  0.00     0.018 A 
ATOM     19  C   UNL d   1      26.467 -11.600  -2.497  0.00  0.00     0.025 A 
ATOM     20  C   UNL d   1      26.320 -11.067  -3.776  0.00  0.00     0.034 A 
ATOM     21 CL   UNL d   1      26.682  -9.407  -4.054  0.00  0.00    -0.084 Cl
ATOM     22  C   UNL d   1      25.892 -11.876  -4.828  0.00  0.00     0.025 A 
ATOM     23  C   UNL d   1      25.605 -13.231  -4.594  0.00  0.00     0.018 A 
ENDBRANCH  14  17
ENDBRANCH   2  13
TORSDOF 4
ENDMDL
MODEL 3
REMARK VINA RESULT:   -28.141      2.315      2.452
REMARK INTER + INTRA:         -30.271
REMARK INTER:                 -29.334
REMARK INTRA:                  -0.937
REMARK CONF_INDEPENDENT:        1.193
REMARK UNBOUND:                -0.937
REMARK  4 active torsions:
REMARK  status: ('A' for Active; 'I' for Inactive)
REMARK    1  A    between atoms: C_2  and  C_13 
REMARK    2  A    between atoms: C_2  and  N_3 
REMARK       I    between atoms: N_3  and  C_4 
REMARK    3  A    between atoms: C_4  and  C_6 
REMARK       I    between atoms: C_13  and  N_15 
REMARK    4  A    between atoms: N_15  and  C_16 
ROOT
ATOM      1  C   UNL d   1      25.877 -18.894   0.430  0.00  0.00     0.042 C 
ATOM      2  C   UNL d   1      25.364 -17.827  -0.534  0.00  0.00     0.173 C 
ENDROOT
BRANCH   2   3
ATOM      3  C   UNL d   1      23.815 -17.869  -0.614  0.00  0.00     0.244 C 
ATOM      4  O   UNL d   1      23.193 -16.950  -1.154  0.00  0.00    -0.271 OA
ATOM      5  N   UNL d   1      23.183 -18.955   0.007  0.00  0.00    -0.324 N 
ATOM      6  H   UNL d   1      23.683 -19.512   0.689  0.00  0.00     0.169 HD
BRANCH   5   7
ATOM      7  C   UNL d   1      21.769 -19.066  -0.029  0.00  0.00     0.052 A 
ATOM      8  C   UNL d   1      21.062 -19.245   1.159  0.00  0.00     0.032 A 
ATOM      9  C   UNL d   1      19.690 -19.460   1.136  0.00  0.00     0.021 A 
ATOM     10  C   UNL d   1      19.054 -19.474  -0.092  0.00  0.00     0.116 A 
ATOM     11  N   UNL d   1      19.687 -19.248  -1.266  0.00  0.00    -0.271 NA
ATOM     12  C   UNL d   1      21.030 -19.038  -1.209  0.00  0.00     0.145 A 
ENDBRANCH   5   7
ENDBRANCH   2   3
BRANCH   2  13
ATOM     13  N   UNL d   1      25.838 -16.500  -0.085  0.00  0.00    -0.344 N 
ATOM     14  C   UNL d   1      27.056 -15.990  -0.503  0.00  0.00     0.252 C 
ATOM     15  O   UNL d   1      27.856 -16.632  -1.182  0.00  0.00    -0.268 OA
ATOM     16  H   UNL d   1      25.136 -15.831   0.209  0.00  0.00     0.163 HD
BRANCH  14  17
ATOM     17  C   UNL d   1      27.401 -14.599  -0.068  0.00  0.00     0.032 A 
ATOM     18  C   UNL d   1      28.700 -14.106  -0.252  0.00  0.00     0.018 A 
ATOM     19  C   UNL d   1      29.003 -12.774   0.059  0.00  0.00     0.025 A 
ATOM     20  C   UNL d   1      28.014 -11.930   0.560  0.00  0.00     0.034 A 
ATOM     21 CL   UNL d   1      28.400 -10.296   0.941  0.00  0.00    -0.084 Cl
ATOM     22  C   UNL d   1      26.715 -12.404   0.743  0.00  0.00     0.025 A 
ATOM     23  C   UNL d   1      26.407 -13.736   0.423  0.00  0.00     0.018 A 
ENDBRANCH  14  17
ENDBRANCH   2  13
TORSDOF 4
ENDMDL
