MODEL 1
REMARK VINA RESULT:    -9.816      0.000      0.000
REMARK INTER + INTRA:         -14.263
REMARK INTER:                 -12.501
REMARK INTRA:                  -1.762
REMARK CONF_INDEPENDENT:        2.685
REMARK UNBOUND:                -1.762
REMARK  9 active torsions:
REMARK  status: ('A' for Active; 'I' for Inactive)
REMARK    1  A    between atoms: C_3  and  C_2 
REMARK    2  A    between atoms: C_3  and  C_5 
REMARK    3  A    between atoms: C_8  and  O_9 
REMARK    4  A    between atoms: C_10  and  N_11 
REMARK    5  A    between atoms: N_11  and  C_12 
REMARK    6  A    between atoms: C_12  and  N_14 
REMARK       I    between atoms: N_14  and  C_15 
REMARK    7  A    between atoms: C_15  and  C_17 
REMARK    8  A    between atoms: C_19  and  N_20 
REMARK    9  A    between atoms: C_25  and  N_26 
ROOT
ATOM      1  N   UNL d   1      27.595 -12.762   0.092  0.00  0.00    -0.299 N 
ATOM      2  C   UNL d   1      26.741 -12.834   1.198  0.00  0.00     0.260 C 
ATOM      3  O   UNL d   1      25.863 -13.699   1.396  0.00  0.00    -0.267 OA
ATOM      4  H   UNL d   1      28.228 -11.975   0.112  0.00  0.00     0.171 HD
ENDROOT
BRANCH   1   5
ATOM      5  C   UNL d   1      27.304 -13.378  -1.161  0.00  0.00     0.179 C 
ATOM      6  S   UNL d   1      26.749 -12.394  -2.427  0.00  0.00    -0.040 SA
BRANCH   5   7
ATOM      7  N   UNL d   1      27.678 -14.768  -1.263  0.00  0.00    -0.331 N 
ATOM      8  H   UNL d   1      28.395 -15.024  -1.939  0.00  0.00     0.168 HD
BRANCH   7   9
ATOM      9  C   UNL d   1      26.962 -15.931  -0.707  0.00  0.00     0.068 C 
ATOM     10  C   UNL d   1      27.613 -17.080  -0.235  0.00  0.00     0.092 C 
ATOM     11  C   UNL d   1      27.006 -18.128   0.423  0.00  0.00     0.039 C 
ATOM     12  C   UNL d   1      25.649 -18.211   0.411  0.00  0.00     0.010 C 
ATOM     13  C   UNL d   1      24.875 -17.187  -0.145  0.00  0.00    -0.052 C 
ATOM     14  C   UNL d   1      25.539 -16.013  -0.661  0.00  0.00     0.039 C 
BRANCH  10  15
ATOM     15  O   UNL d   1      28.870 -17.465  -0.589  0.00  0.00    -0.358 OA
ATOM     16  H   UNL d   1      29.259 -17.822   0.236  0.00  0.00     0.217 HD
ENDBRANCH  10  15
BRANCH  13  17
ATOM     17  C   UNL d   1      23.351 -17.392  -0.153  0.00  0.00     0.014 C 
ATOM     18  C   UNL d   1      22.594 -16.244  -0.880  0.00  0.00     0.015 C 
BRANCH  17  19
ATOM     19  C   UNL d   1      23.005 -18.715  -0.858  0.00  0.00     0.004 C 
ATOM     20  C   UNL d   1      21.510 -18.951  -0.978  0.00  0.00     0.006 C 
ENDBRANCH  17  19
ENDBRANCH  13  17
ENDBRANCH   7   9
ENDBRANCH   5   7
ENDBRANCH   1   5
BRANCH   2  21
ATOM     21  C   UNL d   1      26.812 -11.909   2.325  0.00  0.00     0.061 A 
ATOM     22  C   UNL d   1      26.281 -10.631   2.023  0.00  0.00     0.055 A 
ATOM     23  C   UNL d   1      26.518  -9.559   2.861  0.00  0.00     0.104 A 
ATOM     24  C   UNL d   1      27.182  -9.775   4.070  0.00  0.00     0.038 A 
ATOM     25  C   UNL d   1      27.695 -11.056   4.369  0.00  0.00     0.033 A 
ATOM     26  C   UNL d   1      27.562 -12.150   3.488  0.00  0.00     0.046 A 
BRANCH  23  27
ATOM     27  N   UNL d   1      26.176  -8.195   2.430  0.00  0.00    -0.116 N 
ATOM     28  O   UNL d   1      26.645  -7.246   3.097  0.00  0.00    -0.532 OA
ATOM     29  O   UNL d   1      25.439  -8.064   1.459  0.00  0.00    -0.532 OA
ENDBRANCH  23  27
BRANCH  26  30
ATOM     30  N   UNL d   1      28.142 -13.364   3.779  0.00  0.00    -0.376 N 
ATOM     31  C   UNL d   1      27.589 -14.359   4.722  0.00  0.00     0.149 C 
ATOM     32  C   UNL d   1      28.705 -14.855   5.661  0.00  0.00     0.187 C 
ATOM     33  O   UNL d   1      29.940 -15.189   5.008  0.00  0.00    -0.388 OA
ATOM     34  C   UNL d   1      30.405 -14.152   4.124  0.00  0.00     0.187 C 
ATOM     35  C   UNL d   1      29.344 -13.801   3.072  0.00  0.00     0.149 C 
ENDBRANCH  26  30
ENDBRANCH   2  21
TORSDOF 9
ENDMDL
MODEL 2
REMARK VINA RESULT:    -9.256      1.248      1.689
REMARK INTER + INTRA:         -14.029
REMARK INTER:                 -11.941
REMARK INTRA:                  -2.089
REMARK CONF_INDEPENDENT:        2.685
REMARK UNBOUND:                -2.089
REMARK  9 active torsions:
REMARK  status: ('A' for Active; 'I' for Inactive)
REMARK    1  A    between atoms: C_3  and  C_2 
REMARK    2  A    between atoms: C_3  and  C_5 
REMARK    3  A    between atoms: C_8  and  O_9 
REMARK    4  A    between atoms: C_10  and  N_11 
REMARK    5  A    between atoms: N_11  and  C_12 
REMARK    6  A    between atoms: C_12  and  N_14 
REMARK       I    between atoms: N_14  and  C_15 
REMARK    7  A    between atoms: C_15  and  C_17 
REMARK    8  A    between atoms: C_19  and  N_20 
REMARK    9  A    between atoms: C_25  and  N_26 
ROOT
ATOM      1  N   UNL d   1      28.203 -13.404   1.711  0.00  0.00    -0.299 N 
ATOM      2  C   UNL d   1      27.042 -12.685   2.016  0.00  0.00     0.260 C 
ATOM      3  O   UNL d   1      25.895 -12.922   1.585  0.00  0.00    -0.267 OA
ATOM      4  H   UNL d   1      29.038 -13.042   2.152  0.00  0.00     0.171 HD
ENDROOT
BRANCH   1   5
ATOM      5  C   UNL d   1      28.338 -14.214   0.546  0.00  0.00     0.179 C 
ATOM      6  S   UNL d   1      29.884 -14.786   0.144  0.00  0.00    -0.040 SA
BRANCH   5   7
ATOM      7  N   UNL d   1      27.097 -14.599  -0.082  0.00  0.00    -0.331 N 
ATOM      8  H   UNL d   1      26.458 -13.862  -0.374  0.00  0.00     0.168 HD
BRANCH   7   9
ATOM      9  C   UNL d   1      26.488 -15.942  -0.112  0.00  0.00     0.068 C 
ATOM     10  C   UNL d   1      27.225 -17.122   0.061  0.00  0.00     0.092 C 
ATOM     11  C   UNL d   1      26.689 -18.386   0.185  0.00  0.00     0.039 C 
ATOM     12  C   UNL d   1      25.380 -18.576  -0.129  0.00  0.00     0.010 C 
ATOM     13  C   UNL d   1      24.556 -17.491  -0.447  0.00  0.00    -0.052 C 
ATOM     14  C   UNL d   1      25.105 -16.158  -0.386  0.00  0.00     0.039 C 
BRANCH  10  15
ATOM     15  O   UNL d   1      28.566 -17.241  -0.141  0.00  0.00    -0.358 OA
ATOM     16  H   UNL d   1      28.889 -17.732   0.642  0.00  0.00     0.217 HD
ENDBRANCH  10  15
BRANCH  13  17
ATOM     17  C   UNL d   1      23.102 -17.810  -0.832  0.00  0.00     0.014 C 
ATOM     18  C   UNL d   1      22.996 -18.946  -1.890  0.00  0.00     0.015 C 
BRANCH  17  19
ATOM     19  C   UNL d   1      22.313 -18.243   0.416  0.00  0.00     0.004 C 
ATOM     20  C   UNL d   1      21.149 -19.163   0.094  0.00  0.00     0.006 C 
ENDBRANCH  17  19
ENDBRANCH  13  17
ENDBRANCH   7   9
ENDBRANCH   5   7
ENDBRANCH   1   5
BRANCH   2  21
ATOM     21  C   UNL d   1      27.016 -11.566   2.953  0.00  0.00     0.061 A 
ATOM     22  C   UNL d   1      26.344 -10.431   2.437  0.00  0.00     0.055 A 
ATOM     23  C   UNL d   1      26.465  -9.203   3.058  0.00  0.00     0.104 A 
ATOM     24  C   UNL d   1      27.155  -9.119   4.268  0.00  0.00     0.038 A 
ATOM     25  C   UNL d   1      27.810 -10.260   4.782  0.00  0.00     0.033 A 
ATOM     26  C   UNL d   1      27.795 -11.506   4.120  0.00  0.00     0.046 A 
BRANCH  23  27
ATOM     27  N   UNL d   1      25.970  -7.987   2.396  0.00  0.00    -0.116 N 
ATOM     28  O   UNL d   1      25.271  -8.135   1.369  0.00  0.00    -0.532 OA
ATOM     29  O   UNL d   1      26.284  -6.902   2.873  0.00  0.00    -0.532 OA
ENDBRANCH  23  27
BRANCH  26  30
ATOM     30  N   UNL d   1      28.509 -12.574   4.612  0.00  0.00    -0.376 N 
ATOM     31  C   UNL d   1      29.971 -12.747   4.474  0.00  0.00     0.149 C 
ATOM     32  C   UNL d   1      30.278 -14.181   4.005  0.00  0.00     0.187 C 
ATOM     33  O   UNL d   1      29.561 -15.212   4.703  0.00  0.00    -0.388 OA
ATOM     34  C   UNL d   1      28.145 -14.963   4.771  0.00  0.00     0.187 C 
ATOM     35  C   UNL d   1      27.850 -13.602   5.416  0.00  0.00     0.149 C 
ENDBRANCH  26  30
ENDBRANCH   2  21
TORSDOF 9
ENDMDL
MODEL 3
REMARK VINA RESULT:    -8.756      1.818      2.815
REMARK INTER + INTRA:         -13.342
REMARK INTER:                 -11.440
REMARK INTRA:                  -1.901
REMARK CONF_INDEPENDENT:        2.685
REMARK UNBOUND:                -1.901
REMARK  9 active torsions:
REMARK  status: ('A' for Active; 'I' for Inactive)
REMARK    1  A    between atoms: C_3  and  C_2 
REMARK    2  A    between atoms: C_3  and  C_5 
REMARK    3  A    between atoms: C_8  and  O_9 
REMARK    4  A    between atoms: C_10  and  N_11 
REMARK    5  A    between atoms: N_11  and  C_12 
REMARK    6  A    between atoms: C_12  and  N_14 
REMARK       I    between atoms: N_14  and  C_15 
REMARK    7  A    between atoms: C_15  and  C_17 
REMARK    8  A    between atoms: C_19  and  N_20 
REMARK    9  A    between atoms: C_25  and  N_26 
ROOT
ATOM      1  N   UNL d   1      28.481 -13.770   2.078  0.00  0.00    -0.299 N 
ATOM      2  C   UNL d   1      27.305 -13.016   2.155  0.00  0.00     0.260 C 
ATOM      3  O   UNL d   1      26.254 -13.223   1.514  0.00  0.00    -0.267 OA
ATOM      4  H   UNL d   1      29.227 -13.429   2.669  0.00  0.00     0.171 HD
ENDROOT
BRANCH   1   5
ATOM      5  C   UNL d   1      28.811 -14.593   0.961  0.00  0.00     0.179 C 
ATOM      6  S   UNL d   1      30.129 -14.138  -0.005  0.00  0.00    -0.040 SA
BRANCH   5   7
ATOM      7  N   UNL d   1      28.075 -15.831   0.872  0.00  0.00    -0.331 N 
ATOM      8  H   UNL d   1      28.452 -16.648   1.347  0.00  0.00     0.168 HD
BRANCH   7   9
ATOM      9  C   UNL d   1      26.974 -16.153  -0.054  0.00  0.00     0.068 C 
ATOM     10  C   UNL d   1      26.238 -17.345   0.014  0.00  0.00     0.092 C 
ATOM     11  C   UNL d   1      25.113 -17.632  -0.729  0.00  0.00     0.039 C 
ATOM     12  C   UNL d   1      24.809 -16.838  -1.790  0.00  0.00     0.010 C 
ATOM     13  C   UNL d   1      25.546 -15.677  -2.049  0.00  0.00    -0.052 C 
ATOM     14  C   UNL d   1      26.604 -15.306  -1.140  0.00  0.00     0.039 C 
BRANCH  10  15
ATOM     15  O   UNL d   1      26.668 -18.494   0.605  0.00  0.00    -0.358 OA
ATOM     16  H   UNL d   1      27.630 -18.361   0.727  0.00  0.00     0.217 HD
ENDBRANCH  10  15
BRANCH  13  17
ATOM     17  C   UNL d   1      25.155 -14.869  -3.297  0.00  0.00     0.014 C 
ATOM     18  C   UNL d   1      25.483 -13.355  -3.160  0.00  0.00     0.015 C 
BRANCH  17  19
ATOM     19  C   UNL d   1      25.904 -15.412  -4.526  0.00  0.00     0.004 C 
ATOM     20  C   UNL d   1      27.297 -14.826  -4.681  0.00  0.00     0.006 C 
ENDBRANCH  17  19
ENDBRANCH  13  17
ENDBRANCH   7   9
ENDBRANCH   5   7
ENDBRANCH   1   5
BRANCH   2  21
ATOM     21  C   UNL d   1      27.134 -11.889   3.068  0.00  0.00     0.061 A 
ATOM     22  C   UNL d   1      26.438 -10.805   2.480  0.00  0.00     0.055 A 
ATOM     23  C   UNL d   1      26.432  -9.565   3.087  0.00  0.00     0.104 A 
ATOM     24  C   UNL d   1      27.016  -9.423   4.347  0.00  0.00     0.038 A 
ATOM     25  C   UNL d   1      27.696 -10.514   4.931  0.00  0.00     0.033 A 
ATOM     26  C   UNL d   1      27.812 -11.766   4.292  0.00  0.00     0.046 A 
BRANCH  23  27
ATOM     27  N   UNL d   1      25.919  -8.391   2.366  0.00  0.00    -0.116 N 
ATOM     28  O   UNL d   1      25.156  -8.598   1.397  0.00  0.00    -0.532 OA
ATOM     29  O   UNL d   1      26.280  -7.280   2.741  0.00  0.00    -0.532 OA
ENDBRANCH  23  27
BRANCH  26  30
ATOM     30  N   UNL d   1      28.548 -12.781   4.857  0.00  0.00    -0.376 N 
ATOM     31  C   UNL d   1      30.020 -12.897   4.784  0.00  0.00     0.149 C 
ATOM     32  C   UNL d   1      30.405 -14.336   4.391  0.00  0.00     0.187 C 
ATOM     33  O   UNL d   1      29.702 -15.366   5.105  0.00  0.00    -0.388 OA
ATOM     34  C   UNL d   1      28.276 -15.174   5.106  0.00  0.00     0.187 C 
ATOM     35  C   UNL d   1      27.899 -13.801   5.679  0.00  0.00     0.149 C 
ENDBRANCH  26  30
ENDBRANCH   2  21
TORSDOF 9
ENDMDL
MODEL 4
REMARK VINA RESULT:    -8.420      1.601      2.067
REMARK INTER + INTRA:         -13.512
REMARK INTER:                 -11.105
REMARK INTRA:                  -2.407
REMARK CONF_INDEPENDENT:        2.685
REMARK UNBOUND:                -2.407
REMARK  9 active torsions:
REMARK  status: ('A' for Active; 'I' for Inactive)
REMARK    1  A    between atoms: C_3  and  C_2 
REMARK    2  A    between atoms: C_3  and  C_5 
REMARK    3  A    between atoms: C_8  and  O_9 
REMARK    4  A    between atoms: C_10  and  N_11 
REMARK    5  A    between atoms: N_11  and  C_12 
REMARK    6  A    between atoms: C_12  and  N_14 
REMARK       I    between atoms: N_14  and  C_15 
REMARK    7  A    between atoms: C_15  and  C_17 
REMARK    8  A    between atoms: C_19  and  N_20 
REMARK    9  A    between atoms: C_25  and  N_26 
ROOT
ATOM      1  N   UNL d   1      28.368 -13.891   2.119  0.00  0.00    -0.299 N 
ATOM      2  C   UNL d   1      27.736 -12.682   1.807  0.00  0.00     0.260 C 
ATOM      3  O   UNL d   1      27.327 -12.335   0.680  0.00  0.00    -0.267 OA
ATOM      4  H   UNL d   1      28.637 -13.975   3.090  0.00  0.00     0.171 HD
ENDROOT
BRANCH   1   5
ATOM      5  C   UNL d   1      29.031 -14.700   1.150  0.00  0.00     0.179 C 
ATOM      6  S   UNL d   1      30.628 -14.304   0.736  0.00  0.00    -0.040 SA
BRANCH   5   7
ATOM      7  N   UNL d   1      28.313 -15.884   0.744  0.00  0.00    -0.331 N 
ATOM      8  H   UNL d   1      28.750 -16.789   0.906  0.00  0.00     0.168 HD
BRANCH   7   9
ATOM      9  C   UNL d   1      27.132 -15.957  -0.136  0.00  0.00     0.068 C 
ATOM     10  C   UNL d   1      27.052 -15.294  -1.369  0.00  0.00     0.092 C 
ATOM     11  C   UNL d   1      26.038 -15.443  -2.291  0.00  0.00     0.039 C 
ATOM     12  C   UNL d   1      24.895 -16.072  -1.911  0.00  0.00     0.010 C 
ATOM     13  C   UNL d   1      24.793 -16.672  -0.650  0.00  0.00    -0.052 C 
ATOM     14  C   UNL d   1      25.943 -16.657   0.222  0.00  0.00     0.039 C 
BRANCH  10  15
ATOM     15  O   UNL d   1      27.800 -14.213  -1.723  0.00  0.00    -0.358 OA
ATOM     16  H   UNL d   1      27.863 -13.680  -0.904  0.00  0.00     0.217 HD
ENDBRANCH  10  15
BRANCH  13  17
ATOM     17  C   UNL d   1      23.445 -17.318  -0.294  0.00  0.00     0.014 C 
ATOM     18  C   UNL d   1      22.242 -16.353  -0.499  0.00  0.00     0.015 C 
BRANCH  17  19
ATOM     19  C   UNL d   1      23.214 -18.563  -1.167  0.00  0.00     0.004 C 
ATOM     20  C   UNL d   1      21.751 -18.958  -1.266  0.00  0.00     0.006 C 
ENDBRANCH  17  19
ENDBRANCH  13  17
ENDBRANCH   7   9
ENDBRANCH   5   7
ENDBRANCH   1   5
BRANCH   2  21
ATOM     21  C   UNL d   1      27.413 -11.666   2.804  0.00  0.00     0.061 A 
ATOM     22  C   UNL d   1      26.650 -10.597   2.274  0.00  0.00     0.055 A 
ATOM     23  C   UNL d   1      26.496  -9.425   2.988  0.00  0.00     0.104 A 
ATOM     24  C   UNL d   1      26.998  -9.351   4.289  0.00  0.00     0.038 A 
ATOM     25  C   UNL d   1      27.746 -10.428   4.814  0.00  0.00     0.033 A 
ATOM     26  C   UNL d   1      28.011 -11.599   4.074  0.00  0.00     0.046 A 
BRANCH  23  27
ATOM     27  N   UNL d   1      25.913  -8.238   2.345  0.00  0.00    -0.116 N 
ATOM     28  O   UNL d   1      26.166  -7.124   2.855  0.00  0.00    -0.532 OA
ATOM     29  O   UNL d   1      25.200  -8.407   1.361  0.00  0.00    -0.532 OA
ENDBRANCH  23  27
BRANCH  26  30
ATOM     30  N   UNL d   1      28.808 -12.594   4.590  0.00  0.00    -0.376 N 
ATOM     31  C   UNL d   1      30.261 -12.723   4.346  0.00  0.00     0.149 C 
ATOM     32  C   UNL d   1      30.594 -14.179   3.972  0.00  0.00     0.187 C 
ATOM     33  O   UNL d   1      29.981 -15.173   4.809  0.00  0.00    -0.388 OA
ATOM     34  C   UNL d   1      28.566 -14.972   4.973  0.00  0.00     0.187 C 
ATOM     35  C   UNL d   1      28.262 -13.574   5.527  0.00  0.00     0.149 C 
ENDBRANCH  26  30
ENDBRANCH   2  21
TORSDOF 9
ENDMDL
MODEL 5
REMARK VINA RESULT:    -8.055      4.707      7.763
REMARK INTER + INTRA:         -12.642
REMARK INTER:                 -10.740
REMARK INTRA:                  -1.902
REMARK CONF_INDEPENDENT:        2.685
REMARK UNBOUND:                -1.902
REMARK  9 active torsions:
REMARK  status: ('A' for Active; 'I' for Inactive)
REMARK    1  A    between atoms: C_3  and  C_2 
REMARK    2  A    between atoms: C_3  and  C_5 
REMARK    3  A    between atoms: C_8  and  O_9 
REMARK    4  A    between atoms: C_10  and  N_11 
REMARK    5  A    between atoms: N_11  and  C_12 
REMARK    6  A    between atoms: C_12  and  N_14 
REMARK       I    between atoms: N_14  and  C_15 
REMARK    7  A    between atoms: C_15  and  C_17 
REMARK    8  A    between atoms: C_19  and  N_20 
REMARK    9  A    between atoms: C_25  and  N_26 
ROOT
ATOM      1  N   UNL d   1      26.576 -15.719  -3.110  0.00  0.00    -0.299 N 
ATOM      2  C   UNL d   1      25.346 -15.783  -2.447  0.00  0.00     0.260 C 
ATOM      3  O   UNL d   1      24.393 -14.988  -2.583  0.00  0.00    -0.267 OA
ATOM      4  H   UNL d   1      27.222 -16.451  -2.850  0.00  0.00     0.171 HD
ENDROOT
BRANCH   1   5
ATOM      5  C   UNL d   1      27.092 -14.521  -3.686  0.00  0.00     0.179 C 
ATOM      6  S   UNL d   1      27.369 -13.196  -2.663  0.00  0.00    -0.040 SA
BRANCH   5   7
ATOM      7  N   UNL d   1      27.483 -14.624  -5.071  0.00  0.00    -0.331 N 
ATOM      8  H   UNL d   1      26.772 -14.467  -5.783  0.00  0.00     0.168 HD
BRANCH   7   9
ATOM      9  C   UNL d   1      28.727 -15.205  -5.610  0.00  0.00     0.068 C 
ATOM     10  C   UNL d   1      29.420 -14.658  -6.699  0.00  0.00     0.092 C 
ATOM     11  C   UNL d   1      30.655 -15.073  -7.149  0.00  0.00     0.039 C 
ATOM     12  C   UNL d   1      31.156 -16.251  -6.693  0.00  0.00     0.010 C 
ATOM     13  C   UNL d   1      30.495 -16.969  -5.689  0.00  0.00    -0.052 C 
ATOM     14  C   UNL d   1      29.298 -16.411  -5.108  0.00  0.00     0.039 C 
BRANCH  10  15
ATOM     15  O   UNL d   1      28.874 -13.836  -7.638  0.00  0.00    -0.358 OA
ATOM     16  H   UNL d   1      28.657 -14.430  -8.386  0.00  0.00     0.217 HD
ENDBRANCH  10  15
BRANCH  13  17
ATOM     17  C   UNL d   1      31.115 -18.312  -5.272  0.00  0.00     0.014 C 
ATOM     18  C   UNL d   1      31.009 -18.573  -3.742  0.00  0.00     0.015 C 
BRANCH  17  19
ATOM     19  C   UNL d   1      30.406 -19.465  -6.004  0.00  0.00     0.004 C 
ATOM     20  C   UNL d   1      31.007 -19.761  -7.367  0.00  0.00     0.006 C 
ENDBRANCH  17  19
ENDBRANCH  13  17
ENDBRANCH   7   9
ENDBRANCH   5   7
ENDBRANCH   1   5
BRANCH   2  21
ATOM     21  C   UNL d   1      24.988 -16.858  -1.526  0.00  0.00     0.061 A 
ATOM     22  C   UNL d   1      23.668 -17.333  -1.720  0.00  0.00     0.055 A 
ATOM     23  C   UNL d   1      23.066 -18.137  -0.772  0.00  0.00     0.104 A 
ATOM     24  C   UNL d   1      23.816 -18.577   0.320  0.00  0.00     0.038 A 
ATOM     25  C   UNL d   1      25.137 -18.108   0.498  0.00  0.00     0.033 A 
ATOM     26  C   UNL d   1      25.747 -17.204  -0.396  0.00  0.00     0.046 A 
BRANCH  23  27
ATOM     27  N   UNL d   1      21.628 -18.431  -0.856  0.00  0.00    -0.116 N 
ATOM     28  O   UNL d   1      21.287 -19.633  -0.904  0.00  0.00    -0.532 OA
ATOM     29  O   UNL d   1      20.848 -17.485  -0.894  0.00  0.00    -0.532 OA
ENDBRANCH  23  27
BRANCH  26  30
ATOM     30  N   UNL d   1      27.007 -16.710  -0.148  0.00  0.00    -0.376 N 
ATOM     31  C   UNL d   1      27.294 -15.468   0.602  0.00  0.00     0.149 C 
ATOM     32  C   UNL d   1      28.323 -14.624  -0.173  0.00  0.00     0.187 C 
ATOM     33  O   UNL d   1      29.450 -15.358  -0.677  0.00  0.00    -0.388 OA
ATOM     34  C   UNL d   1      29.069 -16.540  -1.405  0.00  0.00     0.187 C 
ATOM     35  C   UNL d   1      28.194 -17.464  -0.548  0.00  0.00     0.149 C 
ENDBRANCH  26  30
ENDBRANCH   2  21
TORSDOF 9
ENDMDL
MODEL 6
REMARK VINA RESULT:    -8.028      2.642      4.136
REMARK INTER + INTRA:         -13.073
REMARK INTER:                 -10.713
REMARK INTRA:                  -2.360
REMARK CONF_INDEPENDENT:        2.685
REMARK UNBOUND:                -2.360
REMARK  9 active torsions:
REMARK  status: ('A' for Active; 'I' for Inactive)
REMARK    1  A    between atoms: C_3  and  C_2 
REMARK    2  A    between atoms: C_3  and  C_5 
REMARK    3  A    between atoms: C_8  and  O_9 
REMARK    4  A    between atoms: C_10  and  N_11 
REMARK    5  A    between atoms: N_11  and  C_12 
REMARK    6  A    between atoms: C_12  and  N_14 
REMARK       I    between atoms: N_14  and  C_15 
REMARK    7  A    between atoms: C_15  and  C_17 
REMARK    8  A    between atoms: C_19  and  N_20 
REMARK    9  A    between atoms: C_25  and  N_26 
ROOT
ATOM      1  N   UNL d   1      28.726 -12.807  -0.123  0.00  0.00    -0.299 N 
ATOM      2  C   UNL d   1      27.600 -12.085   0.287  0.00  0.00     0.260 C 
ATOM      3  O   UNL d   1      26.756 -12.451   1.130  0.00  0.00    -0.267 OA
ATOM      4  H   UNL d   1      29.278 -12.341  -0.829  0.00  0.00     0.171 HD
ENDROOT
BRANCH   1   5
ATOM      5  C   UNL d   1      28.840 -14.222   0.016  0.00  0.00     0.179 C 
ATOM      6  S   UNL d   1      29.801 -14.826   1.276  0.00  0.00    -0.040 SA
BRANCH   5   7
ATOM      7  N   UNL d   1      27.978 -14.995  -0.845  0.00  0.00    -0.331 N 
ATOM      8  H   UNL d   1      27.729 -14.604  -1.752  0.00  0.00     0.168 HD
BRANCH   7   9
ATOM      9  C   UNL d   1      27.171 -16.173  -0.479  0.00  0.00     0.068 C 
ATOM     10  C   UNL d   1      27.731 -17.422  -0.171  0.00  0.00     0.092 C 
ATOM     11  C   UNL d   1      27.037 -18.510   0.314  0.00  0.00     0.039 C 
ATOM     12  C   UNL d   1      25.679 -18.494   0.267  0.00  0.00     0.010 C 
ATOM     13  C   UNL d   1      24.990 -17.347  -0.144  0.00  0.00    -0.052 C 
ATOM     14  C   UNL d   1      25.745 -16.161  -0.469  0.00  0.00     0.039 C 
BRANCH  10  15
ATOM     15  O   UNL d   1      28.968 -17.838  -0.558  0.00  0.00    -0.358 OA
ATOM     16  H   UNL d   1      29.339 -18.275   0.237  0.00  0.00     0.217 HD
ENDBRANCH  10  15
BRANCH  13  17
ATOM     17  C   UNL d   1      23.457 -17.441  -0.208  0.00  0.00     0.014 C 
ATOM     18  C   UNL d   1      22.807 -16.207  -0.895  0.00  0.00     0.015 C 
BRANCH  17  19
ATOM     19  C   UNL d   1      23.042 -18.699  -0.991  0.00  0.00     0.004 C 
ATOM     20  C   UNL d   1      21.547 -18.963  -0.944  0.00  0.00     0.006 C 
ENDBRANCH  17  19
ENDBRANCH  13  17
ENDBRANCH   7   9
ENDBRANCH   5   7
ENDBRANCH   1   5
BRANCH   2  21
ATOM     21  C   UNL d   1      27.292 -10.741  -0.195  0.00  0.00     0.061 A 
ATOM     22  C   UNL d   1      27.025  -9.828   0.854  0.00  0.00     0.055 A 
ATOM     23  C   UNL d   1      26.446  -8.603   0.586  0.00  0.00     0.104 A 
ATOM     24  C   UNL d   1      26.240  -8.225  -0.741  0.00  0.00     0.038 A 
ATOM     25  C   UNL d   1      26.523  -9.137  -1.782  0.00  0.00     0.033 A 
ATOM     26  C   UNL d   1      27.017 -10.436  -1.538  0.00  0.00     0.046 A 
BRANCH  23  27
ATOM     27  N   UNL d   1      25.952  -7.762   1.687  0.00  0.00    -0.116 N 
ATOM     28  O   UNL d   1      26.348  -8.033   2.842  0.00  0.00    -0.532 OA
ATOM     29  O   UNL d   1      25.168  -6.859   1.415  0.00  0.00    -0.532 OA
ENDBRANCH  23  27
BRANCH  26  30
ATOM     30  N   UNL d   1      27.207 -11.323  -2.572  0.00  0.00    -0.376 N 
ATOM     31  C   UNL d   1      26.127 -12.068  -3.253  0.00  0.00     0.149 C 
ATOM     32  C   UNL d   1      26.524 -13.551  -3.379  0.00  0.00     0.187 C 
ATOM     33  O   UNL d   1      27.866 -13.781  -3.837  0.00  0.00    -0.388 OA
ATOM     34  C   UNL d   1      28.846 -13.025  -3.103  0.00  0.00     0.187 C 
ATOM     35  C   UNL d   1      28.537 -11.523  -3.146  0.00  0.00     0.149 C 
ENDBRANCH  26  30
ENDBRANCH   2  21
TORSDOF 9
ENDMDL
MODEL 7
REMARK VINA RESULT:    -7.638      4.332      7.696
REMARK INTER + INTRA:         -12.706
REMARK INTER:                 -10.322
REMARK INTRA:                  -2.384
REMARK CONF_INDEPENDENT:        2.685
REMARK UNBOUND:                -2.384
REMARK  9 active torsions:
REMARK  status: ('A' for Active; 'I' for Inactive)
REMARK    1  A    between atoms: C_3  and  C_2 
REMARK    2  A    between atoms: C_3  and  C_5 
REMARK    3  A    between atoms: C_8  and  O_9 
REMARK    4  A    between atoms: C_10  and  N_11 
REMARK    5  A    between atoms: N_11  and  C_12 
REMARK    6  A    between atoms: C_12  and  N_14 
REMARK       I    between atoms: N_14  and  C_15 
REMARK    7  A    between atoms: C_15  and  C_17 
REMARK    8  A    between atoms: C_19  and  N_20 
REMARK    9  A    between atoms: C_25  and  N_26 
ROOT
ATOM      1  N   UNL d   1      26.349 -14.229  -1.776  0.00  0.00    -0.299 N 
ATOM      2  C   UNL d   1      25.588 -15.286  -2.287  0.00  0.00     0.260 C 
ATOM      3  O   UNL d   1      25.132 -15.373  -3.446  0.00  0.00    -0.267 OA
ATOM      4  H   UNL d   1      26.611 -14.342  -0.807  0.00  0.00     0.171 HD
ENDROOT
BRANCH   1   5
ATOM      5  C   UNL d   1      26.343 -12.918  -2.338  0.00  0.00     0.179 C 
ATOM      6  S   UNL d   1      27.031 -11.658  -1.434  0.00  0.00    -0.040 SA
BRANCH   5   7
ATOM      7  N   UNL d   1      25.890 -12.838  -3.705  0.00  0.00    -0.331 N 
ATOM      8  H   UNL d   1      24.906 -13.012  -3.896  0.00  0.00     0.168 HD
BRANCH   7   9
ATOM      9  C   UNL d   1      26.722 -12.807  -4.923  0.00  0.00     0.068 C 
ATOM     10  C   UNL d   1      26.593 -11.824  -5.915  0.00  0.00     0.092 C 
ATOM     11  C   UNL d   1      27.434 -11.665  -6.995  0.00  0.00     0.039 C 
ATOM     12  C   UNL d   1      28.312 -12.659  -7.293  0.00  0.00     0.010 C 
ATOM     13  C   UNL d   1      28.452 -13.767  -6.449  0.00  0.00    -0.052 C 
ATOM     14  C   UNL d   1      27.686 -13.812  -5.227  0.00  0.00     0.039 C 
BRANCH  10  15
ATOM     15  O   UNL d   1      25.482 -11.063  -6.120  0.00  0.00    -0.358 OA
ATOM     16  H   UNL d   1      24.783 -11.505  -5.595  0.00  0.00     0.217 HD
ENDBRANCH  10  15
BRANCH  13  17
ATOM     17  C   UNL d   1      29.436 -14.861  -6.895  0.00  0.00     0.014 C 
ATOM     18  C   UNL d   1      30.874 -14.317  -7.131  0.00  0.00     0.015 C 
BRANCH  17  19
ATOM     19  C   UNL d   1      29.510 -15.964  -5.825  0.00  0.00     0.004 C 
ATOM     20  C   UNL d   1      30.460 -15.626  -4.688  0.00  0.00     0.006 C 
ENDBRANCH  17  19
ENDBRANCH  13  17
ENDBRANCH   7   9
ENDBRANCH   5   7
ENDBRANCH   1   5
BRANCH   2  21
ATOM     21  C   UNL d   1      25.270 -16.487  -1.521  0.00  0.00     0.061 A 
ATOM     22  C   UNL d   1      23.941 -16.933  -1.722  0.00  0.00     0.055 A 
ATOM     23  C   UNL d   1      23.382 -17.872  -0.877  0.00  0.00     0.104 A 
ATOM     24  C   UNL d   1      24.180 -18.466   0.101  0.00  0.00     0.038 A 
ATOM     25  C   UNL d   1      25.509 -18.024   0.285  0.00  0.00     0.033 A 
ATOM     26  C   UNL d   1      26.080 -16.995  -0.492  0.00  0.00     0.046 A 
BRANCH  23  27
ATOM     27  N   UNL d   1      21.940 -18.155  -0.937  0.00  0.00    -0.116 N 
ATOM     28  O   UNL d   1      21.159 -17.179  -0.896  0.00  0.00    -0.532 OA
ATOM     29  O   UNL d   1      21.584 -19.327  -1.005  0.00  0.00    -0.532 OA
ENDBRANCH  23  27
BRANCH  26  30
ATOM     30  N   UNL d   1      27.351 -16.538  -0.232  0.00  0.00    -0.376 N 
ATOM     31  C   UNL d   1      27.748 -15.792   0.982  0.00  0.00     0.149 C 
ATOM     32  C   UNL d   1      28.586 -14.564   0.581  0.00  0.00     0.187 C 
ATOM     33  O   UNL d   1      29.611 -14.822  -0.392  0.00  0.00    -0.388 OA
ATOM     34  C   UNL d   1      29.124 -15.537  -1.542  0.00  0.00     0.187 C 
ATOM     35  C   UNL d   1      28.455 -16.857  -1.135  0.00  0.00     0.149 C 
ENDBRANCH  26  30
ENDBRANCH   2  21
TORSDOF 9
ENDMDL
MODEL 8
REMARK VINA RESULT:    -7.272      1.647      2.081
REMARK INTER + INTRA:         -12.687
REMARK INTER:                  -9.956
REMARK INTRA:                  -2.731
REMARK CONF_INDEPENDENT:        2.685
REMARK UNBOUND:                -2.731
REMARK  9 active torsions:
REMARK  status: ('A' for Active; 'I' for Inactive)
REMARK    1  A    between atoms: C_3  and  C_2 
REMARK    2  A    between atoms: C_3  and  C_5 
REMARK    3  A    between atoms: C_8  and  O_9 
REMARK    4  A    between atoms: C_10  and  N_11 
REMARK    5  A    between atoms: N_11  and  C_12 
REMARK    6  A    between atoms: C_12  and  N_14 
REMARK       I    between atoms: N_14  and  C_15 
REMARK    7  A    between atoms: C_15  and  C_17 
REMARK    8  A    between atoms: C_19  and  N_20 
REMARK    9  A    between atoms: C_25  and  N_26 
ROOT
ATOM      1  N   UNL d   1      26.580 -12.786  -0.923  0.00  0.00    -0.299 N 
ATOM      2  C   UNL d   1      27.455 -11.798  -0.459  0.00  0.00     0.260 C 
ATOM      3  O   UNL d   1      28.286 -11.169  -1.145  0.00  0.00    -0.267 OA
ATOM      4  H   UNL d   1      25.993 -13.186  -0.204  0.00  0.00     0.171 HD
ENDROOT
BRANCH   1   5
ATOM      5  C   UNL d   1      26.803 -13.528  -2.120  0.00  0.00     0.179 C 
ATOM      6  S   UNL d   1      26.579 -12.739  -3.605  0.00  0.00    -0.040 SA
BRANCH   5   7
ATOM      7  N   UNL d   1      27.364 -14.844  -1.930  0.00  0.00    -0.331 N 
ATOM      8  H   UNL d   1      28.145 -15.123  -2.520  0.00  0.00     0.168 HD
BRANCH   7   9
ATOM      9  C   UNL d   1      26.778 -15.966  -1.173  0.00  0.00     0.068 C 
ATOM     10  C   UNL d   1      27.544 -17.006  -0.625  0.00  0.00     0.092 C 
ATOM     11  C   UNL d   1      27.067 -17.995   0.208  0.00  0.00     0.039 C 
ATOM     12  C   UNL d   1      25.723 -18.157   0.331  0.00  0.00     0.010 C 
ATOM     13  C   UNL d   1      24.836 -17.258  -0.273  0.00  0.00    -0.052 C 
ATOM     14  C   UNL d   1      25.372 -16.123  -0.986  0.00  0.00     0.039 C 
BRANCH  10  15
ATOM     15  O   UNL d   1      28.790 -17.359  -1.044  0.00  0.00    -0.358 OA
ATOM     16  H   UNL d   1      29.342 -16.571  -0.863  0.00  0.00     0.217 HD
ENDBRANCH  10  15
BRANCH  13  17
ATOM     17  C   UNL d   1      23.335 -17.550  -0.116  0.00  0.00     0.014 C 
ATOM     18  C   UNL d   1      22.444 -16.329  -0.484  0.00  0.00     0.015 C 
BRANCH  17  19
ATOM     19  C   UNL d   1      22.934 -18.726  -1.022  0.00  0.00     0.004 C 
ATOM     20  C   UNL d   1      21.579 -19.314  -0.668  0.00  0.00     0.006 C 
ENDBRANCH  17  19
ENDBRANCH  13  17
ENDBRANCH   7   9
ENDBRANCH   5   7
ENDBRANCH   1   5
BRANCH   2  21
ATOM     21  C   UNL d   1      27.465 -11.321   0.921  0.00  0.00     0.061 A 
ATOM     22  C   UNL d   1      26.654 -10.177   1.115  0.00  0.00     0.055 A 
ATOM     23  C   UNL d   1      26.762  -9.430   2.271  0.00  0.00     0.104 A 
ATOM     24  C   UNL d   1      27.590  -9.884   3.299  0.00  0.00     0.038 A 
ATOM     25  C   UNL d   1      28.385 -11.034   3.101  0.00  0.00     0.033 A 
ATOM     26  C   UNL d   1      28.378 -11.763   1.893  0.00  0.00     0.046 A 
BRANCH  23  27
ATOM     27  N   UNL d   1      26.101  -8.120   2.370  0.00  0.00    -0.116 N 
ATOM     28  O   UNL d   1      26.530  -7.322   3.232  0.00  0.00    -0.532 OA
ATOM     29  O   UNL d   1      25.159  -7.891   1.618  0.00  0.00    -0.532 OA
ENDBRANCH  23  27
BRANCH  26  30
ATOM     30  N   UNL d   1      29.224 -12.833   1.710  0.00  0.00    -0.376 N 
ATOM     31  C   UNL d   1      30.455 -12.804   0.893  0.00  0.00     0.149 C 
ATOM     32  C   UNL d   1      30.493 -14.039  -0.026  0.00  0.00     0.187 C 
ATOM     33  O   UNL d   1      30.164 -15.281   0.616  0.00  0.00    -0.388 OA
ATOM     34  C   UNL d   1      28.942 -15.214   1.373  0.00  0.00     0.187 C 
ATOM     35  C   UNL d   1      28.995 -14.091   2.418  0.00  0.00     0.149 C 
ENDBRANCH  26  30
ENDBRANCH   2  21
TORSDOF 9
ENDMDL
MODEL 9
REMARK VINA RESULT:    -7.214      4.707      8.023
REMARK INTER + INTRA:         -12.823
REMARK INTER:                  -9.899
REMARK INTRA:                  -2.924
REMARK CONF_INDEPENDENT:        2.685
REMARK UNBOUND:                -2.924
REMARK  9 active torsions:
REMARK  status: ('A' for Active; 'I' for Inactive)
REMARK    1  A    between atoms: C_3  and  C_2 
REMARK    2  A    between atoms: C_3  and  C_5 
REMARK    3  A    between atoms: C_8  and  O_9 
REMARK    4  A    between atoms: C_10  and  N_11 
REMARK    5  A    between atoms: N_11  and  C_12 
REMARK    6  A    between atoms: C_12  and  N_14 
REMARK       I    between atoms: N_14  and  C_15 
REMARK    7  A    between atoms: C_15  and  C_17 
REMARK    8  A    between atoms: C_19  and  N_20 
REMARK    9  A    between atoms: C_25  and  N_26 
ROOT
ATOM      1  N   UNL d   1      26.344 -14.369  -2.132  0.00  0.00    -0.299 N 
ATOM      2  C   UNL d   1      25.744 -15.553  -2.573  0.00  0.00     0.260 C 
ATOM      3  O   UNL d   1      25.529 -15.872  -3.760  0.00  0.00    -0.267 OA
ATOM      4  H   UNL d   1      26.414 -14.293  -1.127  0.00  0.00     0.171 HD
ENDROOT
BRANCH   1   5
ATOM      5  C   UNL d   1      26.392 -13.178  -2.915  0.00  0.00     0.179 C 
ATOM      6  S   UNL d   1      26.966 -11.761  -2.180  0.00  0.00    -0.040 SA
BRANCH   5   7
ATOM      7  N   UNL d   1      26.096 -13.352  -4.316  0.00  0.00    -0.331 N 
ATOM      8  H   UNL d   1      25.170 -13.687  -4.573  0.00  0.00     0.168 HD
BRANCH   7   9
ATOM      9  C   UNL d   1      27.054 -13.374  -5.437  0.00  0.00     0.068 C 
ATOM     10  C   UNL d   1      27.780 -14.516  -5.804  0.00  0.00     0.092 C 
ATOM     11  C   UNL d   1      28.574 -14.631  -6.925  0.00  0.00     0.039 C 
ATOM     12  C   UNL d   1      28.903 -13.506  -7.613  0.00  0.00     0.010 C 
ATOM     13  C   UNL d   1      28.345 -12.269  -7.270  0.00  0.00    -0.052 C 
ATOM     14  C   UNL d   1      27.371 -12.215  -6.206  0.00  0.00     0.039 C 
BRANCH  10  15
ATOM     15  O   UNL d   1      28.035 -15.574  -4.986  0.00  0.00    -0.358 OA
ATOM     16  H   UNL d   1      27.239 -15.642  -4.418  0.00  0.00     0.217 HD
ENDBRANCH  10  15
BRANCH  13  17
ATOM     17  C   UNL d   1      28.813 -11.047  -8.076  0.00  0.00     0.014 C 
ATOM     18  C   UNL d   1      30.362 -10.939  -8.160  0.00  0.00     0.015 C 
BRANCH  17  19
ATOM     19  C   UNL d   1      28.260 -11.122  -9.510  0.00  0.00     0.004 C 
ATOM     20  C   UNL d   1      26.777 -11.448  -9.558  0.00  0.00     0.006 C 
ENDBRANCH  17  19
ENDBRANCH  13  17
ENDBRANCH   7   9
ENDBRANCH   5   7
ENDBRANCH   1   5
BRANCH   2  21
ATOM     21  C   UNL d   1      25.333 -16.626  -1.672  0.00  0.00     0.061 A 
ATOM     22  C   UNL d   1      24.030 -17.108  -1.948  0.00  0.00     0.055 A 
ATOM     23  C   UNL d   1      23.373 -17.912  -1.037  0.00  0.00     0.104 A 
ATOM     24  C   UNL d   1      24.054 -18.344   0.102  0.00  0.00     0.038 A 
ATOM     25  C   UNL d   1      25.359 -17.869   0.361  0.00  0.00     0.033 A 
ATOM     26  C   UNL d   1      26.021 -16.965  -0.495  0.00  0.00     0.046 A 
BRANCH  23  27
ATOM     27  N   UNL d   1      21.944 -18.212  -1.212  0.00  0.00    -0.116 N 
ATOM     28  O   UNL d   1      21.126 -17.320  -0.897  0.00  0.00    -0.532 OA
ATOM     29  O   UNL d   1      21.635 -19.321  -1.635  0.00  0.00    -0.532 OA
ENDBRANCH  23  27
BRANCH  26  30
ATOM     30  N   UNL d   1      27.260 -16.464  -0.170  0.00  0.00    -0.376 N 
ATOM     31  C   UNL d   1      27.531 -15.553   0.963  0.00  0.00     0.149 C 
ATOM     32  C   UNL d   1      28.412 -14.384   0.485  0.00  0.00     0.187 C 
ATOM     33  O   UNL d   1      29.532 -14.765  -0.330  0.00  0.00    -0.388 OA
ATOM     34  C   UNL d   1      29.165 -15.637  -1.414  0.00  0.00     0.187 C 
ATOM     35  C   UNL d   1      28.451 -16.894  -0.900  0.00  0.00     0.149 C 
ENDBRANCH  26  30
ENDBRANCH   2  21
TORSDOF 9
ENDMDL
