MODEL 1
REMARK VINA RESULT:    -8.052      0.000      0.000
REMARK INTER + INTRA:         -13.068
REMARK INTER:                 -10.736
REMARK INTRA:                  -2.332
REMARK CONF_INDEPENDENT:        2.685
REMARK UNBOUND:                -2.332
REMARK  9 active torsions:
REMARK  status: ('A' for Active; 'I' for Inactive)
REMARK    1  A    between atoms: O_2  and  C_3 
REMARK    2  A    between atoms: C_6  and  N_7 
REMARK       I    between atoms: N_7  and  C_8 
REMARK    3  A    between atoms: C_8  and  C_10 
REMARK    4  A    between atoms: C_10  and  S_11 
REMARK    5  A    between atoms: S_11  and  C_12 
REMARK    6  A    between atoms: C_14  and  N_15 
REMARK    7  A    between atoms: C_17  and  C_18 
REMARK    8  A    between atoms: C_18  and  C_19 
REMARK    9  A    between atoms: C_26  and  O_27 
ROOT
ATOM      1  C   UNL d   1      27.274 -14.377  -5.111  0.00  0.00     0.191 C 
ATOM      2  N   UNL d   1      25.990 -14.078  -5.033  0.00  0.00    -0.210 NA
ATOM      3  C   UNL d   1      25.292 -14.450  -3.958  0.00  0.00     0.117 C 
ATOM      4  C   UNL d   1      25.890 -15.315  -2.974  0.00  0.00     0.047 A 
ATOM      5  C   UNL d   1      25.472 -16.126  -1.791  0.00  0.00    -0.035 A 
ATOM      6  C   UNL d   1      26.564 -16.739  -1.188  0.00  0.00     0.060 A 
ATOM      7  S   UNL d   1      28.019 -16.483  -2.020  0.00  0.00    -0.081 SA
ATOM      8  C   UNL d   1      27.246 -15.538  -3.203  0.00  0.00     0.114 A 
ATOM      9  N   UNL d   1      27.975 -15.081  -4.228  0.00  0.00    -0.215 NA
ENDROOT
BRANCH   1  10
ATOM     10  S   UNL d   1      28.145 -13.771  -6.494  0.00  0.00    -0.081 SA
BRANCH  10  11
ATOM     11  C   UNL d   1      29.979 -13.790  -5.997  0.00  0.00     0.185 C 
BRANCH  11  12
ATOM     12  C   UNL d   1      30.470 -15.180  -6.454  0.00  0.00     0.232 C 
ATOM     13  N   UNL d   1      30.021 -16.329  -5.777  0.00  0.00    -0.324 N 
ATOM     14  H   UNL d   1      29.546 -16.214  -4.892  0.00  0.00     0.169 HD
ATOM     15  O   UNL d   1      31.305 -15.192  -7.340  0.00  0.00    -0.272 OA
BRANCH  13  16
ATOM     16  C   UNL d   1      30.410 -17.688  -6.127  0.00  0.00     0.068 C 
ATOM     17  C   UNL d   1      30.836 -17.979  -7.440  0.00  0.00     0.035 C 
ATOM     18  C   UNL d   1      31.098 -19.314  -7.848  0.00  0.00     0.039 C 
ATOM     19  C   UNL d   1      30.962 -20.371  -6.950  0.00  0.00     0.070 C 
ATOM     20  C   UNL d   1      30.641 -20.079  -5.639  0.00  0.00     0.075 C 
ATOM     21  C   UNL d   1      30.405 -18.771  -5.221  0.00  0.00     0.097 C 
BRANCH  19  22
ATOM     22  O   UNL d   1      31.267 -21.645  -7.350  0.00  0.00    -0.356 OA
ATOM     23  C   UNL d   1      32.589 -22.070  -6.992  0.00  0.00     0.210 C 
ENDBRANCH  19  22
BRANCH  21  24
ATOM     24  O   UNL d   1      30.353 -18.514  -3.888  0.00  0.00    -0.354 OA
ATOM     25  C   UNL d   1      31.297 -17.652  -3.279  0.00  0.00     0.210 C 
ENDBRANCH  21  24
ENDBRANCH  13  16
ENDBRANCH  11  12
ENDBRANCH  10  11
ENDBRANCH   1  10
BRANCH   3  26
ATOM     26  N   UNL d   1      24.031 -13.887  -4.055  0.00  0.00    -0.286 NA
ATOM     27  H   UNL d   1      24.082 -12.885  -3.921  0.00  0.00     0.125 HD
ATOM     28  H   UNL d   1      23.413 -14.103  -4.798  0.00  0.00     0.125 HD
ENDBRANCH   3  26
BRANCH   5  29
ATOM     29  C   UNL d   1      24.084 -16.400  -1.220  0.00  0.00     0.044 C 
BRANCH  29  30
ATOM     30  C   UNL d   1      23.851 -17.861  -0.929  0.00  0.00    -0.019 C 
ATOM     31  C   UNL d   1      24.266 -18.200   0.528  0.00  0.00     0.010 C 
ATOM     32  C   UNL d   1      22.477 -18.444  -1.163  0.00  0.00     0.010 C 
ENDBRANCH  29  30
ENDBRANCH   5  29
TORSDOF 9
ENDMDL
MODEL 2
REMARK VINA RESULT:    -7.691      5.125      7.835
REMARK INTER + INTRA:         -13.672
REMARK INTER:                 -10.376
REMARK INTRA:                  -3.295
REMARK CONF_INDEPENDENT:        2.685
REMARK UNBOUND:                -3.295
REMARK  9 active torsions:
REMARK  status: ('A' for Active; 'I' for Inactive)
REMARK    1  A    between atoms: O_2  and  C_3 
REMARK    2  A    between atoms: C_6  and  N_7 
REMARK       I    between atoms: N_7  and  C_8 
REMARK    3  A    between atoms: C_8  and  C_10 
REMARK    4  A    between atoms: C_10  and  S_11 
REMARK    5  A    between atoms: S_11  and  C_12 
REMARK    6  A    between atoms: C_14  and  N_15 
REMARK    7  A    between atoms: C_17  and  C_18 
REMARK    8  A    between atoms: C_18  and  C_19 
REMARK    9  A    between atoms: C_26  and  O_27 
ROOT
ATOM      1  C   UNL d   1      27.225 -12.890  -0.470  0.00  0.00     0.191 C 
ATOM      2  N   UNL d   1      27.535 -14.158  -0.270  0.00  0.00    -0.210 NA
ATOM      3  C   UNL d   1      27.622 -14.624   0.978  0.00  0.00     0.117 C 
ATOM      4  C   UNL d   1      27.547 -13.717   2.093  0.00  0.00     0.047 A 
ATOM      5  C   UNL d   1      27.792 -13.728   3.568  0.00  0.00    -0.035 A 
ATOM      6  C   UNL d   1      27.484 -12.499   4.139  0.00  0.00     0.060 A 
ATOM      7  S   UNL d   1      27.032 -11.326   3.003  0.00  0.00    -0.081 SA
ATOM      8  C   UNL d   1      27.218 -12.418   1.712  0.00  0.00     0.114 A 
ATOM      9  N   UNL d   1      27.029 -11.967   0.467  0.00  0.00    -0.215 NA
ENDROOT
BRANCH   1  10
ATOM     10  S   UNL d   1      27.027 -12.376  -2.124  0.00  0.00    -0.081 SA
BRANCH  10  11
ATOM     11  C   UNL d   1      27.246 -13.941  -3.181  0.00  0.00     0.185 C 
BRANCH  11  12
ATOM     12  C   UNL d   1      26.030 -14.814  -2.802  0.00  0.00     0.232 C 
ATOM     13  N   UNL d   1      26.083 -15.608  -1.642  0.00  0.00    -0.324 N 
ATOM     14  H   UNL d   1      26.976 -15.743  -1.190  0.00  0.00     0.169 HD
ATOM     15  O   UNL d   1      25.108 -14.827  -3.599  0.00  0.00    -0.272 OA
BRANCH  13  16
ATOM     16  C   UNL d   1      24.994 -16.460  -1.186  0.00  0.00     0.068 C 
ATOM     17  C   UNL d   1      23.657 -16.083  -1.433  0.00  0.00     0.035 C 
ATOM     18  C   UNL d   1      22.573 -16.823  -0.890  0.00  0.00     0.039 C 
ATOM     19  C   UNL d   1      22.804 -17.958  -0.116  0.00  0.00     0.070 C 
ATOM     20  C   UNL d   1      24.107 -18.385   0.046  0.00  0.00     0.075 C 
ATOM     21  C   UNL d   1      25.178 -17.682  -0.502  0.00  0.00     0.097 C 
BRANCH  19  22
ATOM     22  O   UNL d   1      21.744 -18.685   0.357  0.00  0.00    -0.356 OA
ATOM     23  C   UNL d   1      20.882 -19.196  -0.668  0.00  0.00     0.210 C 
ENDBRANCH  19  22
BRANCH  21  24
ATOM     24  O   UNL d   1      26.398 -18.279  -0.537  0.00  0.00    -0.354 OA
ATOM     25  C   UNL d   1      26.970 -18.829   0.635  0.00  0.00     0.210 C 
ENDBRANCH  21  24
ENDBRANCH  13  16
ENDBRANCH  11  12
ENDBRANCH  10  11
ENDBRANCH   1  10
BRANCH   3  26
ATOM     26  N   UNL d   1      27.804 -15.995   0.907  0.00  0.00    -0.286 NA
ATOM     27  H   UNL d   1      28.243 -16.335   1.753  0.00  0.00     0.125 HD
ATOM     28  H   UNL d   1      27.080 -16.608   0.624  0.00  0.00     0.125 HD
ENDBRANCH   3  26
BRANCH   5  29
ATOM     29  C   UNL d   1      28.352 -14.825   4.469  0.00  0.00     0.044 C 
BRANCH  29  30
ATOM     30  C   UNL d   1      29.740 -14.516   4.969  0.00  0.00    -0.019 C 
ATOM     31  C   UNL d   1      30.567 -13.790   3.875  0.00  0.00     0.010 C 
ATOM     32  C   UNL d   1      29.897 -13.738   6.256  0.00  0.00     0.010 C 
ENDBRANCH  29  30
ENDBRANCH   5  29
TORSDOF 9
ENDMDL
MODEL 3
REMARK VINA RESULT:    -7.546      4.191      7.053
REMARK INTER + INTRA:         -13.470
REMARK INTER:                 -10.231
REMARK INTRA:                  -3.239
REMARK CONF_INDEPENDENT:        2.685
REMARK UNBOUND:                -3.239
REMARK  9 active torsions:
REMARK  status: ('A' for Active; 'I' for Inactive)
REMARK    1  A    between atoms: O_2  and  C_3 
REMARK    2  A    between atoms: C_6  and  N_7 
REMARK       I    between atoms: N_7  and  C_8 
REMARK    3  A    between atoms: C_8  and  C_10 
REMARK    4  A    between atoms: C_10  and  S_11 
REMARK    5  A    between atoms: S_11  and  C_12 
REMARK    6  A    between atoms: C_14  and  N_15 
REMARK    7  A    between atoms: C_17  and  C_18 
REMARK    8  A    between atoms: C_18  and  C_19 
REMARK    9  A    between atoms: C_26  and  O_27 
ROOT
ATOM      1  C   UNL d   1      27.522 -14.851  -5.195  0.00  0.00     0.191 C 
ATOM      2  N   UNL d   1      26.255 -14.482  -5.180  0.00  0.00    -0.210 NA
ATOM      3  C   UNL d   1      25.530 -14.663  -4.074  0.00  0.00     0.117 C 
ATOM      4  C   UNL d   1      26.075 -15.407  -2.969  0.00  0.00     0.047 A 
ATOM      5  C   UNL d   1      25.607 -16.021  -1.689  0.00  0.00    -0.035 A 
ATOM      6  C   UNL d   1      26.661 -16.593  -0.988  0.00  0.00     0.060 A 
ATOM      7  S   UNL d   1      28.135 -16.530  -1.825  0.00  0.00    -0.081 SA
ATOM      8  C   UNL d   1      27.420 -15.726  -3.142  0.00  0.00     0.114 A 
ATOM      9  N   UNL d   1      28.180 -15.456  -4.209  0.00  0.00    -0.215 NA
ENDROOT
BRANCH   1  10
ATOM     10  S   UNL d   1      28.435 -14.491  -6.636  0.00  0.00    -0.081 SA
BRANCH  10  11
ATOM     11  C   UNL d   1      29.691 -13.157  -6.131  0.00  0.00     0.185 C 
BRANCH  11  12
ATOM     12  C   UNL d   1      28.812 -11.941  -5.771  0.00  0.00     0.232 C 
ATOM     13  N   UNL d   1      27.412 -12.049  -5.857  0.00  0.00    -0.324 N 
ATOM     14  H   UNL d   1      27.018 -12.848  -6.334  0.00  0.00     0.169 HD
ATOM     15  O   UNL d   1      29.403 -10.908  -5.511  0.00  0.00    -0.272 OA
BRANCH  13  16
ATOM     16  C   UNL d   1      26.488 -10.972  -5.534  0.00  0.00     0.068 C 
ATOM     17  C   UNL d   1      26.109 -10.049  -6.532  0.00  0.00     0.035 C 
ATOM     18  C   UNL d   1      25.315  -8.914  -6.219  0.00  0.00     0.039 C 
ATOM     19  C   UNL d   1      24.868  -8.696  -4.917  0.00  0.00     0.070 C 
ATOM     20  C   UNL d   1      25.155  -9.647  -3.959  0.00  0.00     0.075 C 
ATOM     21  C   UNL d   1      25.914 -10.777  -4.258  0.00  0.00     0.097 C 
BRANCH  19  22
ATOM     22  O   UNL d   1      24.063  -7.622  -4.646  0.00  0.00    -0.356 OA
ATOM     23  C   UNL d   1      23.118  -7.324  -5.683  0.00  0.00     0.210 C 
ENDBRANCH  19  22
BRANCH  21  24
ATOM     24  O   UNL d   1      25.943 -11.797  -3.361  0.00  0.00    -0.354 OA
ATOM     25  C   UNL d   1      27.068 -11.995  -2.524  0.00  0.00     0.210 C 
ENDBRANCH  21  24
ENDBRANCH  13  16
ENDBRANCH  11  12
ENDBRANCH  10  11
ENDBRANCH   1  10
BRANCH   3  26
ATOM     26  N   UNL d   1      24.300 -14.059  -4.270  0.00  0.00    -0.286 NA
ATOM     27  H   UNL d   1      24.390 -13.052  -4.213  0.00  0.00     0.125 HD
ATOM     28  H   UNL d   1      23.703 -14.309  -5.019  0.00  0.00     0.125 HD
ENDBRANCH   3  26
BRANCH   5  29
ATOM     29  C   UNL d   1      24.202 -16.142  -1.107  0.00  0.00     0.044 C 
BRANCH  29  30
ATOM     30  C   UNL d   1      23.763 -17.575  -0.937  0.00  0.00    -0.019 C 
ATOM     31  C   UNL d   1      24.414 -18.200   0.325  0.00  0.00     0.010 C 
ATOM     32  C   UNL d   1      22.285 -17.887  -0.896  0.00  0.00     0.010 C 
ENDBRANCH  29  30
ENDBRANCH   5  29
TORSDOF 9
ENDMDL
MODEL 4
REMARK VINA RESULT:    -7.115      2.960      7.335
REMARK INTER + INTRA:         -13.363
REMARK INTER:                  -9.800
REMARK INTRA:                  -3.564
REMARK CONF_INDEPENDENT:        2.685
REMARK UNBOUND:                -3.564
REMARK  9 active torsions:
REMARK  status: ('A' for Active; 'I' for Inactive)
REMARK    1  A    between atoms: O_2  and  C_3 
REMARK    2  A    between atoms: C_6  and  N_7 
REMARK       I    between atoms: N_7  and  C_8 
REMARK    3  A    between atoms: C_8  and  C_10 
REMARK    4  A    between atoms: C_10  and  S_11 
REMARK    5  A    between atoms: S_11  and  C_12 
REMARK    6  A    between atoms: C_14  and  N_15 
REMARK    7  A    between atoms: C_17  and  C_18 
REMARK    8  A    between atoms: C_18  and  C_19 
REMARK    9  A    between atoms: C_26  and  O_27 
ROOT
ATOM      1  C   UNL d   1      28.094 -14.976  -5.004  0.00  0.00     0.191 C 
ATOM      2  N   UNL d   1      28.171 -15.410  -3.759  0.00  0.00    -0.210 NA
ATOM      3  C   UNL d   1      29.082 -16.332  -3.439  0.00  0.00     0.117 C 
ATOM      4  C   UNL d   1      29.855 -16.970  -4.472  0.00  0.00     0.047 A 
ATOM      5  C   UNL d   1      30.779 -18.135  -4.626  0.00  0.00    -0.035 A 
ATOM      6  C   UNL d   1      31.273 -18.219  -5.922  0.00  0.00     0.060 A 
ATOM      7  S   UNL d   1      30.612 -17.061  -6.968  0.00  0.00    -0.081 SA
ATOM      8  C   UNL d   1      29.655 -16.400  -5.728  0.00  0.00     0.114 A 
ATOM      9  N   UNL d   1      28.816 -15.404  -6.035  0.00  0.00    -0.215 NA
ENDROOT
BRANCH   1  10
ATOM     10  S   UNL d   1      26.953 -13.699  -5.327  0.00  0.00    -0.081 SA
BRANCH  10  11
ATOM     11  C   UNL d   1      26.467 -12.998  -3.628  0.00  0.00     0.185 C 
BRANCH  11  12
ATOM     12  C   UNL d   1      25.504 -14.059  -3.054  0.00  0.00     0.232 C 
ATOM     13  N   UNL d   1      25.983 -14.995  -2.119  0.00  0.00    -0.324 N 
ATOM     14  H   UNL d   1      26.981 -15.080  -1.989  0.00  0.00     0.169 HD
ATOM     15  O   UNL d   1      24.380 -14.076  -3.523  0.00  0.00    -0.272 OA
BRANCH  13  16
ATOM     16  C   UNL d   1      25.163 -16.032  -1.508  0.00  0.00     0.068 C 
ATOM     17  C   UNL d   1      23.759 -15.986  -1.641  0.00  0.00     0.035 C 
ATOM     18  C   UNL d   1      22.926 -16.905  -0.950  0.00  0.00     0.039 C 
ATOM     19  C   UNL d   1      23.478 -17.894  -0.138  0.00  0.00     0.070 C 
ATOM     20  C   UNL d   1      24.853 -18.002  -0.083  0.00  0.00     0.075 C 
ATOM     21  C   UNL d   1      25.682 -17.122  -0.775  0.00  0.00     0.097 C 
BRANCH  19  22
ATOM     22  O   UNL d   1      22.659 -18.800   0.480  0.00  0.00    -0.356 OA
ATOM     23  C   UNL d   1      21.373 -18.944  -0.140  0.00  0.00     0.210 C 
ENDBRANCH  19  22
BRANCH  21  24
ATOM     24  O   UNL d   1      27.000 -17.430  -0.898  0.00  0.00    -0.354 OA
ATOM     25  C   UNL d   1      27.694 -18.077   0.153  0.00  0.00     0.210 C 
ENDBRANCH  21  24
ENDBRANCH  13  16
ENDBRANCH  11  12
ENDBRANCH  10  11
ENDBRANCH   1  10
BRANCH   3  26
ATOM     26  N   UNL d   1      29.055 -16.495  -2.064  0.00  0.00    -0.286 NA
ATOM     27  H   UNL d   1      28.346 -15.901  -1.654  0.00  0.00     0.125 HD
ATOM     28  H   UNL d   1      29.042 -17.390  -1.640  0.00  0.00     0.125 HD
ENDBRANCH   3  26
BRANCH   5  29
ATOM     29  C   UNL d   1      31.186 -19.212  -3.624  0.00  0.00     0.044 C 
BRANCH  29  30
ATOM     30  C   UNL d   1      31.326 -20.573  -4.257  0.00  0.00    -0.019 C 
ATOM     31  C   UNL d   1      32.784 -20.806  -4.736  0.00  0.00     0.010 C 
ATOM     32  C   UNL d   1      30.899 -21.792  -3.472  0.00  0.00     0.010 C 
ENDBRANCH  29  30
ENDBRANCH   5  29
TORSDOF 9
ENDMDL
MODEL 5
REMARK VINA RESULT:    -6.782      4.457      6.472
REMARK INTER + INTRA:         -12.480
REMARK INTER:                  -9.467
REMARK INTRA:                  -3.013
REMARK CONF_INDEPENDENT:        2.685
REMARK UNBOUND:                -3.013
REMARK  9 active torsions:
REMARK  status: ('A' for Active; 'I' for Inactive)
REMARK    1  A    between atoms: O_2  and  C_3 
REMARK    2  A    between atoms: C_6  and  N_7 
REMARK       I    between atoms: N_7  and  C_8 
REMARK    3  A    between atoms: C_8  and  C_10 
REMARK    4  A    between atoms: C_10  and  S_11 
REMARK    5  A    between atoms: S_11  and  C_12 
REMARK    6  A    between atoms: C_14  and  N_15 
REMARK    7  A    between atoms: C_17  and  C_18 
REMARK    8  A    between atoms: C_18  and  C_19 
REMARK    9  A    between atoms: C_26  and  O_27 
ROOT
ATOM      1  C   UNL d   1      26.969 -15.385  -3.438  0.00  0.00     0.191 C 
ATOM      2  N   UNL d   1      25.785 -14.840  -3.647  0.00  0.00    -0.210 NA
ATOM      3  C   UNL d   1      24.792 -15.074  -2.785  0.00  0.00     0.117 C 
ATOM      4  C   UNL d   1      24.963 -16.045  -1.736  0.00  0.00     0.047 A 
ATOM      5  C   UNL d   1      24.128 -16.765  -0.727  0.00  0.00    -0.035 A 
ATOM      6  C   UNL d   1      24.908 -17.583   0.082  0.00  0.00     0.060 A 
ATOM      7  S   UNL d   1      26.541 -17.613  -0.371  0.00  0.00    -0.081 SA
ATOM      8  C   UNL d   1      26.267 -16.528  -1.652  0.00  0.00     0.114 A 
ATOM      9  N   UNL d   1      27.293 -16.218  -2.452  0.00  0.00    -0.215 NA
ENDROOT
BRANCH   1  10
ATOM     10  S   UNL d   1      28.245 -14.954  -4.545  0.00  0.00    -0.081 SA
BRANCH  10  11
ATOM     11  C   UNL d   1      28.849 -13.238  -3.993  0.00  0.00     0.185 C 
BRANCH  11  12
ATOM     12  C   UNL d   1      28.326 -13.111  -2.547  0.00  0.00     0.232 C 
ATOM     13  N   UNL d   1      28.645 -14.106  -1.605  0.00  0.00    -0.324 N 
ATOM     14  H   UNL d   1      29.043 -14.974  -1.936  0.00  0.00     0.169 HD
ATOM     15  O   UNL d   1      27.576 -12.177  -2.326  0.00  0.00    -0.272 OA
BRANCH  13  16
ATOM     16  C   UNL d   1      28.214 -14.083  -0.215  0.00  0.00     0.068 C 
ATOM     17  C   UNL d   1      26.981 -13.489   0.128  0.00  0.00     0.035 C 
ATOM     18  C   UNL d   1      26.593 -13.335   1.485  0.00  0.00     0.039 C 
ATOM     19  C   UNL d   1      27.412 -13.791   2.516  0.00  0.00     0.070 C 
ATOM     20  C   UNL d   1      28.573 -14.459   2.181  0.00  0.00     0.075 C 
ATOM     21  C   UNL d   1      28.954 -14.638   0.853  0.00  0.00     0.097 C 
BRANCH  19  22
ATOM     22  O   UNL d   1      26.996 -13.676   3.816  0.00  0.00    -0.356 OA
ATOM     23  C   UNL d   1      27.775 -14.439   4.748  0.00  0.00     0.210 C 
ENDBRANCH  19  22
BRANCH  21  24
ATOM     24  O   UNL d   1      29.951 -15.519   0.575  0.00  0.00    -0.354 OA
ATOM     25  C   UNL d   1      29.728 -16.614  -0.294  0.00  0.00     0.210 C 
ENDBRANCH  21  24
ENDBRANCH  13  16
ENDBRANCH  11  12
ENDBRANCH  10  11
ENDBRANCH   1  10
BRANCH   3  26
ATOM     26  N   UNL d   1      23.721 -14.275  -3.145  0.00  0.00    -0.286 NA
ATOM     27  H   UNL d   1      23.984 -13.298  -3.108  0.00  0.00     0.125 HD
ATOM     28  H   UNL d   1      23.178 -14.454  -3.954  0.00  0.00     0.125 HD
ENDBRANCH   3  26
BRANCH   5  29
ATOM     29  C   UNL d   1      22.617 -16.765  -0.512  0.00  0.00     0.044 C 
BRANCH  29  30
ATOM     30  C   UNL d   1      21.976 -18.080  -0.877  0.00  0.00    -0.019 C 
ATOM     31  C   UNL d   1      22.957 -18.955  -1.703  0.00  0.00     0.010 C 
ATOM     32  C   UNL d   1      21.402 -18.944   0.222  0.00  0.00     0.010 C 
ENDBRANCH  29  30
ENDBRANCH   5  29
TORSDOF 9
ENDMDL
MODEL 6
REMARK VINA RESULT:    -6.568      3.215      4.055
REMARK INTER + INTRA:         -12.698
REMARK INTER:                  -9.253
REMARK INTRA:                  -3.446
REMARK CONF_INDEPENDENT:        2.685
REMARK UNBOUND:                -3.446
REMARK  9 active torsions:
REMARK  status: ('A' for Active; 'I' for Inactive)
REMARK    1  A    between atoms: O_2  and  C_3 
REMARK    2  A    between atoms: C_6  and  N_7 
REMARK       I    between atoms: N_7  and  C_8 
REMARK    3  A    between atoms: C_8  and  C_10 
REMARK    4  A    between atoms: C_10  and  S_11 
REMARK    5  A    between atoms: S_11  and  C_12 
REMARK    6  A    between atoms: C_14  and  N_15 
REMARK    7  A    between atoms: C_17  and  C_18 
REMARK    8  A    between atoms: C_18  and  C_19 
REMARK    9  A    between atoms: C_26  and  O_27 
ROOT
ATOM      1  C   UNL d   1      25.997 -11.708  -3.494  0.00  0.00     0.191 C 
ATOM      2  N   UNL d   1      25.636 -12.732  -4.245  0.00  0.00    -0.210 NA
ATOM      3  C   UNL d   1      25.509 -13.941  -3.691  0.00  0.00     0.117 C 
ATOM      4  C   UNL d   1      25.924 -14.157  -2.330  0.00  0.00     0.047 A 
ATOM      5  C   UNL d   1      26.166 -15.301  -1.399  0.00  0.00    -0.035 A 
ATOM      6  C   UNL d   1      26.528 -14.854  -0.134  0.00  0.00     0.060 A 
ATOM      7  S   UNL d   1      26.696 -13.170  -0.041  0.00  0.00    -0.081 SA
ATOM      8  C   UNL d   1      26.280 -12.978  -1.679  0.00  0.00     0.114 A 
ATOM      9  N   UNL d   1      26.311 -11.748  -2.202  0.00  0.00    -0.215 NA
ENDROOT
BRANCH   1  10
ATOM     10  S   UNL d   1      26.044 -10.143  -4.260  0.00  0.00    -0.081 SA
BRANCH  10  11
ATOM     11  C   UNL d   1      25.990 -10.482  -6.130  0.00  0.00     0.185 C 
BRANCH  11  12
ATOM     12  C   UNL d   1      27.306 -11.241  -6.404  0.00  0.00     0.232 C 
ATOM     13  N   UNL d   1      27.330 -12.644  -6.298  0.00  0.00    -0.324 N 
ATOM     14  H   UNL d   1      26.547 -13.109  -5.860  0.00  0.00     0.169 HD
ATOM     15  O   UNL d   1      28.289 -10.555  -6.616  0.00  0.00    -0.272 OA
BRANCH  13  16
ATOM     16  C   UNL d   1      28.510 -13.461  -6.543  0.00  0.00     0.068 C 
ATOM     17  C   UNL d   1      29.650 -12.885  -7.143  0.00  0.00     0.035 C 
ATOM     18  C   UNL d   1      30.766 -13.681  -7.513  0.00  0.00     0.039 C 
ATOM     19  C   UNL d   1      30.773 -15.053  -7.269  0.00  0.00     0.070 C 
ATOM     20  C   UNL d   1      29.701 -15.603  -6.595  0.00  0.00     0.075 C 
ATOM     21  C   UNL d   1      28.611 -14.829  -6.206  0.00  0.00     0.097 C 
BRANCH  19  22
ATOM     22  O   UNL d   1      31.879 -15.794  -7.589  0.00  0.00    -0.356 OA
ATOM     23  C   UNL d   1      32.839 -15.095  -8.393  0.00  0.00     0.210 C 
ENDBRANCH  19  22
BRANCH  21  24
ATOM     24  O   UNL d   1      27.719 -15.356  -5.326  0.00  0.00    -0.354 OA
ATOM     25  C   UNL d   1      28.134 -15.782  -4.041  0.00  0.00     0.210 C 
ENDBRANCH  21  24
ENDBRANCH  13  16
ENDBRANCH  11  12
ENDBRANCH  10  11
ENDBRANCH   1  10
BRANCH   3  26
ATOM     26  N   UNL d   1      24.980 -14.791  -4.647  0.00  0.00    -0.286 NA
ATOM     27  H   UNL d   1      24.326 -14.292  -5.237  0.00  0.00     0.125 HD
ATOM     28  H   UNL d   1      25.549 -15.389  -5.193  0.00  0.00     0.125 HD
ENDBRANCH   3  26
BRANCH   5  29
ATOM     29  C   UNL d   1      26.124 -16.806  -1.649  0.00  0.00     0.044 C 
BRANCH  29  30
ATOM     30  C   UNL d   1      24.934 -17.471  -1.004  0.00  0.00    -0.019 C 
ATOM     31  C   UNL d   1      25.331 -18.096   0.360  0.00  0.00     0.010 C 
ATOM     32  C   UNL d   1      23.672 -16.666  -0.792  0.00  0.00     0.010 C 
ENDBRANCH  29  30
ENDBRANCH   5  29
TORSDOF 9
ENDMDL
MODEL 7
REMARK VINA RESULT:    -6.365      1.360      2.026
REMARK INTER + INTRA:         -12.800
REMARK INTER:                  -9.050
REMARK INTRA:                  -3.750
REMARK CONF_INDEPENDENT:        2.685
REMARK UNBOUND:                -3.750
REMARK  9 active torsions:
REMARK  status: ('A' for Active; 'I' for Inactive)
REMARK    1  A    between atoms: O_2  and  C_3 
REMARK    2  A    between atoms: C_6  and  N_7 
REMARK       I    between atoms: N_7  and  C_8 
REMARK    3  A    between atoms: C_8  and  C_10 
REMARK    4  A    between atoms: C_10  and  S_11 
REMARK    5  A    between atoms: S_11  and  C_12 
REMARK    6  A    between atoms: C_14  and  N_15 
REMARK    7  A    between atoms: C_17  and  C_18 
REMARK    8  A    between atoms: C_18  and  C_19 
REMARK    9  A    between atoms: C_26  and  O_27 
ROOT
ATOM      1  C   UNL d   1      27.927 -14.389  -5.658  0.00  0.00     0.191 C 
ATOM      2  N   UNL d   1      28.672 -15.130  -4.860  0.00  0.00    -0.210 NA
ATOM      3  C   UNL d   1      28.135 -15.650  -3.754  0.00  0.00     0.117 C 
ATOM      4  C   UNL d   1      26.808 -15.268  -3.349  0.00  0.00     0.047 A 
ATOM      5  C   UNL d   1      25.916 -15.400  -2.156  0.00  0.00    -0.035 A 
ATOM      6  C   UNL d   1      24.668 -14.837  -2.395  0.00  0.00     0.060 A 
ATOM      7  S   UNL d   1      24.554 -14.075  -3.905  0.00  0.00    -0.081 SA
ATOM      8  C   UNL d   1      26.158 -14.481  -4.297  0.00  0.00     0.114 A 
ATOM      9  N   UNL d   1      26.659 -14.041  -5.457  0.00  0.00    -0.215 NA
ENDROOT
BRANCH   1  10
ATOM     10  S   UNL d   1      28.665 -13.829  -7.135  0.00  0.00    -0.081 SA
BRANCH  10  11
ATOM     11  C   UNL d   1      30.538 -13.846  -6.814  0.00  0.00     0.185 C 
BRANCH  11  12
ATOM     12  C   UNL d   1      30.951 -15.302  -7.121  0.00  0.00     0.232 C 
ATOM     13  N   UNL d   1      30.434 -16.347  -6.334  0.00  0.00    -0.324 N 
ATOM     14  H   UNL d   1      29.962 -16.115  -5.471  0.00  0.00     0.169 HD
ATOM     15  O   UNL d   1      31.788 -15.452  -7.993  0.00  0.00    -0.272 OA
BRANCH  13  16
ATOM     16  C   UNL d   1      30.746 -17.755  -6.539  0.00  0.00     0.068 C 
ATOM     17  C   UNL d   1      31.260 -18.186  -7.781  0.00  0.00     0.035 C 
ATOM     18  C   UNL d   1      31.452 -19.566  -8.056  0.00  0.00     0.039 C 
ATOM     19  C   UNL d   1      31.160 -20.530  -7.094  0.00  0.00     0.070 C 
ATOM     20  C   UNL d   1      30.751 -20.106  -5.845  0.00  0.00     0.075 C 
ATOM     21  C   UNL d   1      30.581 -18.754  -5.555  0.00  0.00     0.097 C 
BRANCH  19  22
ATOM     22  O   UNL d   1      31.399 -21.852  -7.362  0.00  0.00    -0.356 OA
ATOM     23  C   UNL d   1      32.277 -22.072  -8.475  0.00  0.00     0.210 C 
ENDBRANCH  19  22
BRANCH  21  24
ATOM     24  O   UNL d   1      30.436 -18.381  -4.256  0.00  0.00    -0.354 OA
ATOM     25  C   UNL d   1      31.229 -18.967  -3.241  0.00  0.00     0.210 C 
ENDBRANCH  21  24
ENDBRANCH  13  16
ENDBRANCH  11  12
ENDBRANCH  10  11
ENDBRANCH   1  10
BRANCH   3  26
ATOM     26  N   UNL d   1      29.071 -16.498  -3.186  0.00  0.00    -0.286 NA
ATOM     27  H   UNL d   1      28.760 -17.459  -3.251  0.00  0.00     0.125 HD
ATOM     28  H   UNL d   1      30.036 -16.434  -3.396  0.00  0.00     0.125 HD
ENDBRANCH   3  26
BRANCH   5  29
ATOM     29  C   UNL d   1      26.192 -15.989  -0.776  0.00  0.00     0.044 C 
BRANCH  29  30
ATOM     30  C   UNL d   1      25.820 -17.448  -0.680  0.00  0.00    -0.019 C 
ATOM     31  C   UNL d   1      26.615 -18.140   0.459  0.00  0.00     0.010 C 
ATOM     32  C   UNL d   1      24.365 -17.823  -0.520  0.00  0.00     0.010 C 
ENDBRANCH  29  30
ENDBRANCH   5  29
TORSDOF 9
ENDMDL
MODEL 8
REMARK VINA RESULT:    -6.189      3.374      7.366
REMARK INTER + INTRA:         -12.638
REMARK INTER:                  -8.873
REMARK INTRA:                  -3.765
REMARK CONF_INDEPENDENT:        2.685
REMARK UNBOUND:                -3.765
REMARK  9 active torsions:
REMARK  status: ('A' for Active; 'I' for Inactive)
REMARK    1  A    between atoms: O_2  and  C_3 
REMARK    2  A    between atoms: C_6  and  N_7 
REMARK       I    between atoms: N_7  and  C_8 
REMARK    3  A    between atoms: C_8  and  C_10 
REMARK    4  A    between atoms: C_10  and  S_11 
REMARK    5  A    between atoms: S_11  and  C_12 
REMARK    6  A    between atoms: C_14  and  N_15 
REMARK    7  A    between atoms: C_17  and  C_18 
REMARK    8  A    between atoms: C_18  and  C_19 
REMARK    9  A    between atoms: C_26  and  O_27 
ROOT
ATOM      1  C   UNL d   1      29.530 -16.204  -4.780  0.00  0.00     0.191 C 
ATOM      2  N   UNL d   1      28.240 -15.927  -4.742  0.00  0.00    -0.210 NA
ATOM      3  C   UNL d   1      27.739 -15.010  -5.574  0.00  0.00     0.117 C 
ATOM      4  C   UNL d   1      28.623 -14.212  -6.383  0.00  0.00     0.047 A 
ATOM      5  C   UNL d   1      28.560 -12.994  -7.247  0.00  0.00    -0.035 A 
ATOM      6  C   UNL d   1      29.793 -12.724  -7.828  0.00  0.00     0.060 A 
ATOM      7  S   UNL d   1      31.022 -13.771  -7.312  0.00  0.00    -0.081 SA
ATOM      8  C   UNL d   1      29.951 -14.628  -6.306  0.00  0.00     0.114 A 
ATOM      9  N   UNL d   1      30.442 -15.615  -5.549  0.00  0.00    -0.215 NA
ENDROOT
BRANCH   1  10
ATOM     10  S   UNL d   1      30.096 -17.482  -3.739  0.00  0.00    -0.081 SA
BRANCH  10  11
ATOM     11  C   UNL d   1      30.345 -16.686  -2.031  0.00  0.00     0.185 C 
BRANCH  11  12
ATOM     12  C   UNL d   1      28.980 -16.875  -1.335  0.00  0.00     0.232 C 
ATOM     13  N   UNL d   1      27.796 -16.687  -2.071  0.00  0.00    -0.324 N 
ATOM     14  H   UNL d   1      27.856 -16.246  -2.978  0.00  0.00     0.169 HD
ATOM     15  O   UNL d   1      29.013 -17.096  -0.138  0.00  0.00    -0.272 OA
BRANCH  13  16
ATOM     16  C   UNL d   1      26.458 -16.847  -1.519  0.00  0.00     0.068 C 
ATOM     17  C   UNL d   1      26.278 -17.543  -0.304  0.00  0.00     0.035 C 
ATOM     18  C   UNL d   1      24.979 -17.828   0.192  0.00  0.00     0.039 C 
ATOM     19  C   UNL d   1      23.845 -17.406  -0.498  0.00  0.00     0.070 C 
ATOM     20  C   UNL d   1      24.018 -16.641  -1.635  0.00  0.00     0.075 C 
ATOM     21  C   UNL d   1      25.287 -16.334  -2.120  0.00  0.00     0.097 C 
BRANCH  19  22
ATOM     22  O   UNL d   1      22.602 -17.649   0.023  0.00  0.00    -0.356 OA
ATOM     23  C   UNL d   1      21.995 -18.858  -0.452  0.00  0.00     0.210 C 
ENDBRANCH  19  22
BRANCH  21  24
ATOM     24  O   UNL d   1      25.404 -15.373  -3.074  0.00  0.00    -0.354 OA
ATOM     25  C   UNL d   1      25.604 -14.018  -2.717  0.00  0.00     0.210 C 
ENDBRANCH  21  24
ENDBRANCH  13  16
ENDBRANCH  11  12
ENDBRANCH  10  11
ENDBRANCH   1  10
BRANCH   3  26
ATOM     26  N   UNL d   1      26.362 -15.022  -5.438  0.00  0.00    -0.286 NA
ATOM     27  H   UNL d   1      26.051 -15.920  -5.088  0.00  0.00     0.125 HD
ATOM     28  H   UNL d   1      25.870 -14.289  -4.990  0.00  0.00     0.125 HD
ENDBRANCH   3  26
BRANCH   5  29
ATOM     29  C   UNL d   1      27.407 -12.034  -7.520  0.00  0.00     0.044 C 
BRANCH  29  30
ATOM     30  C   UNL d   1      27.102 -11.140  -6.344  0.00  0.00    -0.019 C 
ATOM     31  C   UNL d   1      26.188 -11.870  -5.325  0.00  0.00     0.010 C 
ATOM     32  C   UNL d   1      28.250 -10.526  -5.576  0.00  0.00     0.010 C 
ENDBRANCH  29  30
ENDBRANCH   5  29
TORSDOF 9
ENDMDL
MODEL 9
REMARK VINA RESULT:    -6.173      2.696      6.937
REMARK INTER + INTRA:         -12.595
REMARK INTER:                  -8.857
REMARK INTRA:                  -3.738
REMARK CONF_INDEPENDENT:        2.685
REMARK UNBOUND:                -3.738
REMARK  9 active torsions:
REMARK  status: ('A' for Active; 'I' for Inactive)
REMARK    1  A    between atoms: O_2  and  C_3 
REMARK    2  A    between atoms: C_6  and  N_7 
REMARK       I    between atoms: N_7  and  C_8 
REMARK    3  A    between atoms: C_8  and  C_10 
REMARK    4  A    between atoms: C_10  and  S_11 
REMARK    5  A    between atoms: S_11  and  C_12 
REMARK    6  A    between atoms: C_14  and  N_15 
REMARK    7  A    between atoms: C_17  and  C_18 
REMARK    8  A    between atoms: C_18  and  C_19 
REMARK    9  A    between atoms: C_26  and  O_27 
ROOT
ATOM      1  C   UNL d   1      30.008 -15.945  -5.165  0.00  0.00     0.191 C 
ATOM      2  N   UNL d   1      30.011 -16.460  -3.950  0.00  0.00    -0.210 NA
ATOM      3  C   UNL d   1      30.339 -17.743  -3.780  0.00  0.00     0.117 C 
ATOM      4  C   UNL d   1      30.521 -18.598  -4.924  0.00  0.00     0.047 A 
ATOM      5  C   UNL d   1      30.670 -20.055  -5.225  0.00  0.00    -0.035 A 
ATOM      6  C   UNL d   1      30.870 -20.271  -6.583  0.00  0.00     0.060 A 
ATOM      7  S   UNL d   1      30.780 -18.854  -7.508  0.00  0.00    -0.081 SA
ATOM      8  C   UNL d   1      30.483 -17.902  -6.131  0.00  0.00     0.114 A 
ATOM      9  N   UNL d   1      30.256 -16.595  -6.299  0.00  0.00    -0.215 NA
ENDROOT
BRANCH   1  10
ATOM     10  S   UNL d   1      29.671 -14.240  -5.301  0.00  0.00    -0.081 SA
BRANCH  10  11
ATOM     11  C   UNL d   1      27.880 -14.117  -5.928  0.00  0.00     0.185 C 
BRANCH  11  12
ATOM     12  C   UNL d   1      27.083 -14.993  -4.939  0.00  0.00     0.232 C 
ATOM     13  N   UNL d   1      27.554 -15.156  -3.623  0.00  0.00    -0.324 N 
ATOM     14  H   UNL d   1      28.495 -14.860  -3.407  0.00  0.00     0.169 HD
ATOM     15  O   UNL d   1      26.115 -15.575  -5.395  0.00  0.00    -0.272 OA
BRANCH  13  16
ATOM     16  C   UNL d   1      26.879 -15.950  -2.607  0.00  0.00     0.068 C 
ATOM     17  C   UNL d   1      25.527 -16.317  -2.785  0.00  0.00     0.035 C 
ATOM     18  C   UNL d   1      24.805 -16.978  -1.757  0.00  0.00     0.039 C 
ATOM     19  C   UNL d   1      25.421 -17.303  -0.550  0.00  0.00     0.070 C 
ATOM     20  C   UNL d   1      26.768 -17.034  -0.411  0.00  0.00     0.075 C 
ATOM     21  C   UNL d   1      27.494 -16.407  -1.420  0.00  0.00     0.097 C 
BRANCH  19  22
ATOM     22  O   UNL d   1      24.719 -17.984   0.408  0.00  0.00    -0.356 OA
ATOM     23  C   UNL d   1      23.340 -18.200   0.081  0.00  0.00     0.210 C 
ENDBRANCH  19  22
BRANCH  21  24
ATOM     24  O   UNL d   1      28.851 -16.404  -1.340  0.00  0.00    -0.354 OA
ATOM     25  C   UNL d   1      29.505 -16.020  -0.145  0.00  0.00     0.210 C 
ENDBRANCH  21  24
ENDBRANCH  13  16
ENDBRANCH  11  12
ENDBRANCH  10  11
ENDBRANCH   1  10
BRANCH   3  26
ATOM     26  N   UNL d   1      30.413 -17.986  -2.419  0.00  0.00    -0.286 NA
ATOM     27  H   UNL d   1      30.802 -17.183  -1.940  0.00  0.00     0.125 HD
ATOM     28  H   UNL d   1      29.650 -18.356  -1.907  0.00  0.00     0.125 HD
ENDBRANCH   3  26
BRANCH   5  29
ATOM     29  C   UNL d   1      30.583 -21.268  -4.304  0.00  0.00     0.044 C 
BRANCH  29  30
ATOM     30  C   UNL d   1      31.508 -21.165  -3.117  0.00  0.00    -0.019 C 
ATOM     31  C   UNL d   1      31.864 -22.577  -2.578  0.00  0.00     0.010 C 
ATOM     32  C   UNL d   1      32.796 -20.387  -3.258  0.00  0.00     0.010 C 
ENDBRANCH  29  30
ENDBRANCH   5  29
TORSDOF 9
ENDMDL
