MODEL 1
REMARK VINA RESULT:    -9.771      0.000      0.000
REMARK INTER + INTRA:         -13.904
REMARK INTER:                 -11.859
REMARK INTRA:                  -2.045
REMARK CONF_INDEPENDENT:        2.088
REMARK UNBOUND:                -2.045
REMARK  7 active torsions:
REMARK  status: ('A' for Active; 'I' for Inactive)
REMARK    1  A    between atoms: O_2  and  C_3 
REMARK    2  A    between atoms: C_6  and  N_7 
REMARK       I    between atoms: N_7  and  C_8 
REMARK       I    between atoms: C_8  and  N_19 
REMARK       I    between atoms: N_9  and  C_10 
REMARK    3  A    between atoms: C_10  and  C_12 
REMARK    4  A    between atoms: N_19  and  C_20 
REMARK    5  A    between atoms: C_20  and  C_21 
REMARK    6  A    between atoms: C_21  and  C_22 
REMARK    7  A    between atoms: C_32  and  O_33 
ROOT
ATOM      1  N   UNL d   1      29.371 -14.584   3.455  0.00  0.00    -0.190 N 
ATOM      2  C   UNL d   1      28.984 -14.168   2.159  0.00  0.00     0.704 C 
ATOM      3  N   UNL d   1      28.375 -13.095   1.733  0.00  0.00    -0.023 NA
ATOM      4  C   UNL d   1      27.463 -12.497   2.568  0.00  0.00     0.294 C 
ATOM      5  O   UNL d   1      26.668 -13.117   3.226  0.00  0.00    -0.265 OA
ATOM      6  N   UNL d   1      29.288 -15.065   1.117  0.00  0.00    -0.224 N 
ATOM      7  H   UNL d   1      29.598 -15.562   3.571  0.00  0.00     0.184 HD
ATOM      8  H   UNL d   1      29.432 -16.041   1.354  0.00  0.00     0.177 HD
ENDROOT
BRANCH   1   9
ATOM      9  C   UNL d   1      29.237 -13.897   4.710  0.00  0.00     0.052 C 
ATOM     10  C   UNL d   1      28.832 -14.454   5.916  0.00  0.00     0.033 C 
ATOM     11  C   UNL d   1      28.530 -13.616   7.049  0.00  0.00     0.042 C 
ATOM     12  C   UNL d   1      28.490 -12.202   6.984  0.00  0.00     0.101 C 
ATOM     13  C   UNL d   1      28.865 -11.678   5.773  0.00  0.00     0.103 C 
ATOM     14  C   UNL d   1      29.485 -12.545   4.835  0.00  0.00     0.069 C 
BRANCH  12  15
ATOM     15  O   UNL d   1      28.388 -11.559   8.188  0.00  0.00    -0.353 OA
ATOM     16  C   UNL d   1      28.355 -12.223   9.446  0.00  0.00     0.210 C 
ENDBRANCH  12  15
BRANCH  13  17
ATOM     17  O   UNL d   1      28.665 -10.463   5.208  0.00  0.00    -0.353 OA
ATOM     18  C   UNL d   1      28.928  -9.251   5.846  0.00  0.00     0.210 C 
ENDBRANCH  13  17
ENDBRANCH   1   9
BRANCH   6  19
ATOM     19  C   UNL d   1      28.691 -14.809  -0.227  0.00  0.00     0.142 C 
BRANCH  19  20
ATOM     20  C   UNL d   1      27.178 -15.018  -0.318  0.00  0.00     0.057 C 
BRANCH  20  21
ATOM     21  C   UNL d   1      26.658 -16.435  -0.170  0.00  0.00    -0.048 A 
ATOM     22  C   UNL d   1      25.388 -16.751  -0.444  0.00  0.00    -0.006 A 
ATOM     23  C   UNL d   1      24.291 -15.964  -0.886  0.00  0.00     0.014 A 
ATOM     24  C   UNL d   1      25.235 -18.182  -0.138  0.00  0.00     0.038 A 
ATOM     25  C   UNL d   1      23.073 -16.522  -0.896  0.00  0.00     0.001 A 
ATOM     26  C   UNL d   1      22.880 -17.931  -0.586  0.00  0.00     0.002 A 
ATOM     27  C   UNL d   1      23.883 -18.766  -0.246  0.00  0.00     0.030 A 
ATOM     28  N   UNL d   1      26.341 -18.709   0.224  0.00  0.00    -0.385 N 
ATOM     29  C   UNL d   1      27.391 -17.655   0.340  0.00  0.00     0.155 A 
ATOM     30  H   UNL d   1      26.441 -19.705   0.417  0.00  0.00     0.160 HD
ENDBRANCH  20  21
ENDBRANCH  19  20
ENDBRANCH   6  19
BRANCH   4  31
ATOM     31  C   UNL d   1      27.202 -11.036   2.360  0.00  0.00     0.036 C 
ATOM     32  C   UNL d   1      26.378 -10.164   3.106  0.00  0.00     0.017 C 
ATOM     33  C   UNL d   1      25.796  -9.057   2.467  0.00  0.00     0.003 C 
ATOM     34  C   UNL d   1      26.128  -8.765   1.146  0.00  0.00     0.024 C 
ATOM     35  C   UNL d   1      27.038  -9.572   0.470  0.00  0.00     0.035 C 
ATOM     36 CL   UNL d   1      27.486  -9.247  -1.150  0.00  0.00    -0.084 Cl
ATOM     37  C   UNL d   1      27.556 -10.704   1.065  0.00  0.00     0.041 C 
ENDBRANCH   4  31
TORSDOF 7
ENDMDL
MODEL 2
REMARK VINA RESULT:    -9.520      1.419      1.599
REMARK INTER + INTRA:         -13.872
REMARK INTER:                 -11.608
REMARK INTRA:                  -2.264
REMARK CONF_INDEPENDENT:        2.088
REMARK UNBOUND:                -2.264
REMARK  7 active torsions:
REMARK  status: ('A' for Active; 'I' for Inactive)
REMARK    1  A    between atoms: O_2  and  C_3 
REMARK    2  A    between atoms: C_6  and  N_7 
REMARK       I    between atoms: N_7  and  C_8 
REMARK       I    between atoms: C_8  and  N_19 
REMARK       I    between atoms: N_9  and  C_10 
REMARK    3  A    between atoms: C_10  and  C_12 
REMARK    4  A    between atoms: N_19  and  C_20 
REMARK    5  A    between atoms: C_20  and  C_21 
REMARK    6  A    between atoms: C_21  and  C_22 
REMARK    7  A    between atoms: C_32  and  O_33 
ROOT
ATOM      1  N   UNL d   1      29.614 -14.622   3.588  0.00  0.00    -0.190 N 
ATOM      2  C   UNL d   1      29.073 -14.182   2.356  0.00  0.00     0.704 C 
ATOM      3  N   UNL d   1      28.322 -13.159   2.050  0.00  0.00    -0.023 NA
ATOM      4  C   UNL d   1      27.431 -12.708   2.992  0.00  0.00     0.294 C 
ATOM      5  O   UNL d   1      26.765 -13.444   3.673  0.00  0.00    -0.265 OA
ATOM      6  N   UNL d   1      29.375 -14.984   1.238  0.00  0.00    -0.224 N 
ATOM      7  H   UNL d   1      29.948 -15.575   3.623  0.00  0.00     0.184 HD
ATOM      8  H   UNL d   1      29.638 -15.950   1.402  0.00  0.00     0.177 HD
ENDROOT
BRANCH   1   9
ATOM      9  C   UNL d   1      29.521 -14.021   4.890  0.00  0.00     0.052 C 
ATOM     10  C   UNL d   1      28.684 -14.420   5.924  0.00  0.00     0.033 C 
ATOM     11  C   UNL d   1      28.530 -13.604   7.101  0.00  0.00     0.042 C 
ATOM     12  C   UNL d   1      29.091 -12.311   7.233  0.00  0.00     0.101 C 
ATOM     13  C   UNL d   1      29.887 -11.928   6.184  0.00  0.00     0.103 C 
ATOM     14  C   UNL d   1      30.272 -12.919   5.243  0.00  0.00     0.069 C 
BRANCH  12  15
ATOM     15  O   UNL d   1      29.019 -11.760   8.484  0.00  0.00    -0.353 OA
ATOM     16  C   UNL d   1      28.300 -12.337   9.568  0.00  0.00     0.210 C 
ENDBRANCH  12  15
BRANCH  13  17
ATOM     17  O   UNL d   1      30.327 -10.714   5.772  0.00  0.00    -0.353 OA
ATOM     18  C   UNL d   1      31.510 -10.511   5.063  0.00  0.00     0.210 C 
ENDBRANCH  13  17
ENDBRANCH   1   9
BRANCH   6  19
ATOM     19  C   UNL d   1      28.638 -14.723  -0.034  0.00  0.00     0.142 C 
BRANCH  19  20
ATOM     20  C   UNL d   1      27.129 -14.968   0.026  0.00  0.00     0.057 C 
BRANCH  20  21
ATOM     21  C   UNL d   1      26.656 -16.409   0.035  0.00  0.00    -0.048 A 
ATOM     22  C   UNL d   1      25.415 -16.745  -0.332  0.00  0.00    -0.006 A 
ATOM     23  C   UNL d   1      24.313 -15.963  -0.774  0.00  0.00     0.014 A 
ATOM     24  C   UNL d   1      25.299 -18.200  -0.145  0.00  0.00     0.038 A 
ATOM     25  C   UNL d   1      23.120 -16.559  -0.895  0.00  0.00     0.001 A 
ATOM     26  C   UNL d   1      22.964 -17.993  -0.704  0.00  0.00     0.002 A 
ATOM     27  C   UNL d   1      23.977 -18.818  -0.373  0.00  0.00     0.030 A 
ATOM     28  N   UNL d   1      26.403 -18.716   0.237  0.00  0.00    -0.385 N 
ATOM     29  C   UNL d   1      27.405 -17.640   0.492  0.00  0.00     0.155 A 
ATOM     30  H   UNL d   1      26.530 -19.721   0.359  0.00  0.00     0.160 HD
ENDBRANCH  20  21
ENDBRANCH  19  20
ENDBRANCH   6  19
BRANCH   4  31
ATOM     31  C   UNL d   1      27.003 -11.275   2.897  0.00  0.00     0.036 C 
ATOM     32  C   UNL d   1      26.488 -10.570   1.787  0.00  0.00     0.017 C 
ATOM     33  C   UNL d   1      26.702  -9.185   1.694  0.00  0.00     0.003 C 
ATOM     34  C   UNL d   1      27.311  -8.506   2.747  0.00  0.00     0.024 C 
ATOM     35  C   UNL d   1      27.700  -9.206   3.885  0.00  0.00     0.035 C 
ATOM     36 CL   UNL d   1      28.441  -8.413   5.209  0.00  0.00    -0.084 Cl
ATOM     37  C   UNL d   1      27.562 -10.578   3.953  0.00  0.00     0.041 C 
ENDBRANCH   4  31
TORSDOF 7
ENDMDL
MODEL 3
REMARK VINA RESULT:    -9.455      1.664      2.074
REMARK INTER + INTRA:         -13.771
REMARK INTER:                 -11.543
REMARK INTRA:                  -2.228
REMARK CONF_INDEPENDENT:        2.088
REMARK UNBOUND:                -2.228
REMARK  7 active torsions:
REMARK  status: ('A' for Active; 'I' for Inactive)
REMARK    1  A    between atoms: O_2  and  C_3 
REMARK    2  A    between atoms: C_6  and  N_7 
REMARK       I    between atoms: N_7  and  C_8 
REMARK       I    between atoms: C_8  and  N_19 
REMARK       I    between atoms: N_9  and  C_10 
REMARK    3  A    between atoms: C_10  and  C_12 
REMARK    4  A    between atoms: N_19  and  C_20 
REMARK    5  A    between atoms: C_20  and  C_21 
REMARK    6  A    between atoms: C_21  and  C_22 
REMARK    7  A    between atoms: C_32  and  O_33 
ROOT
ATOM      1  N   UNL d   1      29.837 -14.661   3.731  0.00  0.00    -0.190 N 
ATOM      2  C   UNL d   1      29.310 -14.289   2.471  0.00  0.00     0.704 C 
ATOM      3  N   UNL d   1      28.501 -13.330   2.113  0.00  0.00    -0.023 NA
ATOM      4  C   UNL d   1      27.547 -12.923   3.012  0.00  0.00     0.294 C 
ATOM      5  O   UNL d   1      26.910 -13.688   3.689  0.00  0.00    -0.265 OA
ATOM      6  N   UNL d   1      29.708 -15.093   1.385  0.00  0.00    -0.224 N 
ATOM      7  H   UNL d   1      30.236 -15.586   3.802  0.00  0.00     0.184 HD
ATOM      8  H   UNL d   1      30.033 -16.034   1.582  0.00  0.00     0.177 HD
ENDROOT
BRANCH   1   9
ATOM      9  C   UNL d   1      29.655 -14.038   5.013  0.00  0.00     0.052 C 
ATOM     10  C   UNL d   1      28.787 -14.453   6.015  0.00  0.00     0.033 C 
ATOM     11  C   UNL d   1      28.541 -13.620   7.165  0.00  0.00     0.042 C 
ATOM     12  C   UNL d   1      29.038 -12.301   7.294  0.00  0.00     0.101 C 
ATOM     13  C   UNL d   1      29.868 -11.905   6.276  0.00  0.00     0.103 C 
ATOM     14  C   UNL d   1      30.340 -12.897   5.377  0.00  0.00     0.069 C 
BRANCH  12  15
ATOM     15  O   UNL d   1      28.882 -11.729   8.528  0.00  0.00    -0.353 OA
ATOM     16  C   UNL d   1      28.470 -12.439   9.690  0.00  0.00     0.210 C 
ENDBRANCH  12  15
BRANCH  13  17
ATOM     17  O   UNL d   1      30.274 -10.682   5.858  0.00  0.00    -0.353 OA
ATOM     18  C   UNL d   1      31.195 -10.472   4.833  0.00  0.00     0.210 C 
ENDBRANCH  13  17
ENDBRANCH   1   9
BRANCH   6  19
ATOM     19  C   UNL d   1      29.001 -14.915   0.082  0.00  0.00     0.142 C 
BRANCH  19  20
ATOM     20  C   UNL d   1      28.238 -16.143  -0.418  0.00  0.00     0.057 C 
BRANCH  20  21
ATOM     21  C   UNL d   1      26.839 -15.923  -0.960  0.00  0.00    -0.048 A 
ATOM     22  C   UNL d   1      25.819 -16.718  -0.620  0.00  0.00    -0.006 A 
ATOM     23  C   UNL d   1      25.748 -17.858   0.226  0.00  0.00     0.014 A 
ATOM     24  C   UNL d   1      24.646 -16.242  -1.371  0.00  0.00     0.038 A 
ATOM     25  C   UNL d   1      24.616 -18.575   0.230  0.00  0.00     0.001 A 
ATOM     26  C   UNL d   1      23.440 -18.143  -0.510  0.00  0.00     0.002 A 
ATOM     27  C   UNL d   1      23.399 -17.026  -1.264  0.00  0.00     0.030 A 
ATOM     28  N   UNL d   1      24.915 -15.198  -2.055  0.00  0.00    -0.385 N 
ATOM     29  C   UNL d   1      26.372 -14.892  -1.962  0.00  0.00     0.155 A 
ATOM     30  H   UNL d   1      24.210 -14.692  -2.591  0.00  0.00     0.160 HD
ENDBRANCH  20  21
ENDBRANCH  19  20
ENDBRANCH   6  19
BRANCH   4  31
ATOM     31  C   UNL d   1      27.023 -11.526   2.866  0.00  0.00     0.036 C 
ATOM     32  C   UNL d   1      26.480 -10.893   1.727  0.00  0.00     0.017 C 
ATOM     33  C   UNL d   1      26.599  -9.499   1.594  0.00  0.00     0.003 C 
ATOM     34  C   UNL d   1      27.140  -8.748   2.634  0.00  0.00     0.024 C 
ATOM     35  C   UNL d   1      27.557  -9.384   3.799  0.00  0.00     0.035 C 
ATOM     36 CL   UNL d   1      28.218  -8.503   5.109  0.00  0.00    -0.084 Cl
ATOM     37  C   UNL d   1      27.513 -10.760   3.908  0.00  0.00     0.041 C 
ENDBRANCH   4  31
TORSDOF 7
ENDMDL
MODEL 4
REMARK VINA RESULT:    -9.086      1.653      2.559
REMARK INTER + INTRA:         -13.612
REMARK INTER:                 -11.174
REMARK INTRA:                  -2.437
REMARK CONF_INDEPENDENT:        2.088
REMARK UNBOUND:                -2.437
REMARK  7 active torsions:
REMARK  status: ('A' for Active; 'I' for Inactive)
REMARK    1  A    between atoms: O_2  and  C_3 
REMARK    2  A    between atoms: C_6  and  N_7 
REMARK       I    between atoms: N_7  and  C_8 
REMARK       I    between atoms: C_8  and  N_19 
REMARK       I    between atoms: N_9  and  C_10 
REMARK    3  A    between atoms: C_10  and  C_12 
REMARK    4  A    between atoms: N_19  and  C_20 
REMARK    5  A    between atoms: C_20  and  C_21 
REMARK    6  A    between atoms: C_21  and  C_22 
REMARK    7  A    between atoms: C_32  and  O_33 
ROOT
ATOM      1  N   UNL d   1      29.885 -14.745   3.080  0.00  0.00    -0.190 N 
ATOM      2  C   UNL d   1      29.689 -14.750   1.678  0.00  0.00     0.704 C 
ATOM      3  N   UNL d   1      28.958 -14.003   0.897  0.00  0.00    -0.023 NA
ATOM      4  C   UNL d   1      27.785 -13.498   1.401  0.00  0.00     0.294 C 
ATOM      5  O   UNL d   1      27.030 -14.143   2.082  0.00  0.00    -0.265 OA
ATOM      6  N   UNL d   1      30.393 -15.744   0.970  0.00  0.00    -0.224 N 
ATOM      7  H   UNL d   1      30.294 -15.575   3.485  0.00  0.00     0.184 HD
ATOM      8  H   UNL d   1      30.697 -16.567   1.479  0.00  0.00     0.177 HD
ENDROOT
BRANCH   1   9
ATOM      9  C   UNL d   1      29.347 -13.854   4.071  0.00  0.00     0.052 C 
ATOM     10  C   UNL d   1      29.292 -12.469   3.991  0.00  0.00     0.033 C 
ATOM     11  C   UNL d   1      28.928 -11.680   5.141  0.00  0.00     0.042 C 
ATOM     12  C   UNL d   1      28.739 -12.226   6.433  0.00  0.00     0.101 C 
ATOM     13  C   UNL d   1      28.829 -13.593   6.491  0.00  0.00     0.103 C 
ATOM     14  C   UNL d   1      28.834 -14.313   5.267  0.00  0.00     0.069 C 
BRANCH  12  15
ATOM     15  O   UNL d   1      28.202 -11.374   7.361  0.00  0.00    -0.353 OA
ATOM     16  C   UNL d   1      28.905 -10.890   8.499  0.00  0.00     0.210 C 
ENDBRANCH  12  15
BRANCH  13  17
ATOM     17  O   UNL d   1      29.031 -14.448   7.522  0.00  0.00    -0.353 OA
ATOM     18  C   UNL d   1      29.798 -14.147   8.648  0.00  0.00     0.210 C 
ENDBRANCH  13  17
ENDBRANCH   1   9
BRANCH   6  19
ATOM     19  C   UNL d   1      30.043 -15.966  -0.464  0.00  0.00     0.142 C 
BRANCH  19  20
ATOM     20  C   UNL d   1      28.858 -16.903  -0.707  0.00  0.00     0.057 C 
BRANCH  20  21
ATOM     21  C   UNL d   1      27.545 -16.273  -1.131  0.00  0.00    -0.048 A 
ATOM     22  C   UNL d   1      26.367 -16.748  -0.711  0.00  0.00    -0.006 A 
ATOM     23  C   UNL d   1      26.035 -17.841   0.135  0.00  0.00     0.014 A 
ATOM     24  C   UNL d   1      25.328 -15.933  -1.360  0.00  0.00     0.038 A 
ATOM     25  C   UNL d   1      24.748 -18.200   0.230  0.00  0.00     0.001 A 
ATOM     26  C   UNL d   1      23.693 -17.427  -0.409  0.00  0.00     0.002 A 
ATOM     27  C   UNL d   1      23.920 -16.325  -1.152  0.00  0.00     0.030 A 
ATOM     28  N   UNL d   1      25.835 -14.992  -2.060  0.00  0.00    -0.385 N 
ATOM     29  C   UNL d   1      27.321 -15.124  -2.087  0.00  0.00     0.155 A 
ATOM     30  H   UNL d   1      25.268 -14.289  -2.534  0.00  0.00     0.160 HD
ENDBRANCH  20  21
ENDBRANCH  19  20
ENDBRANCH   6  19
BRANCH   4  31
ATOM     31  C   UNL d   1      27.254 -12.245   0.772  0.00  0.00     0.036 C 
ATOM     32  C   UNL d   1      27.453 -11.752  -0.536  0.00  0.00     0.017 C 
ATOM     33  C   UNL d   1      27.405 -10.366  -0.762  0.00  0.00     0.003 C 
ATOM     34  C   UNL d   1      27.047  -9.507   0.274  0.00  0.00     0.024 C 
ATOM     35  C   UNL d   1      26.736 -10.030   1.526  0.00  0.00     0.035 C 
ATOM     36 CL   UNL d   1      26.280  -9.016   2.828  0.00  0.00    -0.084 Cl
ATOM     37  C   UNL d   1      26.854 -11.383   1.776  0.00  0.00     0.041 C 
ENDBRANCH   4  31
TORSDOF 7
ENDMDL
MODEL 5
REMARK VINA RESULT:    -8.548      1.669      2.209
REMARK INTER + INTRA:         -13.700
REMARK INTER:                 -10.636
REMARK INTRA:                  -3.064
REMARK CONF_INDEPENDENT:        2.088
REMARK UNBOUND:                -3.064
REMARK  7 active torsions:
REMARK  status: ('A' for Active; 'I' for Inactive)
REMARK    1  A    between atoms: O_2  and  C_3 
REMARK    2  A    between atoms: C_6  and  N_7 
REMARK       I    between atoms: N_7  and  C_8 
REMARK       I    between atoms: C_8  and  N_19 
REMARK       I    between atoms: N_9  and  C_10 
REMARK    3  A    between atoms: C_10  and  C_12 
REMARK    4  A    between atoms: N_19  and  C_20 
REMARK    5  A    between atoms: C_20  and  C_21 
REMARK    6  A    between atoms: C_21  and  C_22 
REMARK    7  A    between atoms: C_32  and  O_33 
ROOT
ATOM      1  N   UNL d   1      30.176 -14.826   3.048  0.00  0.00    -0.190 N 
ATOM      2  C   UNL d   1      29.837 -14.825   1.674  0.00  0.00     0.704 C 
ATOM      3  N   UNL d   1      29.035 -14.068   0.975  0.00  0.00    -0.023 NA
ATOM      4  C   UNL d   1      27.925 -13.555   1.599  0.00  0.00     0.294 C 
ATOM      5  O   UNL d   1      27.239 -14.197   2.352  0.00  0.00    -0.265 OA
ATOM      6  N   UNL d   1      30.455 -15.822   0.894  0.00  0.00    -0.224 N 
ATOM      7  H   UNL d   1      30.618 -15.661   3.406  0.00  0.00     0.184 HD
ATOM      8  H   UNL d   1      30.803 -16.649   1.366  0.00  0.00     0.177 HD
ENDROOT
BRANCH   1   9
ATOM      9  C   UNL d   1      29.751 -13.935   4.092  0.00  0.00     0.052 C 
ATOM     10  C   UNL d   1      28.997 -14.272   5.208  0.00  0.00     0.033 C 
ATOM     11  C   UNL d   1      28.454 -13.249   6.065  0.00  0.00     0.042 C 
ATOM     12  C   UNL d   1      28.528 -11.867   5.773  0.00  0.00     0.101 C 
ATOM     13  C   UNL d   1      29.252 -11.561   4.649  0.00  0.00     0.103 C 
ATOM     14  C   UNL d   1      30.045 -12.586   4.068  0.00  0.00     0.069 C 
BRANCH  12  15
ATOM     15  O   UNL d   1      28.145 -11.028   6.785  0.00  0.00    -0.353 OA
ATOM     16  C   UNL d   1      29.034 -10.499   7.761  0.00  0.00     0.210 C 
ENDBRANCH  12  15
BRANCH  13  17
ATOM     17  O   UNL d   1      29.295 -10.455   3.868  0.00  0.00    -0.353 OA
ATOM     18  C   UNL d   1      30.415 -10.055   3.140  0.00  0.00     0.210 C 
ENDBRANCH  13  17
ENDBRANCH   1   9
BRANCH   6  19
ATOM     19  C   UNL d   1      29.956 -16.035  -0.497  0.00  0.00     0.142 C 
BRANCH  19  20
ATOM     20  C   UNL d   1      28.728 -16.940  -0.616  0.00  0.00     0.057 C 
BRANCH  20  21
ATOM     21  C   UNL d   1      27.426 -16.297  -1.053  0.00  0.00    -0.048 A 
ATOM     22  C   UNL d   1      26.239 -16.771  -0.659  0.00  0.00    -0.006 A 
ATOM     23  C   UNL d   1      25.886 -17.872   0.166  0.00  0.00     0.014 A 
ATOM     24  C   UNL d   1      25.216 -15.941  -1.314  0.00  0.00     0.038 A 
ATOM     25  C   UNL d   1      24.596 -18.225   0.236  0.00  0.00     0.001 A 
ATOM     26  C   UNL d   1      23.557 -17.437  -0.410  0.00  0.00     0.002 A 
ATOM     27  C   UNL d   1      23.802 -16.327  -1.135  0.00  0.00     0.030 A 
ATOM     28  N   UNL d   1      25.739 -14.994  -1.994  0.00  0.00    -0.385 N 
ATOM     29  C   UNL d   1      27.225 -15.134  -1.998  0.00  0.00     0.155 A 
ATOM     30  H   UNL d   1      25.184 -14.282  -2.468  0.00  0.00     0.160 HD
ENDBRANCH  20  21
ENDBRANCH  19  20
ENDBRANCH   6  19
BRANCH   4  31
ATOM     31  C   UNL d   1      27.342 -12.296   1.032  0.00  0.00     0.036 C 
ATOM     32  C   UNL d   1      27.508 -11.739  -0.255  0.00  0.00     0.017 C 
ATOM     33  C   UNL d   1      27.408 -10.347  -0.418  0.00  0.00     0.003 C 
ATOM     34  C   UNL d   1      27.032  -9.548   0.659  0.00  0.00     0.024 C 
ATOM     35  C   UNL d   1      26.755 -10.137   1.889  0.00  0.00     0.035 C 
ATOM     36 CL   UNL d   1      26.279  -9.198   3.240  0.00  0.00    -0.084 Cl
ATOM     37  C   UNL d   1      26.924 -11.494   2.078  0.00  0.00     0.041 C 
ENDBRANCH   4  31
TORSDOF 7
ENDMDL
MODEL 6
REMARK VINA RESULT:    -8.381      3.452      5.720
REMARK INTER + INTRA:         -13.295
REMARK INTER:                 -10.470
REMARK INTRA:                  -2.826
REMARK CONF_INDEPENDENT:        2.088
REMARK UNBOUND:                -2.826
REMARK  7 active torsions:
REMARK  status: ('A' for Active; 'I' for Inactive)
REMARK    1  A    between atoms: O_2  and  C_3 
REMARK    2  A    between atoms: C_6  and  N_7 
REMARK       I    between atoms: N_7  and  C_8 
REMARK       I    between atoms: C_8  and  N_19 
REMARK       I    between atoms: N_9  and  C_10 
REMARK    3  A    between atoms: C_10  and  C_12 
REMARK    4  A    between atoms: N_19  and  C_20 
REMARK    5  A    between atoms: C_20  and  C_21 
REMARK    6  A    between atoms: C_21  and  C_22 
REMARK    7  A    between atoms: C_32  and  O_33 
ROOT
ATOM      1  N   UNL d   1      29.195 -15.226   1.259  0.00  0.00    -0.190 N 
ATOM      2  C   UNL d   1      29.161 -16.074   0.127  0.00  0.00     0.704 C 
ATOM      3  N   UNL d   1      28.365 -16.116  -0.907  0.00  0.00    -0.023 NA
ATOM      4  C   UNL d   1      27.058 -15.734  -0.730  0.00  0.00     0.294 C 
ATOM      5  O   UNL d   1      26.406 -16.047   0.232  0.00  0.00    -0.265 OA
ATOM      6  N   UNL d   1      30.151 -17.074   0.086  0.00  0.00    -0.224 N 
ATOM      7  H   UNL d   1      29.741 -15.543   2.048  0.00  0.00     0.184 HD
ATOM      8  H   UNL d   1      30.583 -17.354   0.960  0.00  0.00     0.177 HD
ENDROOT
BRANCH   1   9
ATOM      9  C   UNL d   1      28.358 -14.104   1.582  0.00  0.00     0.052 C 
ATOM     10  C   UNL d   1      28.089 -13.013   0.765  0.00  0.00     0.033 C 
ATOM     11  C   UNL d   1      27.411 -11.854   1.286  0.00  0.00     0.042 C 
ATOM     12  C   UNL d   1      27.099 -11.683   2.656  0.00  0.00     0.101 C 
ATOM     13  C   UNL d   1      27.403 -12.761   3.447  0.00  0.00     0.103 C 
ATOM     14  C   UNL d   1      27.733 -13.985   2.807  0.00  0.00     0.069 C 
BRANCH  12  15
ATOM     15  O   UNL d   1      26.280 -10.625   2.948  0.00  0.00    -0.353 OA
ATOM     16  C   UNL d   1      26.091  -9.504   2.093  0.00  0.00     0.210 C 
ENDBRANCH  12  15
BRANCH  13  17
ATOM     17  O   UNL d   1      27.565 -12.889   4.786  0.00  0.00    -0.353 OA
ATOM     18  C   UNL d   1      28.093 -14.022   5.404  0.00  0.00     0.210 C 
ENDBRANCH  13  17
ENDBRANCH   1   9
BRANCH   6  19
ATOM     19  C   UNL d   1      30.022 -18.150  -0.941  0.00  0.00     0.142 C 
BRANCH  19  20
ATOM     20  C   UNL d   1      31.152 -18.205  -1.971  0.00  0.00     0.057 C 
BRANCH  20  21
ATOM     21  C   UNL d   1      30.783 -17.987  -3.426  0.00  0.00    -0.048 A 
ATOM     22  C   UNL d   1      30.339 -16.806  -3.870  0.00  0.00    -0.006 A 
ATOM     23  C   UNL d   1      30.102 -15.573  -3.206  0.00  0.00     0.014 A 
ATOM     24  C   UNL d   1      30.032 -16.983  -5.299  0.00  0.00     0.038 A 
ATOM     25  C   UNL d   1      29.470 -14.601  -3.878  0.00  0.00     0.001 A 
ATOM     26  C   UNL d   1      29.138 -14.744  -5.288  0.00  0.00     0.002 A 
ATOM     27  C   UNL d   1      29.411 -15.848  -6.012  0.00  0.00     0.030 A 
ATOM     28  N   UNL d   1      30.335 -18.155  -5.706  0.00  0.00    -0.385 N 
ATOM     29  C   UNL d   1      30.776 -18.994  -4.553  0.00  0.00     0.155 A 
ATOM     30  H   UNL d   1      30.250 -18.440  -6.681  0.00  0.00     0.160 HD
ENDBRANCH  20  21
ENDBRANCH  19  20
ENDBRANCH   6  19
BRANCH   4  31
ATOM     31  C   UNL d   1      26.319 -15.243  -1.939  0.00  0.00     0.036 C 
ATOM     32  C   UNL d   1      25.955 -15.949  -3.106  0.00  0.00     0.017 C 
ATOM     33  C   UNL d   1      25.825 -15.249  -4.318  0.00  0.00     0.003 C 
ATOM     34  C   UNL d   1      25.938 -13.861  -4.332  0.00  0.00     0.024 C 
ATOM     35  C   UNL d   1      26.177 -13.177  -3.144  0.00  0.00     0.035 C 
ATOM     36 CL   UNL d   1      26.313 -11.471  -3.109  0.00  0.00    -0.084 Cl
ATOM     37  C   UNL d   1      26.382 -13.862  -1.963  0.00  0.00     0.041 C 
ENDBRANCH   4  31
TORSDOF 7
ENDMDL
MODEL 7
REMARK VINA RESULT:    -8.253      5.529      7.863
REMARK INTER + INTRA:         -13.748
REMARK INTER:                 -10.342
REMARK INTRA:                  -3.406
REMARK CONF_INDEPENDENT:        2.088
REMARK UNBOUND:                -3.406
REMARK  7 active torsions:
REMARK  status: ('A' for Active; 'I' for Inactive)
REMARK    1  A    between atoms: O_2  and  C_3 
REMARK    2  A    between atoms: C_6  and  N_7 
REMARK       I    between atoms: N_7  and  C_8 
REMARK       I    between atoms: C_8  and  N_19 
REMARK       I    between atoms: N_9  and  C_10 
REMARK    3  A    between atoms: C_10  and  C_12 
REMARK    4  A    between atoms: N_19  and  C_20 
REMARK    5  A    between atoms: C_20  and  C_21 
REMARK    6  A    between atoms: C_21  and  C_22 
REMARK    7  A    between atoms: C_32  and  O_33 
ROOT
ATOM      1  N   UNL d   1      27.824 -16.454   0.601  0.00  0.00    -0.190 N 
ATOM      2  C   UNL d   1      28.780 -15.680  -0.099  0.00  0.00     0.704 C 
ATOM      3  N   UNL d   1      28.786 -15.184  -1.306  0.00  0.00    -0.023 NA
ATOM      4  C   UNL d   1      28.125 -15.877  -2.290  0.00  0.00     0.294 C 
ATOM      5  O   UNL d   1      28.176 -17.075  -2.400  0.00  0.00    -0.265 OA
ATOM      6  N   UNL d   1      29.959 -15.384   0.612  0.00  0.00    -0.224 N 
ATOM      7  H   UNL d   1      28.145 -16.935   1.429  0.00  0.00     0.184 HD
ATOM      8  H   UNL d   1      30.211 -15.984   1.390  0.00  0.00     0.177 HD
ENDROOT
BRANCH   1   9
ATOM      9  C   UNL d   1      26.522 -16.894   0.178  0.00  0.00     0.052 C 
ATOM     10  C   UNL d   1      25.905 -18.090   0.519  0.00  0.00     0.033 C 
ATOM     11  C   UNL d   1      24.695 -18.508  -0.142  0.00  0.00     0.042 C 
ATOM     12  C   UNL d   1      24.136 -17.826  -1.249  0.00  0.00     0.101 C 
ATOM     13  C   UNL d   1      24.783 -16.664  -1.587  0.00  0.00     0.103 C 
ATOM     14  C   UNL d   1      25.737 -16.143  -0.673  0.00  0.00     0.069 C 
BRANCH  12  15
ATOM     15  O   UNL d   1      22.885 -18.237  -1.626  0.00  0.00    -0.353 OA
ATOM     16  C   UNL d   1      21.862 -18.616  -0.713  0.00  0.00     0.210 C 
ENDBRANCH  12  15
BRANCH  13  17
ATOM     17  O   UNL d   1      24.781 -15.919  -2.718  0.00  0.00    -0.353 OA
ATOM     18  C   UNL d   1      24.405 -14.577  -2.770  0.00  0.00     0.210 C 
ENDBRANCH  13  17
ENDBRANCH   1   9
BRANCH   6  19
ATOM     19  C   UNL d   1      31.104 -14.792  -0.142  0.00  0.00     0.142 C 
BRANCH  19  20
ATOM     20  C   UNL d   1      31.748 -15.716  -1.177  0.00  0.00     0.057 C 
BRANCH  20  21
ATOM     21  C   UNL d   1      31.458 -15.436  -2.639  0.00  0.00    -0.048 A 
ATOM     22  C   UNL d   1      31.114 -16.410  -3.488  0.00  0.00    -0.006 A 
ATOM     23  C   UNL d   1      30.947 -17.810  -3.305  0.00  0.00     0.014 A 
ATOM     24  C   UNL d   1      30.967 -15.784  -4.811  0.00  0.00     0.038 A 
ATOM     25  C   UNL d   1      30.778 -18.576  -4.391  0.00  0.00     0.001 A 
ATOM     26  C   UNL d   1      30.642 -17.993  -5.718  0.00  0.00     0.002 A 
ATOM     27  C   UNL d   1      30.698 -16.668  -5.963  0.00  0.00     0.030 A 
ATOM     28  N   UNL d   1      31.137 -14.519  -4.756  0.00  0.00    -0.385 N 
ATOM     29  C   UNL d   1      31.561 -14.123  -3.382  0.00  0.00     0.155 A 
ATOM     30  H   UNL d   1      31.014 -13.910  -5.565  0.00  0.00     0.160 HD
ENDBRANCH  20  21
ENDBRANCH  19  20
ENDBRANCH   6  19
BRANCH   4  31
ATOM     31  C   UNL d   1      27.647 -15.092  -3.475  0.00  0.00     0.036 C 
ATOM     32  C   UNL d   1      27.714 -15.422  -4.847  0.00  0.00     0.017 C 
ATOM     33  C   UNL d   1      27.781 -14.390  -5.798  0.00  0.00     0.003 C 
ATOM     34  C   UNL d   1      27.663 -13.063  -5.390  0.00  0.00     0.024 C 
ATOM     35  C   UNL d   1      27.476 -12.771  -4.043  0.00  0.00     0.035 C 
ATOM     36 CL   UNL d   1      27.315 -11.157  -3.495  0.00  0.00    -0.084 Cl
ATOM     37  C   UNL d   1      27.484 -13.773  -3.094  0.00  0.00     0.041 C 
ENDBRANCH   4  31
TORSDOF 7
ENDMDL
MODEL 8
REMARK VINA RESULT:    -7.714      5.551      8.036
REMARK INTER + INTRA:         -13.210
REMARK INTER:                  -9.802
REMARK INTRA:                  -3.408
REMARK CONF_INDEPENDENT:        2.088
REMARK UNBOUND:                -3.408
REMARK  7 active torsions:
REMARK  status: ('A' for Active; 'I' for Inactive)
REMARK    1  A    between atoms: O_2  and  C_3 
REMARK    2  A    between atoms: C_6  and  N_7 
REMARK       I    between atoms: N_7  and  C_8 
REMARK       I    between atoms: C_8  and  N_19 
REMARK       I    between atoms: N_9  and  C_10 
REMARK    3  A    between atoms: C_10  and  C_12 
REMARK    4  A    between atoms: N_19  and  C_20 
REMARK    5  A    between atoms: C_20  and  C_21 
REMARK    6  A    between atoms: C_21  and  C_22 
REMARK    7  A    between atoms: C_32  and  O_33 
ROOT
ATOM      1  N   UNL d   1      28.156 -16.148   0.868  0.00  0.00    -0.190 N 
ATOM      2  C   UNL d   1      29.318 -15.736   0.173  0.00  0.00     0.704 C 
ATOM      3  N   UNL d   1      29.609 -15.707  -1.099  0.00  0.00    -0.023 NA
ATOM      4  C   UNL d   1      29.051 -16.664  -1.909  0.00  0.00     0.294 C 
ATOM      5  O   UNL d   1      28.959 -17.822  -1.594  0.00  0.00    -0.265 OA
ATOM      6  N   UNL d   1      30.379 -15.279   0.980  0.00  0.00    -0.224 N 
ATOM      7  H   UNL d   1      28.255 -16.319   1.859  0.00  0.00     0.184 HD
ATOM      8  H   UNL d   1      30.402 -15.575   1.950  0.00  0.00     0.177 HD
ENDROOT
BRANCH   1   9
ATOM      9  C   UNL d   1      26.906 -16.628   0.347  0.00  0.00     0.052 C 
ATOM     10  C   UNL d   1      26.324 -17.862   0.608  0.00  0.00     0.033 C 
ATOM     11  C   UNL d   1      25.179 -18.308  -0.145  0.00  0.00     0.042 C 
ATOM     12  C   UNL d   1      24.659 -17.611  -1.261  0.00  0.00     0.101 C 
ATOM     13  C   UNL d   1      25.272 -16.410  -1.517  0.00  0.00     0.103 C 
ATOM     14  C   UNL d   1      26.141 -15.882  -0.526  0.00  0.00     0.069 C 
BRANCH  12  15
ATOM     15  O   UNL d   1      23.456 -18.062  -1.732  0.00  0.00    -0.353 OA
ATOM     16  C   UNL d   1      22.450 -18.649  -0.915  0.00  0.00     0.210 C 
ENDBRANCH  12  15
BRANCH  13  17
ATOM     17  O   UNL d   1      25.308 -15.625  -2.620  0.00  0.00    -0.353 OA
ATOM     18  C   UNL d   1      24.563 -14.456  -2.772  0.00  0.00     0.210 C 
ENDBRANCH  13  17
ENDBRANCH   1   9
BRANCH   6  19
ATOM     19  C   UNL d   1      31.710 -15.068   0.338  0.00  0.00     0.142 C 
BRANCH  19  20
ATOM     20  C   UNL d   1      32.532 -16.339   0.114  0.00  0.00     0.057 C 
BRANCH  20  21
ATOM     21  C   UNL d   1      32.471 -16.978  -1.260  0.00  0.00    -0.048 A 
ATOM     22  C   UNL d   1      32.007 -18.219  -1.440  0.00  0.00    -0.006 A 
ATOM     23  C   UNL d   1      31.508 -19.185  -0.524  0.00  0.00     0.014 A 
ATOM     24  C   UNL d   1      32.148 -18.518  -2.873  0.00  0.00     0.038 A 
ATOM     25  C   UNL d   1      31.286 -20.428  -0.972  0.00  0.00     0.001 A 
ATOM     26  C   UNL d   1      31.429 -20.765  -2.381  0.00  0.00     0.002 A 
ATOM     27  C   UNL d   1      31.810 -19.883  -3.326  0.00  0.00     0.030 A 
ATOM     28  N   UNL d   1      32.595 -17.513  -3.524  0.00  0.00    -0.385 N 
ATOM     29  C   UNL d   1      32.948 -16.414  -2.579  0.00  0.00     0.155 A 
ATOM     30  H   UNL d   1      32.700 -17.515  -4.538  0.00  0.00     0.160 HD
ENDBRANCH  20  21
ENDBRANCH  19  20
ENDBRANCH   6  19
BRANCH   4  31
ATOM     31  C   UNL d   1      28.905 -16.328  -3.363  0.00  0.00     0.036 C 
ATOM     32  C   UNL d   1      29.729 -16.697  -4.449  0.00  0.00     0.017 C 
ATOM     33  C   UNL d   1      29.802 -15.855  -5.571  0.00  0.00     0.003 C 
ATOM     34  C   UNL d   1      28.977 -14.735  -5.653  0.00  0.00     0.024 C 
ATOM     35  C   UNL d   1      28.084 -14.461  -4.621  0.00  0.00     0.035 C 
ATOM     36 CL   UNL d   1      27.042 -13.104  -4.680  0.00  0.00    -0.084 Cl
ATOM     37  C   UNL d   1      28.060 -15.240  -3.482  0.00  0.00     0.041 C 
ENDBRANCH   4  31
TORSDOF 7
ENDMDL
MODEL 9
REMARK VINA RESULT:    -7.291      4.803      7.875
REMARK INTER + INTRA:         -13.501
REMARK INTER:                  -9.379
REMARK INTRA:                  -4.122
REMARK CONF_INDEPENDENT:        2.088
REMARK UNBOUND:                -4.122
REMARK  7 active torsions:
REMARK  status: ('A' for Active; 'I' for Inactive)
REMARK    1  A    between atoms: O_2  and  C_3 
REMARK    2  A    between atoms: C_6  and  N_7 
REMARK       I    between atoms: N_7  and  C_8 
REMARK       I    between atoms: C_8  and  N_19 
REMARK       I    between atoms: N_9  and  C_10 
REMARK    3  A    between atoms: C_10  and  C_12 
REMARK    4  A    between atoms: N_19  and  C_20 
REMARK    5  A    between atoms: C_20  and  C_21 
REMARK    6  A    between atoms: C_21  and  C_22 
REMARK    7  A    between atoms: C_32  and  O_33 
ROOT
ATOM      1  N   UNL d   1      28.131 -15.920   0.979  0.00  0.00    -0.190 N 
ATOM      2  C   UNL d   1      29.350 -15.574   0.348  0.00  0.00     0.704 C 
ATOM      3  N   UNL d   1      29.754 -15.684  -0.889  0.00  0.00    -0.023 NA
ATOM      4  C   UNL d   1      29.273 -16.733  -1.633  0.00  0.00     0.294 C 
ATOM      5  O   UNL d   1      29.156 -17.849  -1.198  0.00  0.00    -0.265 OA
ATOM      6  N   UNL d   1      30.333 -15.015   1.188  0.00  0.00    -0.224 N 
ATOM      7  H   UNL d   1      28.142 -15.977   1.987  0.00  0.00     0.184 HD
ATOM      8  H   UNL d   1      30.270 -15.200   2.184  0.00  0.00     0.177 HD
ENDROOT
BRANCH   1   9
ATOM      9  C   UNL d   1      26.934 -16.471   0.406  0.00  0.00     0.052 C 
ATOM     10  C   UNL d   1      26.441 -17.754   0.605  0.00  0.00     0.033 C 
ATOM     11  C   UNL d   1      25.352 -18.255  -0.194  0.00  0.00     0.042 C 
ATOM     12  C   UNL d   1      24.809 -17.556  -1.298  0.00  0.00     0.101 C 
ATOM     13  C   UNL d   1      25.335 -16.304  -1.493  0.00  0.00     0.103 C 
ATOM     14  C   UNL d   1      26.137 -15.751  -0.460  0.00  0.00     0.069 C 
BRANCH  12  15
ATOM     15  O   UNL d   1      23.655 -18.077  -1.818  0.00  0.00    -0.353 OA
ATOM     16  C   UNL d   1      22.547 -18.502  -1.032  0.00  0.00     0.210 C 
ENDBRANCH  12  15
BRANCH  13  17
ATOM     17  O   UNL d   1      25.338 -15.476  -2.564  0.00  0.00    -0.353 OA
ATOM     18  C   UNL d   1      24.405 -14.460  -2.770  0.00  0.00     0.210 C 
ENDBRANCH  13  17
ENDBRANCH   1   9
BRANCH   6  19
ATOM     19  C   UNL d   1      31.715 -14.861   0.647  0.00  0.00     0.142 C 
BRANCH  19  20
ATOM     20  C   UNL d   1      32.005 -13.517  -0.024  0.00  0.00     0.057 C 
BRANCH  20  21
ATOM     21  C   UNL d   1      31.199 -13.166  -1.260  0.00  0.00    -0.048 A 
ATOM     22  C   UNL d   1      29.948 -12.702  -1.176  0.00  0.00    -0.006 A 
ATOM     23  C   UNL d   1      29.107 -12.442  -0.060  0.00  0.00     0.014 A 
ATOM     24  C   UNL d   1      29.470 -12.526  -2.556  0.00  0.00     0.038 A 
ATOM     25  C   UNL d   1      27.819 -12.155  -0.289  0.00  0.00     0.001 A 
ATOM     26  C   UNL d   1      27.307 -11.987  -1.641  0.00  0.00     0.002 A 
ATOM     27  C   UNL d   1      28.061 -12.127  -2.749  0.00  0.00     0.030 A 
ATOM     28  N   UNL d   1      30.382 -12.793  -3.409  0.00  0.00    -0.385 N 
ATOM     29  C   UNL d   1      31.590 -13.323  -2.712  0.00  0.00     0.155 A 
ATOM     30  H   UNL d   1      30.253 -12.670  -4.414  0.00  0.00     0.160 HD
ENDBRANCH  20  21
ENDBRANCH  19  20
ENDBRANCH   6  19
BRANCH   4  31
ATOM     31  C   UNL d   1      29.257 -16.564  -3.122  0.00  0.00     0.036 C 
ATOM     32  C   UNL d   1      30.309 -16.734  -4.049  0.00  0.00     0.017 C 
ATOM     33  C   UNL d   1      30.298 -15.994  -5.243  0.00  0.00     0.003 C 
ATOM     34  C   UNL d   1      29.199 -15.196  -5.553  0.00  0.00     0.024 C 
ATOM     35  C   UNL d   1      28.119 -15.140  -4.678  0.00  0.00     0.035 C 
ATOM     36 CL   UNL d   1      26.741 -14.183  -5.020  0.00  0.00    -0.084 Cl
ATOM     37  C   UNL d   1      28.154 -15.804  -3.468  0.00  0.00     0.041 C 
ENDBRANCH   4  31
TORSDOF 7
ENDMDL
