MODEL 1
REMARK VINA RESULT:    -6.515      0.000      0.000
REMARK INTER + INTRA:         -11.519
REMARK INTER:                  -9.498
REMARK INTRA:                  -2.021
REMARK CONF_INDEPENDENT:        2.983
REMARK UNBOUND:                -2.021
REMARK  10 active torsions:
REMARK  status: ('A' for Active; 'I' for Inactive)
REMARK    1  A    between atoms: O_2  and  C_3 
REMARK    2  A    between atoms: C_6  and  C_7 
REMARK       I    between atoms: C_7  and  N_9 
REMARK    3  A    between atoms: N_9  and  N_10 
REMARK    4  A    between atoms: N_10  and  C_11 
REMARK    5  A    between atoms: C_11  and  N_13 
REMARK    6  A    between atoms: N_13  and  C_14 
REMARK    7  A    between atoms: C_14  and  C_15 
REMARK    8  A    between atoms: C_15  and  C_16 
REMARK    9  A    between atoms: C_19  and  O_20 
REMARK   10  A    between atoms: C_22  and  O_23 
ROOT
ATOM      1  C   UNL d   1      24.972 -15.244  -2.819  0.00  0.00     0.273 C 
ATOM      2  O   UNL d   1      24.077 -14.450  -3.057  0.00  0.00    -0.266 OA
ATOM      3  N   UNL d   1      24.834 -16.248  -1.861  0.00  0.00    -0.264 N 
ATOM      4  H   UNL d   1      25.594 -16.901  -1.677  0.00  0.00     0.190 HD
ENDROOT
BRANCH   1   5
ATOM      5  C   UNL d   1      26.291 -15.196  -3.605  0.00  0.00     0.070 A 
ATOM      6  C   UNL d   1      26.254 -14.737  -4.933  0.00  0.00     0.023 A 
ATOM      7  C   UNL d   1      27.405 -14.757  -5.758  0.00  0.00     0.041 A 
ATOM      8  C   UNL d   1      28.662 -15.176  -5.284  0.00  0.00     0.104 A 
ATOM      9  C   UNL d   1      28.719 -15.619  -3.947  0.00  0.00     0.136 A 
ATOM     10  C   UNL d   1      27.543 -15.616  -3.107  0.00  0.00     0.120 A 
BRANCH   8  11
ATOM     11  O   UNL d   1      29.702 -14.813  -6.113  0.00  0.00    -0.353 OA
ATOM     12  C   UNL d   1      30.464 -15.739  -6.889  0.00  0.00     0.210 C 
ENDBRANCH   8  11
BRANCH   9  13
ATOM     13  O   UNL d   1      29.810 -16.041  -3.259  0.00  0.00    -0.351 OA
ATOM     14  C   UNL d   1      30.189 -17.368  -3.167  0.00  0.00     0.210 C 
ENDBRANCH   9  13
BRANCH  10  15
ATOM     15  O   UNL d   1      27.547 -15.972  -1.766  0.00  0.00    -0.352 OA
ATOM     16  C   UNL d   1      27.595 -14.966  -0.756  0.00  0.00     0.210 C 
ENDBRANCH  10  15
ENDBRANCH   1   5
BRANCH   3  17
ATOM     17  N   UNL d   1      23.640 -16.440  -1.099  0.00  0.00    -0.274 N 
ATOM     18  H   UNL d   1      22.899 -15.763  -1.254  0.00  0.00     0.189 HD
BRANCH  17  19
ATOM     19  C   UNL d   1      23.552 -17.517  -0.214  0.00  0.00     0.186 C 
ATOM     20  S   UNL d   1      24.913 -18.200   0.512  0.00  0.00    -0.040 SA
BRANCH  19  21
ATOM     21  N   UNL d   1      22.256 -17.977   0.013  0.00  0.00    -0.366 N 
ATOM     22  H   UNL d   1      21.780 -17.721   0.869  0.00  0.00     0.161 HD
BRANCH  21  23
ATOM     23  C   UNL d   1      21.571 -18.909  -0.895  0.00  0.00     0.122 C 
BRANCH  23  24
ATOM     24  C   UNL d   1      20.083 -19.142  -0.622  0.00  0.00     0.023 C 
BRANCH  24  25
ATOM     25  C   UNL d   1      19.851 -20.235   0.453  0.00  0.00    -0.021 C 
ATOM     26  C   UNL d   1      20.041 -19.697   1.874  0.00  0.00     0.009 C 
ATOM     27  C   UNL d   1      18.443 -20.823   0.327  0.00  0.00     0.009 C 
ENDBRANCH  24  25
ENDBRANCH  23  24
ENDBRANCH  21  23
ENDBRANCH  19  21
ENDBRANCH  17  19
ENDBRANCH   3  17
TORSDOF 10
ENDMDL
MODEL 2
REMARK VINA RESULT:    -6.225      4.416      6.914
REMARK INTER + INTRA:         -10.401
REMARK INTER:                  -9.208
REMARK INTRA:                  -1.193
REMARK CONF_INDEPENDENT:        2.983
REMARK UNBOUND:                -1.193
REMARK  10 active torsions:
REMARK  status: ('A' for Active; 'I' for Inactive)
REMARK    1  A    between atoms: O_2  and  C_3 
REMARK    2  A    between atoms: C_6  and  C_7 
REMARK       I    between atoms: C_7  and  N_9 
REMARK    3  A    between atoms: N_9  and  N_10 
REMARK    4  A    between atoms: N_10  and  C_11 
REMARK    5  A    between atoms: C_11  and  N_13 
REMARK    6  A    between atoms: N_13  and  C_14 
REMARK    7  A    between atoms: C_14  and  C_15 
REMARK    8  A    between atoms: C_15  and  C_16 
REMARK    9  A    between atoms: C_19  and  O_20 
REMARK   10  A    between atoms: C_22  and  O_23 
ROOT
ATOM      1  C   UNL d   1      27.362 -16.374  -0.583  0.00  0.00     0.273 C 
ATOM      2  O   UNL d   1      27.151 -17.519  -0.221  0.00  0.00    -0.266 OA
ATOM      3  N   UNL d   1      27.674 -15.359   0.321  0.00  0.00    -0.264 N 
ATOM      4  H   UNL d   1      27.846 -14.407  -0.003  0.00  0.00     0.190 HD
ENDROOT
BRANCH   1   5
ATOM      5  C   UNL d   1      27.333 -16.005  -2.075  0.00  0.00     0.070 A 
ATOM      6  C   UNL d   1      28.541 -16.054  -2.792  0.00  0.00     0.023 A 
ATOM      7  C   UNL d   1      28.620 -15.633  -4.141  0.00  0.00     0.041 A 
ATOM      8  C   UNL d   1      27.490 -15.204  -4.862  0.00  0.00     0.104 A 
ATOM      9  C   UNL d   1      26.268 -15.171  -4.163  0.00  0.00     0.136 A 
ATOM     10  C   UNL d   1      26.185 -15.583  -2.779  0.00  0.00     0.120 A 
BRANCH   8  11
ATOM     11  O   UNL d   1      27.702 -15.159  -6.225  0.00  0.00    -0.353 OA
ATOM     12  C   UNL d   1      28.829 -14.531  -6.837  0.00  0.00     0.210 C 
ENDBRANCH   8  11
BRANCH   9  13
ATOM     13  O   UNL d   1      25.046 -14.824  -4.643  0.00  0.00    -0.351 OA
ATOM     14  C   UNL d   1      24.363 -13.689  -4.244  0.00  0.00     0.210 C 
ENDBRANCH   9  13
BRANCH  10  15
ATOM     15  O   UNL d   1      25.003 -15.641  -2.057  0.00  0.00    -0.352 OA
ATOM     16  C   UNL d   1      24.470 -16.901  -1.652  0.00  0.00     0.210 C 
ENDBRANCH  10  15
ENDBRANCH   1   5
BRANCH   3  17
ATOM     17  N   UNL d   1      27.790 -15.576   1.729  0.00  0.00    -0.274 N 
ATOM     18  H   UNL d   1      27.876 -16.544   2.024  0.00  0.00     0.189 HD
BRANCH  17  19
ATOM     19  C   UNL d   1      27.785 -14.483   2.598  0.00  0.00     0.186 C 
ATOM     20  S   UNL d   1      27.110 -12.997   2.174  0.00  0.00    -0.040 SA
BRANCH  19  21
ATOM     21  N   UNL d   1      28.386 -14.722   3.833  0.00  0.00    -0.366 N 
ATOM     22  H   UNL d   1      29.277 -15.200   3.869  0.00  0.00     0.161 HD
BRANCH  21  23
ATOM     23  C   UNL d   1      27.735 -14.398   5.111  0.00  0.00     0.122 C 
BRANCH  23  24
ATOM     24  C   UNL d   1      28.668 -14.198   6.309  0.00  0.00     0.023 C 
BRANCH  24  25
ATOM     25  C   UNL d   1      28.296 -12.937   7.133  0.00  0.00    -0.021 C 
ATOM     26  C   UNL d   1      29.159 -12.795   8.390  0.00  0.00     0.009 C 
ATOM     27  C   UNL d   1      28.446 -11.675   6.280  0.00  0.00     0.009 C 
ENDBRANCH  24  25
ENDBRANCH  23  24
ENDBRANCH  21  23
ENDBRANCH  19  21
ENDBRANCH  17  19
ENDBRANCH   3  17
TORSDOF 10
ENDMDL
MODEL 3
REMARK VINA RESULT:    -5.993      1.814      2.913
REMARK INTER + INTRA:         -10.823
REMARK INTER:                  -8.976
REMARK INTRA:                  -1.847
REMARK CONF_INDEPENDENT:        2.983
REMARK UNBOUND:                -1.847
REMARK  10 active torsions:
REMARK  status: ('A' for Active; 'I' for Inactive)
REMARK    1  A    between atoms: O_2  and  C_3 
REMARK    2  A    between atoms: C_6  and  C_7 
REMARK       I    between atoms: C_7  and  N_9 
REMARK    3  A    between atoms: N_9  and  N_10 
REMARK    4  A    between atoms: N_10  and  C_11 
REMARK    5  A    between atoms: C_11  and  N_13 
REMARK    6  A    between atoms: N_13  and  C_14 
REMARK    7  A    between atoms: C_14  and  C_15 
REMARK    8  A    between atoms: C_15  and  C_16 
REMARK    9  A    between atoms: C_19  and  O_20 
REMARK   10  A    between atoms: C_22  and  O_23 
ROOT
ATOM      1  C   UNL d   1      26.446 -17.638  -0.214  0.00  0.00     0.273 C 
ATOM      2  O   UNL d   1      26.715 -17.880   0.951  0.00  0.00    -0.266 OA
ATOM      3  N   UNL d   1      25.204 -17.949  -0.766  0.00  0.00    -0.264 N 
ATOM      4  H   UNL d   1      25.000 -17.740  -1.742  0.00  0.00     0.190 HD
ENDROOT
BRANCH   1   5
ATOM      5  C   UNL d   1      27.465 -16.933  -1.124  0.00  0.00     0.070 A 
ATOM      6  C   UNL d   1      28.831 -17.108  -0.846  0.00  0.00     0.023 A 
ATOM      7  C   UNL d   1      29.830 -16.413  -1.571  0.00  0.00     0.041 A 
ATOM      8  C   UNL d   1      29.522 -15.561  -2.648  0.00  0.00     0.104 A 
ATOM      9  C   UNL d   1      28.156 -15.393  -2.952  0.00  0.00     0.136 A 
ATOM     10  C   UNL d   1      27.132 -16.086  -2.203  0.00  0.00     0.120 A 
BRANCH   8  11
ATOM     11  O   UNL d   1      30.619 -15.250  -3.424  0.00  0.00    -0.353 OA
ATOM     12  C   UNL d   1      30.856 -15.794  -4.723  0.00  0.00     0.210 C 
ENDBRANCH   8  11
BRANCH   9  13
ATOM     13  O   UNL d   1      27.614 -14.653  -3.952  0.00  0.00    -0.351 OA
ATOM     14  C   UNL d   1      27.014 -15.204  -5.070  0.00  0.00     0.210 C 
ENDBRANCH   9  13
BRANCH  10  15
ATOM     15  O   UNL d   1      25.778 -16.019  -2.496  0.00  0.00    -0.352 OA
ATOM     16  C   UNL d   1      25.059 -14.804  -2.295  0.00  0.00     0.210 C 
ENDBRANCH  10  15
ENDBRANCH   1   5
BRANCH   3  17
ATOM     17  N   UNL d   1      24.147 -18.554  -0.018  0.00  0.00    -0.274 N 
ATOM     18  H   UNL d   1      24.422 -19.293   0.623  0.00  0.00     0.189 HD
BRANCH  17  19
ATOM     19  C   UNL d   1      22.835 -18.111  -0.193  0.00  0.00     0.186 C 
ATOM     20  S   UNL d   1      22.466 -16.498  -0.524  0.00  0.00    -0.040 SA
BRANCH  19  21
ATOM     21  N   UNL d   1      21.865 -19.104  -0.067  0.00  0.00    -0.366 N 
ATOM     22  H   UNL d   1      22.118 -19.999   0.331  0.00  0.00     0.161 HD
BRANCH  21  23
ATOM     23  C   UNL d   1      20.495 -18.948  -0.579  0.00  0.00     0.122 C 
BRANCH  23  24
ATOM     24  C   UNL d   1      19.606 -20.193  -0.512  0.00  0.00     0.023 C 
BRANCH  24  25
ATOM     25  C   UNL d   1      19.472 -20.737   0.935  0.00  0.00    -0.021 C 
ATOM     26  C   UNL d   1      19.616 -19.630   1.982  0.00  0.00     0.009 C 
ATOM     27  C   UNL d   1      18.120 -21.430   1.124  0.00  0.00     0.009 C 
ENDBRANCH  24  25
ENDBRANCH  23  24
ENDBRANCH  21  23
ENDBRANCH  19  21
ENDBRANCH  17  19
ENDBRANCH   3  17
TORSDOF 10
ENDMDL
MODEL 4
REMARK VINA RESULT:    -5.848      2.047      2.928
REMARK INTER + INTRA:         -10.708
REMARK INTER:                  -8.831
REMARK INTRA:                  -1.876
REMARK CONF_INDEPENDENT:        2.983
REMARK UNBOUND:                -1.876
REMARK  10 active torsions:
REMARK  status: ('A' for Active; 'I' for Inactive)
REMARK    1  A    between atoms: O_2  and  C_3 
REMARK    2  A    between atoms: C_6  and  C_7 
REMARK       I    between atoms: C_7  and  N_9 
REMARK    3  A    between atoms: N_9  and  N_10 
REMARK    4  A    between atoms: N_10  and  C_11 
REMARK    5  A    between atoms: C_11  and  N_13 
REMARK    6  A    between atoms: N_13  and  C_14 
REMARK    7  A    between atoms: C_14  and  C_15 
REMARK    8  A    between atoms: C_15  and  C_16 
REMARK    9  A    between atoms: C_19  and  O_20 
REMARK   10  A    between atoms: C_22  and  O_23 
ROOT
ATOM      1  C   UNL d   1      25.146 -14.125  -4.087  0.00  0.00     0.273 C 
ATOM      2  O   UNL d   1      23.991 -13.737  -4.149  0.00  0.00    -0.266 OA
ATOM      3  N   UNL d   1      25.540 -15.134  -3.208  0.00  0.00    -0.264 N 
ATOM      4  H   UNL d   1      26.510 -15.443  -3.171  0.00  0.00     0.190 HD
ENDROOT
BRANCH   1   5
ATOM      5  C   UNL d   1      26.221 -13.539  -5.015  0.00  0.00     0.070 A 
ATOM      6  C   UNL d   1      26.102 -12.192  -5.398  0.00  0.00     0.023 A 
ATOM      7  C   UNL d   1      26.992 -11.604  -6.330  0.00  0.00     0.041 A 
ATOM      8  C   UNL d   1      28.080 -12.309  -6.878  0.00  0.00     0.104 A 
ATOM      9  C   UNL d   1      28.225 -13.654  -6.486  0.00  0.00     0.136 A 
ATOM     10  C   UNL d   1      27.309 -14.264  -5.548  0.00  0.00     0.120 A 
BRANCH   8  11
ATOM     11  O   UNL d   1      29.005 -11.487  -7.488  0.00  0.00    -0.353 OA
ATOM     12  C   UNL d   1      30.070 -10.834  -6.795  0.00  0.00     0.210 C 
ENDBRANCH   8  11
BRANCH   9  13
ATOM     13  O   UNL d   1      29.200 -14.524  -6.851  0.00  0.00    -0.351 OA
ATOM     14  C   UNL d   1      30.541 -14.330  -6.571  0.00  0.00     0.210 C 
ENDBRANCH   9  13
BRANCH  10  15
ATOM     15  O   UNL d   1      27.437 -15.560  -5.069  0.00  0.00    -0.352 OA
ATOM     16  C   UNL d   1      28.605 -15.946  -4.347  0.00  0.00     0.210 C 
ENDBRANCH  10  15
ENDBRANCH   1   5
BRANCH   3  17
ATOM     17  N   UNL d   1      24.632 -15.803  -2.331  0.00  0.00    -0.274 N 
ATOM     18  H   UNL d   1      23.667 -15.486  -2.363  0.00  0.00     0.189 HD
BRANCH  17  19
ATOM     19  C   UNL d   1      25.098 -16.829  -1.506  0.00  0.00     0.186 C 
ATOM     20  S   UNL d   1      26.622 -16.782  -0.784  0.00  0.00    -0.040 SA
BRANCH  19  21
ATOM     21  N   UNL d   1      24.207 -17.887  -1.336  0.00  0.00    -0.366 N 
ATOM     22  H   UNL d   1      24.366 -18.755  -1.830  0.00  0.00     0.161 HD
BRANCH  21  23
ATOM     23  C   UNL d   1      22.976 -17.772  -0.539  0.00  0.00     0.122 C 
BRANCH  23  24
ATOM     24  C   UNL d   1      22.312 -19.090  -0.132  0.00  0.00     0.023 C 
BRANCH  24  25
ATOM     25  C   UNL d   1      20.773 -18.950   0.003  0.00  0.00    -0.021 C 
ATOM     26  C   UNL d   1      20.040 -19.379  -1.271  0.00  0.00     0.009 C 
ATOM     27  C   UNL d   1      20.260 -19.785   1.179  0.00  0.00     0.009 C 
ENDBRANCH  24  25
ENDBRANCH  23  24
ENDBRANCH  21  23
ENDBRANCH  19  21
ENDBRANCH  17  19
ENDBRANCH   3  17
TORSDOF 10
ENDMDL
MODEL 5
REMARK VINA RESULT:    -5.831      2.276      3.593
REMARK INTER + INTRA:         -10.927
REMARK INTER:                  -8.814
REMARK INTRA:                  -2.113
REMARK CONF_INDEPENDENT:        2.983
REMARK UNBOUND:                -2.113
REMARK  10 active torsions:
REMARK  status: ('A' for Active; 'I' for Inactive)
REMARK    1  A    between atoms: O_2  and  C_3 
REMARK    2  A    between atoms: C_6  and  C_7 
REMARK       I    between atoms: C_7  and  N_9 
REMARK    3  A    between atoms: N_9  and  N_10 
REMARK    4  A    between atoms: N_10  and  C_11 
REMARK    5  A    between atoms: C_11  and  N_13 
REMARK    6  A    between atoms: N_13  and  C_14 
REMARK    7  A    between atoms: C_14  and  C_15 
REMARK    8  A    between atoms: C_15  and  C_16 
REMARK    9  A    between atoms: C_19  and  O_20 
REMARK   10  A    between atoms: C_22  and  O_23 
ROOT
ATOM      1  C   UNL d   1      25.584 -14.609  -3.437  0.00  0.00     0.273 C 
ATOM      2  O   UNL d   1      24.393 -14.459  -3.218  0.00  0.00    -0.266 OA
ATOM      3  N   UNL d   1      26.351 -15.545  -2.745  0.00  0.00    -0.264 N 
ATOM      4  H   UNL d   1      27.345 -15.653  -2.942  0.00  0.00     0.190 HD
ENDROOT
BRANCH   1   5
ATOM      5  C   UNL d   1      26.289 -13.789  -4.529  0.00  0.00     0.070 A 
ATOM      6  C   UNL d   1      25.890 -12.454  -4.715  0.00  0.00     0.023 A 
ATOM      7  C   UNL d   1      26.417 -11.661  -5.764  0.00  0.00     0.041 A 
ATOM      8  C   UNL d   1      27.410 -12.137  -6.639  0.00  0.00     0.104 A 
ATOM      9  C   UNL d   1      27.836 -13.467  -6.451  0.00  0.00     0.136 A 
ATOM     10  C   UNL d   1      27.288 -14.286  -5.392  0.00  0.00     0.120 A 
BRANCH   8  11
ATOM     11  O   UNL d   1      28.023 -11.133  -7.360  0.00  0.00    -0.353 OA
ATOM     12  C   UNL d   1      27.695 -10.809  -8.712  0.00  0.00     0.210 C 
ENDBRANCH   8  11
BRANCH   9  13
ATOM     13  O   UNL d   1      28.792 -14.138  -7.142  0.00  0.00    -0.351 OA
ATOM     14  C   UNL d   1      30.091 -13.683  -7.285  0.00  0.00     0.210 C 
ENDBRANCH   9  13
BRANCH  10  15
ATOM     15  O   UNL d   1      27.714 -15.576  -5.111  0.00  0.00    -0.352 OA
ATOM     16  C   UNL d   1      29.043 -15.808  -4.647  0.00  0.00     0.210 C 
ENDBRANCH  10  15
ENDBRANCH   1   5
BRANCH   3  17
ATOM     17  N   UNL d   1      25.810 -16.411  -1.745  0.00  0.00    -0.274 N 
ATOM     18  H   UNL d   1      24.796 -16.430  -1.674  0.00  0.00     0.189 HD
BRANCH  17  19
ATOM     19  C   UNL d   1      26.670 -17.168  -0.948  0.00  0.00     0.186 C 
ATOM     20  S   UNL d   1      28.342 -16.942  -0.960  0.00  0.00    -0.040 SA
BRANCH  19  21
ATOM     21  N   UNL d   1      26.037 -18.121  -0.152  0.00  0.00    -0.366 N 
ATOM     22  H   UNL d   1      26.545 -18.949   0.131  0.00  0.00     0.161 HD
BRANCH  21  23
ATOM     23  C   UNL d   1      24.617 -18.031   0.221  0.00  0.00     0.122 C 
BRANCH  23  24
ATOM     24  C   UNL d   1      23.667 -18.978  -0.517  0.00  0.00     0.023 C 
BRANCH  24  25
ATOM     25  C   UNL d   1      22.391 -18.252  -1.016  0.00  0.00    -0.021 C 
ATOM     26  C   UNL d   1      21.110 -18.949  -0.550  0.00  0.00     0.009 C 
ATOM     27  C   UNL d   1      22.374 -16.800  -0.528  0.00  0.00     0.009 C 
ENDBRANCH  24  25
ENDBRANCH  23  24
ENDBRANCH  21  23
ENDBRANCH  19  21
ENDBRANCH  17  19
ENDBRANCH   3  17
TORSDOF 10
ENDMDL
MODEL 6
REMARK VINA RESULT:    -5.548      3.152      4.104
REMARK INTER + INTRA:         -10.390
REMARK INTER:                  -8.531
REMARK INTRA:                  -1.859
REMARK CONF_INDEPENDENT:        2.983
REMARK UNBOUND:                -1.859
REMARK  10 active torsions:
REMARK  status: ('A' for Active; 'I' for Inactive)
REMARK    1  A    between atoms: O_2  and  C_3 
REMARK    2  A    between atoms: C_6  and  C_7 
REMARK       I    between atoms: C_7  and  N_9 
REMARK    3  A    between atoms: N_9  and  N_10 
REMARK    4  A    between atoms: N_10  and  C_11 
REMARK    5  A    between atoms: C_11  and  N_13 
REMARK    6  A    between atoms: N_13  and  C_14 
REMARK    7  A    between atoms: C_14  and  C_15 
REMARK    8  A    between atoms: C_15  and  C_16 
REMARK    9  A    between atoms: C_19  and  O_20 
REMARK   10  A    between atoms: C_22  and  O_23 
ROOT
ATOM      1  C   UNL d   1      25.473 -14.687  -3.665  0.00  0.00     0.273 C 
ATOM      2  O   UNL d   1      25.533 -15.402  -4.652  0.00  0.00    -0.266 OA
ATOM      3  N   UNL d   1      25.167 -15.195  -2.402  0.00  0.00    -0.264 N 
ATOM      4  H   UNL d   1      25.121 -14.580  -1.590  0.00  0.00     0.190 HD
ENDROOT
BRANCH   1   5
ATOM      5  C   UNL d   1      25.776 -13.184  -3.766  0.00  0.00     0.070 A 
ATOM      6  C   UNL d   1      25.563 -12.548  -5.001  0.00  0.00     0.023 A 
ATOM      7  C   UNL d   1      25.912 -11.191  -5.207  0.00  0.00     0.041 A 
ATOM      8  C   UNL d   1      26.431 -10.385  -4.177  0.00  0.00     0.104 A 
ATOM      9  C   UNL d   1      26.629 -11.003  -2.927  0.00  0.00     0.136 A 
ATOM     10  C   UNL d   1      26.290 -12.393  -2.717  0.00  0.00     0.120 A 
BRANCH   8  11
ATOM     11  O   UNL d   1      26.391  -9.038  -4.472  0.00  0.00    -0.353 OA
ATOM     12  C   UNL d   1      25.187  -8.273  -4.547  0.00  0.00     0.210 C 
ENDBRANCH   8  11
BRANCH   9  13
ATOM     13  O   UNL d   1      27.087 -10.434  -1.783  0.00  0.00    -0.351 OA
ATOM     14  C   UNL d   1      26.676  -9.192  -1.331  0.00  0.00     0.210 C 
ENDBRANCH   9  13
BRANCH  10  15
ATOM     15  O   UNL d   1      26.395 -13.041  -1.495  0.00  0.00    -0.352 OA
ATOM     16  C   UNL d   1      27.665 -13.174  -0.860  0.00  0.00     0.210 C 
ENDBRANCH  10  15
ENDBRANCH   1   5
BRANCH   3  17
ATOM     17  N   UNL d   1      24.920 -16.581  -2.157  0.00  0.00    -0.274 N 
ATOM     18  H   UNL d   1      24.941 -17.187  -2.972  0.00  0.00     0.189 HD
BRANCH  17  19
ATOM     19  C   UNL d   1      24.677 -17.020  -0.854  0.00  0.00     0.186 C 
ATOM     20  S   UNL d   1      25.923 -17.463   0.193  0.00  0.00    -0.040 SA
BRANCH  19  21
ATOM     21  N   UNL d   1      23.330 -17.065  -0.498  0.00  0.00    -0.366 N 
ATOM     22  H   UNL d   1      22.772 -16.223  -0.556  0.00  0.00     0.161 HD
BRANCH  21  23
ATOM     23  C   UNL d   1      22.694 -18.268   0.059  0.00  0.00     0.122 C 
BRANCH  23  24
ATOM     24  C   UNL d   1      21.654 -18.953  -0.833  0.00  0.00     0.023 C 
BRANCH  24  25
ATOM     25  C   UNL d   1      20.263 -19.030  -0.153  0.00  0.00    -0.021 C 
ATOM     26  C   UNL d   1      19.163 -19.443  -1.135  0.00  0.00     0.009 C 
ATOM     27  C   UNL d   1      20.289 -20.022   1.013  0.00  0.00     0.009 C 
ENDBRANCH  24  25
ENDBRANCH  23  24
ENDBRANCH  21  23
ENDBRANCH  19  21
ENDBRANCH  17  19
ENDBRANCH   3  17
TORSDOF 10
ENDMDL
MODEL 7
REMARK VINA RESULT:    -5.308      4.924      7.249
REMARK INTER + INTRA:         -10.346
REMARK INTER:                  -8.291
REMARK INTRA:                  -2.056
REMARK CONF_INDEPENDENT:        2.983
REMARK UNBOUND:                -2.056
REMARK  10 active torsions:
REMARK  status: ('A' for Active; 'I' for Inactive)
REMARK    1  A    between atoms: O_2  and  C_3 
REMARK    2  A    between atoms: C_6  and  C_7 
REMARK       I    between atoms: C_7  and  N_9 
REMARK    3  A    between atoms: N_9  and  N_10 
REMARK    4  A    between atoms: N_10  and  C_11 
REMARK    5  A    between atoms: C_11  and  N_13 
REMARK    6  A    between atoms: N_13  and  C_14 
REMARK    7  A    between atoms: C_14  and  C_15 
REMARK    8  A    between atoms: C_15  and  C_16 
REMARK    9  A    between atoms: C_19  and  O_20 
REMARK   10  A    between atoms: C_22  and  O_23 
ROOT
ATOM      1  C   UNL d   1      27.194 -14.188   1.039  0.00  0.00     0.273 C 
ATOM      2  O   UNL d   1      26.505 -14.249   0.034  0.00  0.00    -0.266 OA
ATOM      3  N   UNL d   1      28.081 -15.205   1.390  0.00  0.00    -0.264 N 
ATOM      4  H   UNL d   1      28.647 -15.135   2.235  0.00  0.00     0.190 HD
ENDROOT
BRANCH   1   5
ATOM      5  C   UNL d   1      27.144 -12.951   1.950  0.00  0.00     0.070 A 
ATOM      6  C   UNL d   1      26.848 -11.709   1.362  0.00  0.00     0.023 A 
ATOM      7  C   UNL d   1      26.882 -10.508   2.111  0.00  0.00     0.041 A 
ATOM      8  C   UNL d   1      27.149 -10.490   3.493  0.00  0.00     0.104 A 
ATOM      9  C   UNL d   1      27.426 -11.731   4.100  0.00  0.00     0.136 A 
ATOM     10  C   UNL d   1      27.410 -12.959   3.336  0.00  0.00     0.120 A 
BRANCH   8  11
ATOM     11  O   UNL d   1      26.812  -9.296   4.095  0.00  0.00    -0.353 OA
ATOM     12  C   UNL d   1      27.494  -8.063   3.859  0.00  0.00     0.210 C 
ENDBRANCH   8  11
BRANCH   9  13
ATOM     13  O   UNL d   1      27.683 -11.975   5.410  0.00  0.00    -0.351 OA
ATOM     14  C   UNL d   1      28.615 -11.269   6.150  0.00  0.00     0.210 C 
ENDBRANCH   9  13
BRANCH  10  15
ATOM     15  O   UNL d   1      27.604 -14.217   3.886  0.00  0.00    -0.352 OA
ATOM     16  C   UNL d   1      28.814 -14.519   4.578  0.00  0.00     0.210 C 
ENDBRANCH  10  15
ENDBRANCH   1   5
BRANCH   3  17
ATOM     17  N   UNL d   1      28.268 -16.384   0.603  0.00  0.00    -0.274 N 
ATOM     18  H   UNL d   1      28.912 -17.073   0.981  0.00  0.00     0.189 HD
BRANCH  17  19
ATOM     19  C   UNL d   1      27.576 -16.528  -0.600  0.00  0.00     0.186 C 
ATOM     20  S   UNL d   1      28.325 -16.332  -2.099  0.00  0.00    -0.040 SA
BRANCH  19  21
ATOM     21  N   UNL d   1      26.225 -16.839  -0.459  0.00  0.00    -0.366 N 
ATOM     22  H   UNL d   1      25.537 -16.099  -0.506  0.00  0.00     0.161 HD
BRANCH  21  23
ATOM     23  C   UNL d   1      25.748 -18.194  -0.145  0.00  0.00     0.122 C 
BRANCH  23  24
ATOM     24  C   UNL d   1      24.285 -18.308   0.293  0.00  0.00     0.023 C 
BRANCH  24  25
ATOM     25  C   UNL d   1      23.308 -17.820  -0.808  0.00  0.00    -0.021 C 
ATOM     26  C   UNL d   1      22.048 -18.688  -0.886  0.00  0.00     0.009 C 
ATOM     27  C   UNL d   1      22.897 -16.367  -0.556  0.00  0.00     0.009 C 
ENDBRANCH  24  25
ENDBRANCH  23  24
ENDBRANCH  21  23
ENDBRANCH  19  21
ENDBRANCH  17  19
ENDBRANCH   3  17
TORSDOF 10
ENDMDL
MODEL 8
REMARK VINA RESULT:    -5.166      5.214      7.737
REMARK INTER + INTRA:         -10.327
REMARK INTER:                  -8.149
REMARK INTRA:                  -2.178
REMARK CONF_INDEPENDENT:        2.983
REMARK UNBOUND:                -2.178
REMARK  10 active torsions:
REMARK  status: ('A' for Active; 'I' for Inactive)
REMARK    1  A    between atoms: O_2  and  C_3 
REMARK    2  A    between atoms: C_6  and  C_7 
REMARK       I    between atoms: C_7  and  N_9 
REMARK    3  A    between atoms: N_9  and  N_10 
REMARK    4  A    between atoms: N_10  and  C_11 
REMARK    5  A    between atoms: C_11  and  N_13 
REMARK    6  A    between atoms: N_13  and  C_14 
REMARK    7  A    between atoms: C_14  and  C_15 
REMARK    8  A    between atoms: C_15  and  C_16 
REMARK    9  A    between atoms: C_19  and  O_20 
REMARK   10  A    between atoms: C_22  and  O_23 
ROOT
ATOM      1  C   UNL d   1      27.228 -14.058   1.344  0.00  0.00     0.273 C 
ATOM      2  O   UNL d   1      27.000 -12.964   1.833  0.00  0.00    -0.266 OA
ATOM      3  N   UNL d   1      27.979 -15.024   2.013  0.00  0.00    -0.264 N 
ATOM      4  H   UNL d   1      28.160 -15.932   1.586  0.00  0.00     0.190 HD
ENDROOT
BRANCH   1   5
ATOM      5  C   UNL d   1      26.655 -14.437  -0.030  0.00  0.00     0.070 A 
ATOM      6  C   UNL d   1      26.587 -13.438  -1.017  0.00  0.00     0.023 A 
ATOM      7  C   UNL d   1      25.980 -13.677  -2.274  0.00  0.00     0.041 A 
ATOM      8  C   UNL d   1      25.469 -14.938  -2.634  0.00  0.00     0.104 A 
ATOM      9  C   UNL d   1      25.551 -15.955  -1.663  0.00  0.00     0.136 A 
ATOM     10  C   UNL d   1      26.153 -15.711  -0.371  0.00  0.00     0.120 A 
BRANCH   8  11
ATOM     11  O   UNL d   1      25.232 -15.060  -3.988  0.00  0.00    -0.353 OA
ATOM     12  C   UNL d   1      26.262 -15.144  -4.973  0.00  0.00     0.210 C 
ENDBRANCH   8  11
BRANCH   9  13
ATOM     13  O   UNL d   1      25.157 -17.249  -1.781  0.00  0.00    -0.351 OA
ATOM     14  C   UNL d   1      23.978 -17.739  -1.249  0.00  0.00     0.210 C 
ENDBRANCH   9  13
BRANCH  10  15
ATOM     15  O   UNL d   1      26.328 -16.686   0.600  0.00  0.00    -0.352 OA
ATOM     16  C   UNL d   1      27.128 -17.835   0.328  0.00  0.00     0.210 C 
ENDBRANCH  10  15
ENDBRANCH   1   5
BRANCH   3  17
ATOM     17  N   UNL d   1      28.524 -14.824   3.319  0.00  0.00    -0.274 N 
ATOM     18  H   UNL d   1      28.638 -15.659   3.886  0.00  0.00     0.189 HD
BRANCH  17  19
ATOM     19  C   UNL d   1      28.866 -13.536   3.735  0.00  0.00     0.186 C 
ATOM     20  S   UNL d   1      30.394 -12.877   3.459  0.00  0.00    -0.040 SA
BRANCH  19  21
ATOM     21  N   UNL d   1      27.848 -12.849   4.395  0.00  0.00    -0.366 N 
ATOM     22  H   UNL d   1      27.261 -12.211   3.875  0.00  0.00     0.161 HD
BRANCH  21  23
ATOM     23  C   UNL d   1      27.645 -12.933   5.849  0.00  0.00     0.122 C 
BRANCH  23  24
ATOM     24  C   UNL d   1      28.499 -11.991   6.703  0.00  0.00     0.023 C 
BRANCH  24  25
ATOM     25  C   UNL d   1      29.336 -12.759   7.759  0.00  0.00    -0.021 C 
ATOM     26  C   UNL d   1      28.530 -13.060   9.025  0.00  0.00     0.009 C 
ATOM     27  C   UNL d   1      29.859 -14.074   7.176  0.00  0.00     0.009 C 
ENDBRANCH  24  25
ENDBRANCH  23  24
ENDBRANCH  21  23
ENDBRANCH  19  21
ENDBRANCH  17  19
ENDBRANCH   3  17
TORSDOF 10
ENDMDL
MODEL 9
REMARK VINA RESULT:    -4.642      4.377      7.447
REMARK INTER + INTRA:         -10.471
REMARK INTER:                  -7.625
REMARK INTRA:                  -2.846
REMARK CONF_INDEPENDENT:        2.983
REMARK UNBOUND:                -2.846
REMARK  10 active torsions:
REMARK  status: ('A' for Active; 'I' for Inactive)
REMARK    1  A    between atoms: O_2  and  C_3 
REMARK    2  A    between atoms: C_6  and  C_7 
REMARK       I    between atoms: C_7  and  N_9 
REMARK    3  A    between atoms: N_9  and  N_10 
REMARK    4  A    between atoms: N_10  and  C_11 
REMARK    5  A    between atoms: C_11  and  N_13 
REMARK    6  A    between atoms: N_13  and  C_14 
REMARK    7  A    between atoms: C_14  and  C_15 
REMARK    8  A    between atoms: C_15  and  C_16 
REMARK    9  A    between atoms: C_19  and  O_20 
REMARK   10  A    between atoms: C_22  and  O_23 
ROOT
ATOM      1  C   UNL d   1      25.310 -14.082  -3.592  0.00  0.00     0.273 C 
ATOM      2  O   UNL d   1      24.783 -14.481  -4.617  0.00  0.00    -0.266 OA
ATOM      3  N   UNL d   1      25.712 -12.756  -3.436  0.00  0.00    -0.264 N 
ATOM      4  H   UNL d   1      26.152 -12.443  -2.571  0.00  0.00     0.190 HD
ENDROOT
BRANCH   1   5
ATOM      5  C   UNL d   1      25.517 -15.027  -2.398  0.00  0.00     0.070 A 
ATOM      6  C   UNL d   1      24.826 -16.250  -2.396  0.00  0.00     0.023 A 
ATOM      7  C   UNL d   1      24.882 -17.132  -1.289  0.00  0.00     0.041 A 
ATOM      8  C   UNL d   1      25.678 -16.868  -0.158  0.00  0.00     0.104 A 
ATOM      9  C   UNL d   1      26.394 -15.655  -0.156  0.00  0.00     0.136 A 
ATOM     10  C   UNL d   1      26.326 -14.744  -1.277  0.00  0.00     0.120 A 
BRANCH   8  11
ATOM     11  O   UNL d   1      25.861 -17.975   0.645  0.00  0.00    -0.353 OA
ATOM     12  C   UNL d   1      27.032 -18.792   0.622  0.00  0.00     0.210 C 
ENDBRANCH   8  11
BRANCH   9  13
ATOM     13  O   UNL d   1      27.243 -15.194   0.798  0.00  0.00    -0.351 OA
ATOM     14  C   UNL d   1      28.570 -15.574   0.886  0.00  0.00     0.210 C 
ENDBRANCH   9  13
BRANCH  10  15
ATOM     15  O   UNL d   1      27.059 -13.570  -1.367  0.00  0.00    -0.352 OA
ATOM     16  C   UNL d   1      27.028 -12.620  -0.304  0.00  0.00     0.210 C 
ENDBRANCH  10  15
ENDBRANCH   1   5
BRANCH   3  17
ATOM     17  N   UNL d   1      25.527 -11.760  -4.444  0.00  0.00    -0.274 N 
ATOM     18  H   UNL d   1      24.780 -11.092  -4.278  0.00  0.00     0.189 HD
BRANCH  17  19
ATOM     19  C   UNL d   1      26.359 -11.749  -5.566  0.00  0.00     0.186 C 
ATOM     20  S   UNL d   1      26.533 -10.387  -6.545  0.00  0.00    -0.040 SA
BRANCH  19  21
ATOM     21  N   UNL d   1      27.022 -12.951  -5.808  0.00  0.00    -0.366 N 
ATOM     22  H   UNL d   1      26.541 -13.826  -5.646  0.00  0.00     0.161 HD
BRANCH  21  23
ATOM     23  C   UNL d   1      28.438 -13.014  -6.198  0.00  0.00     0.122 C 
BRANCH  23  24
ATOM     24  C   UNL d   1      29.004 -14.414  -6.452  0.00  0.00     0.023 C 
BRANCH  24  25
ATOM     25  C   UNL d   1      28.674 -15.395  -5.296  0.00  0.00    -0.021 C 
ATOM     26  C   UNL d   1      29.658 -16.566  -5.235  0.00  0.00     0.009 C 
ATOM     27  C   UNL d   1      28.687 -14.663  -3.951  0.00  0.00     0.009 C 
ENDBRANCH  24  25
ENDBRANCH  23  24
ENDBRANCH  21  23
ENDBRANCH  19  21
ENDBRANCH  17  19
ENDBRANCH   3  17
TORSDOF 10
ENDMDL
