MODEL 1
REMARK VINA RESULT:   -31.863      0.000      0.000
REMARK INTER + INTRA:         -35.056
REMARK INTER:                 -33.652
REMARK INTRA:                  -1.404
REMARK CONF_INDEPENDENT:        1.790
REMARK UNBOUND:                -1.404
REMARK  6 active torsions:
REMARK  status: ('A' for Active; 'I' for Inactive)
REMARK    1  A    between atoms: C_5  and  C_6 
REMARK    2  A    between atoms: C_14  and  C_15 
REMARK       I    between atoms: C_15  and  N_17 
REMARK    3  A    between atoms: N_17  and  C_18 
REMARK    4  A    between atoms: C_21  and  S_22 
REMARK    5  A    between atoms: S_22  and  C_23 
REMARK    6  A    between atoms: C_23  and  C_24 
ROOT
ATOM      1  C   UNL d   1      27.721 -14.870  -5.072  0.00  0.00     0.261 C 
ATOM      2  O   UNL d   1      26.628 -15.205  -5.542  0.00  0.00    -0.267 OA
ATOM      3  N   UNL d   1      28.036 -15.069  -3.734  0.00  0.00    -0.323 N 
ATOM      4  H   UNL d   1      28.858 -14.648  -3.330  0.00  0.00     0.169 HD
ENDROOT
BRANCH   1   5
ATOM      5  C   UNL d   1      28.692 -14.213  -5.931  0.00  0.00     0.095 A 
ATOM      6  C   UNL d   1      28.637 -12.843  -6.375  0.00  0.00     0.116 A 
ATOM      7  N   UNL d   1      29.672 -12.558  -7.177  0.00  0.00    -0.127 NA
ATOM      8  O   UNL d   1      30.414 -13.713  -7.269  0.00  0.00    -0.217 OA
ATOM      9  C   UNL d   1      29.845 -14.692  -6.518  0.00  0.00     0.093 A 
ATOM     10  C   UNL d   1      30.561 -15.978  -6.512  0.00  0.00     0.080 C 
BRANCH   6  11
ATOM     11  C   UNL d   1      27.642 -11.824  -6.029  0.00  0.00     0.039 A 
ATOM     12  C   UNL d   1      27.378 -11.512  -4.679  0.00  0.00     0.048 A 
ATOM     13 CL   UNL d   1      28.299 -12.170  -3.360  0.00  0.00    -0.083 Cl
ATOM     14  C   UNL d   1      26.344 -10.633  -4.334  0.00  0.00     0.025 A 
ATOM     15  C   UNL d   1      25.591 -10.012  -5.325  0.00  0.00     0.003 A 
ATOM     16  C   UNL d   1      25.865 -10.275  -6.666  0.00  0.00     0.025 A 
ATOM     17  C   UNL d   1      26.877 -11.179  -7.019  0.00  0.00     0.048 A 
ATOM     18 CL   UNL d   1      27.094 -11.467  -8.714  0.00  0.00    -0.083 Cl
ENDBRANCH   6  11
ENDBRANCH   1   5
BRANCH   3  19
ATOM     19  C   UNL d   1      27.162 -15.737  -2.846  0.00  0.00     0.035 A 
ATOM     20  C   UNL d   1      25.787 -15.522  -2.909  0.00  0.00     0.031 A 
ATOM     21  C   UNL d   1      24.945 -16.169  -1.992  0.00  0.00     0.021 A 
ATOM     22  C   UNL d   1      25.457 -17.065  -1.039  0.00  0.00     0.001 A 
ATOM     23  C   UNL d   1      26.832 -17.243  -0.964  0.00  0.00     0.021 A 
ATOM     24  C   UNL d   1      27.671 -16.589  -1.862  0.00  0.00     0.031 A 
BRANCH  22  25
ATOM     25  S   UNL d   1      24.279 -17.948  -0.044  0.00  0.00    -0.125 SA
BRANCH  25  26
ATOM     26  C   UNL d   1      22.643 -17.194  -0.441  0.00  0.00     0.119 C 
BRANCH  26  27
ATOM     27  C   UNL d   1      21.531 -18.200  -0.261  0.00  0.00    -0.031 A 
ATOM     28  C   UNL d   1      21.398 -18.951   0.914  0.00  0.00     0.011 A 
ATOM     29  C   UNL d   1      20.337 -19.833   1.068  0.00  0.00     0.020 A 
ATOM     30  C   UNL d   1      19.454 -19.976   0.014  0.00  0.00     0.116 A 
ATOM     31  N   UNL d   1      19.572 -19.317  -1.158  0.00  0.00    -0.273 NA
ATOM     32  C   UNL d   1      20.606 -18.448  -1.270  0.00  0.00     0.124 A 
ENDBRANCH  26  27
ENDBRANCH  25  26
ENDBRANCH  22  25
ENDBRANCH   3  19
TORSDOF 6
ENDMDL
MODEL 2
REMARK VINA RESULT:   -31.748      2.481      4.408
REMARK INTER + INTRA:         -35.274
REMARK INTER:                 -33.538
REMARK INTRA:                  -1.736
REMARK CONF_INDEPENDENT:        1.790
REMARK UNBOUND:                -1.736
REMARK  6 active torsions:
REMARK  status: ('A' for Active; 'I' for Inactive)
REMARK    1  A    between atoms: C_5  and  C_6 
REMARK    2  A    between atoms: C_14  and  C_15 
REMARK       I    between atoms: C_15  and  N_17 
REMARK    3  A    between atoms: N_17  and  C_18 
REMARK    4  A    between atoms: C_21  and  S_22 
REMARK    5  A    between atoms: S_22  and  C_23 
REMARK    6  A    between atoms: C_23  and  C_24 
ROOT
ATOM      1  C   UNL d   1      28.124 -15.147  -5.169  0.00  0.00     0.261 C 
ATOM      2  O   UNL d   1      27.033 -15.266  -5.737  0.00  0.00    -0.267 OA
ATOM      3  N   UNL d   1      28.249 -15.256  -3.790  0.00  0.00    -0.323 N 
ATOM      4  H   UNL d   1      29.107 -14.998  -3.329  0.00  0.00     0.169 HD
ENDROOT
BRANCH   1   5
ATOM      5  C   UNL d   1      29.306 -14.846  -5.959  0.00  0.00     0.095 A 
ATOM      6  C   UNL d   1      30.622 -15.398  -5.755  0.00  0.00     0.116 A 
ATOM      7  N   UNL d   1      31.494 -14.894  -6.639  0.00  0.00    -0.127 NA
ATOM      8  O   UNL d   1      30.780 -14.021  -7.427  0.00  0.00    -0.217 OA
ATOM      9  C   UNL d   1      29.479 -14.001  -7.036  0.00  0.00     0.093 A 
ATOM     10  C   UNL d   1      28.599 -13.121  -7.821  0.00  0.00     0.080 C 
BRANCH   6  11
ATOM     11  C   UNL d   1      31.036 -16.396  -4.765  0.00  0.00     0.039 A 
ATOM     12  C   UNL d   1      30.932 -17.773  -5.051  0.00  0.00     0.048 A 
ATOM     13 CL   UNL d   1      30.475 -18.381  -6.614  0.00  0.00    -0.083 Cl
ATOM     14  C   UNL d   1      31.206 -18.733  -4.069  0.00  0.00     0.025 A 
ATOM     15  C   UNL d   1      31.635 -18.342  -2.805  0.00  0.00     0.003 A 
ATOM     16  C   UNL d   1      31.785 -16.987  -2.517  0.00  0.00     0.025 A 
ATOM     17  C   UNL d   1      31.481 -16.018  -3.485  0.00  0.00     0.048 A 
ATOM     18 CL   UNL d   1      31.656 -14.364  -2.997  0.00  0.00    -0.083 Cl
ENDBRANCH   6  11
ENDBRANCH   1   5
BRANCH   3  19
ATOM     19  C   UNL d   1      27.154 -15.586  -2.959  0.00  0.00     0.035 A 
ATOM     20  C   UNL d   1      25.888 -15.068  -3.215  0.00  0.00     0.031 A 
ATOM     21  C   UNL d   1      24.826 -15.383  -2.353  0.00  0.00     0.021 A 
ATOM     22  C   UNL d   1      25.006 -16.248  -1.260  0.00  0.00     0.001 A 
ATOM     23  C   UNL d   1      26.281 -16.729  -0.996  0.00  0.00     0.021 A 
ATOM     24  C   UNL d   1      27.340 -16.404  -1.841  0.00  0.00     0.031 A 
BRANCH  22  25
ATOM     25  S   UNL d   1      23.556 -16.702  -0.340  0.00  0.00    -0.125 SA
BRANCH  25  26
ATOM     26  C   UNL d   1      23.207 -18.451  -0.810  0.00  0.00     0.119 C 
BRANCH  26  27
ATOM     27  C   UNL d   1      21.785 -18.826  -0.467  0.00  0.00    -0.031 A 
ATOM     28  C   UNL d   1      21.373 -19.028   0.856  0.00  0.00     0.011 A 
ATOM     29  C   UNL d   1      20.048 -19.324   1.141  0.00  0.00     0.020 A 
ATOM     30  C   UNL d   1      19.169 -19.455   0.083  0.00  0.00     0.116 A 
ATOM     31  N   UNL d   1      19.530 -19.325  -1.212  0.00  0.00    -0.273 NA
ATOM     32  C   UNL d   1      20.826 -19.016  -1.457  0.00  0.00     0.124 A 
ENDBRANCH  26  27
ENDBRANCH  25  26
ENDBRANCH  22  25
ENDBRANCH   3  19
TORSDOF 6
ENDMDL
MODEL 3
REMARK VINA RESULT:   -31.734      5.592      7.201
REMARK INTER + INTRA:         -35.069
REMARK INTER:                 -33.524
REMARK INTRA:                  -1.545
REMARK CONF_INDEPENDENT:        1.790
REMARK UNBOUND:                -1.545
REMARK  6 active torsions:
REMARK  status: ('A' for Active; 'I' for Inactive)
REMARK    1  A    between atoms: C_5  and  C_6 
REMARK    2  A    between atoms: C_14  and  C_15 
REMARK       I    between atoms: C_15  and  N_17 
REMARK    3  A    between atoms: N_17  and  C_18 
REMARK    4  A    between atoms: C_21  and  S_22 
REMARK    5  A    between atoms: S_22  and  C_23 
REMARK    6  A    between atoms: C_23  and  C_24 
ROOT
ATOM      1  C   UNL d   1      28.982 -14.503   1.524  0.00  0.00     0.261 C 
ATOM      2  O   UNL d   1      28.013 -13.754   1.689  0.00  0.00    -0.267 OA
ATOM      3  N   UNL d   1      28.846 -15.766   0.962  0.00  0.00    -0.323 N 
ATOM      4  H   UNL d   1      29.609 -16.423   0.983  0.00  0.00     0.169 HD
ENDROOT
BRANCH   1   5
ATOM      5  C   UNL d   1      30.298 -14.070   1.966  0.00  0.00     0.095 A 
ATOM      6  C   UNL d   1      30.572 -13.221   3.098  0.00  0.00     0.116 A 
ATOM      7  N   UNL d   1      31.887 -12.992   3.216  0.00  0.00    -0.127 NA
ATOM      8  O   UNL d   1      32.489 -13.677   2.186  0.00  0.00    -0.217 OA
ATOM      9  C   UNL d   1      31.551 -14.331   1.452  0.00  0.00     0.093 A 
ATOM     10  C   UNL d   1      32.072 -15.126   0.329  0.00  0.00     0.080 C 
BRANCH   6  11
ATOM     11  C   UNL d   1      29.616 -12.661   4.056  0.00  0.00     0.039 A 
ATOM     12  C   UNL d   1      28.930 -13.503   4.957  0.00  0.00     0.048 A 
ATOM     13 CL   UNL d   1      29.275 -15.199   5.113  0.00  0.00    -0.083 Cl
ATOM     14  C   UNL d   1      27.924 -12.997   5.789  0.00  0.00     0.025 A 
ATOM     15  C   UNL d   1      27.619 -11.639   5.776  0.00  0.00     0.003 A 
ATOM     16  C   UNL d   1      28.315 -10.785   4.924  0.00  0.00     0.025 A 
ATOM     17  C   UNL d   1      29.302 -11.289   4.063  0.00  0.00     0.048 A 
ATOM     18 CL   UNL d   1      30.065 -10.142   3.012  0.00  0.00    -0.083 Cl
ENDBRANCH   6  11
ENDBRANCH   1   5
BRANCH   3  19
ATOM     19  C   UNL d   1      27.609 -16.242   0.472  0.00  0.00     0.035 A 
ATOM     20  C   UNL d   1      27.184 -17.537   0.756  0.00  0.00     0.031 A 
ATOM     21  C   UNL d   1      25.969 -17.996   0.227  0.00  0.00     0.021 A 
ATOM     22  C   UNL d   1      25.149 -17.160  -0.549  0.00  0.00     0.001 A 
ATOM     23  C   UNL d   1      25.601 -15.883  -0.854  0.00  0.00     0.021 A 
ATOM     24  C   UNL d   1      26.815 -15.430  -0.344  0.00  0.00     0.031 A 
BRANCH  22  25
ATOM     25  S   UNL d   1      23.561 -17.799  -1.024  0.00  0.00    -0.125 SA
BRANCH  25  26
ATOM     26  C   UNL d   1      22.739 -18.288   0.554  0.00  0.00     0.119 C 
BRANCH  26  27
ATOM     27  C   UNL d   1      21.379 -18.885   0.287  0.00  0.00    -0.031 A 
ATOM     28  C   UNL d   1      20.654 -19.546   1.287  0.00  0.00     0.011 A 
ATOM     29  C   UNL d   1      19.385 -20.043   1.022  0.00  0.00     0.020 A 
ATOM     30  C   UNL d   1      18.886 -19.903  -0.260  0.00  0.00     0.116 A 
ATOM     31  N   UNL d   1      19.569 -19.324  -1.270  0.00  0.00    -0.273 NA
ATOM     32  C   UNL d   1      20.796 -18.831  -0.976  0.00  0.00     0.124 A 
ENDBRANCH  26  27
ENDBRANCH  25  26
ENDBRANCH  22  25
ENDBRANCH   3  19
TORSDOF 6
ENDMDL
MODEL 4
REMARK VINA RESULT:   -31.705      4.496      5.985
REMARK INTER + INTRA:         -34.906
REMARK INTER:                 -33.495
REMARK INTRA:                  -1.411
REMARK CONF_INDEPENDENT:        1.790
REMARK UNBOUND:                -1.411
REMARK  6 active torsions:
REMARK  status: ('A' for Active; 'I' for Inactive)
REMARK    1  A    between atoms: C_5  and  C_6 
REMARK    2  A    between atoms: C_14  and  C_15 
REMARK       I    between atoms: C_15  and  N_17 
REMARK    3  A    between atoms: N_17  and  C_18 
REMARK    4  A    between atoms: C_21  and  S_22 
REMARK    5  A    between atoms: S_22  and  C_23 
REMARK    6  A    between atoms: C_23  and  C_24 
ROOT
ATOM      1  C   UNL d   1      30.013 -17.270  -2.034  0.00  0.00     0.261 C 
ATOM      2  O   UNL d   1      29.456 -16.924  -3.081  0.00  0.00    -0.267 OA
ATOM      3  N   UNL d   1      29.297 -17.515  -0.868  0.00  0.00    -0.323 N 
ATOM      4  H   UNL d   1      29.773 -17.637   0.012  0.00  0.00     0.169 HD
ENDROOT
BRANCH   1   5
ATOM      5  C   UNL d   1      31.461 -17.388  -2.005  0.00  0.00     0.095 A 
ATOM      6  C   UNL d   1      32.284 -17.953  -3.044  0.00  0.00     0.116 A 
ATOM      7  N   UNL d   1      33.578 -17.935  -2.694  0.00  0.00    -0.127 NA
ATOM      8  O   UNL d   1      33.627 -17.363  -1.443  0.00  0.00    -0.217 OA
ATOM      9  C   UNL d   1      32.376 -17.023  -1.038  0.00  0.00     0.093 A 
ATOM     10  C   UNL d   1      32.295 -16.375   0.282  0.00  0.00     0.080 C 
BRANCH   6  11
ATOM     11  C   UNL d   1      31.859 -18.476  -4.345  0.00  0.00     0.039 A 
ATOM     12  C   UNL d   1      31.835 -17.638  -5.479  0.00  0.00     0.048 A 
ATOM     13 CL   UNL d   1      32.448 -16.011  -5.464  0.00  0.00    -0.083 Cl
ATOM     14  C   UNL d   1      31.313 -18.091  -6.696  0.00  0.00     0.025 A 
ATOM     15  C   UNL d   1      30.853 -19.398  -6.820  0.00  0.00     0.003 A 
ATOM     16  C   UNL d   1      30.907 -20.254  -5.722  0.00  0.00     0.025 A 
ATOM     17  C   UNL d   1      31.399 -19.798  -4.490  0.00  0.00     0.048 A 
ATOM     18 CL   UNL d   1      31.370 -20.935  -3.182  0.00  0.00    -0.083 Cl
ENDBRANCH   6  11
ENDBRANCH   1   5
BRANCH   3  19
ATOM     19  C   UNL d   1      27.886 -17.461  -0.827  0.00  0.00     0.035 A 
ATOM     20  C   UNL d   1      27.180 -16.658  -1.720  0.00  0.00     0.031 A 
ATOM     21  C   UNL d   1      25.781 -16.594  -1.633  0.00  0.00     0.021 A 
ATOM     22  C   UNL d   1      25.074 -17.360  -0.691  0.00  0.00     0.001 A 
ATOM     23  C   UNL d   1      25.791 -18.128   0.216  0.00  0.00     0.021 A 
ATOM     24  C   UNL d   1      27.181 -18.180   0.143  0.00  0.00     0.031 A 
BRANCH  22  25
ATOM     25  S   UNL d   1      23.300 -17.322  -0.786  0.00  0.00    -0.125 SA
BRANCH  25  26
ATOM     26  C   UNL d   1      22.713 -18.367   0.616  0.00  0.00     0.119 C 
BRANCH  26  27
ATOM     27  C   UNL d   1      21.356 -18.956   0.315  0.00  0.00    -0.031 A 
ATOM     28  C   UNL d   1      20.629 -19.668   1.278  0.00  0.00     0.011 A 
ATOM     29  C   UNL d   1      19.364 -20.156   0.984  0.00  0.00     0.020 A 
ATOM     30  C   UNL d   1      18.870 -19.956  -0.292  0.00  0.00     0.116 A 
ATOM     31  N   UNL d   1      19.555 -19.325  -1.270  0.00  0.00    -0.273 NA
ATOM     32  C   UNL d   1      20.779 -18.843  -0.946  0.00  0.00     0.124 A 
ENDBRANCH  26  27
ENDBRANCH  25  26
ENDBRANCH  22  25
ENDBRANCH   3  19
TORSDOF 6
ENDMDL
MODEL 5
REMARK VINA RESULT:   -31.631      2.911      4.866
REMARK INTER + INTRA:         -35.130
REMARK INTER:                 -33.421
REMARK INTRA:                  -1.709
REMARK CONF_INDEPENDENT:        1.790
REMARK UNBOUND:                -1.709
REMARK  6 active torsions:
REMARK  status: ('A' for Active; 'I' for Inactive)
REMARK    1  A    between atoms: C_5  and  C_6 
REMARK    2  A    between atoms: C_14  and  C_15 
REMARK       I    between atoms: C_15  and  N_17 
REMARK    3  A    between atoms: N_17  and  C_18 
REMARK    4  A    between atoms: C_21  and  S_22 
REMARK    5  A    between atoms: S_22  and  C_23 
REMARK    6  A    between atoms: C_23  and  C_24 
ROOT
ATOM      1  C   UNL d   1      28.688 -15.541  -4.335  0.00  0.00     0.261 C 
ATOM      2  O   UNL d   1      27.740 -15.635  -5.122  0.00  0.00    -0.267 OA
ATOM      3  N   UNL d   1      28.505 -15.578  -2.959  0.00  0.00    -0.323 N 
ATOM      4  H   UNL d   1      29.258 -15.339  -2.333  0.00  0.00     0.169 HD
ENDROOT
BRANCH   1   5
ATOM      5  C   UNL d   1      30.029 -15.346  -4.860  0.00  0.00     0.095 A 
ATOM      6  C   UNL d   1      31.148 -16.234  -4.670  0.00  0.00     0.116 A 
ATOM      7  N   UNL d   1      32.249 -15.749  -5.262  0.00  0.00    -0.127 NA
ATOM      8  O   UNL d   1      31.878 -14.559  -5.844  0.00  0.00    -0.217 OA
ATOM      9  C   UNL d   1      30.559 -14.324  -5.621  0.00  0.00     0.093 A 
ATOM     10  C   UNL d   1      30.030 -13.086  -6.217  0.00  0.00     0.080 C 
BRANCH   6  11
ATOM     11  C   UNL d   1      31.169 -17.519  -3.967  0.00  0.00     0.039 A 
ATOM     12  C   UNL d   1      31.422 -17.571  -2.580  0.00  0.00     0.048 A 
ATOM     13 CL   UNL d   1      31.562 -16.148  -1.592  0.00  0.00    -0.083 Cl
ATOM     14  C   UNL d   1      31.568 -18.798  -1.923  0.00  0.00     0.025 A 
ATOM     15  C   UNL d   1      31.415 -19.992  -2.621  0.00  0.00     0.003 A 
ATOM     16  C   UNL d   1      31.122 -19.961  -3.982  0.00  0.00     0.025 A 
ATOM     17  C   UNL d   1      31.006 -18.735  -4.656  0.00  0.00     0.048 A 
ATOM     18 CL   UNL d   1      30.691 -18.820  -6.358  0.00  0.00    -0.083 Cl
ENDBRANCH   6  11
ENDBRANCH   1   5
BRANCH   3  19
ATOM     19  C   UNL d   1      27.239 -15.804  -2.374  0.00  0.00     0.035 A 
ATOM     20  C   UNL d   1      26.136 -15.045  -2.755  0.00  0.00     0.031 A 
ATOM     21  C   UNL d   1      24.898 -15.266  -2.131  0.00  0.00     0.021 A 
ATOM     22  C   UNL d   1      24.739 -16.269  -1.161  0.00  0.00     0.001 A 
ATOM     23  C   UNL d   1      25.854 -16.994  -0.765  0.00  0.00     0.021 A 
ATOM     24  C   UNL d   1      27.088 -16.766  -1.370  0.00  0.00     0.031 A 
BRANCH  22  25
ATOM     25  S   UNL d   1      23.092 -16.564  -0.565  0.00  0.00    -0.125 SA
BRANCH  25  26
ATOM     26  C   UNL d   1      23.035 -18.361  -0.152  0.00  0.00     0.119 C 
BRANCH  26  27
ATOM     27  C   UNL d   1      21.610 -18.856  -0.102  0.00  0.00    -0.031 A 
ATOM     28  C   UNL d   1      21.025 -19.303   1.089  0.00  0.00     0.011 A 
ATOM     29  C   UNL d   1      19.697 -19.707   1.112  0.00  0.00     0.020 A 
ATOM     30  C   UNL d   1      18.994 -19.694  -0.078  0.00  0.00     0.116 A 
ATOM     31  N   UNL d   1      19.530 -19.325  -1.262  0.00  0.00    -0.273 NA
ATOM     32  C   UNL d   1      20.822 -18.917  -1.248  0.00  0.00     0.124 A 
ENDBRANCH  26  27
ENDBRANCH  25  26
ENDBRANCH  22  25
ENDBRANCH   3  19
TORSDOF 6
ENDMDL
MODEL 6
REMARK VINA RESULT:   -31.599      4.308      5.928
REMARK INTER + INTRA:         -34.796
REMARK INTER:                 -33.389
REMARK INTRA:                  -1.408
REMARK CONF_INDEPENDENT:        1.790
REMARK UNBOUND:                -1.408
REMARK  6 active torsions:
REMARK  status: ('A' for Active; 'I' for Inactive)
REMARK    1  A    between atoms: C_5  and  C_6 
REMARK    2  A    between atoms: C_14  and  C_15 
REMARK       I    between atoms: C_15  and  N_17 
REMARK    3  A    between atoms: N_17  and  C_18 
REMARK    4  A    between atoms: C_21  and  S_22 
REMARK    5  A    between atoms: S_22  and  C_23 
REMARK    6  A    between atoms: C_23  and  C_24 
ROOT
ATOM      1  C   UNL d   1      29.789 -17.061  -2.080  0.00  0.00     0.261 C 
ATOM      2  O   UNL d   1      29.194 -17.041  -3.163  0.00  0.00    -0.267 OA
ATOM      3  N   UNL d   1      29.109 -17.012  -0.869  0.00  0.00    -0.323 N 
ATOM      4  H   UNL d   1      29.607 -16.866  -0.005  0.00  0.00     0.169 HD
ENDROOT
BRANCH   1   5
ATOM      5  C   UNL d   1      31.242 -17.096  -2.067  0.00  0.00     0.095 A 
ATOM      6  C   UNL d   1      32.078 -17.817  -2.994  0.00  0.00     0.116 A 
ATOM      7  N   UNL d   1      33.374 -17.662  -2.690  0.00  0.00    -0.127 NA
ATOM      8  O   UNL d   1      33.412 -16.847  -1.581  0.00  0.00    -0.217 OA
ATOM      9  C   UNL d   1      32.150 -16.497  -1.219  0.00  0.00     0.093 A 
ATOM     10  C   UNL d   1      32.055 -15.600  -0.056  0.00  0.00     0.080 C 
BRANCH   6  11
ATOM     11  C   UNL d   1      31.661 -18.614  -4.151  0.00  0.00     0.039 A 
ATOM     12  C   UNL d   1      31.795 -20.018  -4.138  0.00  0.00     0.048 A 
ATOM     13 CL   UNL d   1      32.296 -20.906  -2.729  0.00  0.00    -0.083 Cl
ATOM     14  C   UNL d   1      31.518 -20.776  -5.281  0.00  0.00     0.025 A 
ATOM     15  C   UNL d   1      31.056 -20.158  -6.439  0.00  0.00     0.003 A 
ATOM     16  C   UNL d   1      30.876 -18.777  -6.458  0.00  0.00     0.025 A 
ATOM     17  C   UNL d   1      31.182 -18.006  -5.326  0.00  0.00     0.048 A 
ATOM     18 CL   UNL d   1      30.968 -16.293  -5.482  0.00  0.00    -0.083 Cl
ENDBRANCH   6  11
ENDBRANCH   1   5
BRANCH   3  19
ATOM     19  C   UNL d   1      27.698 -17.017  -0.798  0.00  0.00     0.035 A 
ATOM     20  C   UNL d   1      27.038 -17.812   0.136  0.00  0.00     0.031 A 
ATOM     21  C   UNL d   1      25.635 -17.826   0.161  0.00  0.00     0.021 A 
ATOM     22  C   UNL d   1      24.882 -17.019  -0.708  0.00  0.00     0.001 A 
ATOM     23  C   UNL d   1      25.552 -16.258  -1.657  0.00  0.00     0.021 A 
ATOM     24  C   UNL d   1      26.944 -16.256  -1.695  0.00  0.00     0.031 A 
BRANCH  22  25
ATOM     25  S   UNL d   1      23.122 -16.997  -0.471  0.00  0.00    -0.125 SA
BRANCH  25  26
ATOM     26  C   UNL d   1      22.750 -18.477   0.566  0.00  0.00     0.119 C 
BRANCH  26  27
ATOM     27  C   UNL d   1      21.353 -18.982   0.299  0.00  0.00    -0.031 A 
ATOM     28  C   UNL d   1      20.575 -19.570   1.305  0.00  0.00     0.011 A 
ATOM     29  C   UNL d   1      19.277 -19.981   1.038  0.00  0.00     0.020 A 
ATOM     30  C   UNL d   1      18.799 -19.833  -0.251  0.00  0.00     0.116 A 
ATOM     31  N   UNL d   1      19.530 -19.324  -1.266  0.00  0.00    -0.273 NA
ATOM     32  C   UNL d   1      20.786 -18.914  -0.970  0.00  0.00     0.124 A 
ENDBRANCH  26  27
ENDBRANCH  25  26
ENDBRANCH  22  25
ENDBRANCH   3  19
TORSDOF 6
ENDMDL
MODEL 7
REMARK VINA RESULT:   -31.334      4.934      6.867
REMARK INTER + INTRA:         -34.787
REMARK INTER:                 -33.124
REMARK INTRA:                  -1.663
REMARK CONF_INDEPENDENT:        1.790
REMARK UNBOUND:                -1.663
REMARK  6 active torsions:
REMARK  status: ('A' for Active; 'I' for Inactive)
REMARK    1  A    between atoms: C_5  and  C_6 
REMARK    2  A    between atoms: C_14  and  C_15 
REMARK       I    between atoms: C_15  and  N_17 
REMARK    3  A    between atoms: N_17  and  C_18 
REMARK    4  A    between atoms: C_21  and  S_22 
REMARK    5  A    between atoms: S_22  and  C_23 
REMARK    6  A    between atoms: C_23  and  C_24 
ROOT
ATOM      1  C   UNL d   1      28.009 -13.360   0.533  0.00  0.00     0.261 C 
ATOM      2  O   UNL d   1      26.853 -12.931   0.617  0.00  0.00    -0.267 OA
ATOM      3  N   UNL d   1      28.277 -14.693   0.248  0.00  0.00    -0.323 N 
ATOM      4  H   UNL d   1      29.210 -15.062   0.343  0.00  0.00     0.169 HD
ENDROOT
BRANCH   1   5
ATOM      5  C   UNL d   1      29.122 -12.458   0.778  0.00  0.00     0.095 A 
ATOM      6  C   UNL d   1      29.806 -12.282   2.034  0.00  0.00     0.116 A 
ATOM      7  N   UNL d   1      30.769 -11.355   1.929  0.00  0.00    -0.127 NA
ATOM      8  O   UNL d   1      30.737 -10.917   0.624  0.00  0.00    -0.217 OA
ATOM      9  C   UNL d   1      29.772 -11.580  -0.065  0.00  0.00     0.093 A 
ATOM     10  C   UNL d   1      29.653 -11.220  -1.487  0.00  0.00     0.080 C 
BRANCH   6  11
ATOM     11  C   UNL d   1      29.570 -12.989   3.295  0.00  0.00     0.039 A 
ATOM     12  C   UNL d   1      30.388 -14.076   3.668  0.00  0.00     0.048 A 
ATOM     13 CL   UNL d   1      31.801 -14.546   2.773  0.00  0.00    -0.083 Cl
ATOM     14  C   UNL d   1      30.095 -14.838   4.806  0.00  0.00     0.025 A 
ATOM     15  C   UNL d   1      29.017 -14.501   5.618  0.00  0.00     0.003 A 
ATOM     16  C   UNL d   1      28.222 -13.405   5.289  0.00  0.00     0.025 A 
ATOM     17  C   UNL d   1      28.489 -12.656   4.133  0.00  0.00     0.048 A 
ATOM     18 CL   UNL d   1      27.405 -11.347   3.797  0.00  0.00    -0.083 Cl
ENDBRANCH   6  11
ENDBRANCH   1   5
BRANCH   3  19
ATOM     19  C   UNL d   1      27.252 -15.622  -0.041  0.00  0.00     0.035 A 
ATOM     20  C   UNL d   1      27.175 -16.830   0.646  0.00  0.00     0.031 A 
ATOM     21  C   UNL d   1      26.169 -17.750   0.314  0.00  0.00     0.021 A 
ATOM     22  C   UNL d   1      25.210 -17.458  -0.670  0.00  0.00     0.001 A 
ATOM     23  C   UNL d   1      25.319 -16.265  -1.371  0.00  0.00     0.021 A 
ATOM     24  C   UNL d   1      26.327 -15.357  -1.055  0.00  0.00     0.031 A 
BRANCH  22  25
ATOM     25  S   UNL d   1      23.891 -18.628  -0.886  0.00  0.00    -0.125 SA
BRANCH  25  26
ATOM     26  C   UNL d   1      22.772 -18.377   0.560  0.00  0.00     0.119 C 
BRANCH  26  27
ATOM     27  C   UNL d   1      21.403 -18.950   0.285  0.00  0.00    -0.031 A 
ATOM     28  C   UNL d   1      20.680 -19.638   1.268  0.00  0.00     0.011 A 
ATOM     29  C   UNL d   1      19.403 -20.111   0.997  0.00  0.00     0.020 A 
ATOM     30  C   UNL d   1      18.895 -19.920  -0.274  0.00  0.00     0.116 A 
ATOM     31  N   UNL d   1      19.576 -19.313  -1.270  0.00  0.00    -0.273 NA
ATOM     32  C   UNL d   1      20.811 -18.844  -0.970  0.00  0.00     0.124 A 
ENDBRANCH  26  27
ENDBRANCH  25  26
ENDBRANCH  22  25
ENDBRANCH   3  19
TORSDOF 6
ENDMDL
MODEL 8
REMARK VINA RESULT:   -31.304      5.283      7.684
REMARK INTER + INTRA:         -34.642
REMARK INTER:                 -33.094
REMARK INTRA:                  -1.549
REMARK CONF_INDEPENDENT:        1.790
REMARK UNBOUND:                -1.549
REMARK  6 active torsions:
REMARK  status: ('A' for Active; 'I' for Inactive)
REMARK    1  A    between atoms: C_5  and  C_6 
REMARK    2  A    between atoms: C_14  and  C_15 
REMARK       I    between atoms: C_15  and  N_17 
REMARK    3  A    between atoms: N_17  and  C_18 
REMARK    4  A    between atoms: C_21  and  S_22 
REMARK    5  A    between atoms: S_22  and  C_23 
REMARK    6  A    between atoms: C_23  and  C_24 
ROOT
ATOM      1  C   UNL d   1      30.155 -17.393  -0.825  0.00  0.00     0.261 C 
ATOM      2  O   UNL d   1      29.782 -17.776  -1.939  0.00  0.00    -0.267 OA
ATOM      3  N   UNL d   1      29.255 -16.967   0.143  0.00  0.00    -0.323 N 
ATOM      4  H   UNL d   1      29.579 -16.508   0.980  0.00  0.00     0.169 HD
ENDROOT
BRANCH   1   5
ATOM      5  C   UNL d   1      31.578 -17.349  -0.529  0.00  0.00     0.095 A 
ATOM      6  C   UNL d   1      32.406 -18.478  -0.189  0.00  0.00     0.116 A 
ATOM      7  N   UNL d   1      33.667 -18.092   0.051  0.00  0.00    -0.127 NA
ATOM      8  O   UNL d   1      33.689 -16.728  -0.129  0.00  0.00    -0.217 OA
ATOM      9  C   UNL d   1      32.456 -16.285  -0.488  0.00  0.00     0.093 A 
ATOM     10  C   UNL d   1      32.353 -14.838  -0.735  0.00  0.00     0.080 C 
BRANCH   6  11
ATOM     11  C   UNL d   1      32.018 -19.889  -0.117  0.00  0.00     0.039 A 
ATOM     12  C   UNL d   1      31.607 -20.578  -1.277  0.00  0.00     0.048 A 
ATOM     13 CL   UNL d   1      31.682 -19.880  -2.867  0.00  0.00    -0.083 Cl
ATOM     14  C   UNL d   1      31.116 -21.887  -1.198  0.00  0.00     0.025 A 
ATOM     15  C   UNL d   1      31.073 -22.549   0.024  0.00  0.00     0.003 A 
ATOM     16  C   UNL d   1      31.514 -21.900   1.175  0.00  0.00     0.025 A 
ATOM     17  C   UNL d   1      31.978 -20.577   1.111  0.00  0.00     0.048 A 
ATOM     18 CL   UNL d   1      32.453 -19.854   2.612  0.00  0.00    -0.083 Cl
ENDBRANCH   6  11
ENDBRANCH   1   5
BRANCH   3  19
ATOM     19  C   UNL d   1      27.857 -17.018  -0.054  0.00  0.00     0.035 A 
ATOM     20  C   UNL d   1      27.127 -18.138   0.332  0.00  0.00     0.031 A 
ATOM     21  C   UNL d   1      25.745 -18.178   0.091  0.00  0.00     0.021 A 
ATOM     22  C   UNL d   1      25.075 -17.089  -0.492  0.00  0.00     0.001 A 
ATOM     23  C   UNL d   1      25.820 -15.993  -0.904  0.00  0.00     0.021 A 
ATOM     24  C   UNL d   1      27.195 -15.959  -0.682  0.00  0.00     0.031 A 
BRANCH  22  25
ATOM     25  S   UNL d   1      23.304 -17.190  -0.595  0.00  0.00    -0.125 SA
BRANCH  25  26
ATOM     26  C   UNL d   1      22.827 -18.568   0.536  0.00  0.00     0.119 C 
BRANCH  26  27
ATOM     27  C   UNL d   1      21.400 -18.995   0.288  0.00  0.00    -0.031 A 
ATOM     28  C   UNL d   1      20.576 -19.452   1.324  0.00  0.00     0.011 A 
ATOM     29  C   UNL d   1      19.254 -19.792   1.072  0.00  0.00     0.020 A 
ATOM     30  C   UNL d   1      18.798 -19.707  -0.230  0.00  0.00     0.116 A 
ATOM     31  N   UNL d   1      19.569 -19.325  -1.270  0.00  0.00    -0.273 NA
ATOM     32  C   UNL d   1      20.849 -18.980  -0.990  0.00  0.00     0.124 A 
ENDBRANCH  26  27
ENDBRANCH  25  26
ENDBRANCH  22  25
ENDBRANCH   3  19
TORSDOF 6
ENDMDL
MODEL 9
REMARK VINA RESULT:   -31.233      3.383      5.177
REMARK INTER + INTRA:         -34.606
REMARK INTER:                 -33.022
REMARK INTRA:                  -1.584
REMARK CONF_INDEPENDENT:        1.790
REMARK UNBOUND:                -1.584
REMARK  6 active torsions:
REMARK  status: ('A' for Active; 'I' for Inactive)
REMARK    1  A    between atoms: C_5  and  C_6 
REMARK    2  A    between atoms: C_14  and  C_15 
REMARK       I    between atoms: C_15  and  N_17 
REMARK    3  A    between atoms: N_17  and  C_18 
REMARK    4  A    between atoms: C_21  and  S_22 
REMARK    5  A    between atoms: S_22  and  C_23 
REMARK    6  A    between atoms: C_23  and  C_24 
ROOT
ATOM      1  C   UNL d   1      29.169 -15.527  -3.825  0.00  0.00     0.261 C 
ATOM      2  O   UNL d   1      28.334 -15.561  -4.735  0.00  0.00    -0.267 OA
ATOM      3  N   UNL d   1      28.802 -15.634  -2.490  0.00  0.00    -0.323 N 
ATOM      4  H   UNL d   1      29.467 -15.443  -1.757  0.00  0.00     0.169 HD
ENDROOT
BRANCH   1   5
ATOM      5  C   UNL d   1      30.570 -15.328  -4.154  0.00  0.00     0.095 A 
ATOM      6  C   UNL d   1      31.461 -16.324  -4.695  0.00  0.00     0.116 A 
ATOM      7  N   UNL d   1      32.694 -15.826  -4.859  0.00  0.00    -0.127 NA
ATOM      8  O   UNL d   1      32.635 -14.515  -4.442  0.00  0.00    -0.217 OA
ATOM      9  C   UNL d   1      31.374 -14.213  -4.037  0.00  0.00     0.093 A 
ATOM     10  C   UNL d   1      31.172 -12.825  -3.589  0.00  0.00     0.080 C 
BRANCH   6  11
ATOM     11  C   UNL d   1      31.146 -17.706  -5.068  0.00  0.00     0.039 A 
ATOM     12  C   UNL d   1      31.037 -18.073  -6.425  0.00  0.00     0.048 A 
ATOM     13 CL   UNL d   1      31.420 -16.989  -7.730  0.00  0.00    -0.083 Cl
ATOM     14  C   UNL d   1      30.615 -19.357  -6.791  0.00  0.00     0.025 A 
ATOM     15  C   UNL d   1      30.342 -20.310  -5.815  0.00  0.00     0.003 A 
ATOM     16  C   UNL d   1      30.485 -19.980  -4.470  0.00  0.00     0.025 A 
ATOM     17  C   UNL d   1      30.876 -18.686  -4.094  0.00  0.00     0.048 A 
ATOM     18 CL   UNL d   1      30.970 -18.374  -2.392  0.00  0.00    -0.083 Cl
ENDBRANCH   6  11
ENDBRANCH   1   5
BRANCH   3  19
ATOM     19  C   UNL d   1      27.466 -15.868  -2.092  0.00  0.00     0.035 A 
ATOM     20  C   UNL d   1      27.180 -16.749  -1.052  0.00  0.00     0.031 A 
ATOM     21  C   UNL d   1      25.843 -16.991  -0.702  0.00  0.00     0.021 A 
ATOM     22  C   UNL d   1      24.787 -16.327  -1.351  0.00  0.00     0.001 A 
ATOM     23  C   UNL d   1      25.086 -15.479  -2.408  0.00  0.00     0.021 A 
ATOM     24  C   UNL d   1      26.411 -15.250  -2.769  0.00  0.00     0.031 A 
BRANCH  22  25
ATOM     25  S   UNL d   1      23.152 -16.590  -0.710  0.00  0.00    -0.125 SA
BRANCH  25  26
ATOM     26  C   UNL d   1      23.079 -18.382  -0.276  0.00  0.00     0.119 C 
BRANCH  26  27
ATOM     27  C   UNL d   1      21.648 -18.852  -0.176  0.00  0.00    -0.031 A 
ATOM     28  C   UNL d   1      21.089 -19.263   1.041  0.00  0.00     0.011 A 
ATOM     29  C   UNL d   1      19.756 -19.644   1.109  0.00  0.00     0.020 A 
ATOM     30  C   UNL d   1      19.021 -19.647  -0.062  0.00  0.00     0.116 A 
ATOM     31  N   UNL d   1      19.530 -19.313  -1.267  0.00  0.00    -0.273 NA
ATOM     32  C   UNL d   1      20.828 -18.927  -1.298  0.00  0.00     0.124 A 
ENDBRANCH  26  27
ENDBRANCH  25  26
ENDBRANCH  22  25
ENDBRANCH   3  19
TORSDOF 6
ENDMDL
