MODEL 1
REMARK VINA RESULT:   -29.755      0.000      0.000
REMARK INTER + INTRA:         -31.206
REMARK INTER:                 -30.650
REMARK INTRA:                  -0.556
REMARK CONF_INDEPENDENT:        0.895
REMARK UNBOUND:                -0.556
REMARK  3 active torsions:
REMARK  status: ('A' for Active; 'I' for Inactive)
REMARK    1  A    between atoms: N_1  and  C_2 
REMARK       I    between atoms: N_10  and  C_11 
REMARK    2  A    between atoms: C_11  and  C_13 
REMARK    3  A    between atoms: C_13  and  C_14 
ROOT
ATOM      1  C   UNL d   1      20.311 -19.614  -0.337  0.00  0.00     0.141 A 
ATOM      2  C   UNL d   1      21.574 -19.635   0.229  0.00  0.00     0.062 A 
ATOM      3  C   UNL d   1      22.432 -18.565   0.009  0.00  0.00    -0.013 A 
ATOM      4  C   UNL d   1      21.952 -17.500  -0.750  0.00  0.00     0.037 A 
ATOM      5  N   UNL d   1      20.717 -17.555  -1.270  0.00  0.00    -0.280 N 
ATOM      6  N   UNL d   1      19.895 -18.575  -1.081  0.00  0.00    -0.157 NA
ATOM      7  C   UNL d   1      22.792 -16.308  -1.087  0.00  0.00     0.079 C 
ATOM      8  C   UNL d   1      23.980 -16.167  -0.146  0.00  0.00     0.132 C 
ATOM      9  N   UNL d   1      24.627 -17.459  -0.028  0.00  0.00    -0.347 N 
ATOM     10  C   UNL d   1      25.880 -17.780  -0.524  0.00  0.00     0.224 C 
ATOM     11  O   UNL d   1      26.257 -18.950  -0.434  0.00  0.00    -0.273 OA
ATOM     12  C   UNL d   1      23.824 -18.521   0.593  0.00  0.00     0.166 C 
ATOM     13  H   UNL d   1      20.388 -16.780  -1.849  0.00  0.00     0.189 HD
ENDROOT
BRANCH  10  14
ATOM     14  C   UNL d   1      26.729 -16.675  -1.186  0.00  0.00     0.141 C 
BRANCH  14  15
ATOM     15  C   UNL d   1      26.938 -15.458  -0.315  0.00  0.00    -0.049 C 
ATOM     16  C   UNL d   1      26.638 -14.171  -0.828  0.00  0.00     0.008 C 
ATOM     17  C   UNL d   1      26.627 -13.066  -0.011  0.00  0.00     0.008 C 
ATOM     18  C   UNL d   1      27.207 -13.302   1.194  0.00  0.00    -0.052 C 
ATOM     19  C   UNL d   1      27.962 -14.352   1.606  0.00  0.00    -0.051 C 
ATOM     20  C   UNL d   1      27.484 -12.952   2.515  0.00  0.00     0.039 C 
ATOM     21  C   UNL d   1      27.530 -15.565   0.962  0.00  0.00     0.015 C 
ATOM     22  C   UNL d   1      28.675 -13.783   3.363  0.00  0.00     0.039 C 
ATOM     23  C   UNL d   1      27.788 -14.824   3.150  0.00  0.00     0.009 C 
ENDBRANCH  14  15
ENDBRANCH  10  14
BRANCH   1  24
ATOM     24  N   UNL d   1      19.438 -20.652  -0.128  0.00  0.00    -0.383 N 
ATOM     25  H   UNL d   1      18.603 -20.772  -0.686  0.00  0.00     0.157 HD
ATOM     26  H   UNL d   1      19.569 -21.271   0.662  0.00  0.00     0.157 HD
ENDBRANCH   1  24
TORSDOF 3
ENDMDL
MODEL 2
REMARK VINA RESULT:   -28.661      2.237      3.112
REMARK INTER + INTRA:         -29.959
REMARK INTER:                 -29.556
REMARK INTRA:                  -0.404
REMARK CONF_INDEPENDENT:        0.895
REMARK UNBOUND:                -0.404
REMARK  3 active torsions:
REMARK  status: ('A' for Active; 'I' for Inactive)
REMARK    1  A    between atoms: N_1  and  C_2 
REMARK       I    between atoms: N_10  and  C_11 
REMARK    2  A    between atoms: C_11  and  C_13 
REMARK    3  A    between atoms: C_13  and  C_14 
ROOT
ATOM      1  C   UNL d   1      20.370 -19.663  -0.314  0.00  0.00     0.141 A 
ATOM      2  C   UNL d   1      21.642 -19.619   0.230  0.00  0.00     0.062 A 
ATOM      3  C   UNL d   1      22.444 -18.511  -0.013  0.00  0.00    -0.013 A 
ATOM      4  C   UNL d   1      21.900 -17.477  -0.771  0.00  0.00     0.037 A 
ATOM      5  N   UNL d   1      20.660 -17.595  -1.269  0.00  0.00    -0.280 N 
ATOM      6  N   UNL d   1      19.892 -18.651  -1.058  0.00  0.00    -0.157 NA
ATOM      7  C   UNL d   1      22.676 -16.248  -1.131  0.00  0.00     0.079 C 
ATOM      8  C   UNL d   1      23.872 -16.043  -0.212  0.00  0.00     0.132 C 
ATOM      9  N   UNL d   1      24.582 -17.302  -0.096  0.00  0.00    -0.347 N 
ATOM     10  C   UNL d   1      25.840 -17.566  -0.612  0.00  0.00     0.224 C 
ATOM     11  O   UNL d   1      26.275 -18.715  -0.520  0.00  0.00    -0.273 OA
ATOM     12  C   UNL d   1      23.842 -18.396   0.546  0.00  0.00     0.166 C 
ATOM     13  H   UNL d   1      20.285 -16.841  -1.847  0.00  0.00     0.189 HD
ENDROOT
BRANCH  10  14
ATOM     14  C   UNL d   1      26.623 -16.427  -1.297  0.00  0.00     0.141 C 
BRANCH  14  15
ATOM     15  C   UNL d   1      28.082 -16.366  -0.908  0.00  0.00    -0.049 C 
ATOM     16  C   UNL d   1      28.492 -15.498   0.135  0.00  0.00     0.008 C 
ATOM     17  C   UNL d   1      29.767 -15.556   0.648  0.00  0.00     0.008 C 
ATOM     18  C   UNL d   1      30.610 -16.281  -0.131  0.00  0.00    -0.052 C 
ATOM     19  C   UNL d   1      30.445 -16.743  -1.397  0.00  0.00    -0.051 C 
ATOM     20  C   UNL d   1      31.816 -16.945  -0.351  0.00  0.00     0.039 C 
ATOM     21  C   UNL d   1      29.064 -17.073  -1.635  0.00  0.00     0.015 C 
ATOM     22  C   UNL d   1      32.235 -17.412  -1.912  0.00  0.00     0.039 C 
ATOM     23  C   UNL d   1      31.101 -18.187  -1.745  0.00  0.00     0.009 C 
ENDBRANCH  14  15
ENDBRANCH  10  14
BRANCH   1  24
ATOM     24  N   UNL d   1      19.551 -20.741  -0.082  0.00  0.00    -0.383 N 
ATOM     25  H   UNL d   1      18.552 -20.640   0.032  0.00  0.00     0.157 HD
ATOM     26  H   UNL d   1      19.954 -21.656   0.074  0.00  0.00     0.157 HD
ENDBRANCH   1  24
TORSDOF 3
ENDMDL
