MODEL 1
REMARK VINA RESULT:    -8.404      0.000      0.000
REMARK INTER + INTRA:         -14.470
REMARK INTER:                 -11.089
REMARK INTRA:                  -3.381
REMARK CONF_INDEPENDENT:        2.685
REMARK UNBOUND:                -3.381
REMARK  9 active torsions:
REMARK  status: ('A' for Active; 'I' for Inactive)
REMARK    1  A    between atoms: O_2  and  C_3 
REMARK    2  A    between atoms: C_3  and  C_5 
REMARK    3  A    between atoms: C_9  and  C_10 
REMARK       I    between atoms: C_10  and  N_12 
REMARK    4  A    between atoms: N_12  and  C_13 
REMARK    5  A    between atoms: C_13  and  N_15 
REMARK    6  A    between atoms: N_15  and  N_16 
REMARK       I    between atoms: N_16  and  C_17 
REMARK    7  A    between atoms: C_17  and  C_19 
REMARK    8  A    between atoms: C_19  and  O_20 
REMARK    9  A    between atoms: O_20  and  C_21 
ROOT
ATOM      1  N   UNL d   1      27.511 -12.320  -5.765  0.00  0.00    -0.273 N 
ATOM      2  H   UNL d   1      27.362 -11.325  -5.596  0.00  0.00     0.189 HD
ENDROOT
BRANCH   1   3
ATOM      3  C   UNL d   1      28.472 -12.897  -6.618  0.00  0.00     0.193 C 
ATOM      4  S   UNL d   1      28.611 -12.322  -8.199  0.00  0.00    -0.039 SA
BRANCH   3   5
ATOM      5  N   UNL d   1      29.258 -13.939  -6.067  0.00  0.00    -0.298 N 
ATOM      6  C   UNL d   1      28.776 -15.217  -5.668  0.00  0.00     0.257 C 
ATOM      7  O   UNL d   1      27.605 -15.575  -5.775  0.00  0.00    -0.267 OA
ATOM      8  H   UNL d   1      30.244 -13.760  -5.954  0.00  0.00     0.171 HD
BRANCH   6   9
ATOM      9  C   UNL d   1      29.691 -16.259  -5.094  0.00  0.00     0.033 A 
ATOM     10  C   UNL d   1      30.183 -16.062  -3.780  0.00  0.00     0.017 A 
ATOM     11  C   UNL d   1      30.950 -17.041  -3.145  0.00  0.00     0.002 A 
ATOM     12  C   UNL d   1      31.333 -18.183  -3.852  0.00  0.00     0.017 A 
ATOM     13  C   UNL d   1      30.842 -18.403  -5.148  0.00  0.00     0.040 A 
ATOM     14  C   UNL d   1      30.030 -17.437  -5.765  0.00  0.00     0.034 A 
BRANCH  13  15
ATOM     15  C   UNL d   1      31.028 -19.738  -5.784  0.00  0.00     0.292 C 
ATOM     16  O   UNL d   1      30.661 -20.771  -5.246  0.00  0.00    -0.259 OA
BRANCH  15  17
ATOM     17  O   UNL d   1      31.614 -19.642  -7.008  0.00  0.00    -0.323 OA
ATOM     18  C   UNL d   1      30.779 -20.075  -8.101  0.00  0.00     0.213 C 
ENDBRANCH  15  17
ENDBRANCH  13  15
ENDBRANCH   6   9
ENDBRANCH   3   5
ENDBRANCH   1   3
BRANCH   1  19
ATOM     19  N   UNL d   1      26.587 -13.195  -5.031  0.00  0.00    -0.266 N 
ATOM     20  C   UNL d   1      25.632 -12.669  -4.163  0.00  0.00     0.260 C 
ATOM     21  O   UNL d   1      25.562 -11.456  -3.963  0.00  0.00    -0.269 OA
ATOM     22  H   UNL d   1      26.705 -14.196  -5.205  0.00  0.00     0.190 HD
BRANCH  20  23
ATOM     23  C   UNL d   1      24.709 -13.710  -3.453  0.00  0.00     0.280 C 
BRANCH  23  24
ATOM     24  O   UNL d   1      25.131 -15.057  -3.664  0.00  0.00    -0.341 OA
BRANCH  24  25
ATOM     25  C   UNL d   1      25.667 -15.731  -2.577  0.00  0.00     0.080 C 
ATOM     26  C   UNL d   1      27.098 -15.633  -2.520  0.00  0.00     0.037 C 
ATOM     27  C   UNL d   1      27.810 -16.346  -1.563  0.00  0.00     0.004 C 
ATOM     28  C   UNL d   1      27.097 -17.091  -0.638  0.00  0.00     0.012 C 
ATOM     29  C   UNL d   1      25.695 -17.238  -0.725  0.00  0.00    -0.026 C 
ATOM     30  C   UNL d   1      25.071 -18.186   0.068  0.00  0.00    -0.005 C 
ATOM     31  C   UNL d   1      24.882 -16.538  -1.598  0.00  0.00     0.007 C 
ATOM     32  C   UNL d   1      23.725 -18.575  -0.128  0.00  0.00     0.043 C 
ATOM     33  C   UNL d   1      22.753 -17.622  -0.280  0.00  0.00    -0.016 C 
ATOM     34  C   UNL d   1      23.388 -16.829  -1.267  0.00  0.00     0.012 C 
ENDBRANCH  24  25
ENDBRANCH  23  24
ENDBRANCH  20  23
ENDBRANCH   1  19
TORSDOF 9
ENDMDL
MODEL 2
REMARK VINA RESULT:    -8.262      2.455      3.569
REMARK INTER + INTRA:         -13.658
REMARK INTER:                 -10.947
REMARK INTRA:                  -2.711
REMARK CONF_INDEPENDENT:        2.685
REMARK UNBOUND:                -2.711
REMARK  9 active torsions:
REMARK  status: ('A' for Active; 'I' for Inactive)
REMARK    1  A    between atoms: O_2  and  C_3 
REMARK    2  A    between atoms: C_3  and  C_5 
REMARK    3  A    between atoms: C_9  and  C_10 
REMARK       I    between atoms: C_10  and  N_12 
REMARK    4  A    between atoms: N_12  and  C_13 
REMARK    5  A    between atoms: C_13  and  N_15 
REMARK    6  A    between atoms: N_15  and  N_16 
REMARK       I    between atoms: N_16  and  C_17 
REMARK    7  A    between atoms: C_17  and  C_19 
REMARK    8  A    between atoms: C_19  and  O_20 
REMARK    9  A    between atoms: O_20  and  C_21 
ROOT
ATOM      1  N   UNL d   1      29.042 -15.950  -4.415  0.00  0.00    -0.273 N 
ATOM      2  H   UNL d   1      29.136 -15.498  -5.324  0.00  0.00     0.189 HD
ENDROOT
BRANCH   1   3
ATOM      3  C   UNL d   1      29.870 -16.959  -3.884  0.00  0.00     0.193 C 
ATOM      4  S   UNL d   1      30.253 -16.917  -2.240  0.00  0.00    -0.039 SA
BRANCH   3   5
ATOM      5  N   UNL d   1      30.325 -17.944  -4.793  0.00  0.00    -0.298 N 
ATOM      6  C   UNL d   1      30.405 -17.794  -6.206  0.00  0.00     0.257 C 
ATOM      7  O   UNL d   1      30.099 -16.766  -6.806  0.00  0.00    -0.267 OA
ATOM      8  H   UNL d   1      30.623 -18.825  -4.404  0.00  0.00     0.171 HD
BRANCH   6   9
ATOM      9  C   UNL d   1      30.904 -18.900  -7.089  0.00  0.00     0.033 A 
ATOM     10  C   UNL d   1      31.274 -18.576  -8.417  0.00  0.00     0.017 A 
ATOM     11  C   UNL d   1      31.846 -19.533  -9.258  0.00  0.00     0.002 A 
ATOM     12  C   UNL d   1      31.953 -20.856  -8.824  0.00  0.00     0.017 A 
ATOM     13  C   UNL d   1      31.607 -21.192  -7.506  0.00  0.00     0.040 A 
ATOM     14  C   UNL d   1      31.077 -20.215  -6.648  0.00  0.00     0.034 A 
BRANCH  13  15
ATOM     15  C   UNL d   1      31.980 -22.533  -6.971  0.00  0.00     0.292 C 
ATOM     16  O   UNL d   1      31.972 -22.782  -5.777  0.00  0.00    -0.259 OA
BRANCH  15  17
ATOM     17  O   UNL d   1      32.289 -23.409  -7.965  0.00  0.00    -0.323 OA
ATOM     18  C   UNL d   1      31.530 -24.634  -7.935  0.00  0.00     0.213 C 
ENDBRANCH  15  17
ENDBRANCH  13  15
ENDBRANCH   6   9
ENDBRANCH   3   5
ENDBRANCH   1   3
BRANCH   1  19
ATOM     19  N   UNL d   1      27.898 -15.473  -3.627  0.00  0.00    -0.266 N 
ATOM     20  C   UNL d   1      26.636 -15.331  -4.200  0.00  0.00     0.260 C 
ATOM     21  O   UNL d   1      26.456 -15.569  -5.395  0.00  0.00    -0.269 OA
ATOM     22  H   UNL d   1      28.104 -15.256  -2.649  0.00  0.00     0.190 HD
BRANCH  20  23
ATOM     23  C   UNL d   1      25.507 -14.822  -3.248  0.00  0.00     0.280 C 
BRANCH  23  24
ATOM     24  O   UNL d   1      25.935 -14.718  -1.891  0.00  0.00    -0.341 OA
BRANCH  24  25
ATOM     25  C   UNL d   1      25.928 -15.881  -1.134  0.00  0.00     0.080 C 
ATOM     26  C   UNL d   1      27.239 -16.250  -0.681  0.00  0.00     0.037 C 
ATOM     27  C   UNL d   1      27.434 -17.450  -0.009  0.00  0.00     0.004 C 
ATOM     28  C   UNL d   1      26.326 -18.236   0.262  0.00  0.00     0.012 C 
ATOM     29  C   UNL d   1      25.045 -17.907  -0.233  0.00  0.00    -0.026 C 
ATOM     30  C   UNL d   1      24.032 -18.848  -0.145  0.00  0.00    -0.005 C 
ATOM     31  C   UNL d   1      24.725 -16.719  -0.864  0.00  0.00     0.007 C 
ATOM     32  C   UNL d   1      22.802 -18.707  -0.829  0.00  0.00     0.043 C 
ATOM     33  C   UNL d   1      22.118 -17.521  -0.769  0.00  0.00    -0.016 C 
ATOM     34  C   UNL d   1      23.185 -16.646  -1.090  0.00  0.00     0.012 C 
ENDBRANCH  24  25
ENDBRANCH  23  24
ENDBRANCH  20  23
ENDBRANCH   1  19
TORSDOF 9
ENDMDL
MODEL 3
REMARK VINA RESULT:    -8.222      1.470      1.889
REMARK INTER + INTRA:         -13.696
REMARK INTER:                 -10.906
REMARK INTRA:                  -2.789
REMARK CONF_INDEPENDENT:        2.685
REMARK UNBOUND:                -2.789
REMARK  9 active torsions:
REMARK  status: ('A' for Active; 'I' for Inactive)
REMARK    1  A    between atoms: O_2  and  C_3 
REMARK    2  A    between atoms: C_3  and  C_5 
REMARK    3  A    between atoms: C_9  and  C_10 
REMARK       I    between atoms: C_10  and  N_12 
REMARK    4  A    between atoms: N_12  and  C_13 
REMARK    5  A    between atoms: C_13  and  N_15 
REMARK    6  A    between atoms: N_15  and  N_16 
REMARK       I    between atoms: N_16  and  C_17 
REMARK    7  A    between atoms: C_17  and  C_19 
REMARK    8  A    between atoms: C_19  and  O_20 
REMARK    9  A    between atoms: O_20  and  C_21 
ROOT
ATOM      1  N   UNL d   1      27.102 -14.814  -5.769  0.00  0.00    -0.273 N 
ATOM      2  H   UNL d   1      26.279 -15.037  -6.327  0.00  0.00     0.189 HD
ENDROOT
BRANCH   1   3
ATOM      3  C   UNL d   1      28.423 -14.658  -6.234  0.00  0.00     0.193 C 
ATOM      4  S   UNL d   1      28.903 -13.156  -6.836  0.00  0.00    -0.039 SA
BRANCH   3   5
ATOM      5  N   UNL d   1      29.256 -15.801  -6.160  0.00  0.00    -0.298 N 
ATOM      6  C   UNL d   1      29.508 -16.568  -4.989  0.00  0.00     0.257 C 
ATOM      7  O   UNL d   1      29.008 -16.332  -3.892  0.00  0.00    -0.267 OA
ATOM      8  H   UNL d   1      29.705 -16.098  -7.013  0.00  0.00     0.171 HD
BRANCH   6   9
ATOM      9  C   UNL d   1      30.410 -17.768  -5.012  0.00  0.00     0.033 A 
ATOM     10  C   UNL d   1      30.926 -18.237  -3.779  0.00  0.00     0.017 A 
ATOM     11  C   UNL d   1      31.683 -19.409  -3.715  0.00  0.00     0.002 A 
ATOM     12  C   UNL d   1      32.030 -20.070  -4.895  0.00  0.00     0.017 A 
ATOM     13  C   UNL d   1      31.515 -19.629  -6.124  0.00  0.00     0.040 A 
ATOM     14  C   UNL d   1      30.714 -18.477  -6.177  0.00  0.00     0.034 A 
BRANCH  13  15
ATOM     15  C   UNL d   1      31.664 -20.492  -7.331  0.00  0.00     0.292 C 
ATOM     16  O   UNL d   1      31.154 -21.599  -7.405  0.00  0.00    -0.259 OA
BRANCH  15  17
ATOM     17  O   UNL d   1      32.392 -19.884  -8.305  0.00  0.00    -0.323 OA
ATOM     18  C   UNL d   1      31.648 -19.585  -9.503  0.00  0.00     0.213 C 
ENDBRANCH  15  17
ENDBRANCH  13  15
ENDBRANCH   6   9
ENDBRANCH   3   5
ENDBRANCH   1   3
BRANCH   1  19
ATOM     19  N   UNL d   1      26.828 -14.670  -4.333  0.00  0.00    -0.266 N 
ATOM     20  C   UNL d   1      25.531 -14.467  -3.863  0.00  0.00     0.260 C 
ATOM     21  O   UNL d   1      24.585 -14.370  -4.646  0.00  0.00    -0.269 OA
ATOM     22  H   UNL d   1      27.648 -14.725  -3.725  0.00  0.00     0.190 HD
BRANCH  20  23
ATOM     23  C   UNL d   1      25.378 -14.337  -2.314  0.00  0.00     0.280 C 
BRANCH  23  24
ATOM     24  O   UNL d   1      26.494 -14.871  -1.603  0.00  0.00    -0.341 OA
BRANCH  24  25
ATOM     25  C   UNL d   1      26.306 -16.078  -0.944  0.00  0.00     0.080 C 
ATOM     26  C   UNL d   1      27.545 -16.693  -0.559  0.00  0.00     0.037 C 
ATOM     27  C   UNL d   1      27.548 -17.962   0.007  0.00  0.00     0.004 C 
ATOM     28  C   UNL d   1      26.330 -18.577   0.243  0.00  0.00     0.012 C 
ATOM     29  C   UNL d   1      25.114 -18.002  -0.188  0.00  0.00    -0.026 C 
ATOM     30  C   UNL d   1      23.960 -18.770  -0.149  0.00  0.00    -0.005 C 
ATOM     31  C   UNL d   1      24.985 -16.729  -0.711  0.00  0.00     0.007 C 
ATOM     32  C   UNL d   1      22.761 -18.373  -0.785  0.00  0.00     0.043 C 
ATOM     33  C   UNL d   1      22.283 -17.101  -0.610  0.00  0.00    -0.016 C 
ATOM     34  C   UNL d   1      23.475 -16.387  -0.888  0.00  0.00     0.012 C 
ENDBRANCH  24  25
ENDBRANCH  23  24
ENDBRANCH  20  23
ENDBRANCH   1  19
TORSDOF 9
ENDMDL
MODEL 4
REMARK VINA RESULT:    -8.162      1.200      2.093
REMARK INTER + INTRA:         -14.312
REMARK INTER:                 -10.846
REMARK INTRA:                  -3.466
REMARK CONF_INDEPENDENT:        2.685
REMARK UNBOUND:                -3.466
REMARK  9 active torsions:
REMARK  status: ('A' for Active; 'I' for Inactive)
REMARK    1  A    between atoms: O_2  and  C_3 
REMARK    2  A    between atoms: C_3  and  C_5 
REMARK    3  A    between atoms: C_9  and  C_10 
REMARK       I    between atoms: C_10  and  N_12 
REMARK    4  A    between atoms: N_12  and  C_13 
REMARK    5  A    between atoms: C_13  and  N_15 
REMARK    6  A    between atoms: N_15  and  N_16 
REMARK       I    between atoms: N_16  and  C_17 
REMARK    7  A    between atoms: C_17  and  C_19 
REMARK    8  A    between atoms: C_19  and  O_20 
REMARK    9  A    between atoms: O_20  and  C_21 
ROOT
ATOM      1  N   UNL d   1      27.641 -12.296  -5.702  0.00  0.00    -0.273 N 
ATOM      2  H   UNL d   1      27.708 -11.355  -5.316  0.00  0.00     0.189 HD
ENDROOT
BRANCH   1   3
ATOM      3  C   UNL d   1      28.359 -12.815  -6.797  0.00  0.00     0.193 C 
ATOM      4  S   UNL d   1      28.199 -12.071  -8.304  0.00  0.00    -0.039 SA
BRANCH   3   5
ATOM      5  N   UNL d   1      29.172 -13.945  -6.538  0.00  0.00    -0.298 N 
ATOM      6  C   UNL d   1      28.713 -15.201  -6.051  0.00  0.00     0.257 C 
ATOM      7  O   UNL d   1      27.535 -15.457  -5.812  0.00  0.00    -0.267 OA
ATOM      8  H   UNL d   1      30.159 -13.853  -6.720  0.00  0.00     0.171 HD
BRANCH   6   9
ATOM      9  C   UNL d   1      29.656 -16.344  -5.808  0.00  0.00     0.033 A 
ATOM     10  C   UNL d   1      30.447 -16.796  -6.893  0.00  0.00     0.017 A 
ATOM     11  C   UNL d   1      31.420 -17.782  -6.711  0.00  0.00     0.002 A 
ATOM     12  C   UNL d   1      31.540 -18.411  -5.471  0.00  0.00     0.017 A 
ATOM     13  C   UNL d   1      30.776 -17.965  -4.380  0.00  0.00     0.040 A 
ATOM     14  C   UNL d   1      29.833 -16.940  -4.557  0.00  0.00     0.034 A 
BRANCH  13  15
ATOM     15  C   UNL d   1      31.105 -18.450  -3.010  0.00  0.00     0.292 C 
ATOM     16  O   UNL d   1      31.352 -19.622  -2.777  0.00  0.00    -0.259 OA
BRANCH  15  17
ATOM     17  O   UNL d   1      31.121 -17.437  -2.101  0.00  0.00    -0.323 OA
ATOM     18  C   UNL d   1      30.707 -17.823  -0.776  0.00  0.00     0.213 C 
ENDBRANCH  15  17
ENDBRANCH  13  15
ENDBRANCH   6   9
ENDBRANCH   3   5
ENDBRANCH   1   3
BRANCH   1  19
ATOM     19  N   UNL d   1      26.664 -13.153  -5.016  0.00  0.00    -0.266 N 
ATOM     20  C   UNL d   1      25.721 -12.615  -4.141  0.00  0.00     0.260 C 
ATOM     21  O   UNL d   1      25.707 -11.409  -3.894  0.00  0.00    -0.269 OA
ATOM     22  H   UNL d   1      26.736 -14.151  -5.228  0.00  0.00     0.190 HD
BRANCH  20  23
ATOM     23  C   UNL d   1      24.738 -13.637  -3.486  0.00  0.00     0.280 C 
BRANCH  23  24
ATOM     24  O   UNL d   1      25.111 -14.993  -3.725  0.00  0.00    -0.341 OA
BRANCH  24  25
ATOM     25  C   UNL d   1      25.707 -15.680  -2.677  0.00  0.00     0.080 C 
ATOM     26  C   UNL d   1      27.138 -15.574  -2.693  0.00  0.00     0.037 C 
ATOM     27  C   UNL d   1      27.903 -16.296  -1.785  0.00  0.00     0.004 C 
ATOM     28  C   UNL d   1      27.244 -17.060  -0.837  0.00  0.00     0.012 C 
ATOM     29  C   UNL d   1      25.840 -17.215  -0.854  0.00  0.00    -0.026 C 
ATOM     30  C   UNL d   1      25.263 -18.181  -0.045  0.00  0.00    -0.005 C 
ATOM     31  C   UNL d   1      24.979 -16.508  -1.673  0.00  0.00     0.007 C 
ATOM     32  C   UNL d   1      23.912 -18.576  -0.177  0.00  0.00     0.043 C 
ATOM     33  C   UNL d   1      22.928 -17.627  -0.263  0.00  0.00    -0.016 C 
ATOM     34  C   UNL d   1      23.505 -16.814  -1.269  0.00  0.00     0.012 C 
ENDBRANCH  24  25
ENDBRANCH  23  24
ENDBRANCH  20  23
ENDBRANCH   1  19
TORSDOF 9
ENDMDL
MODEL 5
REMARK VINA RESULT:    -7.941      4.232      7.132
REMARK INTER + INTRA:         -13.874
REMARK INTER:                 -10.626
REMARK INTRA:                  -3.248
REMARK CONF_INDEPENDENT:        2.685
REMARK UNBOUND:                -3.248
REMARK  9 active torsions:
REMARK  status: ('A' for Active; 'I' for Inactive)
REMARK    1  A    between atoms: O_2  and  C_3 
REMARK    2  A    between atoms: C_3  and  C_5 
REMARK    3  A    between atoms: C_9  and  C_10 
REMARK       I    between atoms: C_10  and  N_12 
REMARK    4  A    between atoms: N_12  and  C_13 
REMARK    5  A    between atoms: C_13  and  N_15 
REMARK    6  A    between atoms: N_15  and  N_16 
REMARK       I    between atoms: N_16  and  C_17 
REMARK    7  A    between atoms: C_17  and  C_19 
REMARK    8  A    between atoms: C_19  and  O_20 
REMARK    9  A    between atoms: O_20  and  C_21 
ROOT
ATOM      1  N   UNL d   1      25.873 -11.694  -3.905  0.00  0.00    -0.273 N 
ATOM      2  H   UNL d   1      25.141 -11.490  -4.586  0.00  0.00     0.189 HD
ENDROOT
BRANCH   1   3
ATOM      3  C   UNL d   1      26.638 -10.758  -3.182  0.00  0.00     0.193 C 
ATOM      4  S   UNL d   1      27.428  -9.525  -4.023  0.00  0.00    -0.039 SA
BRANCH   3   5
ATOM      5  N   UNL d   1      26.685 -10.934  -1.778  0.00  0.00    -0.298 N 
ATOM      6  C   UNL d   1      27.260 -12.046  -1.101  0.00  0.00     0.257 C 
ATOM      7  O   UNL d   1      27.806 -12.989  -1.670  0.00  0.00    -0.267 OA
ATOM      8  H   UNL d   1      26.281 -10.206  -1.209  0.00  0.00     0.171 HD
BRANCH   6   9
ATOM      9  C   UNL d   1      27.262 -12.142   0.397  0.00  0.00     0.033 A 
ATOM     10  C   UNL d   1      27.607 -13.385   0.983  0.00  0.00     0.017 A 
ATOM     11  C   UNL d   1      27.733 -13.516   2.368  0.00  0.00     0.002 A 
ATOM     12  C   UNL d   1      27.406 -12.439   3.194  0.00  0.00     0.017 A 
ATOM     13  C   UNL d   1      27.079 -11.196   2.631  0.00  0.00     0.040 A 
ATOM     14  C   UNL d   1      27.000 -11.056   1.236  0.00  0.00     0.034 A 
BRANCH  13  15
ATOM     15  C   UNL d   1      27.003  -9.993   3.508  0.00  0.00     0.292 C 
ATOM     16  O   UNL d   1      26.287  -9.040   3.245  0.00  0.00    -0.259 OA
BRANCH  15  17
ATOM     17  O   UNL d   1      27.790 -10.117   4.611  0.00  0.00    -0.323 OA
ATOM     18  C   UNL d   1      29.166  -9.741   4.405  0.00  0.00     0.213 C 
ENDBRANCH  15  17
ENDBRANCH  13  15
ENDBRANCH   6   9
ENDBRANCH   3   5
ENDBRANCH   1   3
BRANCH   1  19
ATOM     19  N   UNL d   1      26.125 -13.128  -3.710  0.00  0.00    -0.266 N 
ATOM     20  C   UNL d   1      25.126 -14.073  -3.935  0.00  0.00     0.260 C 
ATOM     21  O   UNL d   1      23.993 -13.725  -4.270  0.00  0.00    -0.269 OA
ATOM     22  H   UNL d   1      27.070 -13.365  -3.400  0.00  0.00     0.190 HD
BRANCH  20  23
ATOM     23  C   UNL d   1      25.530 -15.563  -3.698  0.00  0.00     0.280 C 
BRANCH  23  24
ATOM     24  O   UNL d   1      26.727 -15.695  -2.932  0.00  0.00    -0.341 OA
BRANCH  24  25
ATOM     25  C   UNL d   1      26.633 -16.364  -1.720  0.00  0.00     0.080 C 
ATOM     26  C   UNL d   1      27.919 -16.690  -1.171  0.00  0.00     0.037 C 
ATOM     27  C   UNL d   1      28.011 -17.463  -0.020  0.00  0.00     0.004 C 
ATOM     28  C   UNL d   1      26.838 -17.848   0.606  0.00  0.00     0.012 C 
ATOM     29  C   UNL d   1      25.572 -17.581   0.038  0.00  0.00    -0.026 C 
ATOM     30  C   UNL d   1      24.454 -18.200   0.573  0.00  0.00    -0.005 C 
ATOM     31  C   UNL d   1      25.358 -16.780  -1.069  0.00  0.00     0.007 C 
ATOM     32  C   UNL d   1      23.197 -18.192  -0.075  0.00  0.00     0.043 C 
ATOM     33  C   UNL d   1      22.687 -17.018  -0.563  0.00  0.00    -0.016 C 
ATOM     34  C   UNL d   1      23.827 -16.572  -1.275  0.00  0.00     0.012 C 
ENDBRANCH  24  25
ENDBRANCH  23  24
ENDBRANCH  20  23
ENDBRANCH   1  19
TORSDOF 9
ENDMDL
MODEL 6
REMARK VINA RESULT:    -7.921      1.662      2.223
REMARK INTER + INTRA:         -13.825
REMARK INTER:                 -10.606
REMARK INTRA:                  -3.219
REMARK CONF_INDEPENDENT:        2.685
REMARK UNBOUND:                -3.219
REMARK  9 active torsions:
REMARK  status: ('A' for Active; 'I' for Inactive)
REMARK    1  A    between atoms: O_2  and  C_3 
REMARK    2  A    between atoms: C_3  and  C_5 
REMARK    3  A    between atoms: C_9  and  C_10 
REMARK       I    between atoms: C_10  and  N_12 
REMARK    4  A    between atoms: N_12  and  C_13 
REMARK    5  A    between atoms: C_13  and  N_15 
REMARK    6  A    between atoms: N_15  and  N_16 
REMARK       I    between atoms: N_16  and  C_17 
REMARK    7  A    between atoms: C_17  and  C_19 
REMARK    8  A    between atoms: C_19  and  O_20 
REMARK    9  A    between atoms: O_20  and  C_21 
ROOT
ATOM      1  N   UNL d   1      27.180 -14.892  -5.624  0.00  0.00    -0.273 N 
ATOM      2  H   UNL d   1      26.375 -14.922  -6.249  0.00  0.00     0.189 HD
ENDROOT
BRANCH   1   3
ATOM      3  C   UNL d   1      28.537 -14.997  -5.989  0.00  0.00     0.193 C 
ATOM      4  S   UNL d   1      29.214 -13.798  -6.966  0.00  0.00    -0.039 SA
BRANCH   3   5
ATOM      5  N   UNL d   1      29.235 -16.127  -5.498  0.00  0.00    -0.298 N 
ATOM      6  C   UNL d   1      29.533 -16.387  -4.131  0.00  0.00     0.257 C 
ATOM      7  O   UNL d   1      29.195 -15.657  -3.203  0.00  0.00    -0.267 OA
ATOM      8  H   UNL d   1      29.543 -16.807  -6.176  0.00  0.00     0.171 HD
BRANCH   6   9
ATOM      9  C   UNL d   1      30.280 -17.618  -3.709  0.00  0.00     0.033 A 
ATOM     10  C   UNL d   1      30.726 -17.698  -2.366  0.00  0.00     0.017 A 
ATOM     11  C   UNL d   1      31.332 -18.858  -1.878  0.00  0.00     0.002 A 
ATOM     12  C   UNL d   1      31.606 -19.913  -2.751  0.00  0.00     0.017 A 
ATOM     13  C   UNL d   1      31.158 -19.858  -4.080  0.00  0.00     0.040 A 
ATOM     14  C   UNL d   1      30.505 -18.708  -4.554  0.00  0.00     0.034 A 
BRANCH  13  15
ATOM     15  C   UNL d   1      31.209 -21.088  -4.921  0.00  0.00     0.292 C 
ATOM     16  O   UNL d   1      31.026 -21.059  -6.127  0.00  0.00    -0.259 OA
BRANCH  15  17
ATOM     17  O   UNL d   1      31.506 -22.194  -4.186  0.00  0.00    -0.323 OA
ATOM     18  C   UNL d   1      30.374 -22.786  -3.519  0.00  0.00     0.213 C 
ENDBRANCH  15  17
ENDBRANCH  13  15
ENDBRANCH   6   9
ENDBRANCH   3   5
ENDBRANCH   1   3
BRANCH   1  19
ATOM     19  N   UNL d   1      26.830 -14.737  -4.206  0.00  0.00    -0.266 N 
ATOM     20  C   UNL d   1      25.518 -14.482  -3.810  0.00  0.00     0.260 C 
ATOM     21  O   UNL d   1      24.624 -14.345  -4.645  0.00  0.00    -0.269 OA
ATOM     22  H   UNL d   1      27.612 -14.827  -3.552  0.00  0.00     0.190 HD
BRANCH  20  23
ATOM     23  C   UNL d   1      25.283 -14.348  -2.272  0.00  0.00     0.280 C 
BRANCH  23  24
ATOM     24  O   UNL d   1      26.391 -14.811  -1.502  0.00  0.00    -0.341 OA
BRANCH  24  25
ATOM     25  C   UNL d   1      26.258 -16.044  -0.878  0.00  0.00     0.080 C 
ATOM     26  C   UNL d   1      27.524 -16.620  -0.523  0.00  0.00     0.037 C 
ATOM     27  C   UNL d   1      27.583 -17.905   0.003  0.00  0.00     0.004 C 
ATOM     28  C   UNL d   1      26.393 -18.575   0.231  0.00  0.00     0.012 C 
ATOM     29  C   UNL d   1      25.151 -18.036  -0.171  0.00  0.00    -0.026 C 
ATOM     30  C   UNL d   1      24.029 -18.850  -0.145  0.00  0.00    -0.005 C 
ATOM     31  C   UNL d   1      24.966 -16.753  -0.653  0.00  0.00     0.007 C 
ATOM     32  C   UNL d   1      22.809 -18.482  -0.758  0.00  0.00     0.043 C 
ATOM     33  C   UNL d   1      22.283 -17.236  -0.539  0.00  0.00    -0.016 C 
ATOM     34  C   UNL d   1      23.442 -16.467  -0.806  0.00  0.00     0.012 C 
ENDBRANCH  24  25
ENDBRANCH  23  24
ENDBRANCH  20  23
ENDBRANCH   1  19
TORSDOF 9
ENDMDL
MODEL 7
REMARK VINA RESULT:    -7.721      3.782      6.267
REMARK INTER + INTRA:         -13.831
REMARK INTER:                 -10.405
REMARK INTRA:                  -3.426
REMARK CONF_INDEPENDENT:        2.685
REMARK UNBOUND:                -3.426
REMARK  9 active torsions:
REMARK  status: ('A' for Active; 'I' for Inactive)
REMARK    1  A    between atoms: O_2  and  C_3 
REMARK    2  A    between atoms: C_3  and  C_5 
REMARK    3  A    between atoms: C_9  and  C_10 
REMARK       I    between atoms: C_10  and  N_12 
REMARK    4  A    between atoms: N_12  and  C_13 
REMARK    5  A    between atoms: C_13  and  N_15 
REMARK    6  A    between atoms: N_15  and  N_16 
REMARK       I    between atoms: N_16  and  C_17 
REMARK    7  A    between atoms: C_17  and  C_19 
REMARK    8  A    between atoms: C_19  and  O_20 
REMARK    9  A    between atoms: O_20  and  C_21 
ROOT
ATOM      1  N   UNL d   1      25.601 -11.782  -3.440  0.00  0.00    -0.273 N 
ATOM      2  H   UNL d   1      24.750 -11.591  -3.968  0.00  0.00     0.189 HD
ENDROOT
BRANCH   1   3
ATOM      3  C   UNL d   1      26.312 -10.876  -2.628  0.00  0.00     0.193 C 
ATOM      4  S   UNL d   1      26.207  -9.225  -2.962  0.00  0.00    -0.039 SA
BRANCH   3   5
ATOM      5  N   UNL d   1      27.077 -11.439  -1.578  0.00  0.00    -0.298 N 
ATOM      6  C   UNL d   1      26.817 -12.684  -0.939  0.00  0.00     0.257 C 
ATOM      7  O   UNL d   1      25.893 -13.434  -1.244  0.00  0.00    -0.267 OA
ATOM      8  H   UNL d   1      27.877 -10.915  -1.259  0.00  0.00     0.171 HD
BRANCH   6   9
ATOM      9  C   UNL d   1      27.690 -13.198   0.169  0.00  0.00     0.033 A 
ATOM     10  C   UNL d   1      29.019 -13.572  -0.149  0.00  0.00     0.017 A 
ATOM     11  C   UNL d   1      29.916 -13.956   0.850  0.00  0.00     0.002 A 
ATOM     12  C   UNL d   1      29.469 -14.082   2.167  0.00  0.00     0.017 A 
ATOM     13  C   UNL d   1      28.160 -13.701   2.503  0.00  0.00     0.040 A 
ATOM     14  C   UNL d   1      27.276 -13.269   1.502  0.00  0.00     0.034 A 
BRANCH  13  15
ATOM     15  C   UNL d   1      27.781 -13.578   3.940  0.00  0.00     0.292 C 
ATOM     16  O   UNL d   1      27.416 -12.520   4.427  0.00  0.00    -0.259 OA
BRANCH  15  17
ATOM     17  O   UNL d   1      27.868 -14.768   4.593  0.00  0.00    -0.323 OA
ATOM     18  C   UNL d   1      29.013 -14.887   5.460  0.00  0.00     0.213 C 
ENDBRANCH  15  17
ENDBRANCH  13  15
ENDBRANCH   6   9
ENDBRANCH   3   5
ENDBRANCH   1   3
BRANCH   1  19
ATOM     19  N   UNL d   1      26.103 -13.154  -3.591  0.00  0.00    -0.266 N 
ATOM     20  C   UNL d   1      25.290 -14.168  -4.095  0.00  0.00     0.260 C 
ATOM     21  O   UNL d   1      24.116 -13.945  -4.393  0.00  0.00    -0.269 OA
ATOM     22  H   UNL d   1      27.073 -13.298  -3.300  0.00  0.00     0.190 HD
BRANCH  20  23
ATOM     23  C   UNL d   1      25.951 -15.579  -4.210  0.00  0.00     0.280 C 
BRANCH  23  24
ATOM     24  O   UNL d   1      27.167 -15.681  -3.471  0.00  0.00    -0.341 OA
BRANCH  24  25
ATOM     25  C   UNL d   1      27.102 -16.288  -2.225  0.00  0.00     0.080 C 
ATOM     26  C   UNL d   1      28.398 -16.624  -1.709  0.00  0.00     0.037 C 
ATOM     27  C   UNL d   1      28.513 -17.344  -0.525  0.00  0.00     0.004 C 
ATOM     28  C   UNL d   1      27.355 -17.663   0.162  0.00  0.00     0.012 C 
ATOM     29  C   UNL d   1      26.076 -17.386  -0.371  0.00  0.00    -0.026 C 
ATOM     30  C   UNL d   1      24.963 -17.946   0.235  0.00  0.00    -0.005 C 
ATOM     31  C   UNL d   1      25.841 -16.634  -1.507  0.00  0.00     0.007 C 
ATOM     32  C   UNL d   1      23.683 -17.933  -0.365  0.00  0.00     0.043 C 
ATOM     33  C   UNL d   1      23.186 -16.768  -0.891  0.00  0.00    -0.016 C 
ATOM     34  C   UNL d   1      24.310 -16.391  -1.666  0.00  0.00     0.012 C 
ENDBRANCH  24  25
ENDBRANCH  23  24
ENDBRANCH  20  23
ENDBRANCH   1  19
TORSDOF 9
ENDMDL
MODEL 8
REMARK VINA RESULT:    -7.356      6.198      7.953
REMARK INTER + INTRA:         -13.565
REMARK INTER:                 -10.040
REMARK INTRA:                  -3.525
REMARK CONF_INDEPENDENT:        2.685
REMARK UNBOUND:                -3.525
REMARK  9 active torsions:
REMARK  status: ('A' for Active; 'I' for Inactive)
REMARK    1  A    between atoms: O_2  and  C_3 
REMARK    2  A    between atoms: C_3  and  C_5 
REMARK    3  A    between atoms: C_9  and  C_10 
REMARK       I    between atoms: C_10  and  N_12 
REMARK    4  A    between atoms: N_12  and  C_13 
REMARK    5  A    between atoms: C_13  and  N_15 
REMARK    6  A    between atoms: N_15  and  N_16 
REMARK       I    between atoms: N_16  and  C_17 
REMARK    7  A    between atoms: C_17  and  C_19 
REMARK    8  A    between atoms: C_19  and  O_20 
REMARK    9  A    between atoms: O_20  and  C_21 
ROOT
ATOM      1  N   UNL d   1      31.172 -13.734   1.906  0.00  0.00    -0.273 N 
ATOM      2  H   UNL d   1      31.111 -12.969   1.235  0.00  0.00     0.189 HD
ENDROOT
BRANCH   1   3
ATOM      3  C   UNL d   1      31.083 -15.112   1.627  0.00  0.00     0.193 C 
ATOM      4  S   UNL d   1      32.315 -16.134   2.163  0.00  0.00    -0.039 SA
BRANCH   3   5
ATOM      5  N   UNL d   1      29.944 -15.535   0.900  0.00  0.00    -0.298 N 
ATOM      6  C   UNL d   1      29.155 -14.715   0.046  0.00  0.00     0.257 C 
ATOM      7  O   UNL d   1      29.387 -13.529  -0.176  0.00  0.00    -0.267 OA
ATOM      8  H   UNL d   1      29.673 -16.502   0.992  0.00  0.00     0.171 HD
BRANCH   6   9
ATOM      9  C   UNL d   1      27.962 -15.257  -0.686  0.00  0.00     0.033 A 
ATOM     10  C   UNL d   1      26.957 -15.909   0.071  0.00  0.00     0.017 A 
ATOM     11  C   UNL d   1      25.772 -16.342  -0.529  0.00  0.00     0.002 A 
ATOM     12  C   UNL d   1      25.621 -16.233  -1.913  0.00  0.00     0.017 A 
ATOM     13  C   UNL d   1      26.598 -15.576  -2.676  0.00  0.00     0.040 A 
ATOM     14  C   UNL d   1      27.767 -15.099  -2.060  0.00  0.00     0.034 A 
BRANCH  13  15
ATOM     15  C   UNL d   1      26.303 -15.224  -4.094  0.00  0.00     0.292 C 
ATOM     16  O   UNL d   1      27.023 -15.576  -5.015  0.00  0.00    -0.259 OA
BRANCH  15  17
ATOM     17  O   UNL d   1      25.151 -14.510  -4.212  0.00  0.00    -0.323 OA
ATOM     18  C   UNL d   1      25.195 -13.206  -3.599  0.00  0.00     0.213 C 
ENDBRANCH  15  17
ENDBRANCH  13  15
ENDBRANCH   6   9
ENDBRANCH   3   5
ENDBRANCH   1   3
BRANCH   1  19
ATOM     19  N   UNL d   1      31.356 -13.295   3.296  0.00  0.00    -0.266 N 
ATOM     20  C   UNL d   1      31.293 -11.946   3.641  0.00  0.00     0.260 C 
ATOM     21  O   UNL d   1      31.117 -11.083   2.781  0.00  0.00    -0.269 OA
ATOM     22  H   UNL d   1      31.532 -14.045   3.969  0.00  0.00     0.190 HD
BRANCH  20  23
ATOM     23  C   UNL d   1      31.499 -11.619   5.154  0.00  0.00     0.280 C 
BRANCH  23  24
ATOM     24  O   UNL d   1      30.319 -11.826   5.930  0.00  0.00    -0.341 OA
BRANCH  24  25
ATOM     25  C   UNL d   1      29.380 -12.717   5.429  0.00  0.00     0.080 C 
ATOM     26  C   UNL d   1      29.483 -14.018   6.027  0.00  0.00     0.037 C 
ATOM     27  C   UNL d   1      28.699 -15.066   5.560  0.00  0.00     0.004 C 
ATOM     28  C   UNL d   1      27.781 -14.800   4.558  0.00  0.00     0.012 C 
ATOM     29  C   UNL d   1      27.717 -13.538   3.927  0.00  0.00    -0.026 C 
ATOM     30  C   UNL d   1      26.961 -13.404   2.773  0.00  0.00    -0.005 C 
ATOM     31  C   UNL d   1      28.407 -12.413   4.340  0.00  0.00     0.007 C 
ATOM     32  C   UNL d   1      27.036 -12.262   1.942  0.00  0.00     0.043 C 
ATOM     33  C   UNL d   1      26.969 -11.009   2.494  0.00  0.00    -0.016 C 
ATOM     34  C   UNL d   1      27.934 -11.177   3.517  0.00  0.00     0.012 C 
ENDBRANCH  24  25
ENDBRANCH  23  24
ENDBRANCH  20  23
ENDBRANCH   1  19
TORSDOF 9
ENDMDL
MODEL 9
REMARK VINA RESULT:    -7.340      2.958      6.903
REMARK INTER + INTRA:         -13.612
REMARK INTER:                 -10.024
REMARK INTRA:                  -3.588
REMARK CONF_INDEPENDENT:        2.685
REMARK UNBOUND:                -3.588
REMARK  9 active torsions:
REMARK  status: ('A' for Active; 'I' for Inactive)
REMARK    1  A    between atoms: O_2  and  C_3 
REMARK    2  A    between atoms: C_3  and  C_5 
REMARK    3  A    between atoms: C_9  and  C_10 
REMARK       I    between atoms: C_10  and  N_12 
REMARK    4  A    between atoms: N_12  and  C_13 
REMARK    5  A    between atoms: C_13  and  N_15 
REMARK    6  A    between atoms: N_15  and  N_16 
REMARK       I    between atoms: N_16  and  C_17 
REMARK    7  A    between atoms: C_17  and  C_19 
REMARK    8  A    between atoms: C_19  and  O_20 
REMARK    9  A    between atoms: O_20  and  C_21 
ROOT
ATOM      1  N   UNL d   1      30.718 -15.689  -3.369  0.00  0.00    -0.273 N 
ATOM      2  H   UNL d   1      31.583 -15.947  -3.843  0.00  0.00     0.189 HD
ENDROOT
BRANCH   1   3
ATOM      3  C   UNL d   1      30.523 -15.550  -1.981  0.00  0.00     0.193 C 
ATOM      4  S   UNL d   1      31.576 -14.564  -1.104  0.00  0.00    -0.039 SA
BRANCH   3   5
ATOM      5  N   UNL d   1      29.439 -16.269  -1.422  0.00  0.00    -0.298 N 
ATOM      6  C   UNL d   1      28.073 -15.876  -1.468  0.00  0.00     0.257 C 
ATOM      7  O   UNL d   1      27.669 -14.857  -2.024  0.00  0.00    -0.267 OA
ATOM      8  H   UNL d   1      29.655 -17.137  -0.956  0.00  0.00     0.171 HD
BRANCH   6   9
ATOM      9  C   UNL d   1      26.991 -16.709  -0.845  0.00  0.00     0.033 A 
ATOM     10  C   UNL d   1      27.324 -17.493   0.287  0.00  0.00     0.017 A 
ATOM     11  C   UNL d   1      26.344 -18.208   0.981  0.00  0.00     0.002 A 
ATOM     12  C   UNL d   1      25.038 -18.242   0.488  0.00  0.00     0.017 A 
ATOM     13  C   UNL d   1      24.686 -17.459  -0.623  0.00  0.00     0.040 A 
ATOM     14  C   UNL d   1      25.666 -16.704  -1.288  0.00  0.00     0.034 A 
BRANCH  13  15
ATOM     15  C   UNL d   1      23.247 -17.287  -0.970  0.00  0.00     0.292 C 
ATOM     16  O   UNL d   1      22.683 -16.208  -0.892  0.00  0.00    -0.259 OA
BRANCH  15  17
ATOM     17  O   UNL d   1      22.684 -18.450  -1.397  0.00  0.00    -0.323 OA
ATOM     18  C   UNL d   1      21.620 -18.939  -0.556  0.00  0.00     0.213 C 
ENDBRANCH  15  17
ENDBRANCH  13  15
ENDBRANCH   6   9
ENDBRANCH   3   5
ENDBRANCH   1   3
BRANCH   1  19
ATOM     19  N   UNL d   1      29.585 -15.465  -4.277  0.00  0.00    -0.266 N 
ATOM     20  C   UNL d   1      29.762 -15.437  -5.659  0.00  0.00     0.260 C 
ATOM     21  O   UNL d   1      30.882 -15.565  -6.153  0.00  0.00    -0.269 OA
ATOM     22  H   UNL d   1      28.680 -15.331  -3.819  0.00  0.00     0.190 HD
BRANCH  20  23
ATOM     23  C   UNL d   1      28.473 -15.198  -6.507  0.00  0.00     0.280 C 
BRANCH  23  24
ATOM     24  O   UNL d   1      27.281 -15.575  -5.820  0.00  0.00    -0.341 OA
BRANCH  24  25
ATOM     25  C   UNL d   1      26.679 -14.612  -5.022  0.00  0.00     0.080 C 
ATOM     26  C   UNL d   1      25.700 -15.169  -4.132  0.00  0.00     0.037 C 
ATOM     27  C   UNL d   1      24.917 -14.335  -3.344  0.00  0.00     0.004 C 
ATOM     28  C   UNL d   1      25.155 -12.971  -3.397  0.00  0.00     0.012 C 
ATOM     29  C   UNL d   1      26.075 -12.414  -4.313  0.00  0.00    -0.026 C 
ATOM     30  C   UNL d   1      26.089 -11.041  -4.495  0.00  0.00    -0.005 C 
ATOM     31  C   UNL d   1      26.942 -13.146  -5.103  0.00  0.00     0.007 C 
ATOM     32  C   UNL d   1      26.789 -10.422  -5.556  0.00  0.00     0.043 C 
ATOM     33  C   UNL d   1      28.087 -10.775  -5.818  0.00  0.00    -0.016 C 
ATOM     34  C   UNL d   1      27.924 -12.182  -5.833  0.00  0.00     0.012 C 
ENDBRANCH  24  25
ENDBRANCH  23  24
ENDBRANCH  20  23
ENDBRANCH   1  19
TORSDOF 9
ENDMDL
