MODEL 1
REMARK VINA RESULT:   -30.602      0.000      0.000
REMARK INTER + INTRA:         -31.911
REMARK INTER:                 -31.497
REMARK INTRA:                  -0.414
REMARK CONF_INDEPENDENT:        0.895
REMARK UNBOUND:                -0.414
REMARK  3 active torsions:
REMARK  status: ('A' for Active; 'I' for Inactive)
REMARK    1  A    between atoms: C_2  and  C_3 
REMARK       I    between atoms: C_3  and  N_5 
REMARK    2  A    between atoms: N_5  and  C_6 
REMARK    3  A    between atoms: C_9  and  C_10 
ROOT
ATOM      1  C   UNL d   1      24.556 -17.204  -0.808  0.00  0.00     0.034 A 
ATOM      2  C   UNL d   1      24.527 -18.573  -0.522  0.00  0.00     0.030 A 
ATOM      3  C   UNL d   1      23.296 -19.233  -0.347  0.00  0.00     0.016 A 
ATOM      4  C   UNL d   1      22.088 -18.529  -0.436  0.00  0.00    -0.005 A 
ATOM      5  C   UNL d   1      22.122 -17.163  -0.719  0.00  0.00     0.016 A 
ATOM      6  C   UNL d   1      23.345 -16.509  -0.889  0.00  0.00     0.030 A 
ENDROOT
BRANCH   1   7
ATOM      7  N   UNL d   1      25.780 -16.545  -1.091  0.00  0.00    -0.327 N 
ATOM      8  C   UNL d   1      26.011 -15.876  -2.283  0.00  0.00     0.221 C 
ATOM      9  O   UNL d   1      25.139 -15.670  -3.135  0.00  0.00    -0.273 OA
ATOM     10  H   UNL d   1      26.470 -16.501  -0.351  0.00  0.00     0.169 HD
BRANCH   8  11
ATOM     11  C   UNL d   1      27.426 -15.363  -2.491  0.00  0.00     0.098 C 
ATOM     12  C   UNL d   1      27.704 -15.209  -3.986  0.00  0.00     0.014 C 
ENDBRANCH   8  11
ENDBRANCH   1   7
BRANCH   4  13
ATOM     13  C   UNL d   1      20.807 -19.209  -0.276  0.00  0.00     0.088 A 
ATOM     14  C   UNL d   1      20.326 -19.845   0.898  0.00  0.00     0.053 A 
ATOM     15  C   UNL d   1      19.070 -20.303   0.581  0.00  0.00     0.111 A 
ATOM     16  N   UNL d   1      18.881 -19.977  -0.727  0.00  0.00    -0.289 N 
ATOM     17  N   UNL d   1      19.905 -19.295  -1.267  0.00  0.00    -0.175 NA
ATOM     18  H   UNL d   1      18.070 -20.170  -1.308  0.00  0.00     0.188 HD
ENDBRANCH   4  13
TORSDOF 3
ENDMDL
MODEL 2
REMARK VINA RESULT:   -30.542      1.904      2.369
REMARK INTER + INTRA:         -31.827
REMARK INTER:                 -31.437
REMARK INTRA:                  -0.390
REMARK CONF_INDEPENDENT:        0.895
REMARK UNBOUND:                -0.390
REMARK  3 active torsions:
REMARK  status: ('A' for Active; 'I' for Inactive)
REMARK    1  A    between atoms: C_2  and  C_3 
REMARK       I    between atoms: C_3  and  N_5 
REMARK    2  A    between atoms: N_5  and  C_6 
REMARK    3  A    between atoms: C_9  and  C_10 
ROOT
ATOM      1  C   UNL d   1      24.575 -17.310  -0.651  0.00  0.00     0.034 A 
ATOM      2  C   UNL d   1      23.398 -16.556  -0.684  0.00  0.00     0.030 A 
ATOM      3  C   UNL d   1      22.148 -17.192  -0.560  0.00  0.00     0.016 A 
ATOM      4  C   UNL d   1      22.064 -18.584  -0.421  0.00  0.00    -0.005 A 
ATOM      5  C   UNL d   1      23.242 -19.331  -0.390  0.00  0.00     0.016 A 
ATOM      6  C   UNL d   1      24.481 -18.699  -0.518  0.00  0.00     0.030 A 
ENDROOT
BRANCH   1   7
ATOM      7  N   UNL d   1      25.845 -16.678  -0.669  0.00  0.00    -0.327 N 
ATOM      8  C   UNL d   1      26.886 -17.066   0.160  0.00  0.00     0.221 C 
ATOM      9  O   UNL d   1      26.855 -18.074   0.875  0.00  0.00    -0.273 OA
ATOM     10  H   UNL d   1      26.007 -15.971  -1.377  0.00  0.00     0.169 HD
BRANCH   8  11
ATOM     11  C   UNL d   1      28.123 -16.184   0.127  0.00  0.00     0.098 C 
ATOM     12  C   UNL d   1      27.919 -14.976   1.041  0.00  0.00     0.014 C 
ENDBRANCH   8  11
ENDBRANCH   1   7
BRANCH   4  13
ATOM     13  C   UNL d   1      20.774 -19.249  -0.271  0.00  0.00     0.088 A 
ATOM     14  C   UNL d   1      20.275 -19.877   0.900  0.00  0.00     0.053 A 
ATOM     15  C   UNL d   1      19.017 -20.321   0.572  0.00  0.00     0.111 A 
ATOM     16  N   UNL d   1      18.843 -19.995  -0.738  0.00  0.00    -0.289 N 
ATOM     17  N   UNL d   1      19.879 -19.325  -1.270  0.00  0.00    -0.175 NA
ATOM     18  H   UNL d   1      18.035 -20.179  -1.325  0.00  0.00     0.188 HD
ENDBRANCH   4  13
TORSDOF 3
ENDMDL
