MODEL 1
REMARK VINA RESULT:   -10.126      0.000      0.000
REMARK INTER + INTRA:         -14.785
REMARK INTER:                 -12.811
REMARK INTRA:                  -1.974
REMARK CONF_INDEPENDENT:        2.685
REMARK UNBOUND:                -1.974
REMARK  9 active torsions:
REMARK  status: ('A' for Active; 'I' for Inactive)
REMARK    1  A    between atoms: C_2  and  O_5 
REMARK    2  A    between atoms: O_5  and  C_6 
REMARK       I    between atoms: C_6  and  N_8 
REMARK    3  A    between atoms: N_8  and  C_9 
REMARK    4  A    between atoms: C_9  and  C_10 
REMARK    5  A    between atoms: C_9  and  C_20 
REMARK    6  A    between atoms: C_10  and  C_11 
REMARK    7  A    between atoms: C_23  and  S_24 
REMARK    8  A    between atoms: S_24  and  C_25 
REMARK    9  A    between atoms: C_25  and  C_26 
ROOT
ATOM      1  C   UNL d   1      28.806 -13.232   4.998  0.00  0.00     0.135 C 
ENDROOT
BRANCH   1   2
ATOM      2  N   UNL d   1      27.695 -12.184   4.834  0.00  0.00    -0.328 N 
ATOM      3  C   UNL d   1      27.905 -10.855   4.514  0.00  0.00     0.361 C 
ATOM      4  O   UNL d   1      28.989 -10.351   4.587  0.00  0.00    -0.238 OA
ATOM      5  H   UNL d   1      26.739 -12.506   4.902  0.00  0.00     0.165 HD
BRANCH   3   6
ATOM      6  O   UNL d   1      26.884 -10.064   4.091  0.00  0.00    -0.294 OA
BRANCH   6   7
ATOM      7  C   UNL d   1      26.794  -9.982   2.597  0.00  0.00     0.061 C 
ATOM      8  C   UNL d   1      25.529  -9.188   2.298  0.00  0.00     0.046 C 
ATOM      9  C   UNL d   1      26.655 -11.398   1.994  0.00  0.00     0.046 C 
ATOM     10  C   UNL d   1      27.947  -9.232   1.839  0.00  0.00     0.046 C 
ENDBRANCH   6   7
ENDBRANCH   3   6
ENDBRANCH   1   2
BRANCH   1  11
ATOM     11  C   UNL d   1      28.818 -13.945   6.379  0.00  0.00     0.066 C 
BRANCH  11  12
ATOM     12  C   UNL d   1      28.874 -13.061   7.578  0.00  0.00    -0.048 C 
ATOM     13  C   UNL d   1      28.795 -13.481   8.845  0.00  0.00    -0.006 A 
ATOM     14  C   UNL d   1      28.837 -14.769   9.452  0.00  0.00     0.014 A 
ATOM     15  C   UNL d   1      28.619 -12.252   9.642  0.00  0.00     0.038 A 
ATOM     16  C   UNL d   1      28.857 -14.839  10.791  0.00  0.00     0.001 A 
ATOM     17  C   UNL d   1      28.718 -13.646  11.614  0.00  0.00     0.002 A 
ATOM     18  C   UNL d   1      28.545 -12.406  11.110  0.00  0.00     0.030 A 
ATOM     19  N   UNL d   1      28.586 -11.199   8.914  0.00  0.00    -0.385 N 
ATOM     20  C   UNL d   1      28.856 -11.543   7.496  0.00  0.00     0.155 C 
ATOM     21  H   UNL d   1      28.296 -10.285   9.251  0.00  0.00     0.160 HD
ENDBRANCH  11  12
ENDBRANCH   1  11
BRANCH   1  22
ATOM     22  C   UNL d   1      28.740 -14.366   3.910  0.00  0.00     0.233 C 
ATOM     23  N   UNL d   1      29.947 -14.518   3.076  0.00  0.00    -0.228 NA
ATOM     24  N   UNL d   1      29.449 -14.825   1.738  0.00  0.00    -0.222 NA
ATOM     25  H   UNL d   1      30.544 -15.268   3.435  0.00  0.00     0.143 HD
ATOM     26  C   UNL d   1      28.001 -14.877   1.863  0.00  0.00     0.275 C 
ATOM     27  H   UNL d   1      29.777 -15.709   1.340  0.00  0.00     0.144 HD
ATOM     28  O   UNL d   1      27.658 -14.131   3.029  0.00  0.00    -0.338 OA
BRANCH  26  29
ATOM     29  S   UNL d   1      27.180 -14.330   0.376  0.00  0.00    -0.116 SA
BRANCH  29  30
ATOM     30  C   UNL d   1      27.157 -15.916  -0.503  0.00  0.00     0.120 C 
BRANCH  30  31
ATOM     31  C   UNL d   1      25.796 -16.539  -0.575  0.00  0.00    -0.005 C 
ATOM     32  C   UNL d   1      25.486 -17.705   0.144  0.00  0.00     0.042 C 
ATOM     33 CL   UNL d   1      26.655 -18.575   1.080  0.00  0.00    -0.084 Cl
ATOM     34  C   UNL d   1      24.187 -18.201   0.152  0.00  0.00     0.024 C 
ATOM     35  C   UNL d   1      23.162 -17.465  -0.428  0.00  0.00     0.003 C 
ATOM     36  C   UNL d   1      23.470 -16.405  -1.270  0.00  0.00     0.024 C 
ATOM     37  C   UNL d   1      24.789 -15.972  -1.382  0.00  0.00     0.042 C 
ATOM     38 CL   UNL d   1      25.105 -14.741  -2.561  0.00  0.00    -0.084 Cl
ENDBRANCH  30  31
ENDBRANCH  29  30
ENDBRANCH  26  29
ENDBRANCH   1  22
TORSDOF 9
ENDMDL
MODEL 2
REMARK VINA RESULT:    -9.366      4.044      9.136
REMARK INTER + INTRA:         -14.435
REMARK INTER:                 -12.051
REMARK INTRA:                  -2.385
REMARK CONF_INDEPENDENT:        2.685
REMARK UNBOUND:                -2.385
REMARK  9 active torsions:
REMARK  status: ('A' for Active; 'I' for Inactive)
REMARK    1  A    between atoms: C_2  and  O_5 
REMARK    2  A    between atoms: O_5  and  C_6 
REMARK       I    between atoms: C_6  and  N_8 
REMARK    3  A    between atoms: N_8  and  C_9 
REMARK    4  A    between atoms: C_9  and  C_10 
REMARK    5  A    between atoms: C_9  and  C_20 
REMARK    6  A    between atoms: C_10  and  C_11 
REMARK    7  A    between atoms: C_23  and  S_24 
REMARK    8  A    between atoms: S_24  and  C_25 
REMARK    9  A    between atoms: C_25  and  C_26 
ROOT
ATOM      1  C   UNL d   1      25.988 -14.159  -1.943  0.00  0.00     0.135 C 
ENDROOT
BRANCH   1   2
ATOM      2  N   UNL d   1      26.681 -14.970  -3.050  0.00  0.00    -0.328 N 
ATOM      3  C   UNL d   1      26.213 -15.097  -4.345  0.00  0.00     0.361 C 
ATOM      4  O   UNL d   1      25.094 -14.794  -4.646  0.00  0.00    -0.238 OA
ATOM      5  H   UNL d   1      27.576 -15.385  -2.830  0.00  0.00     0.165 HD
BRANCH   3   6
ATOM      6  O   UNL d   1      27.014 -15.565  -5.339  0.00  0.00    -0.294 OA
BRANCH   6   7
ATOM      7  C   UNL d   1      28.238 -14.724  -5.542  0.00  0.00     0.061 C 
ATOM      8  C   UNL d   1      27.750 -13.281  -5.585  0.00  0.00     0.046 C 
ATOM      9  C   UNL d   1      28.904 -15.071  -6.892  0.00  0.00     0.046 C 
ATOM     10  C   UNL d   1      29.339 -14.760  -4.422  0.00  0.00     0.046 C 
ENDBRANCH   6   7
ENDBRANCH   3   6
ENDBRANCH   1   2
BRANCH   1  11
ATOM     11  C   UNL d   1      25.949 -14.864  -0.559  0.00  0.00     0.066 C 
BRANCH  11  12
ATOM     12  C   UNL d   1      25.671 -16.329  -0.572  0.00  0.00    -0.048 C 
ATOM     13  C   UNL d   1      24.453 -16.878  -0.597  0.00  0.00    -0.006 A 
ATOM     14  C   UNL d   1      23.147 -16.350  -0.807  0.00  0.00     0.014 A 
ATOM     15  C   UNL d   1      24.676 -18.310  -0.323  0.00  0.00     0.038 A 
ATOM     16  C   UNL d   1      22.121 -17.210  -0.894  0.00  0.00     0.001 A 
ATOM     17  C   UNL d   1      22.306 -18.635  -0.663  0.00  0.00     0.002 A 
ATOM     18  C   UNL d   1      23.490 -19.191  -0.332  0.00  0.00     0.030 A 
ATOM     19  N   UNL d   1      25.915 -18.585  -0.142  0.00  0.00    -0.385 N 
ATOM     20  C   UNL d   1      26.750 -17.384  -0.384  0.00  0.00     0.155 C 
ATOM     21  H   UNL d   1      26.251 -19.469   0.231  0.00  0.00     0.160 HD
ENDBRANCH  11  12
ENDBRANCH   1  11
BRANCH   1  22
ATOM     22  C   UNL d   1      26.653 -12.753  -1.710  0.00  0.00     0.233 C 
ATOM     23  N   UNL d   1      27.932 -12.530  -2.411  0.00  0.00    -0.228 NA
ATOM     24  N   UNL d   1      28.751 -11.766  -1.475  0.00  0.00    -0.222 NA
ATOM     25  H   UNL d   1      27.782 -12.016  -3.283  0.00  0.00     0.143 HD
ATOM     26  C   UNL d   1      27.910 -11.548  -0.308  0.00  0.00     0.275 C 
ATOM     27  H   UNL d   1      29.080 -10.859  -1.817  0.00  0.00     0.144 HD
ATOM     28  O   UNL d   1      26.900 -12.555  -0.331  0.00  0.00    -0.338 OA
BRANCH  26  29
ATOM     29  S   UNL d   1      28.859 -11.499   1.202  0.00  0.00    -0.116 SA
BRANCH  29  30
ATOM     30  C   UNL d   1      27.500 -11.792   2.368  0.00  0.00     0.120 C 
BRANCH  30  31
ATOM     31  C   UNL d   1      27.887 -12.650   3.533  0.00  0.00    -0.005 C 
ATOM     32  C   UNL d   1      28.127 -12.097   4.801  0.00  0.00     0.042 C 
ATOM     33 CL   UNL d   1      28.105 -10.393   5.107  0.00  0.00    -0.084 Cl
ATOM     34  C   UNL d   1      28.373 -12.922   5.893  0.00  0.00     0.024 C 
ATOM     35  C   UNL d   1      28.235 -14.298   5.765  0.00  0.00     0.003 C 
ATOM     36  C   UNL d   1      28.155 -14.865   4.500  0.00  0.00     0.024 C 
ATOM     37  C   UNL d   1      28.030 -14.044   3.382  0.00  0.00     0.042 C 
ATOM     38 CL   UNL d   1      28.084 -14.825   1.835  0.00  0.00    -0.084 Cl
ENDBRANCH  30  31
ENDBRANCH  29  30
ENDBRANCH  26  29
ENDBRANCH   1  22
TORSDOF 9
ENDMDL
MODEL 3
REMARK VINA RESULT:    -9.151      4.087      9.343
REMARK INTER + INTRA:         -14.353
REMARK INTER:                 -11.836
REMARK INTRA:                  -2.517
REMARK CONF_INDEPENDENT:        2.685
REMARK UNBOUND:                -2.517
REMARK  9 active torsions:
REMARK  status: ('A' for Active; 'I' for Inactive)
REMARK    1  A    between atoms: C_2  and  O_5 
REMARK    2  A    between atoms: O_5  and  C_6 
REMARK       I    between atoms: C_6  and  N_8 
REMARK    3  A    between atoms: N_8  and  C_9 
REMARK    4  A    between atoms: C_9  and  C_10 
REMARK    5  A    between atoms: C_9  and  C_20 
REMARK    6  A    between atoms: C_10  and  C_11 
REMARK    7  A    between atoms: C_23  and  S_24 
REMARK    8  A    between atoms: S_24  and  C_25 
REMARK    9  A    between atoms: C_25  and  C_26 
ROOT
ATOM      1  C   UNL d   1      26.421 -13.421  -3.502  0.00  0.00     0.135 C 
ENDROOT
BRANCH   1   2
ATOM      2  N   UNL d   1      27.514 -14.047  -4.381  0.00  0.00    -0.328 N 
ATOM      3  C   UNL d   1      27.287 -14.970  -5.386  0.00  0.00     0.361 C 
ATOM      4  O   UNL d   1      26.245 -15.551  -5.487  0.00  0.00    -0.238 OA
ATOM      5  H   UNL d   1      28.459 -13.709  -4.258  0.00  0.00     0.165 HD
BRANCH   3   6
ATOM      6  O   UNL d   1      28.241 -15.249  -6.313  0.00  0.00    -0.294 OA
BRANCH   6   7
ATOM      7  C   UNL d   1      29.563 -15.597  -5.699  0.00  0.00     0.061 C 
ATOM      8  C   UNL d   1      30.303 -14.277  -5.526  0.00  0.00     0.046 C 
ATOM      9  C   UNL d   1      30.370 -16.505  -6.653  0.00  0.00     0.046 C 
ATOM     10  C   UNL d   1      29.551 -16.260  -4.275  0.00  0.00     0.046 C 
ENDBRANCH   6   7
ENDBRANCH   3   6
ENDBRANCH   1   2
BRANCH   1  11
ATOM     11  C   UNL d   1      25.338 -14.422  -3.012  0.00  0.00     0.066 C 
BRANCH  11  12
ATOM     12  C   UNL d   1      25.828 -15.594  -2.231  0.00  0.00    -0.048 C 
ATOM     13  C   UNL d   1      25.066 -16.370  -1.454  0.00  0.00    -0.006 A 
ATOM     14  C   UNL d   1      23.658 -16.488  -1.270  0.00  0.00     0.014 A 
ATOM     15  C   UNL d   1      26.020 -17.198  -0.692  0.00  0.00     0.038 A 
ATOM     16  C   UNL d   1      23.201 -17.476  -0.486  0.00  0.00     0.001 A 
ATOM     17  C   UNL d   1      24.110 -18.335   0.258  0.00  0.00     0.002 A 
ATOM     18  C   UNL d   1      25.453 -18.200   0.234  0.00  0.00     0.030 A 
ATOM     19  N   UNL d   1      27.239 -16.931  -0.983  0.00  0.00    -0.385 N 
ATOM     20  C   UNL d   1      27.300 -15.946  -2.090  0.00  0.00     0.155 C 
ATOM     21  H   UNL d   1      28.036 -17.260  -0.444  0.00  0.00     0.160 HD
ENDBRANCH  11  12
ENDBRANCH   1  11
BRANCH   1  22
ATOM     22  C   UNL d   1      26.997 -12.722  -2.216  0.00  0.00     0.233 C 
ATOM     23  N   UNL d   1      28.398 -13.048  -1.890  0.00  0.00    -0.228 NA
ATOM     24  N   UNL d   1      28.440 -13.134  -0.433  0.00  0.00    -0.222 NA
ATOM     25  H   UNL d   1      29.030 -12.324  -2.240  0.00  0.00     0.143 HD
ATOM     26  C   UNL d   1      27.092 -12.819   0.015  0.00  0.00     0.275 C 
ATOM     27  H   UNL d   1      29.097 -12.497   0.026  0.00  0.00     0.144 HD
ATOM     28  O   UNL d   1      26.221 -13.068  -1.086  0.00  0.00    -0.338 OA
BRANCH  26  29
ATOM     29  S   UNL d   1      26.658 -13.699   1.506  0.00  0.00    -0.116 SA
BRANCH  29  30
ATOM     30  C   UNL d   1      28.196 -13.417   2.426  0.00  0.00     0.120 C 
BRANCH  30  31
ATOM     31  C   UNL d   1      27.986 -12.747   3.749  0.00  0.00    -0.005 C 
ATOM     32  C   UNL d   1      28.002 -13.477   4.948  0.00  0.00     0.042 C 
ATOM     33 CL   UNL d   1      28.157 -15.201   5.003  0.00  0.00    -0.084 Cl
ATOM     34  C   UNL d   1      27.920 -12.820   6.172  0.00  0.00     0.024 C 
ATOM     35  C   UNL d   1      27.970 -11.433   6.217  0.00  0.00     0.003 C 
ATOM     36  C   UNL d   1      27.796 -10.701   5.050  0.00  0.00     0.024 C 
ATOM     37  C   UNL d   1      27.756 -11.358   3.822  0.00  0.00     0.042 C 
ATOM     38 CL   UNL d   1      27.390 -10.388   2.433  0.00  0.00    -0.084 Cl
ENDBRANCH  30  31
ENDBRANCH  29  30
ENDBRANCH  26  29
ENDBRANCH   1  22
TORSDOF 9
ENDMDL
MODEL 4
REMARK VINA RESULT:    -8.515      1.947      4.603
REMARK INTER + INTRA:         -14.247
REMARK INTER:                 -11.200
REMARK INTRA:                  -3.047
REMARK CONF_INDEPENDENT:        2.685
REMARK UNBOUND:                -3.047
REMARK  9 active torsions:
REMARK  status: ('A' for Active; 'I' for Inactive)
REMARK    1  A    between atoms: C_2  and  O_5 
REMARK    2  A    between atoms: O_5  and  C_6 
REMARK       I    between atoms: C_6  and  N_8 
REMARK    3  A    between atoms: N_8  and  C_9 
REMARK    4  A    between atoms: C_9  and  C_10 
REMARK    5  A    between atoms: C_9  and  C_20 
REMARK    6  A    between atoms: C_10  and  C_11 
REMARK    7  A    between atoms: C_23  and  S_24 
REMARK    8  A    between atoms: S_24  and  C_25 
REMARK    9  A    between atoms: C_25  and  C_26 
ROOT
ATOM      1  C   UNL d   1      27.501 -13.283   3.569  0.00  0.00     0.135 C 
ENDROOT
BRANCH   1   2
ATOM      2  N   UNL d   1      27.489 -13.588   5.075  0.00  0.00    -0.328 N 
ATOM      3  C   UNL d   1      28.422 -14.371   5.729  0.00  0.00     0.361 C 
ATOM      4  O   UNL d   1      29.176 -15.086   5.134  0.00  0.00    -0.238 OA
ATOM      5  H   UNL d   1      26.784 -13.129   5.636  0.00  0.00     0.165 HD
BRANCH   3   6
ATOM      6  O   UNL d   1      28.529 -14.352   7.084  0.00  0.00    -0.294 OA
BRANCH   6   7
ATOM      7  C   UNL d   1      29.093 -13.065   7.604  0.00  0.00     0.061 C 
ATOM      8  C   UNL d   1      30.455 -12.908   6.940  0.00  0.00     0.046 C 
ATOM      9  C   UNL d   1      29.286 -13.149   9.135  0.00  0.00     0.046 C 
ATOM     10  C   UNL d   1      28.313 -11.743   7.274  0.00  0.00     0.046 C 
ENDBRANCH   6   7
ENDBRANCH   3   6
ENDBRANCH   1   2
BRANCH   1  11
ATOM     11  C   UNL d   1      28.528 -12.198   3.142  0.00  0.00     0.066 C 
BRANCH  11  12
ATOM     12  C   UNL d   1      28.351 -10.846   3.747  0.00  0.00    -0.048 C 
ATOM     13  C   UNL d   1      29.266 -10.212   4.487  0.00  0.00    -0.006 A 
ATOM     14  C   UNL d   1      30.643 -10.457   4.761  0.00  0.00     0.014 A 
ATOM     15  C   UNL d   1      28.549  -9.066   5.077  0.00  0.00     0.038 A 
ATOM     16  C   UNL d   1      31.324  -9.536   5.460  0.00  0.00     0.001 A 
ATOM     17  C   UNL d   1      30.659  -8.375   6.032  0.00  0.00     0.002 A 
ATOM     18  C   UNL d   1      29.334  -8.143   5.924  0.00  0.00     0.030 A 
ATOM     19  N   UNL d   1      27.317  -9.029   4.728  0.00  0.00    -0.385 N 
ATOM     20  C   UNL d   1      27.030 -10.095   3.737  0.00  0.00     0.155 C 
ATOM     21  H   UNL d   1      26.621  -8.430   5.165  0.00  0.00     0.160 HD
ENDBRANCH  11  12
ENDBRANCH   1  11
BRANCH   1  22
ATOM     22  C   UNL d   1      27.802 -14.553   2.692  0.00  0.00     0.233 C 
ATOM     23  N   UNL d   1      29.228 -14.824   2.433  0.00  0.00    -0.228 NA
ATOM     24  N   UNL d   1      29.281 -15.307   1.056  0.00  0.00    -0.222 NA
ATOM     25  H   UNL d   1      29.589 -15.522   3.089  0.00  0.00     0.143 HD
ATOM     26  C   UNL d   1      27.900 -15.332   0.598  0.00  0.00     0.275 C 
ATOM     27  H   UNL d   1      29.686 -16.239   0.933  0.00  0.00     0.144 HD
ATOM     28  O   UNL d   1      27.172 -14.432   1.431  0.00  0.00    -0.338 OA
BRANCH  26  29
ATOM     29  S   UNL d   1      27.766 -14.986  -1.147  0.00  0.00    -0.116 SA
BRANCH  29  30
ATOM     30  C   UNL d   1      27.063 -16.574  -1.670  0.00  0.00     0.120 C 
BRANCH  30  31
ATOM     31  C   UNL d   1      25.668 -16.802  -1.173  0.00  0.00    -0.005 C 
ATOM     32  C   UNL d   1      24.588 -16.046  -1.656  0.00  0.00     0.042 C 
ATOM     33 CL   UNL d   1      24.777 -14.734  -2.770  0.00  0.00    -0.084 Cl
ATOM     34  C   UNL d   1      23.288 -16.351  -1.267  0.00  0.00     0.024 C 
ATOM     35  C   UNL d   1      23.040 -17.493  -0.517  0.00  0.00     0.003 C 
ATOM     36  C   UNL d   1      24.095 -18.155   0.095  0.00  0.00     0.024 C 
ATOM     37  C   UNL d   1      25.406 -17.781  -0.194  0.00  0.00     0.042 C 
ATOM     38 CL   UNL d   1      26.655 -18.559   0.722  0.00  0.00    -0.084 Cl
ENDBRANCH  30  31
ENDBRANCH  29  30
ENDBRANCH  26  29
ENDBRANCH   1  22
TORSDOF 9
ENDMDL
MODEL 5
REMARK VINA RESULT:    -8.331      3.850      7.591
REMARK INTER + INTRA:         -14.535
REMARK INTER:                 -11.015
REMARK INTRA:                  -3.519
REMARK CONF_INDEPENDENT:        2.685
REMARK UNBOUND:                -3.519
REMARK  9 active torsions:
REMARK  status: ('A' for Active; 'I' for Inactive)
REMARK    1  A    between atoms: C_2  and  O_5 
REMARK    2  A    between atoms: O_5  and  C_6 
REMARK       I    between atoms: C_6  and  N_8 
REMARK    3  A    between atoms: N_8  and  C_9 
REMARK    4  A    between atoms: C_9  and  C_10 
REMARK    5  A    between atoms: C_9  and  C_20 
REMARK    6  A    between atoms: C_10  and  C_11 
REMARK    7  A    between atoms: C_23  and  S_24 
REMARK    8  A    between atoms: S_24  and  C_25 
REMARK    9  A    between atoms: C_25  and  C_26 
ROOT
ATOM      1  C   UNL d   1      28.678 -14.952  -0.029  0.00  0.00     0.135 C 
ENDROOT
BRANCH   1   2
ATOM      2  N   UNL d   1      28.415 -14.860   1.482  0.00  0.00    -0.328 N 
ATOM      3  C   UNL d   1      27.603 -13.917   2.085  0.00  0.00     0.361 C 
ATOM      4  O   UNL d   1      27.237 -12.935   1.506  0.00  0.00    -0.238 OA
ATOM      5  H   UNL d   1      28.814 -15.581   2.068  0.00  0.00     0.165 HD
BRANCH   3   6
ATOM      6  O   UNL d   1      27.176 -14.073   3.366  0.00  0.00    -0.294 OA
BRANCH   6   7
ATOM      7  C   UNL d   1      28.257 -13.821   4.373  0.00  0.00     0.061 C 
ATOM      8  C   UNL d   1      28.465 -15.142   5.102  0.00  0.00     0.046 C 
ATOM      9  C   UNL d   1      27.797 -12.752   5.390  0.00  0.00     0.046 C 
ATOM     10  C   UNL d   1      29.674 -13.414   3.833  0.00  0.00     0.046 C 
ENDBRANCH   6   7
ENDBRANCH   3   6
ENDBRANCH   1   2
BRANCH   1  11
ATOM     11  C   UNL d   1      27.432 -15.333  -0.876  0.00  0.00     0.066 C 
BRANCH  11  12
ATOM     12  C   UNL d   1      26.735 -16.595  -0.495  0.00  0.00    -0.048 C 
ATOM     13  C   UNL d   1      25.414 -16.789  -0.553  0.00  0.00    -0.006 A 
ATOM     14  C   UNL d   1      24.341 -16.045  -1.122  0.00  0.00     0.014 A 
ATOM     15  C   UNL d   1      25.184 -18.055   0.169  0.00  0.00     0.038 A 
ATOM     16  C   UNL d   1      23.116 -16.592  -1.115  0.00  0.00     0.001 A 
ATOM     17  C   UNL d   1      22.854 -17.855  -0.440  0.00  0.00     0.002 A 
ATOM     18  C   UNL d   1      23.794 -18.553   0.230  0.00  0.00     0.030 A 
ATOM     19  N   UNL d   1      26.270 -18.561   0.624  0.00  0.00    -0.385 N 
ATOM     20  C   UNL d   1      27.438 -17.766   0.173  0.00  0.00     0.155 C 
ATOM     21  H   UNL d   1      26.302 -19.325   1.294  0.00  0.00     0.160 HD
ENDBRANCH  11  12
ENDBRANCH   1  11
BRANCH   1  22
ATOM     22  C   UNL d   1      29.238 -13.613  -0.634  0.00  0.00     0.233 C 
ATOM     23  N   UNL d   1      28.230 -12.575  -0.922  0.00  0.00    -0.228 NA
ATOM     24  N   UNL d   1      28.671 -11.949  -2.165  0.00  0.00    -0.222 NA
ATOM     25  H   UNL d   1      28.181 -11.896  -0.158  0.00  0.00     0.143 HD
ATOM     26  C   UNL d   1      29.916 -12.614  -2.516  0.00  0.00     0.275 C 
ATOM     27  H   UNL d   1      28.839 -10.941  -2.114  0.00  0.00     0.144 HD
ATOM     28  O   UNL d   1      29.916 -13.874  -1.848  0.00  0.00    -0.338 OA
BRANCH  26  29
ATOM     29  S   UNL d   1      30.144 -12.722  -4.282  0.00  0.00    -0.116 SA
BRANCH  29  30
ATOM     30  C   UNL d   1      28.522 -12.088  -4.789  0.00  0.00     0.120 C 
BRANCH  30  31
ATOM     31  C   UNL d   1      27.415 -13.086  -4.635  0.00  0.00    -0.005 C 
ATOM     32  C   UNL d   1      27.477 -14.346  -5.251  0.00  0.00     0.042 C 
ATOM     33 CL   UNL d   1      28.762 -14.816  -6.313  0.00  0.00    -0.084 Cl
ATOM     34  C   UNL d   1      26.494 -15.298  -5.004  0.00  0.00     0.024 C 
ATOM     35  C   UNL d   1      25.530 -15.060  -4.033  0.00  0.00     0.003 C 
ATOM     36  C   UNL d   1      25.360 -13.776  -3.533  0.00  0.00     0.024 C 
ATOM     37  C   UNL d   1      26.272 -12.778  -3.870  0.00  0.00     0.042 C 
ATOM     38 CL   UNL d   1      25.905 -11.174  -3.324  0.00  0.00    -0.084 Cl
ENDBRANCH  30  31
ENDBRANCH  29  30
ENDBRANCH  26  29
ENDBRANCH   1  22
TORSDOF 9
ENDMDL
MODEL 6
REMARK VINA RESULT:    -8.123      5.779      9.359
REMARK INTER + INTRA:         -14.319
REMARK INTER:                 -10.808
REMARK INTRA:                  -3.511
REMARK CONF_INDEPENDENT:        2.685
REMARK UNBOUND:                -3.511
REMARK  9 active torsions:
REMARK  status: ('A' for Active; 'I' for Inactive)
REMARK    1  A    between atoms: C_2  and  O_5 
REMARK    2  A    between atoms: O_5  and  C_6 
REMARK       I    between atoms: C_6  and  N_8 
REMARK    3  A    between atoms: N_8  and  C_9 
REMARK    4  A    between atoms: C_9  and  C_10 
REMARK    5  A    between atoms: C_9  and  C_20 
REMARK    6  A    between atoms: C_10  and  C_11 
REMARK    7  A    between atoms: C_23  and  S_24 
REMARK    8  A    between atoms: S_24  and  C_25 
REMARK    9  A    between atoms: C_25  and  C_26 
ROOT
ATOM      1  C   UNL d   1      25.384 -13.587  -3.888  0.00  0.00     0.135 C 
ENDROOT
BRANCH   1   2
ATOM      2  N   UNL d   1      26.711 -14.247  -4.292  0.00  0.00    -0.328 N 
ATOM      3  C   UNL d   1      26.849 -15.195  -5.290  0.00  0.00     0.361 C 
ATOM      4  O   UNL d   1      25.905 -15.768  -5.753  0.00  0.00    -0.238 OA
ATOM      5  H   UNL d   1      27.552 -13.916  -3.839  0.00  0.00     0.165 HD
BRANCH   3   6
ATOM      6  O   UNL d   1      28.071 -15.509  -5.797  0.00  0.00    -0.294 OA
BRANCH   6   7
ATOM      7  C   UNL d   1      28.949 -14.308  -5.980  0.00  0.00     0.061 C 
ATOM      8  C   UNL d   1      29.977 -14.701  -7.034  0.00  0.00     0.046 C 
ATOM      9  C   UNL d   1      29.681 -13.979  -4.660  0.00  0.00     0.046 C 
ATOM     10  C   UNL d   1      28.281 -12.993  -6.518  0.00  0.00     0.046 C 
ENDBRANCH   6   7
ENDBRANCH   3   6
ENDBRANCH   1   2
BRANCH   1  11
ATOM     11  C   UNL d   1      24.495 -14.450  -2.951  0.00  0.00     0.066 C 
BRANCH  11  12
ATOM     12  C   UNL d   1      25.196 -15.509  -2.168  0.00  0.00    -0.048 C 
ATOM     13  C   UNL d   1      24.590 -16.434  -1.417  0.00  0.00    -0.006 A 
ATOM     14  C   UNL d   1      23.232 -16.838  -1.270  0.00  0.00     0.014 A 
ATOM     15  C   UNL d   1      25.675 -17.061  -0.638  0.00  0.00     0.038 A 
ATOM     16  C   UNL d   1      22.967 -17.909  -0.506  0.00  0.00     0.001 A 
ATOM     17  C   UNL d   1      24.015 -18.575   0.253  0.00  0.00     0.002 A 
ATOM     18  C   UNL d   1      25.302 -18.170   0.264  0.00  0.00     0.030 A 
ATOM     19  N   UNL d   1      26.820 -16.547  -0.896  0.00  0.00    -0.385 N 
ATOM     20  C   UNL d   1      26.705 -15.555  -1.993  0.00  0.00     0.155 C 
ATOM     21  H   UNL d   1      27.655 -16.715  -0.340  0.00  0.00     0.160 HD
ENDBRANCH  11  12
ENDBRANCH   1  11
BRANCH   1  22
ATOM     22  C   UNL d   1      25.586 -12.205  -3.165  0.00  0.00     0.233 C 
ATOM     23  N   UNL d   1      25.530 -11.016  -4.037  0.00  0.00    -0.228 NA
ATOM     24  N   UNL d   1      26.548 -10.111  -3.512  0.00  0.00    -0.222 NA
ATOM     25  H   UNL d   1      24.600 -10.590  -4.010  0.00  0.00     0.143 HD
ATOM     26  C   UNL d   1      27.111 -10.786  -2.353  0.00  0.00     0.275 C 
ATOM     27  H   UNL d   1      26.209  -9.189  -3.223  0.00  0.00     0.144 HD
ATOM     28  O   UNL d   1      26.841 -12.177  -2.513  0.00  0.00    -0.338 OA
BRANCH  26  29
ATOM     29  S   UNL d   1      28.838 -10.397  -2.125  0.00  0.00    -0.116 SA
BRANCH  29  30
ATOM     30  C   UNL d   1      28.851 -10.345  -0.312  0.00  0.00     0.120 C 
BRANCH  30  31
ATOM     31  C   UNL d   1      28.161 -11.513   0.325  0.00  0.00    -0.005 C 
ATOM     32  C   UNL d   1      27.089 -11.334   1.213  0.00  0.00     0.042 C 
ATOM     33 CL   UNL d   1      26.543  -9.774   1.730  0.00  0.00    -0.084 Cl
ATOM     34  C   UNL d   1      26.391 -12.432   1.703  0.00  0.00     0.024 C 
ATOM     35  C   UNL d   1      26.655 -13.700   1.201  0.00  0.00     0.003 C 
ATOM     36  C   UNL d   1      27.803 -13.915   0.450  0.00  0.00     0.024 C 
ATOM     37  C   UNL d   1      28.582 -12.831   0.052  0.00  0.00     0.042 C 
ATOM     38 CL   UNL d   1      30.071 -13.198  -0.755  0.00  0.00    -0.084 Cl
ENDBRANCH  30  31
ENDBRANCH  29  30
ENDBRANCH  26  29
ENDBRANCH   1  22
TORSDOF 9
ENDMDL
MODEL 7
REMARK VINA RESULT:    -8.076      6.484      9.364
REMARK INTER + INTRA:         -14.333
REMARK INTER:                 -10.761
REMARK INTRA:                  -3.572
REMARK CONF_INDEPENDENT:        2.685
REMARK UNBOUND:                -3.572
REMARK  9 active torsions:
REMARK  status: ('A' for Active; 'I' for Inactive)
REMARK    1  A    between atoms: C_2  and  O_5 
REMARK    2  A    between atoms: O_5  and  C_6 
REMARK       I    between atoms: C_6  and  N_8 
REMARK    3  A    between atoms: N_8  and  C_9 
REMARK    4  A    between atoms: C_9  and  C_10 
REMARK    5  A    between atoms: C_9  and  C_20 
REMARK    6  A    between atoms: C_10  and  C_11 
REMARK    7  A    between atoms: C_23  and  S_24 
REMARK    8  A    between atoms: S_24  and  C_25 
REMARK    9  A    between atoms: C_25  and  C_26 
ROOT
ATOM      1  C   UNL d   1      25.634 -15.111  -3.475  0.00  0.00     0.135 C 
ENDROOT
BRANCH   1   2
ATOM      2  N   UNL d   1      26.345 -15.491  -4.783  0.00  0.00    -0.328 N 
ATOM      3  C   UNL d   1      27.440 -14.828  -5.307  0.00  0.00     0.361 C 
ATOM      4  O   UNL d   1      27.770 -13.745  -4.916  0.00  0.00    -0.238 OA
ATOM      5  H   UNL d   1      26.028 -16.325  -5.258  0.00  0.00     0.165 HD
BRANCH   3   6
ATOM      6  O   UNL d   1      28.197 -15.388  -6.288  0.00  0.00    -0.294 OA
BRANCH   6   7
ATOM      7  C   UNL d   1      29.604 -15.661  -5.849  0.00  0.00     0.061 C 
ATOM      8  C   UNL d   1      29.503 -16.158  -4.413  0.00  0.00     0.046 C 
ATOM      9  C   UNL d   1      30.431 -14.356  -5.874  0.00  0.00     0.046 C 
ATOM     10  C   UNL d   1      30.404 -16.770  -6.621  0.00  0.00     0.046 C 
ENDBRANCH   6   7
ENDBRANCH   3   6
ENDBRANCH   1   2
BRANCH   1  11
ATOM     11  C   UNL d   1      26.483 -15.335  -2.193  0.00  0.00     0.066 C 
BRANCH  11  12
ATOM     12  C   UNL d   1      26.153 -16.544  -1.385  0.00  0.00    -0.048 C 
ATOM     13  C   UNL d   1      24.927 -16.877  -0.970  0.00  0.00    -0.006 A 
ATOM     14  C   UNL d   1      23.624 -16.389  -1.278  0.00  0.00     0.014 A 
ATOM     15  C   UNL d   1      25.138 -17.967   0.002  0.00  0.00     0.038 A 
ATOM     16  C   UNL d   1      22.567 -17.040  -0.770  0.00  0.00     0.001 A 
ATOM     17  C   UNL d   1      22.733 -18.141   0.167  0.00  0.00     0.002 A 
ATOM     18  C   UNL d   1      23.934 -18.575   0.605  0.00  0.00     0.030 A 
ATOM     19  N   UNL d   1      26.378 -18.248   0.158  0.00  0.00    -0.385 N 
ATOM     20  C   UNL d   1      27.208 -17.461  -0.786  0.00  0.00     0.155 C 
ATOM     21  H   UNL d   1      26.737 -18.836   0.906  0.00  0.00     0.160 HD
ENDBRANCH  11  12
ENDBRANCH   1  11
BRANCH   1  22
ATOM     22  C   UNL d   1      25.170 -13.609  -3.447  0.00  0.00     0.233 C 
ATOM     23  N   UNL d   1      25.057 -12.953  -4.763  0.00  0.00    -0.228 NA
ATOM     24  N   UNL d   1      25.530 -11.588  -4.551  0.00  0.00    -0.222 NA
ATOM     25  H   UNL d   1      24.089 -12.967  -5.093  0.00  0.00     0.143 HD
ATOM     26  C   UNL d   1      25.852 -11.503  -3.134  0.00  0.00     0.275 C 
ATOM     27  H   UNL d   1      24.859 -10.850  -4.781  0.00  0.00     0.144 HD
ATOM     28  O   UNL d   1      26.072 -12.836  -2.678  0.00  0.00    -0.338 OA
BRANCH  26  29
ATOM     29  S   UNL d   1      27.210 -10.389  -2.822  0.00  0.00    -0.116 SA
BRANCH  29  30
ATOM     30  C   UNL d   1      27.558 -10.883  -1.112  0.00  0.00     0.120 C 
BRANCH  30  31
ATOM     31  C   UNL d   1      28.309 -12.175  -1.004  0.00  0.00    -0.005 C 
ATOM     32  C   UNL d   1      27.932 -13.164  -0.081  0.00  0.00     0.042 C 
ATOM     33 CL   UNL d   1      26.657 -12.945   1.069  0.00  0.00    -0.084 Cl
ATOM     34  C   UNL d   1      28.571 -14.399  -0.076  0.00  0.00     0.024 C 
ATOM     35  C   UNL d   1      29.480 -14.713  -1.078  0.00  0.00     0.003 C 
ATOM     36  C   UNL d   1      29.976 -13.705  -1.894  0.00  0.00     0.024 C 
ATOM     37  C   UNL d   1      29.426 -12.427  -1.826  0.00  0.00     0.042 C 
ATOM     38 CL   UNL d   1      30.199 -11.197  -2.771  0.00  0.00    -0.084 Cl
ENDBRANCH  30  31
ENDBRANCH  29  30
ENDBRANCH  26  29
ENDBRANCH   1  22
TORSDOF 9
ENDMDL
MODEL 8
REMARK VINA RESULT:    -7.753      6.017     10.450
REMARK INTER + INTRA:         -14.293
REMARK INTER:                 -10.437
REMARK INTRA:                  -3.856
REMARK CONF_INDEPENDENT:        2.685
REMARK UNBOUND:                -3.856
REMARK  9 active torsions:
REMARK  status: ('A' for Active; 'I' for Inactive)
REMARK    1  A    between atoms: C_2  and  O_5 
REMARK    2  A    between atoms: O_5  and  C_6 
REMARK       I    between atoms: C_6  and  N_8 
REMARK    3  A    between atoms: N_8  and  C_9 
REMARK    4  A    between atoms: C_9  and  C_10 
REMARK    5  A    between atoms: C_9  and  C_20 
REMARK    6  A    between atoms: C_10  and  C_11 
REMARK    7  A    between atoms: C_23  and  S_24 
REMARK    8  A    between atoms: S_24  and  C_25 
REMARK    9  A    between atoms: C_25  and  C_26 
ROOT
ATOM      1  C   UNL d   1      29.325 -16.140  -3.717  0.00  0.00     0.135 C 
ENDROOT
BRANCH   1   2
ATOM      2  N   UNL d   1      28.245 -15.049  -3.770  0.00  0.00    -0.328 N 
ATOM      3  C   UNL d   1      27.449 -14.777  -4.868  0.00  0.00     0.361 C 
ATOM      4  O   UNL d   1      27.709 -15.202  -5.957  0.00  0.00    -0.238 OA
ATOM      5  H   UNL d   1      28.059 -14.537  -2.917  0.00  0.00     0.165 HD
BRANCH   3   6
ATOM      6  O   UNL d   1      26.326 -14.021  -4.753  0.00  0.00    -0.294 OA
BRANCH   6   7
ATOM      7  C   UNL d   1      26.624 -12.564  -4.566  0.00  0.00     0.061 C 
ATOM      8  C   UNL d   1      25.537 -12.032  -3.640  0.00  0.00     0.046 C 
ATOM      9  C   UNL d   1      26.537 -11.826  -5.921  0.00  0.00     0.046 C 
ATOM     10  C   UNL d   1      27.983 -12.182  -3.879  0.00  0.00     0.046 C 
ENDBRANCH   6   7
ENDBRANCH   3   6
ENDBRANCH   1   2
BRANCH   1  11
ATOM     11  C   UNL d   1      30.533 -15.894  -4.662  0.00  0.00     0.066 C 
BRANCH  11  12
ATOM     12  C   UNL d   1      30.629 -16.782  -5.856  0.00  0.00    -0.048 C 
ATOM     13  C   UNL d   1      30.721 -18.115  -5.815  0.00  0.00    -0.006 A 
ATOM     14  C   UNL d   1      30.568 -19.073  -4.772  0.00  0.00     0.014 A 
ATOM     15  C   UNL d   1      31.066 -18.514  -7.193  0.00  0.00     0.038 A 
ATOM     16  C   UNL d   1      30.603 -20.375  -5.097  0.00  0.00     0.001 A 
ATOM     17  C   UNL d   1      30.909 -20.809  -6.452  0.00  0.00     0.002 A 
ATOM     18  C   UNL d   1      31.192 -19.962  -7.463  0.00  0.00     0.030 A 
ATOM     19  N   UNL d   1      31.180 -17.509  -7.978  0.00  0.00    -0.385 N 
ATOM     20  C   UNL d   1      30.808 -16.258  -7.272  0.00  0.00     0.155 C 
ATOM     21  H   UNL d   1      31.583 -17.560  -8.910  0.00  0.00     0.160 HD
ENDBRANCH  11  12
ENDBRANCH   1  11
BRANCH   1  22
ATOM     22  C   UNL d   1      29.919 -16.342  -2.275  0.00  0.00     0.233 C 
ATOM     23  N   UNL d   1      29.360 -17.472  -1.509  0.00  0.00    -0.228 NA
ATOM     24  N   UNL d   1      29.272 -16.993  -0.133  0.00  0.00    -0.222 NA
ATOM     25  H   UNL d   1      29.965 -18.294  -1.582  0.00  0.00     0.143 HD
ATOM     26  C   UNL d   1      29.814 -15.643  -0.153  0.00  0.00     0.275 C 
ATOM     27  H   UNL d   1      29.790 -17.544   0.558  0.00  0.00     0.144 HD
ATOM     28  O   UNL d   1      29.713 -15.177  -1.498  0.00  0.00    -0.338 OA
BRANCH  26  29
ATOM     29  S   UNL d   1      29.025 -14.586   1.048  0.00  0.00    -0.116 SA
BRANCH  29  30
ATOM     30  C   UNL d   1      27.512 -15.558   1.290  0.00  0.00     0.120 C 
BRANCH  30  31
ATOM     31  C   UNL d   1      26.674 -15.676   0.054  0.00  0.00    -0.005 C 
ATOM     32  C   UNL d   1      26.320 -14.546  -0.700  0.00  0.00     0.042 C 
ATOM     33 CL   UNL d   1      26.721 -12.930  -0.223  0.00  0.00    -0.084 Cl
ATOM     34  C   UNL d   1      25.638 -14.689  -1.903  0.00  0.00     0.024 C 
ATOM     35  C   UNL d   1      25.436 -15.955  -2.437  0.00  0.00     0.003 C 
ATOM     36  C   UNL d   1      25.635 -17.075  -1.641  0.00  0.00     0.024 C 
ATOM     37  C   UNL d   1      26.208 -16.934  -0.380  0.00  0.00     0.042 C 
ATOM     38 CL   UNL d   1      26.285 -18.359   0.603  0.00  0.00    -0.084 Cl
ENDBRANCH  30  31
ENDBRANCH  29  30
ENDBRANCH  26  29
ENDBRANCH   1  22
TORSDOF 9
ENDMDL
MODEL 9
REMARK VINA RESULT:    -7.730      6.013     10.552
REMARK INTER + INTRA:         -14.127
REMARK INTER:                 -10.415
REMARK INTRA:                  -3.712
REMARK CONF_INDEPENDENT:        2.685
REMARK UNBOUND:                -3.712
REMARK  9 active torsions:
REMARK  status: ('A' for Active; 'I' for Inactive)
REMARK    1  A    between atoms: C_2  and  O_5 
REMARK    2  A    between atoms: O_5  and  C_6 
REMARK       I    between atoms: C_6  and  N_8 
REMARK    3  A    between atoms: N_8  and  C_9 
REMARK    4  A    between atoms: C_9  and  C_10 
REMARK    5  A    between atoms: C_9  and  C_20 
REMARK    6  A    between atoms: C_10  and  C_11 
REMARK    7  A    between atoms: C_23  and  S_24 
REMARK    8  A    between atoms: S_24  and  C_25 
REMARK    9  A    between atoms: C_25  and  C_26 
ROOT
ATOM      1  C   UNL d   1      29.127 -16.337  -3.600  0.00  0.00     0.135 C 
ENDROOT
BRANCH   1   2
ATOM      2  N   UNL d   1      28.294 -15.061  -3.795  0.00  0.00    -0.328 N 
ATOM      3  C   UNL d   1      27.377 -14.864  -4.811  0.00  0.00     0.361 C 
ATOM      4  O   UNL d   1      27.339 -15.575  -5.774  0.00  0.00    -0.238 OA
ATOM      5  H   UNL d   1      28.377 -14.340  -3.090  0.00  0.00     0.165 HD
BRANCH   3   6
ATOM      6  O   UNL d   1      26.468 -13.856  -4.752  0.00  0.00    -0.294 OA
BRANCH   6   7
ATOM      7  C   UNL d   1      27.074 -12.511  -5.022  0.00  0.00     0.061 C 
ATOM      8  C   UNL d   1      25.905 -11.537  -5.107  0.00  0.00     0.046 C 
ATOM      9  C   UNL d   1      27.817 -12.526  -6.376  0.00  0.00     0.046 C 
ATOM     10  C   UNL d   1      28.036 -11.916  -3.934  0.00  0.00     0.046 C 
ENDBRANCH   6   7
ENDBRANCH   3   6
ENDBRANCH   1   2
BRANCH   1  11
ATOM     11  C   UNL d   1      30.256 -16.534  -4.649  0.00  0.00     0.066 C 
BRANCH  11  12
ATOM     12  C   UNL d   1      30.660 -17.943  -4.927  0.00  0.00    -0.048 C 
ATOM     13  C   UNL d   1      30.814 -18.469  -6.146  0.00  0.00    -0.006 A 
ATOM     14  C   UNL d   1      30.854 -17.909  -7.455  0.00  0.00     0.014 A 
ATOM     15  C   UNL d   1      30.940 -19.922  -5.919  0.00  0.00     0.038 A 
ATOM     16  C   UNL d   1      31.155 -18.718  -8.482  0.00  0.00     0.001 A 
ATOM     17  C   UNL d   1      31.319 -20.152  -8.295  0.00  0.00     0.002 A 
ATOM     18  C   UNL d   1      31.169 -20.772  -7.106  0.00  0.00     0.030 A 
ATOM     19  N   UNL d   1      30.859 -20.230  -4.678  0.00  0.00    -0.385 N 
ATOM     20  C   UNL d   1      30.780 -19.005  -3.846  0.00  0.00     0.155 C 
ATOM     21  H   UNL d   1      30.743 -21.181  -4.337  0.00  0.00     0.160 HD
ENDBRANCH  11  12
ENDBRANCH   1  11
BRANCH   1  22
ATOM     22  C   UNL d   1      29.813 -16.408  -2.186  0.00  0.00     0.233 C 
ATOM     23  N   UNL d   1      29.368 -17.514  -1.318  0.00  0.00    -0.228 NA
ATOM     24  N   UNL d   1      29.330 -16.950   0.028  0.00  0.00    -0.222 NA
ATOM     25  H   UNL d   1      30.018 -18.303  -1.375  0.00  0.00     0.143 HD
ATOM     26  C   UNL d   1      29.786 -15.576  -0.111  0.00  0.00     0.275 C 
ATOM     27  H   UNL d   1      29.918 -17.424   0.720  0.00  0.00     0.144 HD
ATOM     28  O   UNL d   1      29.581 -15.208  -1.473  0.00  0.00    -0.338 OA
BRANCH  26  29
ATOM     29  S   UNL d   1      29.004 -14.487   1.067  0.00  0.00    -0.116 SA
BRANCH  29  30
ATOM     30  C   UNL d   1      27.409 -15.342   1.184  0.00  0.00     0.120 C 
BRANCH  30  31
ATOM     31  C   UNL d   1      26.703 -15.473  -0.131  0.00  0.00    -0.005 C 
ATOM     32  C   UNL d   1      26.256 -16.718  -0.600  0.00  0.00     0.042 C 
ATOM     33 CL   UNL d   1      26.567 -18.206   0.230  0.00  0.00    -0.084 Cl
ATOM     34  C   UNL d   1      25.504 -16.802  -1.767  0.00  0.00     0.024 C 
ATOM     35  C   UNL d   1      25.067 -15.641  -2.392  0.00  0.00     0.003 C 
ATOM     36  C   UNL d   1      25.623 -14.419  -2.038  0.00  0.00     0.024 C 
ATOM     37  C   UNL d   1      26.477 -14.341  -0.940  0.00  0.00     0.042 C 
ATOM     38 CL   UNL d   1      27.240 -12.811  -0.658  0.00  0.00    -0.084 Cl
ENDBRANCH  30  31
ENDBRANCH  29  30
ENDBRANCH  26  29
ENDBRANCH   1  22
TORSDOF 9
ENDMDL
