MODEL 1
REMARK VINA RESULT:   -11.936      0.000      0.000
REMARK INTER + INTRA:         -12.776
REMARK INTER:                 -14.322
REMARK INTRA:                   1.546
REMARK CONF_INDEPENDENT:        2.386
REMARK UNBOUND:                 1.546
REMARK  8 active torsions:
REMARK  status: ('A' for Active; 'I' for Inactive)
REMARK       I    between atoms: N_1  and  C_2 
REMARK    1  A    between atoms: C_2  and  C_4 
REMARK    2  A    between atoms: C_7  and  C_8 
REMARK       I    between atoms: C_8  and  N_10 
REMARK    3  A    between atoms: N_10  and  C_11 
REMARK    4  A    between atoms: N_10  and  C_21 
REMARK    5  A    between atoms: C_11  and  C_12 
REMARK       I    between atoms: C_12  and  N_14 
REMARK    6  A    between atoms: N_14  and  C_15 
REMARK    7  A    between atoms: C_25  and  C_26 
REMARK    8  A    between atoms: C_31  and  N_32 
ROOT
ATOM      1  C   UNL d   1      23.811 -17.671  -1.960  0.00  0.00     0.269 C 
ATOM      2  O   UNL d   1      24.109 -18.201  -3.044  0.00  0.00    -0.266 OA
ATOM      3  N   UNL d   1      24.915 -16.761  -1.251  0.00  0.00    -0.304 N 
ENDROOT
BRANCH   3   4
ATOM      4  C   UNL d   1      24.695 -15.686   0.141  0.00  0.00     0.235 C 
BRANCH   4   5
ATOM      5  C   UNL d   1      25.863 -14.856   0.113  0.00  0.00     0.236 C 
ATOM      6  O   UNL d   1      26.202 -15.913   0.657  0.00  0.00    -0.272 OA
ATOM      7  N   UNL d   1      26.336 -13.665   0.683  0.00  0.00    -0.355 N 
ATOM      8  H   UNL d   1      25.721 -13.040   1.170  0.00  0.00     0.162 HD
BRANCH   7   9
ATOM      9  C   UNL d   1      27.847 -13.368   1.305  0.00  0.00     0.084 C 
ATOM     10  C   UNL d   1      29.063 -14.871   1.004  0.00  0.00     0.025 C 
ATOM     11  C   UNL d   1      30.633 -14.714   2.064  0.00  0.00     0.002 C 
ATOM     12  C   UNL d   1      31.387 -13.020   2.460  0.00  0.00     0.000 C 
ATOM     13  C   UNL d   1      30.396 -11.610   2.758  0.00  0.00     0.002 C 
ATOM     14  C   UNL d   1      28.884 -11.512   1.572  0.00  0.00     0.025 C 
ENDBRANCH   7   9
ENDBRANCH   4   5
ENDBRANCH   3   4
BRANCH   3  15
ATOM     15  C   UNL d   1      25.880 -16.090  -2.001  0.00  0.00     0.038 C 
ATOM     16  C   UNL d   1      27.164 -16.619  -1.843  0.00  0.00     0.030 C 
ATOM     17  C   UNL d   1      28.239 -16.076  -2.477  0.00  0.00     0.003 C 
ATOM     18  C   UNL d   1      27.992 -15.067  -3.383  0.00  0.00     0.016 C 
ATOM     19  C   UNL d   1      26.724 -14.459  -3.471  0.00  0.00     0.050 C 
ATOM     20  C   UNL d   1      25.659 -14.946  -2.731  0.00  0.00     0.046 C 
BRANCH  19  21
ATOM     21  C   UNL d   1      26.509 -13.289  -4.368  0.00  0.00     0.417 C 
ATOM     22  F   UNL d   1      26.935 -13.548  -5.633  0.00  0.00    -0.166 F 
ATOM     23  F   UNL d   1      25.196 -12.954  -4.457  0.00  0.00    -0.166 F 
ATOM     24  F   UNL d   1      27.170 -12.170  -3.967  0.00  0.00    -0.166 F 
ENDBRANCH  19  21
ENDBRANCH   3  15
BRANCH   1  25
ATOM     25  C   UNL d   1      22.445 -18.035  -1.268  0.00  0.00     0.115 C 
ATOM     26  S   UNL d   1      20.885 -17.417  -1.692  0.00  0.00     0.019 SA
ATOM     27  N   UNL d   1      19.904 -18.577  -0.895  0.00  0.00    -0.203 NA
ATOM     28  C   UNL d   1      20.681 -19.473  -0.241  0.00  0.00     0.155 C 
ATOM     29  C   UNL d   1      22.129 -18.789  -0.118  0.00  0.00     0.065 C 
BRANCH  28  30
ATOM     30  C   UNL d   1      20.046 -20.564   1.090  0.00  0.00     0.270 C 
ATOM     31  N   UNL d   1      18.475 -21.520   0.738  0.00  0.00    -0.365 N 
ATOM     32  H   UNL d   1      17.878 -22.287   1.091  0.00  0.00     0.159 HD
ATOM     33  H   UNL d   1      17.731 -21.210   0.025  0.00  0.00     0.159 HD
ATOM     34  O   UNL d   1      20.637 -20.448   2.185  0.00  0.00    -0.266 OA
ENDBRANCH  28  30
BRANCH  29  35
ATOM     35  N   UNL d   1      23.121 -18.950   1.274  0.00  0.00    -0.299 NA
ATOM     36  H   UNL d   1      22.543 -18.915   2.116  0.00  0.00     0.124 HD
ATOM     37  H   UNL d   1      23.419 -17.993   1.567  0.00  0.00     0.124 HD
ENDBRANCH  29  35
ENDBRANCH   1  25
TORSDOF 8
ENDMDL
