MODEL 1
REMARK VINA RESULT:    -8.161      0.000      0.000
REMARK INTER + INTRA:         -12.835
REMARK INTER:                 -10.845
REMARK INTRA:                  -1.990
REMARK CONF_INDEPENDENT:        2.685
REMARK UNBOUND:                -1.990
REMARK  9 active torsions:
REMARK  status: ('A' for Active; 'I' for Inactive)
REMARK    1  A    between atoms: O_2  and  C_3 
REMARK    2  A    between atoms: C_5  and  C_6 
REMARK       I    between atoms: C_6  and  N_8 
REMARK    3  A    between atoms: N_8  and  N_9 
REMARK       I    between atoms: N_9  and  C_10 
REMARK    4  A    between atoms: C_10  and  C_12 
REMARK    5  A    between atoms: C_12  and  C_13 
REMARK    6  A    between atoms: C_13  and  C_14 
REMARK       I    between atoms: C_14  and  N_16 
REMARK    7  A    between atoms: N_16  and  C_17 
REMARK    8  A    between atoms: C_26  and  O_27 
REMARK    9  A    between atoms: C_29  and  O_30 
ROOT
ATOM      1  N   UNL d   1      28.798 -15.357  -4.594  0.00  0.00    -0.267 N 
ATOM      2  C   UNL d   1      27.626 -14.780  -5.077  0.00  0.00     0.236 C 
ATOM      3  O   UNL d   1      27.065 -15.200  -6.092  0.00  0.00    -0.272 OA
ATOM      4  H   UNL d   1      29.293 -15.056  -3.755  0.00  0.00     0.190 HD
ENDROOT
BRANCH   1   5
ATOM      5  N   UNL d   1      29.370 -16.453  -5.318  0.00  0.00    -0.263 N 
ATOM      6  C   UNL d   1      30.272 -17.333  -4.714  0.00  0.00     0.270 C 
ATOM      7  O   UNL d   1      30.622 -17.188  -3.533  0.00  0.00    -0.266 OA
ATOM      8  H   UNL d   1      29.012 -16.551  -6.265  0.00  0.00     0.190 HD
BRANCH   6   9
ATOM      9  C   UNL d   1      30.786 -18.523  -5.514  0.00  0.00     0.039 A 
ATOM     10  C   UNL d   1      31.176 -19.729  -4.865  0.00  0.00     0.057 A 
ATOM     11  C   UNL d   1      31.440 -20.943  -5.573  0.00  0.00     0.105 A 
ATOM     12  C   UNL d   1      31.367 -20.906  -6.977  0.00  0.00     0.135 A 
ATOM     13  C   UNL d   1      31.041 -19.686  -7.635  0.00  0.00     0.105 A 
ATOM     14  C   UNL d   1      30.781 -18.513  -6.908  0.00  0.00     0.057 A 
BRANCH  11  15
ATOM     15  O   UNL d   1      31.444 -22.064  -4.764  0.00  0.00    -0.353 OA
ATOM     16  C   UNL d   1      30.436 -22.344  -3.792  0.00  0.00     0.210 C 
ENDBRANCH  11  15
BRANCH  12  17
ATOM     17  O   UNL d   1      31.498 -21.911  -7.874  0.00  0.00    -0.351 OA
ATOM     18  C   UNL d   1      32.632 -22.687  -8.008  0.00  0.00     0.210 C 
ENDBRANCH  12  17
BRANCH  13  19
ATOM     19  O   UNL d   1      30.873 -19.519  -9.005  0.00  0.00    -0.353 OA
ATOM     20  C   UNL d   1      31.999 -19.736  -9.863  0.00  0.00     0.210 C 
ENDBRANCH  13  19
ENDBRANCH   6   9
ENDBRANCH   1   5
BRANCH   2  21
ATOM     21  C   UNL d   1      27.079 -13.599  -4.278  0.00  0.00     0.114 C 
BRANCH  21  22
ATOM     22  C   UNL d   1      26.891 -13.907  -2.769  0.00  0.00     0.112 C 
BRANCH  22  23
ATOM     23  C   UNL d   1      25.657 -14.779  -2.548  0.00  0.00     0.222 C 
ATOM     24  O   UNL d   1      24.774 -14.831  -3.403  0.00  0.00    -0.273 OA
ATOM     25  N   UNL d   1      25.570 -15.433  -1.321  0.00  0.00    -0.326 N 
ATOM     26  H   UNL d   1      26.104 -15.075  -0.537  0.00  0.00     0.169 HD
BRANCH  25  27
ATOM     27  C   UNL d   1      24.540 -16.386  -1.044  0.00  0.00     0.056 A 
ATOM     28  C   UNL d   1      23.192 -16.012  -1.212  0.00  0.00     0.033 A 
ATOM     29  C   UNL d   1      22.154 -16.907  -0.895  0.00  0.00     0.026 A 
ATOM     30  C   UNL d   1      22.455 -18.193  -0.454  0.00  0.00     0.035 A 
ATOM     31 CL   UNL d   1      21.197 -19.327  -0.146  0.00  0.00    -0.084 Cl
ATOM     32  C   UNL d   1      23.776 -18.575  -0.266  0.00  0.00     0.050 A 
ATOM     33  C   UNL d   1      24.813 -17.677  -0.542  0.00  0.00     0.062 A 
ATOM     34 CL   UNL d   1      26.393 -18.200  -0.053  0.00  0.00    -0.082 Cl
ENDBRANCH  25  27
ENDBRANCH  22  23
ENDBRANCH  21  22
ENDBRANCH   2  21
TORSDOF 9
ENDMDL
MODEL 2
REMARK VINA RESULT:    -7.789      0.506      2.350
REMARK INTER + INTRA:         -12.512
REMARK INTER:                 -10.474
REMARK INTRA:                  -2.038
REMARK CONF_INDEPENDENT:        2.685
REMARK UNBOUND:                -2.038
REMARK  9 active torsions:
REMARK  status: ('A' for Active; 'I' for Inactive)
REMARK    1  A    between atoms: O_2  and  C_3 
REMARK    2  A    between atoms: C_5  and  C_6 
REMARK       I    between atoms: C_6  and  N_8 
REMARK    3  A    between atoms: N_8  and  N_9 
REMARK       I    between atoms: N_9  and  C_10 
REMARK    4  A    between atoms: C_10  and  C_12 
REMARK    5  A    between atoms: C_12  and  C_13 
REMARK    6  A    between atoms: C_13  and  C_14 
REMARK       I    between atoms: C_14  and  N_16 
REMARK    7  A    between atoms: N_16  and  C_17 
REMARK    8  A    between atoms: C_26  and  O_27 
REMARK    9  A    between atoms: C_29  and  O_30 
ROOT
ATOM      1  N   UNL d   1      28.835 -15.549  -4.585  0.00  0.00    -0.267 N 
ATOM      2  C   UNL d   1      27.722 -14.864  -5.066  0.00  0.00     0.236 C 
ATOM      3  O   UNL d   1      27.152 -15.200  -6.108  0.00  0.00    -0.272 OA
ATOM      4  H   UNL d   1      29.334 -15.319  -3.726  0.00  0.00     0.190 HD
ENDROOT
BRANCH   1   5
ATOM      5  N   UNL d   1      29.337 -16.657  -5.342  0.00  0.00    -0.263 N 
ATOM      6  C   UNL d   1      30.176 -17.612  -4.764  0.00  0.00     0.270 C 
ATOM      7  O   UNL d   1      30.530 -17.528  -3.577  0.00  0.00    -0.266 OA
ATOM      8  H   UNL d   1      28.978 -16.702  -6.292  0.00  0.00     0.190 HD
BRANCH   6   9
ATOM      9  C   UNL d   1      30.615 -18.809  -5.599  0.00  0.00     0.039 A 
ATOM     10  C   UNL d   1      30.725 -18.714  -7.015  0.00  0.00     0.057 A 
ATOM     11  C   UNL d   1      31.350 -19.720  -7.816  0.00  0.00     0.105 A 
ATOM     12  C   UNL d   1      31.814 -20.877  -7.162  0.00  0.00     0.135 A 
ATOM     13  C   UNL d   1      31.648 -21.006  -5.754  0.00  0.00     0.105 A 
ATOM     14  C   UNL d   1      31.035 -19.994  -4.997  0.00  0.00     0.057 A 
BRANCH  11  15
ATOM     15  O   UNL d   1      31.678 -19.289  -9.088  0.00  0.00    -0.353 OA
ATOM     16  C   UNL d   1      32.834 -18.505  -9.385  0.00  0.00     0.210 C 
ENDBRANCH  11  15
BRANCH  12  17
ATOM     17  O   UNL d   1      32.495 -21.934  -7.661  0.00  0.00    -0.351 OA
ATOM     18  C   UNL d   1      32.280 -22.473  -8.914  0.00  0.00     0.210 C 
ENDBRANCH  12  17
BRANCH  13  19
ATOM     19  O   UNL d   1      32.110 -22.059  -4.972  0.00  0.00    -0.353 OA
ATOM     20  C   UNL d   1      31.155 -22.846  -4.253  0.00  0.00     0.210 C 
ENDBRANCH  13  19
ENDBRANCH   6   9
ENDBRANCH   1   5
BRANCH   2  21
ATOM     21  C   UNL d   1      27.249 -13.676  -4.231  0.00  0.00     0.114 C 
BRANCH  21  22
ATOM     22  C   UNL d   1      27.049 -14.015  -2.730  0.00  0.00     0.112 C 
BRANCH  22  23
ATOM     23  C   UNL d   1      25.813 -14.890  -2.538  0.00  0.00     0.222 C 
ATOM     24  O   UNL d   1      25.000 -15.024  -3.451  0.00  0.00    -0.273 OA
ATOM     25  N   UNL d   1      25.639 -15.452  -1.274  0.00  0.00    -0.326 N 
ATOM     26  H   UNL d   1      26.106 -15.025  -0.482  0.00  0.00     0.169 HD
BRANCH  25  27
ATOM     27  C   UNL d   1      24.603 -16.399  -1.005  0.00  0.00     0.056 A 
ATOM     28  C   UNL d   1      23.259 -16.027  -1.204  0.00  0.00     0.033 A 
ATOM     29  C   UNL d   1      22.214 -16.917  -0.895  0.00  0.00     0.026 A 
ATOM     30  C   UNL d   1      22.505 -18.197  -0.430  0.00  0.00     0.035 A 
ATOM     31 CL   UNL d   1      21.240 -19.325  -0.131  0.00  0.00    -0.084 Cl
ATOM     32  C   UNL d   1      23.821 -18.576  -0.210  0.00  0.00     0.050 A 
ATOM     33  C   UNL d   1      24.865 -17.684  -0.479  0.00  0.00     0.062 A 
ATOM     34 CL   UNL d   1      26.434 -18.200   0.049  0.00  0.00    -0.082 Cl
ENDBRANCH  25  27
ENDBRANCH  22  23
ENDBRANCH  21  22
ENDBRANCH   2  21
TORSDOF 9
ENDMDL
MODEL 3
REMARK VINA RESULT:    -7.542      8.710     12.444
REMARK INTER + INTRA:         -12.893
REMARK INTER:                 -10.227
REMARK INTRA:                  -2.666
REMARK CONF_INDEPENDENT:        2.685
REMARK UNBOUND:                -2.666
REMARK  9 active torsions:
REMARK  status: ('A' for Active; 'I' for Inactive)
REMARK    1  A    between atoms: O_2  and  C_3 
REMARK    2  A    between atoms: C_5  and  C_6 
REMARK       I    between atoms: C_6  and  N_8 
REMARK    3  A    between atoms: N_8  and  N_9 
REMARK       I    between atoms: N_9  and  C_10 
REMARK    4  A    between atoms: C_10  and  C_12 
REMARK    5  A    between atoms: C_12  and  C_13 
REMARK    6  A    between atoms: C_13  and  C_14 
REMARK       I    between atoms: C_14  and  N_16 
REMARK    7  A    between atoms: N_16  and  C_17 
REMARK    8  A    between atoms: C_26  and  O_27 
REMARK    9  A    between atoms: C_29  and  O_30 
ROOT
ATOM      1  N   UNL d   1      30.059 -14.779   3.495  0.00  0.00    -0.267 N 
ATOM      2  C   UNL d   1      31.072 -14.575   2.562  0.00  0.00     0.236 C 
ATOM      3  O   UNL d   1      32.081 -13.919   2.831  0.00  0.00    -0.272 OA
ATOM      4  H   UNL d   1      29.212 -15.322   3.327  0.00  0.00     0.190 HD
ENDROOT
BRANCH   1   5
ATOM      5  N   UNL d   1      30.194 -14.187   4.792  0.00  0.00    -0.263 N 
ATOM      6  C   UNL d   1      29.142 -14.197   5.711  0.00  0.00     0.270 C 
ATOM      7  O   UNL d   1      28.046 -14.708   5.431  0.00  0.00    -0.266 OA
ATOM      8  H   UNL d   1      31.125 -13.826   4.984  0.00  0.00     0.190 HD
BRANCH   6   9
ATOM      9  C   UNL d   1      29.371 -13.619   7.101  0.00  0.00     0.039 A 
ATOM     10  C   UNL d   1      29.328 -12.214   7.327  0.00  0.00     0.057 A 
ATOM     11  C   UNL d   1      29.303 -11.636   8.635  0.00  0.00     0.105 A 
ATOM     12  C   UNL d   1      29.389 -12.511   9.734  0.00  0.00     0.135 A 
ATOM     13  C   UNL d   1      29.498 -13.913   9.513  0.00  0.00     0.105 A 
ATOM     14  C   UNL d   1      29.513 -14.447   8.214  0.00  0.00     0.057 A 
BRANCH  11  15
ATOM     15  O   UNL d   1      28.900 -10.314   8.648  0.00  0.00    -0.353 OA
ATOM     16  C   UNL d   1      29.320  -9.348   7.682  0.00  0.00     0.210 C 
ENDBRANCH  11  15
BRANCH  12  17
ATOM     17  O   UNL d   1      29.316 -12.241  11.058  0.00  0.00    -0.351 OA
ATOM     18  C   UNL d   1      28.240 -12.568  11.858  0.00  0.00     0.210 C 
ENDBRANCH  12  17
BRANCH  13  19
ATOM     19  O   UNL d   1      29.527 -14.894  10.498  0.00  0.00    -0.353 OA
ATOM     20  C   UNL d   1      30.509 -15.931  10.400  0.00  0.00     0.210 C 
ENDBRANCH  13  19
ENDBRANCH   6   9
ENDBRANCH   1   5
BRANCH   2  21
ATOM     21  C   UNL d   1      30.860 -15.209   1.189  0.00  0.00     0.114 C 
BRANCH  21  22
ATOM     22  C   UNL d   1      29.758 -14.512   0.349  0.00  0.00     0.112 C 
BRANCH  22  23
ATOM     23  C   UNL d   1      28.414 -15.209   0.541  0.00  0.00     0.222 C 
ATOM     24  O   UNL d   1      27.857 -15.191   1.638  0.00  0.00    -0.273 OA
ATOM     25  N   UNL d   1      27.911 -15.906  -0.557  0.00  0.00    -0.326 N 
ATOM     26  H   UNL d   1      28.554 -16.201  -1.283  0.00  0.00     0.169 HD
BRANCH  25  27
ATOM     27  C   UNL d   1      26.603 -16.481  -0.551  0.00  0.00     0.056 A 
ATOM     28  C   UNL d   1      26.353 -17.618   0.243  0.00  0.00     0.033 A 
ATOM     29  C   UNL d   1      25.091 -18.241   0.226  0.00  0.00     0.026 A 
ATOM     30  C   UNL d   1      24.061 -17.708  -0.544  0.00  0.00     0.035 A 
ATOM     31 CL   UNL d   1      22.490 -18.409  -0.505  0.00  0.00    -0.084 Cl
ATOM     32  C   UNL d   1      24.292 -16.599  -1.346  0.00  0.00     0.050 A 
ATOM     33  C   UNL d   1      25.555 -15.997  -1.365  0.00  0.00     0.062 A 
ATOM     34 CL   UNL d   1      25.770 -14.769  -2.571  0.00  0.00    -0.082 Cl
ENDBRANCH  25  27
ENDBRANCH  22  23
ENDBRANCH  21  22
ENDBRANCH   2  21
TORSDOF 9
ENDMDL
MODEL 4
REMARK VINA RESULT:    -7.539      1.739      2.933
REMARK INTER + INTRA:         -12.135
REMARK INTER:                 -10.224
REMARK INTRA:                  -1.911
REMARK CONF_INDEPENDENT:        2.685
REMARK UNBOUND:                -1.911
REMARK  9 active torsions:
REMARK  status: ('A' for Active; 'I' for Inactive)
REMARK    1  A    between atoms: O_2  and  C_3 
REMARK    2  A    between atoms: C_5  and  C_6 
REMARK       I    between atoms: C_6  and  N_8 
REMARK    3  A    between atoms: N_8  and  N_9 
REMARK       I    between atoms: N_9  and  C_10 
REMARK    4  A    between atoms: C_10  and  C_12 
REMARK    5  A    between atoms: C_12  and  C_13 
REMARK    6  A    between atoms: C_13  and  C_14 
REMARK       I    between atoms: C_14  and  N_16 
REMARK    7  A    between atoms: N_16  and  C_17 
REMARK    8  A    between atoms: C_26  and  O_27 
REMARK    9  A    between atoms: C_29  and  O_30 
ROOT
ATOM      1  N   UNL d   1      28.701 -14.524  -5.457  0.00  0.00    -0.267 N 
ATOM      2  C   UNL d   1      27.350 -14.599  -5.125  0.00  0.00     0.236 C 
ATOM      3  O   UNL d   1      26.639 -15.532  -5.504  0.00  0.00    -0.272 OA
ATOM      4  H   UNL d   1      29.333 -13.781  -5.160  0.00  0.00     0.190 HD
ENDROOT
BRANCH   1   5
ATOM      5  N   UNL d   1      29.262 -15.553  -6.280  0.00  0.00    -0.263 N 
ATOM      6  C   UNL d   1      30.629 -15.596  -6.561  0.00  0.00     0.270 C 
ATOM      7  O   UNL d   1      31.406 -14.735  -6.119  0.00  0.00    -0.266 OA
ATOM      8  H   UNL d   1      28.588 -16.256  -6.574  0.00  0.00     0.190 HD
BRANCH   6   9
ATOM      9  C   UNL d   1      31.177 -16.759  -7.379  0.00  0.00     0.039 A 
ATOM     10  C   UNL d   1      32.190 -16.554  -8.358  0.00  0.00     0.057 A 
ATOM     11  C   UNL d   1      32.899 -17.628  -8.981  0.00  0.00     0.105 A 
ATOM     12  C   UNL d   1      32.518 -18.940  -8.644  0.00  0.00     0.135 A 
ATOM     13  C   UNL d   1      31.461 -19.151  -7.715  0.00  0.00     0.105 A 
ATOM     14  C   UNL d   1      30.790 -18.072  -7.116  0.00  0.00     0.057 A 
BRANCH  11  15
ATOM     15  O   UNL d   1      34.063 -17.230  -9.611  0.00  0.00    -0.353 OA
ATOM     16  C   UNL d   1      34.644 -15.934  -9.458  0.00  0.00     0.210 C 
ENDBRANCH  11  15
BRANCH  12  17
ATOM     17  O   UNL d   1      33.061 -20.119  -9.027  0.00  0.00    -0.351 OA
ATOM     18  C   UNL d   1      32.359 -21.126  -9.660  0.00  0.00     0.210 C 
ENDBRANCH  12  17
BRANCH  13  19
ATOM     19  O   UNL d   1      31.023 -20.385  -7.245  0.00  0.00    -0.353 OA
ATOM     20  C   UNL d   1      30.422 -20.447  -5.947  0.00  0.00     0.210 C 
ENDBRANCH  13  19
ENDBRANCH   6   9
ENDBRANCH   1   5
BRANCH   2  21
ATOM     21  C   UNL d   1      26.804 -13.459  -4.267  0.00  0.00     0.114 C 
BRANCH  21  22
ATOM     22  C   UNL d   1      26.714 -13.809  -2.758  0.00  0.00     0.112 C 
BRANCH  22  23
ATOM     23  C   UNL d   1      25.481 -14.665  -2.478  0.00  0.00     0.222 C 
ATOM     24  O   UNL d   1      24.493 -14.587  -3.206  0.00  0.00    -0.273 OA
ATOM     25  N   UNL d   1      25.525 -15.462  -1.335  0.00  0.00    -0.326 N 
ATOM     26  H   UNL d   1      26.171 -15.217  -0.593  0.00  0.00     0.169 HD
BRANCH  25  27
ATOM     27  C   UNL d   1      24.497 -16.410  -1.036  0.00  0.00     0.056 A 
ATOM     28  C   UNL d   1      23.149 -16.051  -1.231  0.00  0.00     0.033 A 
ATOM     29  C   UNL d   1      22.113 -16.941  -0.893  0.00  0.00     0.026 A 
ATOM     30  C   UNL d   1      22.417 -18.209  -0.405  0.00  0.00     0.035 A 
ATOM     31 CL   UNL d   1      21.163 -19.340  -0.072  0.00  0.00    -0.084 Cl
ATOM     32  C   UNL d   1      23.738 -18.576  -0.190  0.00  0.00     0.050 A 
ATOM     33  C   UNL d   1      24.773 -17.682  -0.487  0.00  0.00     0.062 A 
ATOM     34 CL   UNL d   1      26.350 -18.177   0.036  0.00  0.00    -0.082 Cl
ENDBRANCH  25  27
ENDBRANCH  22  23
ENDBRANCH  21  22
ENDBRANCH   2  21
TORSDOF 9
ENDMDL
MODEL 5
REMARK VINA RESULT:    -7.385      8.697     12.283
REMARK INTER + INTRA:         -12.755
REMARK INTER:                 -10.070
REMARK INTRA:                  -2.685
REMARK CONF_INDEPENDENT:        2.685
REMARK UNBOUND:                -2.685
REMARK  9 active torsions:
REMARK  status: ('A' for Active; 'I' for Inactive)
REMARK    1  A    between atoms: O_2  and  C_3 
REMARK    2  A    between atoms: C_5  and  C_6 
REMARK       I    between atoms: C_6  and  N_8 
REMARK    3  A    between atoms: N_8  and  N_9 
REMARK       I    between atoms: N_9  and  C_10 
REMARK    4  A    between atoms: C_10  and  C_12 
REMARK    5  A    between atoms: C_12  and  C_13 
REMARK    6  A    between atoms: C_13  and  C_14 
REMARK       I    between atoms: C_14  and  N_16 
REMARK    7  A    between atoms: N_16  and  C_17 
REMARK    8  A    between atoms: C_26  and  O_27 
REMARK    9  A    between atoms: C_29  and  O_30 
ROOT
ATOM      1  N   UNL d   1      30.024 -14.825   3.620  0.00  0.00    -0.267 N 
ATOM      2  C   UNL d   1      31.066 -14.490   2.759  0.00  0.00     0.236 C 
ATOM      3  O   UNL d   1      31.946 -13.689   3.084  0.00  0.00    -0.272 OA
ATOM      4  H   UNL d   1      29.280 -15.488   3.404  0.00  0.00     0.190 HD
ENDROOT
BRANCH   1   5
ATOM      5  N   UNL d   1      29.972 -14.198   4.907  0.00  0.00    -0.263 N 
ATOM      6  C   UNL d   1      28.836 -14.289   5.716  0.00  0.00     0.270 C 
ATOM      7  O   UNL d   1      27.825 -14.904   5.342  0.00  0.00    -0.266 OA
ATOM      8  H   UNL d   1      30.843 -13.749   5.181  0.00  0.00     0.190 HD
BRANCH   6   9
ATOM      9  C   UNL d   1      28.870 -13.665   7.105  0.00  0.00     0.039 A 
ATOM     10  C   UNL d   1      29.171 -14.450   8.254  0.00  0.00     0.057 A 
ATOM     11  C   UNL d   1      29.444 -13.879   9.536  0.00  0.00     0.105 A 
ATOM     12  C   UNL d   1      29.345 -12.481   9.661  0.00  0.00     0.135 A 
ATOM     13  C   UNL d   1      28.981 -11.696   8.530  0.00  0.00     0.105 A 
ATOM     14  C   UNL d   1      28.725 -12.290   7.283  0.00  0.00     0.057 A 
BRANCH  11  15
ATOM     15  O   UNL d   1      30.058 -14.756  10.412  0.00  0.00    -0.353 OA
ATOM     16  C   UNL d   1      31.190 -15.556  10.069  0.00  0.00     0.210 C 
ENDBRANCH  11  15
BRANCH  12  17
ATOM     17  O   UNL d   1      29.615 -11.689  10.724  0.00  0.00    -0.351 OA
ATOM     18  C   UNL d   1      29.511 -12.096  12.040  0.00  0.00     0.210 C 
ENDBRANCH  12  17
BRANCH  13  19
ATOM     19  O   UNL d   1      28.905 -10.309   8.491  0.00  0.00    -0.353 OA
ATOM     20  C   UNL d   1      29.293  -9.636   7.288  0.00  0.00     0.210 C 
ENDBRANCH  13  19
ENDBRANCH   6   9
ENDBRANCH   1   5
BRANCH   2  21
ATOM     21  C   UNL d   1      31.054 -15.171   1.392  0.00  0.00     0.114 C 
BRANCH  21  22
ATOM     22  C   UNL d   1      30.016 -14.566   0.409  0.00  0.00     0.112 C 
BRANCH  22  23
ATOM     23  C   UNL d   1      28.655 -15.234   0.587  0.00  0.00     0.222 C 
ATOM     24  O   UNL d   1      28.053 -15.140   1.656  0.00  0.00    -0.273 OA
ATOM     25  N   UNL d   1      28.189 -15.993  -0.485  0.00  0.00    -0.326 N 
ATOM     26  H   UNL d   1      28.856 -16.341  -1.163  0.00  0.00     0.169 HD
BRANCH  25  27
ATOM     27  C   UNL d   1      26.873 -16.552  -0.499  0.00  0.00     0.056 A 
ATOM     28  C   UNL d   1      26.555 -17.591   0.398  0.00  0.00     0.033 A 
ATOM     29  C   UNL d   1      25.287 -18.200   0.370  0.00  0.00     0.026 A 
ATOM     30  C   UNL d   1      24.316 -17.745  -0.518  0.00  0.00     0.035 A 
ATOM     31 CL   UNL d   1      22.733 -18.421  -0.501  0.00  0.00    -0.084 Cl
ATOM     32  C   UNL d   1      24.614 -16.734  -1.420  0.00  0.00     0.050 A 
ATOM     33  C   UNL d   1      25.885 -16.150  -1.425  0.00  0.00     0.062 A 
ATOM     34 CL   UNL d   1      26.195 -15.064  -2.742  0.00  0.00    -0.082 Cl
ENDBRANCH  25  27
ENDBRANCH  22  23
ENDBRANCH  21  22
ENDBRANCH   2  21
TORSDOF 9
ENDMDL
MODEL 6
REMARK VINA RESULT:    -7.335      6.978     10.689
REMARK INTER + INTRA:         -12.687
REMARK INTER:                 -10.020
REMARK INTRA:                  -2.667
REMARK CONF_INDEPENDENT:        2.685
REMARK UNBOUND:                -2.667
REMARK  9 active torsions:
REMARK  status: ('A' for Active; 'I' for Inactive)
REMARK    1  A    between atoms: O_2  and  C_3 
REMARK    2  A    between atoms: C_5  and  C_6 
REMARK       I    between atoms: C_6  and  N_8 
REMARK    3  A    between atoms: N_8  and  N_9 
REMARK       I    between atoms: N_9  and  C_10 
REMARK    4  A    between atoms: C_10  and  C_12 
REMARK    5  A    between atoms: C_12  and  C_13 
REMARK    6  A    between atoms: C_13  and  C_14 
REMARK       I    between atoms: C_14  and  N_16 
REMARK    7  A    between atoms: N_16  and  C_17 
REMARK    8  A    between atoms: C_26  and  O_27 
REMARK    9  A    between atoms: C_29  and  O_30 
ROOT
ATOM      1  N   UNL d   1      28.766 -14.862   1.354  0.00  0.00    -0.267 N 
ATOM      2  C   UNL d   1      28.086 -14.400   0.230  0.00  0.00     0.236 C 
ATOM      3  O   UNL d   1      27.236 -13.510   0.304  0.00  0.00    -0.272 OA
ATOM      4  H   UNL d   1      29.483 -15.587   1.344  0.00  0.00     0.190 HD
ENDROOT
BRANCH   1   5
ATOM      5  N   UNL d   1      28.443 -14.296   2.629  0.00  0.00    -0.263 N 
ATOM      6  C   UNL d   1      29.359 -14.308   3.684  0.00  0.00     0.270 C 
ATOM      7  O   UNL d   1      30.480 -14.825   3.559  0.00  0.00    -0.266 OA
ATOM      8  H   UNL d   1      27.531 -13.846   2.660  0.00  0.00     0.190 HD
BRANCH   6   9
ATOM      9  C   UNL d   1      28.985 -13.623   4.992  0.00  0.00     0.039 A 
ATOM     10  C   UNL d   1      29.157 -14.283   6.242  0.00  0.00     0.057 A 
ATOM     11  C   UNL d   1      29.046 -13.610   7.498  0.00  0.00     0.105 A 
ATOM     12  C   UNL d   1      28.689 -12.249   7.479  0.00  0.00     0.135 A 
ATOM     13  C   UNL d   1      28.452 -11.600   6.235  0.00  0.00     0.105 A 
ATOM     14  C   UNL d   1      28.577 -12.289   5.017  0.00  0.00     0.057 A 
BRANCH  11  15
ATOM     15  O   UNL d   1      29.593 -14.317   8.553  0.00  0.00    -0.353 OA
ATOM     16  C   UNL d   1      30.998 -14.486   8.750  0.00  0.00     0.210 C 
ENDBRANCH  11  15
BRANCH  12  17
ATOM     17  O   UNL d   1      28.586 -11.371   8.503  0.00  0.00    -0.351 OA
ATOM     18  C   UNL d   1      29.601 -11.103   9.400  0.00  0.00     0.210 C 
ENDBRANCH  12  17
BRANCH  13  19
ATOM     19  O   UNL d   1      28.155 -10.252   6.062  0.00  0.00    -0.353 OA
ATOM     20  C   UNL d   1      27.974  -9.758   4.731  0.00  0.00     0.210 C 
ENDBRANCH  13  19
ENDBRANCH   6   9
ENDBRANCH   1   5
BRANCH   2  21
ATOM     21  C   UNL d   1      28.454 -15.060  -1.098  0.00  0.00     0.114 C 
BRANCH  21  22
ATOM     22  C   UNL d   1      27.521 -14.656  -2.269  0.00  0.00     0.112 C 
BRANCH  22  23
ATOM     23  C   UNL d   1      26.239 -15.485  -2.245  0.00  0.00     0.222 C 
ATOM     24  O   UNL d   1      25.707 -15.836  -3.297  0.00  0.00    -0.273 OA
ATOM     25  N   UNL d   1      25.691 -15.747  -0.990  0.00  0.00    -0.326 N 
ATOM     26  H   UNL d   1      25.937 -15.143  -0.214  0.00  0.00     0.169 HD
BRANCH  25  27
ATOM     27  C   UNL d   1      24.575 -16.625  -0.822  0.00  0.00     0.056 A 
ATOM     28  C   UNL d   1      23.278 -16.154  -1.105  0.00  0.00     0.033 A 
ATOM     29  C   UNL d   1      22.155 -16.976  -0.895  0.00  0.00     0.026 A 
ATOM     30  C   UNL d   1      22.323 -18.284  -0.448  0.00  0.00     0.035 A 
ATOM     31 CL   UNL d   1      20.966 -19.327  -0.271  0.00  0.00    -0.084 Cl
ATOM     32  C   UNL d   1      23.591 -18.760  -0.147  0.00  0.00     0.050 A 
ATOM     33  C   UNL d   1      24.710 -17.937  -0.316  0.00  0.00     0.062 A 
ATOM     34 CL   UNL d   1      26.198 -18.575   0.305  0.00  0.00    -0.082 Cl
ENDBRANCH  25  27
ENDBRANCH  22  23
ENDBRANCH  21  22
ENDBRANCH   2  21
TORSDOF 9
ENDMDL
MODEL 7
REMARK VINA RESULT:    -6.922      7.405     11.120
REMARK INTER + INTRA:         -12.115
REMARK INTER:                  -9.606
REMARK INTRA:                  -2.509
REMARK CONF_INDEPENDENT:        2.685
REMARK UNBOUND:                -2.509
REMARK  9 active torsions:
REMARK  status: ('A' for Active; 'I' for Inactive)
REMARK    1  A    between atoms: O_2  and  C_3 
REMARK    2  A    between atoms: C_5  and  C_6 
REMARK       I    between atoms: C_6  and  N_8 
REMARK    3  A    between atoms: N_8  and  N_9 
REMARK       I    between atoms: N_9  and  C_10 
REMARK    4  A    between atoms: C_10  and  C_12 
REMARK    5  A    between atoms: C_12  and  C_13 
REMARK    6  A    between atoms: C_13  and  C_14 
REMARK       I    between atoms: C_14  and  N_16 
REMARK    7  A    between atoms: N_16  and  C_17 
REMARK    8  A    between atoms: C_26  and  O_27 
REMARK    9  A    between atoms: C_29  and  O_30 
ROOT
ATOM      1  N   UNL d   1      31.039 -15.200   2.242  0.00  0.00    -0.267 N 
ATOM      2  C   UNL d   1      31.180 -14.498   1.048  0.00  0.00     0.236 C 
ATOM      3  O   UNL d   1      30.976 -13.283   0.980  0.00  0.00    -0.272 OA
ATOM      4  H   UNL d   1      31.206 -16.200   2.353  0.00  0.00     0.190 HD
ENDROOT
BRANCH   1   5
ATOM      5  N   UNL d   1      30.622 -14.485   3.411  0.00  0.00    -0.263 N 
ATOM      6  C   UNL d   1      29.271 -14.346   3.736  0.00  0.00     0.270 C 
ATOM      7  O   UNL d   1      28.381 -14.824   3.016  0.00  0.00    -0.266 OA
ATOM      8  H   UNL d   1      31.393 -14.156   3.988  0.00  0.00     0.190 HD
BRANCH   6   9
ATOM      9  C   UNL d   1      28.894 -13.640   5.033  0.00  0.00     0.039 A 
ATOM     10  C   UNL d   1      29.019 -14.298   6.289  0.00  0.00     0.057 A 
ATOM     11  C   UNL d   1      28.906 -13.614   7.540  0.00  0.00     0.105 A 
ATOM     12  C   UNL d   1      28.595 -12.242   7.506  0.00  0.00     0.135 A 
ATOM     13  C   UNL d   1      28.405 -11.593   6.253  0.00  0.00     0.105 A 
ATOM     14  C   UNL d   1      28.530 -12.294   5.042  0.00  0.00     0.057 A 
BRANCH  11  15
ATOM     15  O   UNL d   1      29.409 -14.332   8.609  0.00  0.00    -0.353 OA
ATOM     16  C   UNL d   1      30.803 -14.489   8.873  0.00  0.00     0.210 C 
ENDBRANCH  11  15
BRANCH  12  17
ATOM     17  O   UNL d   1      28.501 -11.354   8.522  0.00  0.00    -0.351 OA
ATOM     18  C   UNL d   1      29.451 -10.393   8.802  0.00  0.00     0.210 C 
ENDBRANCH  12  17
BRANCH  13  19
ATOM     19  O   UNL d   1      28.156 -10.238   6.067  0.00  0.00    -0.353 OA
ATOM     20  C   UNL d   1      28.032  -9.743   4.729  0.00  0.00     0.210 C 
ENDBRANCH  13  19
ENDBRANCH   6   9
ENDBRANCH   1   5
BRANCH   2  21
ATOM     21  C   UNL d   1      31.601 -15.318  -0.170  0.00  0.00     0.114 C 
BRANCH  21  22
ATOM     22  C   UNL d   1      31.087 -16.782  -0.138  0.00  0.00     0.112 C 
BRANCH  22  23
ATOM     23  C   UNL d   1      29.620 -16.845  -0.556  0.00  0.00     0.222 C 
ATOM     24  O   UNL d   1      29.319 -17.050  -1.731  0.00  0.00    -0.273 OA
ATOM     25  N   UNL d   1      28.678 -16.591   0.440  0.00  0.00    -0.326 N 
ATOM     26  H   UNL d   1      28.965 -16.074   1.263  0.00  0.00     0.169 HD
BRANCH  25  27
ATOM     27  C   UNL d   1      27.276 -16.756   0.212  0.00  0.00     0.056 A 
ATOM     28  C   UNL d   1      26.667 -17.987   0.524  0.00  0.00     0.033 A 
ATOM     29  C   UNL d   1      25.302 -18.200   0.260  0.00  0.00     0.026 A 
ATOM     30  C   UNL d   1      24.528 -17.172  -0.274  0.00  0.00     0.035 A 
ATOM     31 CL   UNL d   1      22.838 -17.390  -0.520  0.00  0.00    -0.084 Cl
ATOM     32  C   UNL d   1      25.113 -15.958  -0.604  0.00  0.00     0.050 A 
ATOM     33  C   UNL d   1      26.478 -15.752  -0.379  0.00  0.00     0.062 A 
ATOM     34 CL   UNL d   1      27.123 -14.283  -1.041  0.00  0.00    -0.082 Cl
ENDBRANCH  25  27
ENDBRANCH  22  23
ENDBRANCH  21  22
ENDBRANCH   2  21
TORSDOF 9
ENDMDL
MODEL 8
REMARK VINA RESULT:    -6.455      5.009      7.950
REMARK INTER + INTRA:         -12.758
REMARK INTER:                  -9.139
REMARK INTRA:                  -3.618
REMARK CONF_INDEPENDENT:        2.685
REMARK UNBOUND:                -3.618
REMARK  9 active torsions:
REMARK  status: ('A' for Active; 'I' for Inactive)
REMARK    1  A    between atoms: O_2  and  C_3 
REMARK    2  A    between atoms: C_5  and  C_6 
REMARK       I    between atoms: C_6  and  N_8 
REMARK    3  A    between atoms: N_8  and  N_9 
REMARK       I    between atoms: N_9  and  C_10 
REMARK    4  A    between atoms: C_10  and  C_12 
REMARK    5  A    between atoms: C_12  and  C_13 
REMARK    6  A    between atoms: C_13  and  C_14 
REMARK       I    between atoms: C_14  and  N_16 
REMARK    7  A    between atoms: N_16  and  C_17 
REMARK    8  A    between atoms: C_26  and  O_27 
REMARK    9  A    between atoms: C_29  and  O_30 
ROOT
ATOM      1  N   UNL d   1      25.242 -11.430  -3.904  0.00  0.00    -0.267 N 
ATOM      2  C   UNL d   1      25.711 -10.180  -3.506  0.00  0.00     0.236 C 
ATOM      3  O   UNL d   1      26.252 -10.008  -2.411  0.00  0.00    -0.272 OA
ATOM      4  H   UNL d   1      24.799 -11.626  -4.801  0.00  0.00     0.190 HD
ENDROOT
BRANCH   1   5
ATOM      5  N   UNL d   1      25.378 -12.532  -3.000  0.00  0.00    -0.263 N 
ATOM      6  C   UNL d   1      25.136 -13.845  -3.411  0.00  0.00     0.270 C 
ATOM      7  O   UNL d   1      24.780 -14.103  -4.571  0.00  0.00    -0.266 OA
ATOM      8  H   UNL d   1      25.717 -12.267  -2.078  0.00  0.00     0.190 HD
BRANCH   6   9
ATOM      9  C   UNL d   1      25.372 -14.981  -2.423  0.00  0.00     0.039 A 
ATOM     10  C   UNL d   1      24.280 -15.672  -1.826  0.00  0.00     0.057 A 
ATOM     11  C   UNL d   1      24.438 -16.883  -1.084  0.00  0.00     0.105 A 
ATOM     12  C   UNL d   1      25.747 -17.364  -0.894  0.00  0.00     0.135 A 
ATOM     13  C   UNL d   1      26.848 -16.642  -1.434  0.00  0.00     0.105 A 
ATOM     14  C   UNL d   1      26.656 -15.458  -2.164  0.00  0.00     0.057 A 
BRANCH  11  15
ATOM     15  O   UNL d   1      23.257 -17.579  -0.902  0.00  0.00    -0.353 OA
ATOM     16  C   UNL d   1      23.070 -18.575   0.104  0.00  0.00     0.210 C 
ENDBRANCH  11  15
BRANCH  12  17
ATOM     17  O   UNL d   1      26.168 -18.505  -0.302  0.00  0.00    -0.351 OA
ATOM     18  C   UNL d   1      26.655 -18.575   0.989  0.00  0.00     0.210 C 
ENDBRANCH  12  17
BRANCH  13  19
ATOM     19  O   UNL d   1      28.183 -17.029  -1.378  0.00  0.00    -0.353 OA
ATOM     20  C   UNL d   1      28.976 -16.589  -0.271  0.00  0.00     0.210 C 
ENDBRANCH  13  19
ENDBRANCH   6   9
ENDBRANCH   1   5
BRANCH   2  21
ATOM     21  C   UNL d   1      25.514  -9.039  -4.501  0.00  0.00     0.114 C 
BRANCH  21  22
ATOM     22  C   UNL d   1      26.302  -9.229  -5.824  0.00  0.00     0.112 C 
BRANCH  22  23
ATOM     23  C   UNL d   1      26.687 -10.694  -6.014  0.00  0.00     0.222 C 
ATOM     24  O   UNL d   1      25.953 -11.450  -6.649  0.00  0.00    -0.273 OA
ATOM     25  N   UNL d   1      27.852 -11.119  -5.380  0.00  0.00    -0.326 N 
ATOM     26  H   UNL d   1      28.201 -10.586  -4.592  0.00  0.00     0.169 HD
BRANCH  25  27
ATOM     27  C   UNL d   1      28.395 -12.425  -5.592  0.00  0.00     0.056 A 
ATOM     28  C   UNL d   1      28.430 -12.953  -6.898  0.00  0.00     0.033 A 
ATOM     29  C   UNL d   1      28.905 -14.256  -7.132  0.00  0.00     0.026 A 
ATOM     30  C   UNL d   1      29.390 -15.021  -6.075  0.00  0.00     0.035 A 
ATOM     31 CL   UNL d   1      30.055 -16.583  -6.360  0.00  0.00    -0.084 Cl
ATOM     32  C   UNL d   1      29.348 -14.525  -4.779  0.00  0.00     0.050 A 
ATOM     33  C   UNL d   1      28.841 -13.245  -4.533  0.00  0.00     0.062 A 
ATOM     34 CL   UNL d   1      28.638 -12.840  -2.858  0.00  0.00    -0.082 Cl
ENDBRANCH  25  27
ENDBRANCH  22  23
ENDBRANCH  21  22
ENDBRANCH   2  21
TORSDOF 9
ENDMDL
MODEL 9
REMARK VINA RESULT:    -6.449      5.095      8.083
REMARK INTER + INTRA:         -12.749
REMARK INTER:                  -9.134
REMARK INTRA:                  -3.616
REMARK CONF_INDEPENDENT:        2.685
REMARK UNBOUND:                -3.616
REMARK  9 active torsions:
REMARK  status: ('A' for Active; 'I' for Inactive)
REMARK    1  A    between atoms: O_2  and  C_3 
REMARK    2  A    between atoms: C_5  and  C_6 
REMARK       I    between atoms: C_6  and  N_8 
REMARK    3  A    between atoms: N_8  and  N_9 
REMARK       I    between atoms: N_9  and  C_10 
REMARK    4  A    between atoms: C_10  and  C_12 
REMARK    5  A    between atoms: C_12  and  C_13 
REMARK    6  A    between atoms: C_13  and  C_14 
REMARK       I    between atoms: C_14  and  N_16 
REMARK    7  A    between atoms: N_16  and  C_17 
REMARK    8  A    between atoms: C_26  and  O_27 
REMARK    9  A    between atoms: C_29  and  O_30 
ROOT
ATOM      1  N   UNL d   1      25.277 -11.562  -3.865  0.00  0.00    -0.267 N 
ATOM      2  C   UNL d   1      25.747 -10.334  -3.407  0.00  0.00     0.236 C 
ATOM      3  O   UNL d   1      26.311 -10.219  -2.317  0.00  0.00    -0.272 OA
ATOM      4  H   UNL d   1      24.815 -11.712  -4.762  0.00  0.00     0.190 HD
ENDROOT
BRANCH   1   5
ATOM      5  N   UNL d   1      25.441 -12.713  -3.028  0.00  0.00    -0.263 N 
ATOM      6  C   UNL d   1      25.159 -13.999  -3.494  0.00  0.00     0.270 C 
ATOM      7  O   UNL d   1      24.744 -14.190  -4.648  0.00  0.00    -0.266 OA
ATOM      8  H   UNL d   1      25.828 -12.502  -2.111  0.00  0.00     0.190 HD
BRANCH   6   9
ATOM      9  C   UNL d   1      25.425 -15.188  -2.581  0.00  0.00     0.039 A 
ATOM     10  C   UNL d   1      26.755 -15.586  -2.262  0.00  0.00     0.057 A 
ATOM     11  C   UNL d   1      27.058 -16.535  -1.237  0.00  0.00     0.105 A 
ATOM     12  C   UNL d   1      25.977 -17.138  -0.567  0.00  0.00     0.135 A 
ATOM     13  C   UNL d   1      24.644 -16.792  -0.926  0.00  0.00     0.105 A 
ATOM     14  C   UNL d   1      24.381 -15.850  -1.934  0.00  0.00     0.057 A 
BRANCH  11  15
ATOM     15  O   UNL d   1      28.382 -16.514  -0.839  0.00  0.00    -0.353 OA
ATOM     16  C   UNL d   1      28.891 -15.650   0.177  0.00  0.00     0.210 C 
ENDBRANCH  11  15
BRANCH  12  17
ATOM     17  O   UNL d   1      25.982 -18.001   0.475  0.00  0.00    -0.351 OA
ATOM     18  C   UNL d   1      27.028 -18.853   0.771  0.00  0.00     0.210 C 
ENDBRANCH  12  17
BRANCH  13  19
ATOM     19  O   UNL d   1      23.487 -17.258  -0.311  0.00  0.00    -0.353 OA
ATOM     20  C   UNL d   1      23.117 -18.628  -0.501  0.00  0.00     0.210 C 
ENDBRANCH  13  19
ENDBRANCH   6   9
ENDBRANCH   1   5
BRANCH   2  21
ATOM     21  C   UNL d   1      25.521  -9.140  -4.332  0.00  0.00     0.114 C 
BRANCH  21  22
ATOM     22  C   UNL d   1      26.268  -9.256  -5.687  0.00  0.00     0.112 C 
BRANCH  22  23
ATOM     23  C   UNL d   1      26.693 -10.700  -5.943  0.00  0.00     0.222 C 
ATOM     24  O   UNL d   1      25.973 -11.451  -6.600  0.00  0.00    -0.273 OA
ATOM     25  N   UNL d   1      27.880 -11.116  -5.342  0.00  0.00    -0.326 N 
ATOM     26  H   UNL d   1      28.224 -10.605  -4.538  0.00  0.00     0.169 HD
BRANCH  25  27
ATOM     27  C   UNL d   1      28.458 -12.394  -5.616  0.00  0.00     0.056 A 
ATOM     28  C   UNL d   1      28.534 -12.845  -6.949  0.00  0.00     0.033 A 
ATOM     29  C   UNL d   1      29.045 -14.122  -7.246  0.00  0.00     0.026 A 
ATOM     30  C   UNL d   1      29.524 -14.936  -6.223  0.00  0.00     0.035 A 
ATOM     31 CL   UNL d   1      30.233 -16.463  -6.581  0.00  0.00    -0.084 Cl
ATOM     32  C   UNL d   1      29.442 -14.516  -4.902  0.00  0.00     0.050 A 
ATOM     33  C   UNL d   1      28.900 -13.264  -4.595  0.00  0.00     0.062 A 
ATOM     34 CL   UNL d   1      28.650 -12.961  -2.906  0.00  0.00    -0.082 Cl
ENDBRANCH  25  27
ENDBRANCH  22  23
ENDBRANCH  21  22
ENDBRANCH   2  21
TORSDOF 9
ENDMDL
