MODEL 1
REMARK VINA RESULT:    -8.407      0.000      0.000
REMARK INTER + INTRA:         -12.788
REMARK INTER:                 -10.793
REMARK INTRA:                  -1.995
REMARK CONF_INDEPENDENT:        2.386
REMARK UNBOUND:                -1.995
REMARK  8 active torsions:
REMARK  status: ('A' for Active; 'I' for Inactive)
REMARK    1  A    between atoms: C_2  and  N_3 
REMARK    2  A    between atoms: N_3  and  C_4 
REMARK    3  A    between atoms: N_3  and  C_6 
REMARK    4  A    between atoms: C_9  and  N_10 
REMARK    5  A    between atoms: C_16  and  N_17 
REMARK       I    between atoms: N_17  and  C_18 
REMARK    6  A    between atoms: C_18  and  C_20 
REMARK    7  A    between atoms: C_20  and  O_21 
REMARK    8  A    between atoms: C_20  and  C_23 
ROOT
ATOM      1  N   UNL d   1      28.757 -12.522   6.165  0.00  0.00    -0.150 N 
ATOM      2  N   UNL d   1      28.860 -13.872   6.219  0.00  0.00    -0.147 NA
ATOM      3  C   UNL d   1      28.761 -14.098   4.903  0.00  0.00     0.110 C 
ATOM      4  C   UNL d   1      29.755 -14.439   3.982  0.00  0.00     0.045 C 
ATOM      5  C   UNL d   1      29.374 -14.403   2.610  0.00  0.00    -0.033 C 
ATOM      6  C   UNL d   1      30.470 -14.266   1.595  0.00  0.00     0.050 C 
ATOM      7  C   UNL d   1      28.015 -14.397   2.204  0.00  0.00     0.043 C 
ATOM      8  C   UNL d   1      27.095 -13.769   3.099  0.00  0.00     0.066 C 
ATOM      9  C   UNL d   1      27.646 -13.351   4.408  0.00  0.00     0.111 C 
ATOM     10  N   UNL d   1      27.893 -12.133   5.077  0.00  0.00    -0.147 NA
ENDROOT
BRANCH   7  11
ATOM     11  N   UNL d   1      27.734 -15.046   0.931  0.00  0.00    -0.324 N 
ATOM     12  C   UNL d   1      26.842 -14.649  -0.086  0.00  0.00     0.255 C 
ATOM     13  O   UNL d   1      26.283 -13.572  -0.069  0.00  0.00    -0.270 OA
ATOM     14  H   UNL d   1      28.063 -15.995   0.851  0.00  0.00     0.169 HD
BRANCH  12  15
ATOM     15  C   UNL d   1      26.610 -15.745  -1.301  0.00  0.00     0.247 C 
BRANCH  15  16
ATOM     16  O   UNL d   1      27.685 -16.603  -1.643  0.00  0.00    -0.377 OA
ATOM     17  C   UNL d   1      28.915 -16.027  -1.998  0.00  0.00     0.203 C 
ENDBRANCH  15  16
BRANCH  15  18
ATOM     18  C   UNL d   1      25.392 -16.636  -0.935  0.00  0.00     0.001 C 
ATOM     19  C   UNL d   1      24.133 -16.220  -1.430  0.00  0.00     0.012 C 
ATOM     20  C   UNL d   1      22.941 -16.716  -0.895  0.00  0.00     0.001 C 
ATOM     21  C   UNL d   1      22.968 -17.731   0.052  0.00  0.00     0.002 C 
ATOM     22  C   UNL d   1      24.191 -18.245   0.466  0.00  0.00     0.024 C 
ATOM     23  C   UNL d   1      25.397 -17.713  -0.017  0.00  0.00     0.043 C 
ATOM     24 CL   UNL d   1      26.810 -18.488   0.618  0.00  0.00    -0.084 Cl
ENDBRANCH  15  18
ENDBRANCH  12  15
ENDBRANCH   7  11
BRANCH   1  25
ATOM     25  C   UNL d   1      29.061 -11.791   7.414  0.00  0.00     0.079 A 
ATOM     26  C   UNL d   1      29.886 -10.628   7.535  0.00  0.00     0.036 A 
ATOM     27  C   UNL d   1      30.359 -10.147   8.823  0.00  0.00     0.039 A 
ATOM     28  C   UNL d   1      30.023 -10.797  10.021  0.00  0.00     0.134 A 
ATOM     29  C   UNL d   1      29.244 -11.955   9.882  0.00  0.00     0.039 A 
ATOM     30  C   UNL d   1      28.802 -12.448   8.613  0.00  0.00     0.036 A 
BRANCH  28  31
ATOM     31  N   UNL d   1      30.525 -10.257  11.390  0.00  0.00    -0.042 N 
ATOM     32  H   UNL d   1      29.654 -10.078  11.905  0.00  0.00     0.286 HD
BRANCH  31  33
ATOM     33  C   UNL d   1      31.101  -8.836  11.288  0.00  0.00     0.237 C 
ATOM     34  C   UNL d   1      30.115  -7.695  11.470  0.00  0.00     0.035 C 
ENDBRANCH  31  33
BRANCH  31  35
ATOM     35  C   UNL d   1      31.157 -11.396  12.210  0.00  0.00     0.237 C 
ATOM     36  C   UNL d   1      32.287 -12.162  11.537  0.00  0.00     0.035 C 
ENDBRANCH  31  35
ENDBRANCH  28  31
ENDBRANCH   1  25
TORSDOF 8
ENDMDL
MODEL 2
REMARK VINA RESULT:    -8.270      2.466      4.158
REMARK INTER + INTRA:         -12.476
REMARK INTER:                 -10.657
REMARK INTRA:                  -1.819
REMARK CONF_INDEPENDENT:        2.386
REMARK UNBOUND:                -1.819
REMARK  8 active torsions:
REMARK  status: ('A' for Active; 'I' for Inactive)
REMARK    1  A    between atoms: C_2  and  N_3 
REMARK    2  A    between atoms: N_3  and  C_4 
REMARK    3  A    between atoms: N_3  and  C_6 
REMARK    4  A    between atoms: C_9  and  N_10 
REMARK    5  A    between atoms: C_16  and  N_17 
REMARK       I    between atoms: N_17  and  C_18 
REMARK    6  A    between atoms: C_18  and  C_20 
REMARK    7  A    between atoms: C_20  and  O_21 
REMARK    8  A    between atoms: C_20  and  C_23 
ROOT
ATOM      1  N   UNL d   1      28.146 -13.417   4.061  0.00  0.00    -0.150 N 
ATOM      2  N   UNL d   1      28.154 -14.730   3.728  0.00  0.00    -0.147 NA
ATOM      3  C   UNL d   1      27.992 -14.567   2.409  0.00  0.00     0.110 C 
ATOM      4  C   UNL d   1      28.926 -14.690   1.376  0.00  0.00     0.045 C 
ATOM      5  C   UNL d   1      28.501 -14.244   0.092  0.00  0.00    -0.033 C 
ATOM      6  C   UNL d   1      29.567 -13.889  -0.902  0.00  0.00     0.050 C 
ATOM      7  C   UNL d   1      27.132 -14.043  -0.221  0.00  0.00     0.043 C 
ATOM      8  C   UNL d   1      26.291 -13.642   0.862  0.00  0.00     0.066 C 
ATOM      9  C   UNL d   1      26.917 -13.646   2.205  0.00  0.00     0.111 C 
ATOM     10  N   UNL d   1      27.274 -12.685   3.174  0.00  0.00    -0.147 NA
ENDROOT
BRANCH   7  11
ATOM     11  N   UNL d   1      26.760 -14.286  -1.608  0.00  0.00    -0.324 N 
ATOM     12  C   UNL d   1      26.027 -15.359  -2.153  0.00  0.00     0.255 C 
ATOM     13  O   UNL d   1      25.464 -16.176  -1.453  0.00  0.00    -0.270 OA
ATOM     14  H   UNL d   1      27.254 -13.730  -2.289  0.00  0.00     0.169 HD
BRANCH  12  15
ATOM     15  C   UNL d   1      25.982 -15.430  -3.803  0.00  0.00     0.247 C 
BRANCH  15  16
ATOM     16  O   UNL d   1      25.094 -14.563  -4.486  0.00  0.00    -0.377 OA
ATOM     17  C   UNL d   1      24.780 -13.327  -3.901  0.00  0.00     0.203 C 
ENDBRANCH  15  16
BRANCH  15  18
ATOM     18  C   UNL d   1      27.413 -15.165  -4.347  0.00  0.00     0.001 C 
ATOM     19  C   UNL d   1      27.509 -14.365  -5.509  0.00  0.00     0.012 C 
ATOM     20  C   UNL d   1      28.671 -14.345  -6.286  0.00  0.00     0.001 C 
ATOM     21  C   UNL d   1      29.809 -15.016  -5.859  0.00  0.00     0.002 C 
ATOM     22  C   UNL d   1      29.780 -15.711  -4.655  0.00  0.00     0.024 C 
ATOM     23  C   UNL d   1      28.601 -15.790  -3.897  0.00  0.00     0.043 C 
ATOM     24 CL   UNL d   1      28.767 -16.700  -2.432  0.00  0.00    -0.084 Cl
ENDBRANCH  15  18
ENDBRANCH  12  15
ENDBRANCH   7  11
BRANCH   1  25
ATOM     25  C   UNL d   1      28.546 -13.089   5.446  0.00  0.00     0.079 A 
ATOM     26  C   UNL d   1      28.941 -14.021   6.457  0.00  0.00     0.036 A 
ATOM     27  C   UNL d   1      29.041 -13.645   7.858  0.00  0.00     0.039 A 
ATOM     28  C   UNL d   1      28.761 -12.340   8.293  0.00  0.00     0.134 A 
ATOM     29  C   UNL d   1      28.340 -11.450   7.295  0.00  0.00     0.039 A 
ATOM     30  C   UNL d   1      28.211 -11.824   5.920  0.00  0.00     0.036 A 
BRANCH  28  31
ATOM     31  N   UNL d   1      28.889 -11.954   9.794  0.00  0.00    -0.042 N 
ATOM     32  H   UNL d   1      28.528 -10.992   9.819  0.00  0.00     0.286 HD
BRANCH  31  33
ATOM     33  C   UNL d   1      30.347 -11.729  10.222  0.00  0.00     0.237 C 
ATOM     34  C   UNL d   1      31.314 -11.316   9.127  0.00  0.00     0.035 C 
ENDBRANCH  31  33
BRANCH  31  35
ATOM     35  C   UNL d   1      27.843 -12.714  10.628  0.00  0.00     0.237 C 
ATOM     36  C   UNL d   1      28.156 -14.172  10.933  0.00  0.00     0.035 C 
ENDBRANCH  31  35
ENDBRANCH  28  31
ENDBRANCH   1  25
TORSDOF 8
ENDMDL
MODEL 3
REMARK VINA RESULT:    -8.141      9.205     11.858
REMARK INTER + INTRA:         -12.150
REMARK INTER:                 -10.528
REMARK INTRA:                  -1.622
REMARK CONF_INDEPENDENT:        2.386
REMARK UNBOUND:                -1.622
REMARK  8 active torsions:
REMARK  status: ('A' for Active; 'I' for Inactive)
REMARK    1  A    between atoms: C_2  and  N_3 
REMARK    2  A    between atoms: N_3  and  C_4 
REMARK    3  A    between atoms: N_3  and  C_6 
REMARK    4  A    between atoms: C_9  and  N_10 
REMARK    5  A    between atoms: C_16  and  N_17 
REMARK       I    between atoms: N_17  and  C_18 
REMARK    6  A    between atoms: C_18  and  C_20 
REMARK    7  A    between atoms: C_20  and  O_21 
REMARK    8  A    between atoms: C_20  and  C_23 
ROOT
ATOM      1  N   UNL d   1      25.044 -16.136  -2.132  0.00  0.00    -0.150 N 
ATOM      2  N   UNL d   1      26.026 -15.450  -1.498  0.00  0.00    -0.147 NA
ATOM      3  C   UNL d   1      26.396 -14.693  -2.538  0.00  0.00     0.110 C 
ATOM      4  C   UNL d   1      26.140 -13.342  -2.791  0.00  0.00     0.045 C 
ATOM      5  C   UNL d   1      26.487 -12.874  -4.091  0.00  0.00    -0.033 C 
ATOM      6  C   UNL d   1      25.804 -11.630  -4.579  0.00  0.00     0.050 C 
ATOM      7  C   UNL d   1      27.364 -13.593  -4.943  0.00  0.00     0.043 C 
ATOM      8  C   UNL d   1      27.353 -15.014  -4.801  0.00  0.00     0.066 C 
ATOM      9  C   UNL d   1      26.554 -15.548  -3.674  0.00  0.00     0.111 C 
ATOM     10  N   UNL d   1      25.385 -16.323  -3.521  0.00  0.00    -0.147 NA
ENDROOT
BRANCH   7  11
ATOM     11  N   UNL d   1      28.172 -12.783  -5.844  0.00  0.00    -0.324 N 
ATOM     12  C   UNL d   1      28.994 -13.199  -6.911  0.00  0.00     0.255 C 
ATOM     13  O   UNL d   1      29.000 -14.345  -7.311  0.00  0.00    -0.270 OA
ATOM     14  H   UNL d   1      28.323 -11.831  -5.548  0.00  0.00     0.169 HD
BRANCH  12  15
ATOM     15  C   UNL d   1      29.943 -12.026  -7.582  0.00  0.00     0.247 C 
BRANCH  15  16
ATOM     16  O   UNL d   1      30.854 -12.401  -8.600  0.00  0.00    -0.377 OA
ATOM     17  C   UNL d   1      31.675 -11.411  -9.162  0.00  0.00     0.203 C 
ENDBRANCH  15  16
BRANCH  15  18
ATOM     18  C   UNL d   1      29.021 -10.916  -8.159  0.00  0.00     0.001 C 
ATOM     19  C   UNL d   1      29.009  -9.682  -7.467  0.00  0.00     0.012 C 
ATOM     20  C   UNL d   1      27.987  -8.748  -7.662  0.00  0.00     0.001 C 
ATOM     21  C   UNL d   1      27.027  -8.957  -8.642  0.00  0.00     0.002 C 
ATOM     22  C   UNL d   1      27.087 -10.106  -9.423  0.00  0.00     0.024 C 
ATOM     23  C   UNL d   1      28.071 -11.081  -9.195  0.00  0.00     0.043 C 
ATOM     24 CL   UNL d   1      27.980 -12.436 -10.270  0.00  0.00    -0.084 Cl
ENDBRANCH  15  18
ENDBRANCH  12  15
ENDBRANCH   7  11
BRANCH   1  25
ATOM     25  C   UNL d   1      24.159 -16.956  -1.276  0.00  0.00     0.079 A 
ATOM     26  C   UNL d   1      24.454 -18.252  -0.750  0.00  0.00     0.036 A 
ATOM     27  C   UNL d   1      23.428 -19.100  -0.163  0.00  0.00     0.039 A 
ATOM     28  C   UNL d   1      22.090 -18.684  -0.075  0.00  0.00     0.134 A 
ATOM     29  C   UNL d   1      21.812 -17.425  -0.627  0.00  0.00     0.039 A 
ATOM     30  C   UNL d   1      22.813 -16.602  -1.233  0.00  0.00     0.036 A 
BRANCH  28  31
ATOM     31  N   UNL d   1      21.011 -19.598   0.571  0.00  0.00    -0.042 N 
ATOM     32  H   UNL d   1      21.529 -20.461   0.780  0.00  0.00     0.286 HD
BRANCH  31  33
ATOM     33  C   UNL d   1      19.987 -20.114  -0.452  0.00  0.00     0.237 C 
ATOM     34  C   UNL d   1      18.578 -20.347   0.064  0.00  0.00     0.035 C 
ENDBRANCH  31  33
BRANCH  31  35
ATOM     35  C   UNL d   1      20.655 -19.086   1.978  0.00  0.00     0.237 C 
ATOM     36  C   UNL d   1      20.073 -20.113   2.940  0.00  0.00     0.035 C 
ENDBRANCH  31  35
ENDBRANCH  28  31
ENDBRANCH   1  25
TORSDOF 8
ENDMDL
MODEL 4
REMARK VINA RESULT:    -8.092      8.903     11.771
REMARK INTER + INTRA:         -12.196
REMARK INTER:                 -10.478
REMARK INTRA:                  -1.718
REMARK CONF_INDEPENDENT:        2.386
REMARK UNBOUND:                -1.718
REMARK  8 active torsions:
REMARK  status: ('A' for Active; 'I' for Inactive)
REMARK    1  A    between atoms: C_2  and  N_3 
REMARK    2  A    between atoms: N_3  and  C_4 
REMARK    3  A    between atoms: N_3  and  C_6 
REMARK    4  A    between atoms: C_9  and  N_10 
REMARK    5  A    between atoms: C_16  and  N_17 
REMARK       I    between atoms: N_17  and  C_18 
REMARK    6  A    between atoms: C_18  and  C_20 
REMARK    7  A    between atoms: C_20  and  O_21 
REMARK    8  A    between atoms: C_20  and  C_23 
ROOT
ATOM      1  N   UNL d   1      25.032 -16.124  -2.012  0.00  0.00    -0.150 N 
ATOM      2  N   UNL d   1      26.070 -15.548  -1.358  0.00  0.00    -0.147 NA
ATOM      3  C   UNL d   1      26.436 -14.710  -2.337  0.00  0.00     0.110 C 
ATOM      4  C   UNL d   1      26.235 -13.331  -2.448  0.00  0.00     0.045 C 
ATOM      5  C   UNL d   1      26.553 -12.754  -3.711  0.00  0.00    -0.033 C 
ATOM      6  C   UNL d   1      25.914 -11.439  -4.047  0.00  0.00     0.050 C 
ATOM      7  C   UNL d   1      27.361 -13.425  -4.665  0.00  0.00     0.043 C 
ATOM      8  C   UNL d   1      27.288 -14.851  -4.659  0.00  0.00     0.066 C 
ATOM      9  C   UNL d   1      26.508 -15.457  -3.555  0.00  0.00     0.111 C 
ATOM     10  N   UNL d   1      25.310 -16.190  -3.427  0.00  0.00    -0.147 NA
ENDROOT
BRANCH   7  11
ATOM     11  N   UNL d   1      28.172 -12.567  -5.518  0.00  0.00    -0.324 N 
ATOM     12  C   UNL d   1      28.727 -12.849  -6.783  0.00  0.00     0.255 C 
ATOM     13  O   UNL d   1      28.446 -13.854  -7.401  0.00  0.00    -0.270 OA
ATOM     14  H   UNL d   1      28.552 -11.749  -5.069  0.00  0.00     0.169 HD
BRANCH  12  15
ATOM     15  C   UNL d   1      29.782 -11.719  -7.368  0.00  0.00     0.247 C 
BRANCH  15  16
ATOM     16  O   UNL d   1      30.225 -10.698  -6.491  0.00  0.00    -0.377 OA
ATOM     17  C   UNL d   1      31.119 -11.038  -5.464  0.00  0.00     0.203 C 
ENDBRANCH  15  16
BRANCH  15  18
ATOM     18  C   UNL d   1      31.039 -12.453  -7.912  0.00  0.00     0.001 C 
ATOM     19  C   UNL d   1      31.568 -11.978  -9.134  0.00  0.00     0.012 C 
ATOM     20  C   UNL d   1      32.453 -12.750  -9.893  0.00  0.00     0.001 C 
ATOM     21  C   UNL d   1      32.935 -13.953  -9.396  0.00  0.00     0.002 C 
ATOM     22  C   UNL d   1      32.525 -14.386  -8.139  0.00  0.00     0.024 C 
ATOM     23  C   UNL d   1      31.590 -13.651  -7.395  0.00  0.00     0.043 C 
ATOM     24 CL   UNL d   1      31.208 -14.353  -5.858  0.00  0.00    -0.084 Cl
ENDBRANCH  15  18
ENDBRANCH  12  15
ENDBRANCH   7  11
BRANCH   1  25
ATOM     25  C   UNL d   1      24.142 -16.984  -1.201  0.00  0.00     0.079 A 
ATOM     26  C   UNL d   1      24.405 -18.330  -0.794  0.00  0.00     0.036 A 
ATOM     27  C   UNL d   1      23.366 -19.189  -0.249  0.00  0.00     0.039 A 
ATOM     28  C   UNL d   1      22.047 -18.738  -0.086  0.00  0.00     0.134 A 
ATOM     29  C   UNL d   1      21.799 -17.429  -0.523  0.00  0.00     0.039 A 
ATOM     30  C   UNL d   1      22.812 -16.591  -1.088  0.00  0.00     0.036 A 
BRANCH  28  31
ATOM     31  N   UNL d   1      20.954 -19.667   0.514  0.00  0.00    -0.042 N 
ATOM     32  H   UNL d   1      21.447 -20.561   0.634  0.00  0.00     0.286 HD
BRANCH  31  33
ATOM     33  C   UNL d   1      19.886 -20.062  -0.518  0.00  0.00     0.237 C 
ATOM     34  C   UNL d   1      18.525 -20.448   0.036  0.00  0.00     0.035 C 
ENDBRANCH  31  33
BRANCH  31  35
ATOM     35  C   UNL d   1      20.655 -19.265   1.969  0.00  0.00     0.237 C 
ATOM     36  C   UNL d   1      19.934 -20.301   2.818  0.00  0.00     0.035 C 
ENDBRANCH  31  35
ENDBRANCH  28  31
ENDBRANCH   1  25
TORSDOF 8
ENDMDL
MODEL 5
REMARK VINA RESULT:    -8.068      3.824      5.598
REMARK INTER + INTRA:         -12.228
REMARK INTER:                 -10.455
REMARK INTRA:                  -1.773
REMARK CONF_INDEPENDENT:        2.386
REMARK UNBOUND:                -1.773
REMARK  8 active torsions:
REMARK  status: ('A' for Active; 'I' for Inactive)
REMARK    1  A    between atoms: C_2  and  N_3 
REMARK    2  A    between atoms: N_3  and  C_4 
REMARK    3  A    between atoms: N_3  and  C_6 
REMARK    4  A    between atoms: C_9  and  N_10 
REMARK    5  A    between atoms: C_16  and  N_17 
REMARK       I    between atoms: N_17  and  C_18 
REMARK    6  A    between atoms: C_18  and  C_20 
REMARK    7  A    between atoms: C_20  and  O_21 
REMARK    8  A    between atoms: C_20  and  C_23 
ROOT
ATOM      1  N   UNL d   1      27.652 -13.182   3.065  0.00  0.00    -0.150 N 
ATOM      2  N   UNL d   1      26.367 -13.325   2.661  0.00  0.00    -0.147 NA
ATOM      3  C   UNL d   1      26.600 -13.257   1.344  0.00  0.00     0.110 C 
ATOM      4  C   UNL d   1      26.613 -14.278   0.389  0.00  0.00     0.045 C 
ATOM      5  C   UNL d   1      27.106 -13.922  -0.900  0.00  0.00    -0.033 C 
ATOM      6  C   UNL d   1      27.603 -15.032  -1.777  0.00  0.00     0.050 C 
ATOM      7  C   UNL d   1      27.220 -12.571  -1.316  0.00  0.00     0.043 C 
ATOM      8  C   UNL d   1      27.486 -11.616  -0.287  0.00  0.00     0.066 C 
ATOM      9  C   UNL d   1      27.446 -12.130   1.101  0.00  0.00     0.111 C 
ATOM     10  N   UNL d   1      28.369 -12.327   2.150  0.00  0.00    -0.147 NA
ENDROOT
BRANCH   7  11
ATOM     11  N   UNL d   1      27.037 -12.333  -2.741  0.00  0.00    -0.324 N 
ATOM     12  C   UNL d   1      26.055 -12.856  -3.607  0.00  0.00     0.255 C 
ATOM     13  O   UNL d   1      25.106 -13.490  -3.196  0.00  0.00    -0.270 OA
ATOM     14  H   UNL d   1      27.820 -11.904  -3.209  0.00  0.00     0.169 HD
BRANCH  12  15
ATOM     15  C   UNL d   1      26.281 -12.547  -5.214  0.00  0.00     0.247 C 
BRANCH  15  16
ATOM     16  O   UNL d   1      26.703 -11.249  -5.594  0.00  0.00    -0.377 OA
ATOM     17  C   UNL d   1      25.928 -10.149  -5.195  0.00  0.00     0.203 C 
ENDBRANCH  15  16
BRANCH  15  18
ATOM     18  C   UNL d   1      27.318 -13.562  -5.770  0.00  0.00     0.001 C 
ATOM     19  C   UNL d   1      27.486 -14.760  -5.037  0.00  0.00     0.012 C 
ATOM     20  C   UNL d   1      28.607 -15.575  -5.221  0.00  0.00     0.001 C 
ATOM     21  C   UNL d   1      29.521 -15.290  -6.225  0.00  0.00     0.002 C 
ATOM     22  C   UNL d   1      29.314 -14.185  -7.043  0.00  0.00     0.024 C 
ATOM     23  C   UNL d   1      28.227 -13.324  -6.829  0.00  0.00     0.043 C 
ATOM     24 CL   UNL d   1      28.142 -12.007  -7.951  0.00  0.00    -0.084 Cl
ENDBRANCH  15  18
ENDBRANCH  12  15
ENDBRANCH   7  11
BRANCH   1  25
ATOM     25  C   UNL d   1      27.922 -13.442   4.496  0.00  0.00     0.079 A 
ATOM     26  C   UNL d   1      27.780 -12.506   5.568  0.00  0.00     0.036 A 
ATOM     27  C   UNL d   1      28.334 -12.754   6.889  0.00  0.00     0.039 A 
ATOM     28  C   UNL d   1      29.034 -13.935   7.185  0.00  0.00     0.134 A 
ATOM     29  C   UNL d   1      29.195 -14.825   6.113  0.00  0.00     0.039 A 
ATOM     30  C   UNL d   1      28.677 -14.570   4.804  0.00  0.00     0.036 A 
BRANCH  28  31
ATOM     31  N   UNL d   1      29.605 -14.189   8.609  0.00  0.00    -0.042 N 
ATOM     32  H   UNL d   1      29.416 -15.187   8.762  0.00  0.00     0.286 HD
BRANCH  31  33
ATOM     33  C   UNL d   1      28.741 -13.557   9.711  0.00  0.00     0.237 C 
ATOM     34  C   UNL d   1      28.393 -14.450  10.889  0.00  0.00     0.035 C 
ENDBRANCH  31  33
BRANCH  31  35
ATOM     35  C   UNL d   1      31.143 -14.152   8.578  0.00  0.00     0.237 C 
ATOM     36  C   UNL d   1      31.857 -15.052   9.575  0.00  0.00     0.035 C 
ENDBRANCH  31  35
ENDBRANCH  28  31
ENDBRANCH   1  25
TORSDOF 8
ENDMDL
MODEL 6
REMARK VINA RESULT:    -8.035      8.979     11.779
REMARK INTER + INTRA:         -12.290
REMARK INTER:                 -10.422
REMARK INTRA:                  -1.868
REMARK CONF_INDEPENDENT:        2.386
REMARK UNBOUND:                -1.868
REMARK  8 active torsions:
REMARK  status: ('A' for Active; 'I' for Inactive)
REMARK    1  A    between atoms: C_2  and  N_3 
REMARK    2  A    between atoms: N_3  and  C_4 
REMARK    3  A    between atoms: N_3  and  C_6 
REMARK    4  A    between atoms: C_9  and  N_10 
REMARK    5  A    between atoms: C_16  and  N_17 
REMARK       I    between atoms: N_17  and  C_18 
REMARK    6  A    between atoms: C_18  and  C_20 
REMARK    7  A    between atoms: C_20  and  O_21 
REMARK    8  A    between atoms: C_20  and  C_23 
ROOT
ATOM      1  N   UNL d   1      25.165 -15.967  -1.807  0.00  0.00    -0.150 N 
ATOM      2  N   UNL d   1      24.603 -15.216  -2.784  0.00  0.00    -0.147 NA
ATOM      3  C   UNL d   1      25.744 -14.794  -3.344  0.00  0.00     0.110 C 
ATOM      4  C   UNL d   1      26.356 -15.201  -4.533  0.00  0.00     0.045 C 
ATOM      5  C   UNL d   1      27.677 -14.717  -4.754  0.00  0.00    -0.033 C 
ATOM      6  C   UNL d   1      28.540 -15.486  -5.711  0.00  0.00     0.050 C 
ATOM      7  C   UNL d   1      28.206 -13.615  -4.036  0.00  0.00     0.043 C 
ATOM      8  C   UNL d   1      27.718 -13.438  -2.705  0.00  0.00     0.066 C 
ATOM      9  C   UNL d   1      26.603 -14.325  -2.300  0.00  0.00     0.111 C 
ATOM     10  N   UNL d   1      26.410 -15.376  -1.378  0.00  0.00    -0.147 NA
ENDROOT
BRANCH   7  11
ATOM     11  N   UNL d   1      29.172 -12.797  -4.757  0.00  0.00    -0.324 N 
ATOM     12  C   UNL d   1      29.028 -12.149  -6.000  0.00  0.00     0.255 C 
ATOM     13  O   UNL d   1      27.960 -12.079  -6.572  0.00  0.00    -0.270 OA
ATOM     14  H   UNL d   1      30.123 -12.866  -4.429  0.00  0.00     0.169 HD
BRANCH  12  15
ATOM     15  C   UNL d   1      30.408 -11.489  -6.625  0.00  0.00     0.247 C 
BRANCH  15  16
ATOM     16  O   UNL d   1      31.426 -11.088  -5.726  0.00  0.00    -0.377 OA
ATOM     17  C   UNL d   1      31.263  -9.885  -5.022  0.00  0.00     0.203 C 
ENDBRANCH  15  16
BRANCH  15  18
ATOM     18  C   UNL d   1      31.032 -12.503  -7.624  0.00  0.00     0.001 C 
ATOM     19  C   UNL d   1      31.197 -13.828  -7.157  0.00  0.00     0.012 C 
ATOM     20  C   UNL d   1      32.047 -14.728  -7.807  0.00  0.00     0.001 C 
ATOM     21  C   UNL d   1      32.652 -14.377  -9.006  0.00  0.00     0.002 C 
ATOM     22  C   UNL d   1      32.409 -13.121  -9.551  0.00  0.00     0.024 C 
ATOM     23  C   UNL d   1      31.607 -12.187  -8.878  0.00  0.00     0.043 C 
ATOM     24 CL   UNL d   1      31.424 -10.683  -9.719  0.00  0.00    -0.084 Cl
ENDBRANCH  15  18
ENDBRANCH  12  15
ENDBRANCH   7  11
BRANCH   1  25
ATOM     25  C   UNL d   1      24.250 -16.850  -1.051  0.00  0.00     0.079 A 
ATOM     26  C   UNL d   1      24.524 -18.188  -0.625  0.00  0.00     0.036 A 
ATOM     27  C   UNL d   1      23.477 -19.075  -0.145  0.00  0.00     0.039 A 
ATOM     28  C   UNL d   1      22.138 -18.661  -0.065  0.00  0.00     0.134 A 
ATOM     29  C   UNL d   1      21.882 -17.360  -0.520  0.00  0.00     0.039 A 
ATOM     30  C   UNL d   1      22.905 -16.494  -1.023  0.00  0.00     0.036 A 
BRANCH  28  31
ATOM     31  N   UNL d   1      21.036 -19.620   0.467  0.00  0.00    -0.042 N 
ATOM     32  H   UNL d   1      21.541 -20.505   0.601  0.00  0.00     0.286 HD
BRANCH  31  33
ATOM     33  C   UNL d   1      20.029 -20.022  -0.622  0.00  0.00     0.237 C 
ATOM     34  C   UNL d   1      18.652 -20.448  -0.142  0.00  0.00     0.035 C 
ENDBRANCH  31  33
BRANCH  31  35
ATOM     35  C   UNL d   1      20.656 -19.242   1.910  0.00  0.00     0.237 C 
ATOM     36  C   UNL d   1      19.901 -20.298   2.704  0.00  0.00     0.035 C 
ENDBRANCH  31  35
ENDBRANCH  28  31
ENDBRANCH   1  25
TORSDOF 8
ENDMDL
MODEL 7
REMARK VINA RESULT:    -7.843      8.952     11.623
REMARK INTER + INTRA:         -12.221
REMARK INTER:                 -10.229
REMARK INTRA:                  -1.992
REMARK CONF_INDEPENDENT:        2.386
REMARK UNBOUND:                -1.992
REMARK  8 active torsions:
REMARK  status: ('A' for Active; 'I' for Inactive)
REMARK    1  A    between atoms: C_2  and  N_3 
REMARK    2  A    between atoms: N_3  and  C_4 
REMARK    3  A    between atoms: N_3  and  C_6 
REMARK    4  A    between atoms: C_9  and  N_10 
REMARK    5  A    between atoms: C_16  and  N_17 
REMARK       I    between atoms: N_17  and  C_18 
REMARK    6  A    between atoms: C_18  and  C_20 
REMARK    7  A    between atoms: C_20  and  O_21 
REMARK    8  A    between atoms: C_20  and  C_23 
ROOT
ATOM      1  N   UNL d   1      24.958 -15.709  -1.882  0.00  0.00    -0.150 N 
ATOM      2  N   UNL d   1      24.301 -14.917  -2.764  0.00  0.00    -0.147 NA
ATOM      3  C   UNL d   1      25.382 -14.445  -3.398  0.00  0.00     0.110 C 
ATOM      4  C   UNL d   1      25.891 -14.776  -4.657  0.00  0.00     0.045 C 
ATOM      5  C   UNL d   1      27.180 -14.256  -4.967  0.00  0.00    -0.033 C 
ATOM      6  C   UNL d   1      27.966 -14.955  -6.036  0.00  0.00     0.050 C 
ATOM      7  C   UNL d   1      27.755 -13.183  -4.238  0.00  0.00     0.043 C 
ATOM      8  C   UNL d   1      27.384 -13.087  -2.862  0.00  0.00     0.066 C 
ATOM      9  C   UNL d   1      26.322 -14.015  -2.410  0.00  0.00     0.111 C 
ATOM     10  N   UNL d   1      26.227 -15.117  -1.533  0.00  0.00    -0.147 NA
ENDROOT
BRANCH   7  11
ATOM     11  N   UNL d   1      28.641 -12.309  -4.996  0.00  0.00    -0.324 N 
ATOM     12  C   UNL d   1      28.464 -10.954  -5.340  0.00  0.00     0.255 C 
ATOM     13  O   UNL d   1      27.559 -10.286  -4.885  0.00  0.00    -0.270 OA
ATOM     14  H   UNL d   1      29.372 -12.778  -5.507  0.00  0.00     0.169 HD
BRANCH  12  15
ATOM     15  C   UNL d   1      29.571 -10.336  -6.400  0.00  0.00     0.247 C 
BRANCH  15  16
ATOM     16  O   UNL d   1      30.941 -10.618  -6.178  0.00  0.00    -0.377 OA
ATOM     17  C   UNL d   1      31.809  -9.549  -5.905  0.00  0.00     0.203 C 
ENDBRANCH  15  16
BRANCH  15  18
ATOM     18  C   UNL d   1      29.213 -10.829  -7.830  0.00  0.00     0.001 C 
ATOM     19  C   UNL d   1      28.392  -9.977  -8.605  0.00  0.00     0.012 C 
ATOM     20  C   UNL d   1      27.721 -10.445  -9.739  0.00  0.00     0.001 C 
ATOM     21  C   UNL d   1      27.951 -11.733 -10.204  0.00  0.00     0.002 C 
ATOM     22  C   UNL d   1      28.849 -12.553  -9.530  0.00  0.00     0.024 C 
ATOM     23  C   UNL d   1      29.481 -12.116  -8.356  0.00  0.00     0.043 C 
ATOM     24 CL   UNL d   1      30.562 -13.280  -7.665  0.00  0.00    -0.084 Cl
ENDBRANCH  15  18
ENDBRANCH  12  15
ENDBRANCH   7  11
BRANCH   1  25
ATOM     25  C   UNL d   1      24.127 -16.648  -1.099  0.00  0.00     0.079 A 
ATOM     26  C   UNL d   1      24.510 -17.954  -0.659  0.00  0.00     0.036 A 
ATOM     27  C   UNL d   1      23.543 -18.912  -0.148  0.00  0.00     0.039 A 
ATOM     28  C   UNL d   1      22.178 -18.601  -0.051  0.00  0.00     0.134 A 
ATOM     29  C   UNL d   1      21.814 -17.330  -0.519  0.00  0.00     0.039 A 
ATOM     30  C   UNL d   1      22.759 -16.397  -1.052  0.00  0.00     0.036 A 
BRANCH  28  31
ATOM     31  N   UNL d   1      21.162 -19.634   0.514  0.00  0.00    -0.042 N 
ATOM     32  H   UNL d   1      21.756 -20.437   0.757  0.00  0.00     0.286 HD
BRANCH  31  33
ATOM     33  C   UNL d   1      20.276 -20.248  -0.581  0.00  0.00     0.237 C 
ATOM     34  C   UNL d   1      18.983 -19.515  -0.892  0.00  0.00     0.035 C 
ENDBRANCH  31  33
BRANCH  31  35
ATOM     35  C   UNL d   1      20.654 -19.179   1.893  0.00  0.00     0.237 C 
ATOM     36  C   UNL d   1      19.863 -20.206   2.690  0.00  0.00     0.035 C 
ENDBRANCH  31  35
ENDBRANCH  28  31
ENDBRANCH   1  25
TORSDOF 8
ENDMDL
MODEL 8
REMARK VINA RESULT:    -7.560      3.732      5.758
REMARK INTER + INTRA:         -11.731
REMARK INTER:                  -9.947
REMARK INTRA:                  -1.784
REMARK CONF_INDEPENDENT:        2.386
REMARK UNBOUND:                -1.784
REMARK  8 active torsions:
REMARK  status: ('A' for Active; 'I' for Inactive)
REMARK    1  A    between atoms: C_2  and  N_3 
REMARK    2  A    between atoms: N_3  and  C_4 
REMARK    3  A    between atoms: N_3  and  C_6 
REMARK    4  A    between atoms: C_9  and  N_10 
REMARK    5  A    between atoms: C_16  and  N_17 
REMARK       I    between atoms: N_17  and  C_18 
REMARK    6  A    between atoms: C_18  and  C_20 
REMARK    7  A    between atoms: C_20  and  O_21 
REMARK    8  A    between atoms: C_20  and  C_23 
ROOT
ATOM      1  N   UNL d   1      28.246 -14.211   2.861  0.00  0.00    -0.150 N 
ATOM      2  N   UNL d   1      27.254 -13.511   2.259  0.00  0.00    -0.147 NA
ATOM      3  C   UNL d   1      27.379 -14.059   1.044  0.00  0.00     0.110 C 
ATOM      4  C   UNL d   1      26.574 -15.011   0.410  0.00  0.00     0.045 C 
ATOM      5  C   UNL d   1      27.088 -15.556  -0.802  0.00  0.00    -0.033 C 
ATOM      6  C   UNL d   1      26.546 -16.883  -1.243  0.00  0.00     0.050 C 
ATOM      7  C   UNL d   1      28.138 -14.932  -1.524  0.00  0.00     0.043 C 
ATOM      8  C   UNL d   1      29.086 -14.198  -0.747  0.00  0.00     0.066 C 
ATOM      9  C   UNL d   1      28.765 -14.042   0.691  0.00  0.00     0.111 C 
ATOM     10  N   UNL d   1      29.303 -14.488   1.917  0.00  0.00    -0.147 NA
ENDROOT
BRANCH   7  11
ATOM     11  N   UNL d   1      28.103 -15.112  -2.969  0.00  0.00    -0.324 N 
ATOM     12  C   UNL d   1      28.539 -14.232  -3.980  0.00  0.00     0.255 C 
ATOM     13  O   UNL d   1      29.167 -13.224  -3.731  0.00  0.00    -0.270 OA
ATOM     14  H   UNL d   1      27.516 -15.864  -3.294  0.00  0.00     0.169 HD
BRANCH  12  15
ATOM     15  C   UNL d   1      28.143 -14.666  -5.524  0.00  0.00     0.247 C 
BRANCH  15  16
ATOM     16  O   UNL d   1      27.071 -15.573  -5.711  0.00  0.00    -0.377 OA
ATOM     17  C   UNL d   1      25.901 -15.393  -4.956  0.00  0.00     0.203 C 
ENDBRANCH  15  16
BRANCH  15  18
ATOM     18  C   UNL d   1      27.818 -13.378  -6.330  0.00  0.00     0.001 C 
ATOM     19  C   UNL d   1      28.523 -13.198  -7.543  0.00  0.00     0.012 C 
ATOM     20  C   UNL d   1      28.588 -11.949  -8.168  0.00  0.00     0.001 C 
ATOM     21  C   UNL d   1      27.850 -10.882  -7.676  0.00  0.00     0.002 C 
ATOM     22  C   UNL d   1      27.050 -11.065  -6.554  0.00  0.00     0.024 C 
ATOM     23  C   UNL d   1      27.024 -12.296  -5.881  0.00  0.00     0.043 C 
ATOM     24 CL   UNL d   1      25.968 -12.324  -4.509  0.00  0.00    -0.084 Cl
ENDBRANCH  15  18
ENDBRANCH  12  15
ENDBRANCH   7  11
BRANCH   1  25
ATOM     25  C   UNL d   1      28.324 -14.105   4.334  0.00  0.00     0.079 A 
ATOM     26  C   UNL d   1      27.560 -13.223   5.161  0.00  0.00     0.036 A 
ATOM     27  C   UNL d   1      27.900 -12.983   6.554  0.00  0.00     0.039 A 
ATOM     28  C   UNL d   1      28.995 -13.614   7.165  0.00  0.00     0.134 A 
ATOM     29  C   UNL d   1      29.753 -14.448   6.331  0.00  0.00     0.039 A 
ATOM     30  C   UNL d   1      29.440 -14.662   4.951  0.00  0.00     0.036 A 
BRANCH  28  31
ATOM     31  N   UNL d   1      29.332 -13.356   8.662  0.00  0.00    -0.042 N 
ATOM     32  H   UNL d   1      30.354 -13.458   8.692  0.00  0.00     0.286 HD
BRANCH  31  33
ATOM     33  C   UNL d   1      28.897 -14.516   9.571  0.00  0.00     0.237 C 
ATOM     34  C   UNL d   1      27.890 -14.179  10.657  0.00  0.00     0.035 C 
ENDBRANCH  31  33
BRANCH  31  35
ATOM     35  C   UNL d   1      29.145 -11.866   8.999  0.00  0.00     0.237 C 
ATOM     36  C   UNL d   1      30.395 -11.115   9.435  0.00  0.00     0.035 C 
ENDBRANCH  31  35
ENDBRANCH  28  31
ENDBRANCH   1  25
TORSDOF 8
ENDMDL
MODEL 9
REMARK VINA RESULT:    -7.481      2.105      2.980
REMARK INTER + INTRA:         -11.577
REMARK INTER:                  -9.867
REMARK INTRA:                  -1.710
REMARK CONF_INDEPENDENT:        2.386
REMARK UNBOUND:                -1.710
REMARK  8 active torsions:
REMARK  status: ('A' for Active; 'I' for Inactive)
REMARK    1  A    between atoms: C_2  and  N_3 
REMARK    2  A    between atoms: N_3  and  C_4 
REMARK    3  A    between atoms: N_3  and  C_6 
REMARK    4  A    between atoms: C_9  and  N_10 
REMARK    5  A    between atoms: C_16  and  N_17 
REMARK       I    between atoms: N_17  and  C_18 
REMARK    6  A    between atoms: C_18  and  C_20 
REMARK    7  A    between atoms: C_20  and  O_21 
REMARK    8  A    between atoms: C_20  and  C_23 
ROOT
ATOM      1  N   UNL d   1      27.973 -12.220   4.943  0.00  0.00    -0.150 N 
ATOM      2  N   UNL d   1      27.432 -13.451   5.114  0.00  0.00    -0.147 NA
ATOM      3  C   UNL d   1      27.408 -13.801   3.822  0.00  0.00     0.110 C 
ATOM      4  C   UNL d   1      28.239 -14.681   3.123  0.00  0.00     0.045 C 
ATOM      5  C   UNL d   1      28.095 -14.683   1.705  0.00  0.00    -0.033 C 
ATOM      6  C   UNL d   1      29.249 -15.200   0.898  0.00  0.00     0.050 C 
ATOM      7  C   UNL d   1      26.957 -14.133   1.062  0.00  0.00     0.043 C 
ATOM      8  C   UNL d   1      26.327 -13.037   1.727  0.00  0.00     0.066 C 
ATOM      9  C   UNL d   1      26.838 -12.719   3.081  0.00  0.00     0.111 C 
ATOM     10  N   UNL d   1      27.533 -11.653   3.691  0.00  0.00    -0.147 NA
ENDROOT
BRANCH   7  11
ATOM     11  N   UNL d   1      26.571 -14.769  -0.190  0.00  0.00    -0.324 N 
ATOM     12  C   UNL d   1      26.241 -16.118  -0.432  0.00  0.00     0.255 C 
ATOM     13  O   UNL d   1      26.091 -16.917   0.470  0.00  0.00    -0.270 OA
ATOM     14  H   UNL d   1      26.756 -14.229  -1.021  0.00  0.00     0.169 HD
BRANCH  12  15
ATOM     15  C   UNL d   1      26.068 -16.538  -2.020  0.00  0.00     0.247 C 
BRANCH  15  16
ATOM     16  O   UNL d   1      24.905 -17.250  -2.402  0.00  0.00    -0.377 OA
ATOM     17  C   UNL d   1      24.020 -17.676  -1.400  0.00  0.00     0.203 C 
ENDBRANCH  15  16
BRANCH  15  18
ATOM     18  C   UNL d   1      26.135 -15.246  -2.881  0.00  0.00     0.001 C 
ATOM     19  C   UNL d   1      24.967 -14.450  -2.919  0.00  0.00     0.012 C 
ATOM     20  C   UNL d   1      24.778 -13.481  -3.909  0.00  0.00     0.001 C 
ATOM     21  C   UNL d   1      25.797 -13.189  -4.805  0.00  0.00     0.002 C 
ATOM     22  C   UNL d   1      27.004 -13.872  -4.712  0.00  0.00     0.024 C 
ATOM     23  C   UNL d   1      27.184 -14.890  -3.763  0.00  0.00     0.043 C 
ATOM     24 CL   UNL d   1      28.755 -15.620  -3.806  0.00  0.00    -0.084 Cl
ENDBRANCH  15  18
ENDBRANCH  12  15
ENDBRANCH   7  11
BRANCH   1  25
ATOM     25  C   UNL d   1      28.421 -11.524   6.169  0.00  0.00     0.079 A 
ATOM     26  C   UNL d   1      29.316 -10.411   6.232  0.00  0.00     0.036 A 
ATOM     27  C   UNL d   1      29.921  -9.976   7.481  0.00  0.00     0.039 A 
ATOM     28  C   UNL d   1      29.649 -10.623   8.696  0.00  0.00     0.134 A 
ATOM     29  C   UNL d   1      28.798 -11.733   8.611  0.00  0.00     0.039 A 
ATOM     30  C   UNL d   1      28.225 -12.184   7.379  0.00  0.00     0.036 A 
BRANCH  28  31
ATOM     31  N   UNL d   1      30.293 -10.131  10.024  0.00  0.00    -0.042 N 
ATOM     32  H   UNL d   1      29.504 -10.134  10.682  0.00  0.00     0.286 HD
BRANCH  31  33
ATOM     33  C   UNL d   1      30.640  -8.635   9.992  0.00  0.00     0.237 C 
ATOM     34  C   UNL d   1      30.419  -7.864  11.281  0.00  0.00     0.035 C 
ENDBRANCH  31  33
BRANCH  31  35
ATOM     35  C   UNL d   1      31.205 -11.225  10.608  0.00  0.00     0.237 C 
ATOM     36  C   UNL d   1      32.286 -11.763   9.682  0.00  0.00     0.035 C 
ENDBRANCH  31  35
ENDBRANCH  28  31
ENDBRANCH   1  25
TORSDOF 8
ENDMDL
