MODEL 1
REMARK VINA RESULT:    -9.246      0.000      0.000
REMARK INTER + INTRA:         -13.418
REMARK INTER:                 -11.036
REMARK INTRA:                  -2.383
REMARK CONF_INDEPENDENT:        1.790
REMARK UNBOUND:                -2.383
REMARK  6 active torsions:
REMARK  status: ('A' for Active; 'I' for Inactive)
REMARK       I    between atoms: C_2  and  N_4 
REMARK    1  A    between atoms: N_4  and  C_5 
REMARK    2  A    between atoms: C_8  and  N_9 
REMARK       I    between atoms: N_9  and  C_10 
REMARK    3  A    between atoms: C_10  and  C_12 
REMARK    4  A    between atoms: C_12  and  S_13 
REMARK    5  A    between atoms: S_13  and  C_14 
REMARK    6  A    between atoms: C_23  and  N_24 
ROOT
ATOM      1  C   UNL d   1      28.070 -14.441  -3.215  0.00  0.00     0.135 C 
ATOM      2  N   UNL d   1      27.906 -15.123  -4.390  0.00  0.00    -0.254 NA
ATOM      3  C   UNL d   1      29.044 -15.880  -4.864  0.00  0.00     0.153 C 
ATOM      4  C   UNL d   1      29.749 -17.045  -4.293  0.00  0.00     0.016 C 
ATOM      5  C   UNL d   1      31.036 -17.505  -4.802  0.00  0.00    -0.001 C 
ATOM      6  C   UNL d   1      31.407 -17.056  -6.025  0.00  0.00     0.002 C 
ATOM      7  C   UNL d   1      30.769 -15.863  -6.294  0.00  0.00     0.030 C 
ATOM      8  C   UNL d   1      30.011 -15.209  -5.095  0.00  0.00     0.074 C 
ATOM      9  N   UNL d   1      30.326 -14.735  -3.635  0.00  0.00    -0.230 NA
ATOM     10  C   UNL d   1      29.255 -14.667  -2.584  0.00  0.00     0.161 C 
ENDROOT
BRANCH   1  11
ATOM     11  S   UNL d   1      27.027 -12.997  -2.790  0.00  0.00    -0.098 SA
BRANCH  11  12
ATOM     12  C   UNL d   1      25.422 -13.452  -3.541  0.00  0.00     0.184 C 
BRANCH  12  13
ATOM     13  C   UNL d   1      24.510 -14.443  -2.872  0.00  0.00     0.231 C 
ATOM     14  N   UNL d   1      25.052 -15.520  -2.074  0.00  0.00    -0.327 N 
ATOM     15  H   UNL d   1      26.036 -15.687  -1.902  0.00  0.00     0.169 HD
ATOM     16  O   UNL d   1      23.332 -14.293  -3.160  0.00  0.00    -0.272 OA
BRANCH  14  17
ATOM     17  C   UNL d   1      24.239 -16.571  -1.553  0.00  0.00     0.034 A 
ATOM     18  C   UNL d   1      24.199 -17.891  -2.045  0.00  0.00     0.032 A 
ATOM     19  C   UNL d   1      23.283 -18.820  -1.476  0.00  0.00     0.032 A 
ATOM     20  C   UNL d   1      22.434 -18.424  -0.435  0.00  0.00     0.034 A 
ATOM     21  C   UNL d   1      22.512 -17.137   0.039  0.00  0.00     0.032 A 
ATOM     22  C   UNL d   1      23.404 -16.261  -0.502  0.00  0.00     0.032 A 
BRANCH  20  23
ATOM     23  N   UNL d   1      21.537 -19.286   0.214  0.00  0.00    -0.328 N 
ATOM     24  C   UNL d   1      20.431 -19.808  -0.449  0.00  0.00     0.218 C 
ATOM     25  C   UNL d   1      19.495 -20.600   0.411  0.00  0.00     0.117 C 
ATOM     26  O   UNL d   1      20.205 -19.704  -1.653  0.00  0.00    -0.274 OA
ATOM     27  H   UNL d   1      21.720 -19.517   1.179  0.00  0.00     0.169 HD
ENDBRANCH  20  23
ENDBRANCH  14  17
ENDBRANCH  12  13
ENDBRANCH  11  12
ENDBRANCH   1  11
BRANCH  10  28
ATOM     28  N   UNL d   1      29.072 -15.387  -1.209  0.00  0.00    -0.363 N 
ATOM     29  C   UNL d   1      29.584 -16.815  -0.872  0.00  0.00     0.125 C 
ATOM     30  C   UNL d   1      28.370 -17.820  -0.483  0.00  0.00     0.024 C 
ATOM     31  C   UNL d   1      27.364 -17.418   0.572  0.00  0.00    -0.015 C 
ATOM     32  C   UNL d   1      26.013 -18.249   0.441  0.00  0.00     0.010 C 
ATOM     33  C   UNL d   1      27.106 -15.903   0.333  0.00  0.00     0.024 C 
ATOM     34  C   UNL d   1      28.357 -14.983   0.035  0.00  0.00     0.125 C 
ENDBRANCH  10  28
TORSDOF 6
ENDMDL
MODEL 2
REMARK VINA RESULT:    -9.245      2.054      4.824
REMARK INTER + INTRA:         -13.532
REMARK INTER:                 -11.035
REMARK INTRA:                  -2.497
REMARK CONF_INDEPENDENT:        1.790
REMARK UNBOUND:                -2.497
REMARK  6 active torsions:
REMARK  status: ('A' for Active; 'I' for Inactive)
REMARK       I    between atoms: C_2  and  N_4 
REMARK    1  A    between atoms: N_4  and  C_5 
REMARK    2  A    between atoms: C_8  and  N_9 
REMARK       I    between atoms: N_9  and  C_10 
REMARK    3  A    between atoms: C_10  and  C_12 
REMARK    4  A    between atoms: C_12  and  S_13 
REMARK    5  A    between atoms: S_13  and  C_14 
REMARK    6  A    between atoms: C_23  and  N_24 
ROOT
ATOM      1  C   UNL d   1      27.802 -13.149  -0.431  0.00  0.00     0.135 C 
ATOM      2  N   UNL d   1      27.932 -12.294   0.630  0.00  0.00    -0.254 NA
ATOM      3  C   UNL d   1      28.129 -12.900   1.930  0.00  0.00     0.153 C 
ATOM      4  C   UNL d   1      29.228 -13.724   2.468  0.00  0.00     0.016 C 
ATOM      5  C   UNL d   1      29.115 -14.450   3.727  0.00  0.00    -0.001 C 
ATOM      6  C   UNL d   1      28.114 -14.080   4.560  0.00  0.00     0.002 C 
ATOM      7  C   UNL d   1      27.104 -13.484   3.834  0.00  0.00     0.030 C 
ATOM      8  C   UNL d   1      27.220 -13.599   2.281  0.00  0.00     0.074 C 
ATOM      9  N   UNL d   1      27.359 -14.728   1.202  0.00  0.00    -0.230 NA
ATOM     10  C   UNL d   1      27.996 -14.463  -0.132  0.00  0.00     0.161 C 
ENDROOT
BRANCH   1  11
ATOM     11  S   UNL d   1      26.963 -12.640  -1.976  0.00  0.00    -0.098 SA
BRANCH  11  12
ATOM     12  C   UNL d   1      26.854 -14.221  -2.890  0.00  0.00     0.184 C 
BRANCH  12  13
ATOM     13  C   UNL d   1      25.797 -15.237  -2.552  0.00  0.00     0.231 C 
ATOM     14  N   UNL d   1      25.483 -15.541  -1.173  0.00  0.00    -0.327 N 
ATOM     15  H   UNL d   1      25.919 -15.116  -0.363  0.00  0.00     0.169 HD
ATOM     16  O   UNL d   1      25.344 -15.813  -3.529  0.00  0.00    -0.272 OA
BRANCH  14  17
ATOM     17  C   UNL d   1      24.606 -16.605  -0.805  0.00  0.00     0.034 A 
ATOM     18  C   UNL d   1      25.004 -17.922  -0.503  0.00  0.00     0.032 A 
ATOM     19  C   UNL d   1      24.013 -18.904  -0.224  0.00  0.00     0.032 A 
ATOM     20  C   UNL d   1      22.655 -18.560  -0.245  0.00  0.00     0.034 A 
ATOM     21  C   UNL d   1      22.299 -17.263  -0.521  0.00  0.00     0.032 A 
ATOM     22  C   UNL d   1      23.257 -16.327  -0.770  0.00  0.00     0.032 A 
BRANCH  20  23
ATOM     23  N   UNL d   1      21.617 -19.452   0.064  0.00  0.00    -0.328 N 
ATOM     24  C   UNL d   1      20.313 -19.217  -0.362  0.00  0.00     0.218 C 
ATOM     25  C   UNL d   1      19.295 -20.183   0.161  0.00  0.00     0.117 C 
ATOM     26  O   UNL d   1      19.965 -18.332  -1.140  0.00  0.00    -0.274 OA
ATOM     27  H   UNL d   1      21.847 -20.273   0.605  0.00  0.00     0.169 HD
ENDBRANCH  20  23
ENDBRANCH  14  17
ENDBRANCH  12  13
ENDBRANCH  11  12
ENDBRANCH   1  11
BRANCH  10  28
ATOM     28  N   UNL d   1      29.257 -15.056  -0.840  0.00  0.00    -0.363 N 
ATOM     29  C   UNL d   1      30.214 -14.264  -1.774  0.00  0.00     0.125 C 
ATOM     30  C   UNL d   1      30.253 -14.887  -3.272  0.00  0.00     0.024 C 
ATOM     31  C   UNL d   1      30.514 -16.363  -3.472  0.00  0.00    -0.015 C 
ATOM     32  C   UNL d   1      30.008 -16.861  -4.896  0.00  0.00     0.010 C 
ATOM     33  C   UNL d   1      29.734 -17.073  -2.330  0.00  0.00     0.024 C 
ATOM     34  C   UNL d   1      29.813 -16.439  -0.883  0.00  0.00     0.125 C 
ENDBRANCH  10  28
TORSDOF 6
ENDMDL
MODEL 3
REMARK VINA RESULT:    -9.011      2.606      5.435
REMARK INTER + INTRA:         -13.409
REMARK INTER:                 -10.801
REMARK INTRA:                  -2.607
REMARK CONF_INDEPENDENT:        1.790
REMARK UNBOUND:                -2.607
REMARK  6 active torsions:
REMARK  status: ('A' for Active; 'I' for Inactive)
REMARK       I    between atoms: C_2  and  N_4 
REMARK    1  A    between atoms: N_4  and  C_5 
REMARK    2  A    between atoms: C_8  and  N_9 
REMARK       I    between atoms: N_9  and  C_10 
REMARK    3  A    between atoms: C_10  and  C_12 
REMARK    4  A    between atoms: C_12  and  S_13 
REMARK    5  A    between atoms: S_13  and  C_14 
REMARK    6  A    between atoms: C_23  and  N_24 
ROOT
ATOM      1  C   UNL d   1      28.289 -14.287  -0.511  0.00  0.00     0.135 C 
ATOM      2  N   UNL d   1      27.376 -14.744   0.400  0.00  0.00    -0.254 NA
ATOM      3  C   UNL d   1      27.430 -14.155   1.721  0.00  0.00     0.153 C 
ATOM      4  C   UNL d   1      27.195 -12.775   2.187  0.00  0.00     0.016 C 
ATOM      5  C   UNL d   1      27.548 -12.333   3.530  0.00  0.00    -0.001 C 
ATOM      6  C   UNL d   1      27.778 -13.298   4.452  0.00  0.00     0.002 C 
ATOM      7  C   UNL d   1      28.157 -14.463   3.818  0.00  0.00     0.030 C 
ATOM      8  C   UNL d   1      28.469 -14.340   2.292  0.00  0.00     0.074 C 
ATOM      9  N   UNL d   1      29.405 -13.500   1.356  0.00  0.00    -0.230 NA
ATOM     10  C   UNL d   1      29.054 -13.246  -0.081  0.00  0.00     0.161 C 
ENDROOT
BRANCH   1  11
ATOM     11  S   UNL d   1      28.779 -15.288  -1.963  0.00  0.00    -0.098 SA
BRANCH  11  12
ATOM     12  C   UNL d   1      27.326 -15.104  -3.061  0.00  0.00     0.184 C 
BRANCH  12  13
ATOM     13  C   UNL d   1      25.984 -15.654  -2.665  0.00  0.00     0.231 C 
ATOM     14  N   UNL d   1      25.780 -16.219  -1.350  0.00  0.00    -0.327 N 
ATOM     15  H   UNL d   1      26.482 -16.284  -0.622  0.00  0.00     0.169 HD
ATOM     16  O   UNL d   1      25.171 -15.660  -3.577  0.00  0.00    -0.272 OA
BRANCH  14  17
ATOM     17  C   UNL d   1      24.576 -16.893  -0.985  0.00  0.00     0.034 A 
ATOM     18  C   UNL d   1      23.290 -16.317  -0.973  0.00  0.00     0.032 A 
ATOM     19  C   UNL d   1      22.185 -17.087  -0.514  0.00  0.00     0.032 A 
ATOM     20  C   UNL d   1      22.376 -18.407  -0.085  0.00  0.00     0.034 A 
ATOM     21  C   UNL d   1      23.637 -18.949  -0.130  0.00  0.00     0.032 A 
ATOM     22  C   UNL d   1      24.685 -18.208  -0.586  0.00  0.00     0.032 A 
BRANCH  20  23
ATOM     23  N   UNL d   1      21.337 -19.251   0.337  0.00  0.00    -0.328 N 
ATOM     24  C   UNL d   1      20.364 -19.696  -0.551  0.00  0.00     0.218 C 
ATOM     25  C   UNL d   1      19.248 -20.475   0.073  0.00  0.00     0.117 C 
ATOM     26  O   UNL d   1      20.383 -19.537  -1.770  0.00  0.00    -0.274 OA
ATOM     27  H   UNL d   1      21.319 -19.526   1.308  0.00  0.00     0.169 HD
ENDBRANCH  20  23
ENDBRANCH  14  17
ENDBRANCH  12  13
ENDBRANCH  11  12
ENDBRANCH   1  11
BRANCH  10  28
ATOM     28  N   UNL d   1      28.789 -11.936  -0.891  0.00  0.00    -0.363 N 
ATOM     29  C   UNL d   1      27.525 -11.042  -0.758  0.00  0.00     0.125 C 
ATOM     30  C   UNL d   1      26.703 -10.941  -2.155  0.00  0.00     0.024 C 
ATOM     31  C   UNL d   1      27.421 -10.558  -3.429  0.00  0.00    -0.015 C 
ATOM     32  C   UNL d   1      26.608 -11.012  -4.720  0.00  0.00     0.010 C 
ATOM     33  C   UNL d   1      28.794 -11.283  -3.358  0.00  0.00     0.024 C 
ATOM     34  C   UNL d   1      29.563 -11.266  -1.976  0.00  0.00     0.125 C 
ENDBRANCH  10  28
TORSDOF 6
ENDMDL
MODEL 4
REMARK VINA RESULT:    -8.928      2.934      4.833
REMARK INTER + INTRA:         -13.472
REMARK INTER:                 -10.717
REMARK INTRA:                  -2.755
REMARK CONF_INDEPENDENT:        1.790
REMARK UNBOUND:                -2.755
REMARK  6 active torsions:
REMARK  status: ('A' for Active; 'I' for Inactive)
REMARK       I    between atoms: C_2  and  N_4 
REMARK    1  A    between atoms: N_4  and  C_5 
REMARK    2  A    between atoms: C_8  and  N_9 
REMARK       I    between atoms: N_9  and  C_10 
REMARK    3  A    between atoms: C_10  and  C_12 
REMARK    4  A    between atoms: C_12  and  S_13 
REMARK    5  A    between atoms: S_13  and  C_14 
REMARK    6  A    between atoms: C_23  and  N_24 
ROOT
ATOM      1  C   UNL d   1      28.200 -14.584  -0.699  0.00  0.00     0.135 C 
ATOM      2  N   UNL d   1      28.255 -14.679  -2.063  0.00  0.00    -0.254 NA
ATOM      3  C   UNL d   1      27.148 -14.105  -2.798  0.00  0.00     0.153 C 
ATOM      4  C   UNL d   1      26.674 -12.713  -2.920  0.00  0.00     0.016 C 
ATOM      5  C   UNL d   1      25.383 -12.377  -3.509  0.00  0.00    -0.001 C 
ATOM      6  C   UNL d   1      24.780 -13.335  -4.252  0.00  0.00     0.002 C 
ATOM      7  C   UNL d   1      25.233 -14.578  -3.860  0.00  0.00     0.030 C 
ATOM      8  C   UNL d   1      26.089 -14.612  -2.553  0.00  0.00     0.074 C 
ATOM      9  N   UNL d   1      25.952 -14.166  -1.057  0.00  0.00    -0.230 NA
ATOM     10  C   UNL d   1      27.158 -13.850  -0.220  0.00  0.00     0.161 C 
ENDROOT
BRANCH   1  11
ATOM     11  S   UNL d   1      29.128 -15.735   0.380  0.00  0.00    -0.098 SA
BRANCH  11  12
ATOM     12  C   UNL d   1      28.633 -17.366  -0.286  0.00  0.00     0.184 C 
BRANCH  12  13
ATOM     13  C   UNL d   1      27.213 -17.848  -0.171  0.00  0.00     0.231 C 
ATOM     14  N   UNL d   1      26.138 -17.131  -0.821  0.00  0.00    -0.327 N 
ATOM     15  H   UNL d   1      26.244 -16.294  -1.382  0.00  0.00     0.169 HD
ATOM     16  O   UNL d   1      27.081 -18.800   0.583  0.00  0.00    -0.272 OA
BRANCH  14  17
ATOM     17  C   UNL d   1      24.765 -17.457  -0.611  0.00  0.00     0.034 A 
ATOM     18  C   UNL d   1      23.727 -16.525  -0.410  0.00  0.00     0.032 A 
ATOM     19  C   UNL d   1      22.411 -16.994  -0.137  0.00  0.00     0.032 A 
ATOM     20  C   UNL d   1      22.153 -18.369  -0.074  0.00  0.00     0.034 A 
ATOM     21  C   UNL d   1      23.180 -19.254  -0.296  0.00  0.00     0.032 A 
ATOM     22  C   UNL d   1      24.432 -18.794  -0.573  0.00  0.00     0.032 A 
BRANCH  20  23
ATOM     23  N   UNL d   1      20.879 -18.917   0.143  0.00  0.00    -0.328 N 
ATOM     24  C   UNL d   1      20.152 -19.486  -0.898  0.00  0.00     0.218 C 
ATOM     25  C   UNL d   1      18.759 -19.903  -0.541  0.00  0.00     0.117 C 
ATOM     26  O   UNL d   1      20.577 -19.700  -2.032  0.00  0.00    -0.274 OA
ATOM     27  H   UNL d   1      20.506 -18.886   1.081  0.00  0.00     0.169 HD
ENDBRANCH  20  23
ENDBRANCH  14  17
ENDBRANCH  12  13
ENDBRANCH  11  12
ENDBRANCH   1  11
BRANCH  10  28
ATOM     28  N   UNL d   1      27.630 -12.552   0.512  0.00  0.00    -0.363 N 
ATOM     29  C   UNL d   1      27.410 -12.245   2.019  0.00  0.00     0.125 C 
ATOM     30  C   UNL d   1      26.520 -10.906   2.243  0.00  0.00     0.024 C 
ATOM     31  C   UNL d   1      26.903  -9.619   1.550  0.00  0.00    -0.015 C 
ATOM     32  C   UNL d   1      25.675  -8.610   1.465  0.00  0.00     0.010 C 
ATOM     33  C   UNL d   1      27.368 -10.043   0.129  0.00  0.00     0.024 C 
ATOM     34  C   UNL d   1      28.298 -11.317   0.010  0.00  0.00     0.125 C 
ENDBRANCH  10  28
TORSDOF 6
ENDMDL
MODEL 5
REMARK VINA RESULT:    -8.919      1.872      2.960
REMARK INTER + INTRA:         -13.328
REMARK INTER:                 -10.708
REMARK INTRA:                  -2.620
REMARK CONF_INDEPENDENT:        1.790
REMARK UNBOUND:                -2.620
REMARK  6 active torsions:
REMARK  status: ('A' for Active; 'I' for Inactive)
REMARK       I    between atoms: C_2  and  N_4 
REMARK    1  A    between atoms: N_4  and  C_5 
REMARK    2  A    between atoms: C_8  and  N_9 
REMARK       I    between atoms: N_9  and  C_10 
REMARK    3  A    between atoms: C_10  and  C_12 
REMARK    4  A    between atoms: C_12  and  S_13 
REMARK    5  A    between atoms: S_13  and  C_14 
REMARK    6  A    between atoms: C_23  and  N_24 
ROOT
ATOM      1  C   UNL d   1      28.182 -15.179  -2.751  0.00  0.00     0.135 C 
ATOM      2  N   UNL d   1      28.353 -16.504  -2.455  0.00  0.00    -0.254 NA
ATOM      3  C   UNL d   1      29.442 -16.832  -1.560  0.00  0.00     0.153 C 
ATOM      4  C   UNL d   1      29.681 -16.491  -0.144  0.00  0.00     0.016 C 
ATOM      5  C   UNL d   1      30.967 -16.708   0.505  0.00  0.00    -0.001 C 
ATOM      6  C   UNL d   1      31.834 -17.544  -0.116  0.00  0.00     0.002 C 
ATOM      7  C   UNL d   1      31.549 -17.587  -1.465  0.00  0.00     0.030 C 
ATOM      8  C   UNL d   1      30.523 -16.528  -1.980  0.00  0.00     0.074 C 
ATOM      9  N   UNL d   1      30.350 -14.970  -1.972  0.00  0.00    -0.230 NA
ATOM     10  C   UNL d   1      28.995 -14.331  -2.063  0.00  0.00     0.161 C 
ENDROOT
BRANCH   1  11
ATOM     11  S   UNL d   1      27.314 -14.641  -4.270  0.00  0.00    -0.098 SA
BRANCH  11  12
ATOM     12  C   UNL d   1      25.775 -13.916  -3.594  0.00  0.00     0.184 C 
BRANCH  12  13
ATOM     13  C   UNL d   1      24.816 -14.752  -2.793  0.00  0.00     0.231 C 
ATOM     14  N   UNL d   1      25.291 -15.869  -2.007  0.00  0.00    -0.327 N 
ATOM     15  H   UNL d   1      26.257 -16.164  -1.929  0.00  0.00     0.169 HD
ATOM     16  O   UNL d   1      23.645 -14.451  -2.966  0.00  0.00    -0.272 OA
BRANCH  14  17
ATOM     17  C   UNL d   1      24.405 -16.783  -1.362  0.00  0.00     0.034 A 
ATOM     18  C   UNL d   1      24.709 -18.119  -1.033  0.00  0.00     0.032 A 
ATOM     19  C   UNL d   1      23.702 -18.942  -0.457  0.00  0.00     0.032 A 
ATOM     20  C   UNL d   1      22.423 -18.424  -0.214  0.00  0.00     0.034 A 
ATOM     21  C   UNL d   1      22.163 -17.111  -0.523  0.00  0.00     0.032 A 
ATOM     22  C   UNL d   1      23.140 -16.328  -1.060  0.00  0.00     0.032 A 
BRANCH  20  23
ATOM     23  N   UNL d   1      21.387 -19.150   0.394  0.00  0.00    -0.328 N 
ATOM     24  C   UNL d   1      20.339 -19.677  -0.355  0.00  0.00     0.218 C 
ATOM     25  C   UNL d   1      19.243 -20.306   0.448  0.00  0.00     0.117 C 
ATOM     26  O   UNL d   1      20.280 -19.699  -1.583  0.00  0.00    -0.274 OA
ATOM     27  H   UNL d   1      21.426 -19.279   1.394  0.00  0.00     0.169 HD
ENDBRANCH  20  23
ENDBRANCH  14  17
ENDBRANCH  12  13
ENDBRANCH  11  12
ENDBRANCH   1  11
BRANCH  10  28
ATOM     28  N   UNL d   1      28.199 -13.391  -1.101  0.00  0.00    -0.363 N 
ATOM     29  C   UNL d   1      28.806 -12.199  -0.311  0.00  0.00     0.125 C 
ATOM     30  C   UNL d   1      28.655 -12.394   1.294  0.00  0.00     0.024 C 
ATOM     31  C   UNL d   1      27.306 -12.719   1.893  0.00  0.00    -0.015 C 
ATOM     32  C   UNL d   1      27.447 -13.370   3.338  0.00  0.00     0.010 C 
ATOM     33  C   UNL d   1      26.648 -13.718   0.899  0.00  0.00     0.024 C 
ATOM     34  C   UNL d   1      26.779 -13.409  -0.646  0.00  0.00     0.125 C 
ENDBRANCH  10  28
TORSDOF 6
ENDMDL
MODEL 6
REMARK VINA RESULT:    -8.753      2.481      3.962
REMARK INTER + INTRA:         -13.138
REMARK INTER:                 -10.542
REMARK INTRA:                  -2.595
REMARK CONF_INDEPENDENT:        1.790
REMARK UNBOUND:                -2.595
REMARK  6 active torsions:
REMARK  status: ('A' for Active; 'I' for Inactive)
REMARK       I    between atoms: C_2  and  N_4 
REMARK    1  A    between atoms: N_4  and  C_5 
REMARK    2  A    between atoms: C_8  and  N_9 
REMARK       I    between atoms: N_9  and  C_10 
REMARK    3  A    between atoms: C_10  and  C_12 
REMARK    4  A    between atoms: C_12  and  S_13 
REMARK    5  A    between atoms: S_13  and  C_14 
REMARK    6  A    between atoms: C_23  and  N_24 
ROOT
ATOM      1  C   UNL d   1      28.539 -15.146  -1.986  0.00  0.00     0.135 C 
ATOM      2  N   UNL d   1      28.653 -14.727  -3.284  0.00  0.00    -0.254 NA
ATOM      3  C   UNL d   1      27.586 -13.890  -3.790  0.00  0.00     0.153 C 
ATOM      4  C   UNL d   1      27.134 -12.540  -3.400  0.00  0.00     0.016 C 
ATOM      5  C   UNL d   1      25.875 -11.973  -3.867  0.00  0.00    -0.001 C 
ATOM      6  C   UNL d   1      25.293 -12.569  -4.936  0.00  0.00     0.002 C 
ATOM      7  C   UNL d   1      25.714 -13.880  -5.021  0.00  0.00     0.030 C 
ATOM      8  C   UNL d   1      26.511 -14.422  -3.792  0.00  0.00     0.074 C 
ATOM      9  N   UNL d   1      26.315 -14.563  -2.243  0.00  0.00    -0.230 NA
ATOM     10  C   UNL d   1      27.486 -14.615  -1.305  0.00  0.00     0.161 C 
ENDROOT
BRANCH   1  11
ATOM     11  S   UNL d   1      29.405 -16.641  -1.382  0.00  0.00    -0.098 SA
BRANCH  11  12
ATOM     12  C   UNL d   1      28.577 -16.940   0.222  0.00  0.00     0.184 C 
BRANCH  12  13
ATOM     13  C   UNL d   1      27.159 -17.439   0.277  0.00  0.00     0.231 C 
ATOM     14  N   UNL d   1      26.187 -17.003  -0.701  0.00  0.00    -0.327 N 
ATOM     15  H   UNL d   1      26.369 -16.366  -1.467  0.00  0.00     0.169 HD
ATOM     16  O   UNL d   1      26.924 -18.130   1.256  0.00  0.00    -0.272 OA
BRANCH  14  17
ATOM     17  C   UNL d   1      24.800 -17.323  -0.596  0.00  0.00     0.034 A 
ATOM     18  C   UNL d   1      23.737 -16.443  -0.882  0.00  0.00     0.032 A 
ATOM     19  C   UNL d   1      22.398 -16.871  -0.661  0.00  0.00     0.032 A 
ATOM     20  C   UNL d   1      22.143 -18.158  -0.169  0.00  0.00     0.034 A 
ATOM     21  C   UNL d   1      23.199 -19.001   0.079  0.00  0.00     0.032 A 
ATOM     22  C   UNL d   1      24.476 -18.586  -0.152  0.00  0.00     0.032 A 
BRANCH  20  23
ATOM     23  N   UNL d   1      20.855 -18.678   0.033  0.00  0.00    -0.328 N 
ATOM     24  C   UNL d   1      20.186 -19.360  -0.978  0.00  0.00     0.218 C 
ATOM     25  C   UNL d   1      18.772 -19.733  -0.659  0.00  0.00     0.117 C 
ATOM     26  O   UNL d   1      20.675 -19.701  -2.054  0.00  0.00    -0.274 OA
ATOM     27  H   UNL d   1      20.428 -18.541   0.938  0.00  0.00     0.169 HD
ENDBRANCH  20  23
ENDBRANCH  14  17
ENDBRANCH  12  13
ENDBRANCH  11  12
ENDBRANCH   1  11
BRANCH  10  28
ATOM     28  N   UNL d   1      27.941 -13.697  -0.125  0.00  0.00    -0.363 N 
ATOM     29  C   UNL d   1      29.408 -13.517   0.353  0.00  0.00     0.125 C 
ATOM     30  C   UNL d   1      29.606 -13.984   1.896  0.00  0.00     0.024 C 
ATOM     31  C   UNL d   1      28.689 -13.448   2.972  0.00  0.00    -0.015 C 
ATOM     32  C   UNL d   1      28.690 -14.381   4.261  0.00  0.00     0.010 C 
ATOM     33  C   UNL d   1      27.277 -13.407   2.322  0.00  0.00     0.024 C 
ATOM     34  C   UNL d   1      27.167 -12.865   0.840  0.00  0.00     0.125 C 
ENDBRANCH  10  28
TORSDOF 6
ENDMDL
MODEL 7
REMARK VINA RESULT:    -8.752      2.137      4.279
REMARK INTER + INTRA:         -13.304
REMARK INTER:                 -10.542
REMARK INTRA:                  -2.761
REMARK CONF_INDEPENDENT:        1.790
REMARK UNBOUND:                -2.761
REMARK  6 active torsions:
REMARK  status: ('A' for Active; 'I' for Inactive)
REMARK       I    between atoms: C_2  and  N_4 
REMARK    1  A    between atoms: N_4  and  C_5 
REMARK    2  A    between atoms: C_8  and  N_9 
REMARK       I    between atoms: N_9  and  C_10 
REMARK    3  A    between atoms: C_10  and  C_12 
REMARK    4  A    between atoms: C_12  and  S_13 
REMARK    5  A    between atoms: S_13  and  C_14 
REMARK    6  A    between atoms: C_23  and  N_24 
ROOT
ATOM      1  C   UNL d   1      28.917 -14.833  -1.779  0.00  0.00     0.135 C 
ATOM      2  N   UNL d   1      28.639 -13.626  -1.196  0.00  0.00    -0.254 NA
ATOM      3  C   UNL d   1      28.360 -13.642   0.224  0.00  0.00     0.153 C 
ATOM      4  C   UNL d   1      29.202 -14.000   1.382  0.00  0.00     0.016 C 
ATOM      5  C   UNL d   1      28.652 -14.191   2.718  0.00  0.00    -0.001 C 
ATOM      6  C   UNL d   1      27.411 -13.700   2.946  0.00  0.00     0.002 C 
ATOM      7  C   UNL d   1      26.723 -13.607   1.753  0.00  0.00     0.030 C 
ATOM      8  C   UNL d   1      27.398 -14.292   0.522  0.00  0.00     0.074 C 
ATOM      9  N   UNL d   1      27.937 -15.709   0.125  0.00  0.00    -0.230 NA
ATOM     10  C   UNL d   1      29.011 -15.878  -0.911  0.00  0.00     0.161 C 
ENDROOT
BRANCH   1  11
ATOM     11  S   UNL d   1      28.688 -15.106  -3.574  0.00  0.00    -0.098 SA
BRANCH  11  12
ATOM     12  C   UNL d   1      27.036 -14.374  -3.864  0.00  0.00     0.184 C 
BRANCH  12  13
ATOM     13  C   UNL d   1      25.809 -14.962  -3.223  0.00  0.00     0.231 C 
ATOM     14  N   UNL d   1      25.921 -15.804  -2.052  0.00  0.00    -0.327 N 
ATOM     15  H   UNL d   1      26.786 -16.051  -1.587  0.00  0.00     0.169 HD
ATOM     16  O   UNL d   1      24.781 -14.739  -3.843  0.00  0.00    -0.272 OA
BRANCH  14  17
ATOM     17  C   UNL d   1      24.806 -16.509  -1.507  0.00  0.00     0.034 A 
ATOM     18  C   UNL d   1      23.517 -15.973  -1.315  0.00  0.00     0.032 A 
ATOM     19  C   UNL d   1      22.517 -16.768  -0.690  0.00  0.00     0.032 A 
ATOM     20  C   UNL d   1      22.813 -18.073  -0.275  0.00  0.00     0.034 A 
ATOM     21  C   UNL d   1      24.072 -18.576  -0.496  0.00  0.00     0.032 A 
ATOM     22  C   UNL d   1      25.017 -17.811  -1.110  0.00  0.00     0.032 A 
BRANCH  20  23
ATOM     23  N   UNL d   1      21.875 -18.941   0.306  0.00  0.00    -0.328 N 
ATOM     24  C   UNL d   1      20.809 -19.449  -0.430  0.00  0.00     0.218 C 
ATOM     25  C   UNL d   1      19.820 -20.249   0.359  0.00  0.00     0.117 C 
ATOM     26  O   UNL d   1      20.657 -19.325  -1.644  0.00  0.00    -0.274 OA
ATOM     27  H   UNL d   1      22.000 -19.188   1.277  0.00  0.00     0.169 HD
ENDBRANCH  20  23
ENDBRANCH  14  17
ENDBRANCH  12  13
ENDBRANCH  11  12
ENDBRANCH   1  11
BRANCH  10  28
ATOM     28  N   UNL d   1      30.452 -16.480  -0.855  0.00  0.00    -0.363 N 
ATOM     29  C   UNL d   1      30.957 -17.671  -1.717  0.00  0.00     0.125 C 
ATOM     30  C   UNL d   1      31.425 -18.927  -0.801  0.00  0.00     0.024 C 
ATOM     31  C   UNL d   1      32.403 -18.715   0.332  0.00  0.00    -0.015 C 
ATOM     32  C   UNL d   1      32.332 -19.895   1.397  0.00  0.00     0.010 C 
ATOM     33  C   UNL d   1      31.992 -17.362   0.978  0.00  0.00     0.024 C 
ATOM     34  C   UNL d   1      31.626 -16.167   0.009  0.00  0.00     0.125 C 
ENDBRANCH  10  28
TORSDOF 6
ENDMDL
MODEL 8
REMARK VINA RESULT:    -8.706      1.841      3.836
REMARK INTER + INTRA:         -13.215
REMARK INTER:                 -10.495
REMARK INTRA:                  -2.720
REMARK CONF_INDEPENDENT:        1.790
REMARK UNBOUND:                -2.720
REMARK  6 active torsions:
REMARK  status: ('A' for Active; 'I' for Inactive)
REMARK       I    between atoms: C_2  and  N_4 
REMARK    1  A    between atoms: N_4  and  C_5 
REMARK    2  A    between atoms: C_8  and  N_9 
REMARK       I    between atoms: N_9  and  C_10 
REMARK    3  A    between atoms: C_10  and  C_12 
REMARK    4  A    between atoms: C_12  and  S_13 
REMARK    5  A    between atoms: S_13  and  C_14 
REMARK    6  A    between atoms: C_23  and  N_24 
ROOT
ATOM      1  C   UNL d   1      29.869 -14.955  -3.092  0.00  0.00     0.135 C 
ATOM      2  N   UNL d   1      31.066 -15.399  -3.584  0.00  0.00    -0.254 NA
ATOM      3  C   UNL d   1      31.074 -16.723  -4.169  0.00  0.00     0.153 C 
ATOM      4  C   UNL d   1      30.389 -17.271  -5.356  0.00  0.00     0.016 C 
ATOM      5  C   UNL d   1      30.330 -18.701  -5.631  0.00  0.00    -0.001 C 
ATOM      6  C   UNL d   1      31.205 -19.491  -4.965  0.00  0.00     0.002 C 
ATOM      7  C   UNL d   1      31.590 -18.871  -3.794  0.00  0.00     0.030 C 
ATOM      8  C   UNL d   1      30.779 -17.595  -3.400  0.00  0.00     0.074 C 
ATOM      9  N   UNL d   1      29.286 -17.193  -3.147  0.00  0.00    -0.230 NA
ATOM     10  C   UNL d   1      28.812 -15.780  -3.329  0.00  0.00     0.161 C 
ENDROOT
BRANCH   1  11
ATOM     11  S   UNL d   1      29.784 -13.644  -1.816  0.00  0.00    -0.098 SA
BRANCH  11  12
ATOM     12  C   UNL d   1      29.368 -14.601  -0.313  0.00  0.00     0.184 C 
BRANCH  12  13
ATOM     13  C   UNL d   1      27.964 -15.080  -0.067  0.00  0.00     0.231 C 
ATOM     14  N   UNL d   1      27.474 -16.282  -0.705  0.00  0.00    -0.327 N 
ATOM     15  H   UNL d   1      28.006 -16.873  -1.332  0.00  0.00     0.169 HD
ATOM     16  O   UNL d   1      27.299 -14.313   0.613  0.00  0.00    -0.272 OA
BRANCH  14  17
ATOM     17  C   UNL d   1      26.107 -16.686  -0.628  0.00  0.00     0.034 A 
ATOM     18  C   UNL d   1      25.033 -16.061  -1.292  0.00  0.00     0.032 A 
ATOM     19  C   UNL d   1      23.708 -16.525  -1.065  0.00  0.00     0.032 A 
ATOM     20  C   UNL d   1      23.477 -17.596  -0.193  0.00  0.00     0.034 A 
ATOM     21  C   UNL d   1      24.545 -18.201   0.422  0.00  0.00     0.032 A 
ATOM     22  C   UNL d   1      25.812 -17.759   0.185  0.00  0.00     0.032 A 
BRANCH  20  23
ATOM     23  N   UNL d   1      22.209 -18.147   0.051  0.00  0.00    -0.328 N 
ATOM     24  C   UNL d   1      21.563 -18.924  -0.905  0.00  0.00     0.218 C 
ATOM     25  C   UNL d   1      20.164 -19.326  -0.554  0.00  0.00     0.117 C 
ATOM     26  O   UNL d   1      22.062 -19.323  -1.956  0.00  0.00    -0.274 OA
ATOM     27  H   UNL d   1      21.779 -17.962   0.946  0.00  0.00     0.169 HD
ENDBRANCH  20  23
ENDBRANCH  14  17
ENDBRANCH  12  13
ENDBRANCH  11  12
ENDBRANCH   1  11
BRANCH  10  28
ATOM     28  N   UNL d   1      27.749 -15.132  -4.273  0.00  0.00    -0.363 N 
ATOM     29  C   UNL d   1      28.071 -14.220  -5.490  0.00  0.00     0.125 C 
ATOM     30  C   UNL d   1      27.434 -12.736  -5.322  0.00  0.00     0.024 C 
ATOM     31  C   UNL d   1      25.969 -12.576  -4.987  0.00  0.00    -0.015 C 
ATOM     32  C   UNL d   1      25.663 -11.143  -4.366  0.00  0.00     0.010 C 
ATOM     33  C   UNL d   1      25.659 -13.701  -3.960  0.00  0.00     0.024 C 
ATOM     34  C   UNL d   1      26.258 -15.137  -4.242  0.00  0.00     0.125 C 
ENDBRANCH  10  28
TORSDOF 6
ENDMDL
MODEL 9
REMARK VINA RESULT:    -8.700      1.874      4.314
REMARK INTER + INTRA:         -13.179
REMARK INTER:                 -10.490
REMARK INTRA:                  -2.689
REMARK CONF_INDEPENDENT:        1.790
REMARK UNBOUND:                -2.689
REMARK  6 active torsions:
REMARK  status: ('A' for Active; 'I' for Inactive)
REMARK       I    between atoms: C_2  and  N_4 
REMARK    1  A    between atoms: N_4  and  C_5 
REMARK    2  A    between atoms: C_8  and  N_9 
REMARK       I    between atoms: N_9  and  C_10 
REMARK    3  A    between atoms: C_10  and  C_12 
REMARK    4  A    between atoms: C_12  and  S_13 
REMARK    5  A    between atoms: S_13  and  C_14 
REMARK    6  A    between atoms: C_23  and  N_24 
ROOT
ATOM      1  C   UNL d   1      28.700 -14.889  -2.031  0.00  0.00     0.135 C 
ATOM      2  N   UNL d   1      28.565 -13.693  -1.381  0.00  0.00    -0.254 NA
ATOM      3  C   UNL d   1      28.377 -13.753   0.053  0.00  0.00     0.153 C 
ATOM      4  C   UNL d   1      29.256 -14.236   1.135  0.00  0.00     0.016 C 
ATOM      5  C   UNL d   1      28.777 -14.445   2.496  0.00  0.00    -0.001 C 
ATOM      6  C   UNL d   1      27.600 -13.862   2.828  0.00  0.00     0.002 C 
ATOM      7  C   UNL d   1      26.849 -13.655   1.689  0.00  0.00     0.030 C 
ATOM      8  C   UNL d   1      27.382 -14.334   0.387  0.00  0.00     0.074 C 
ATOM      9  N   UNL d   1      27.770 -15.771  -0.105  0.00  0.00    -0.230 NA
ATOM     10  C   UNL d   1      28.757 -15.979  -1.217  0.00  0.00     0.161 C 
ENDROOT
BRANCH   1  11
ATOM     11  S   UNL d   1      28.334 -15.055  -3.817  0.00  0.00    -0.098 SA
BRANCH  11  12
ATOM     12  C   UNL d   1      26.685 -14.272  -3.944  0.00  0.00     0.184 C 
BRANCH  12  13
ATOM     13  C   UNL d   1      25.500 -14.845  -3.218  0.00  0.00     0.231 C 
ATOM     14  N   UNL d   1      25.681 -15.850  -2.193  0.00  0.00    -0.327 N 
ATOM     15  H   UNL d   1      26.571 -16.227  -1.890  0.00  0.00     0.169 HD
ATOM     16  O   UNL d   1      24.427 -14.457  -3.653  0.00  0.00    -0.272 OA
BRANCH  14  17
ATOM     17  C   UNL d   1      24.583 -16.535  -1.592  0.00  0.00     0.034 A 
ATOM     18  C   UNL d   1      23.340 -15.956  -1.265  0.00  0.00     0.032 A 
ATOM     19  C   UNL d   1      22.359 -16.741  -0.598  0.00  0.00     0.032 A 
ATOM     20  C   UNL d   1      22.627 -18.077  -0.275  0.00  0.00     0.034 A 
ATOM     21  C   UNL d   1      23.838 -18.621  -0.626  0.00  0.00     0.032 A 
ATOM     22  C   UNL d   1      24.764 -17.865  -1.279  0.00  0.00     0.032 A 
BRANCH  20  23
ATOM     23  N   UNL d   1      21.700 -18.935   0.339  0.00  0.00    -0.328 N 
ATOM     24  C   UNL d   1      20.675 -19.529  -0.390  0.00  0.00     0.218 C 
ATOM     25  C   UNL d   1      19.688 -20.306   0.427  0.00  0.00     0.117 C 
ATOM     26  O   UNL d   1      20.556 -19.496  -1.613  0.00  0.00    -0.274 OA
ATOM     27  H   UNL d   1      21.802 -19.108   1.328  0.00  0.00     0.169 HD
ENDBRANCH  20  23
ENDBRANCH  14  17
ENDBRANCH  12  13
ENDBRANCH  11  12
ENDBRANCH   1  11
BRANCH  10  28
ATOM     28  N   UNL d   1      30.140 -16.702  -1.284  0.00  0.00    -0.363 N 
ATOM     29  C   UNL d   1      31.365 -16.216  -2.108  0.00  0.00     0.125 C 
ATOM     30  C   UNL d   1      31.813 -17.301  -3.228  0.00  0.00     0.024 C 
ATOM     31  C   UNL d   1      32.052 -18.741  -2.834  0.00  0.00    -0.015 C 
ATOM     32  C   UNL d   1      31.963 -19.715  -4.090  0.00  0.00     0.010 C 
ATOM     33  C   UNL d   1      30.939 -19.070  -1.800  0.00  0.00     0.024 C 
ATOM     34  C   UNL d   1      30.619 -17.986  -0.695  0.00  0.00     0.125 C 
ENDBRANCH  10  28
TORSDOF 6
ENDMDL
