MODEL 1
REMARK VINA RESULT:    -9.353      0.000      0.000
REMARK INTER + INTRA:         -13.714
REMARK INTER:                 -11.739
REMARK INTRA:                  -1.975
REMARK CONF_INDEPENDENT:        2.386
REMARK UNBOUND:                -1.975
REMARK  8 active torsions:
REMARK  status: ('A' for Active; 'I' for Inactive)
REMARK    1  A    between atoms: C_5  and  N_6 
REMARK    2  A    between atoms: C_9  and  N_10 
REMARK       I    between atoms: N_10  and  C_11 
REMARK    3  A    between atoms: C_11  and  C_13 
REMARK    4  A    between atoms: C_13  and  N_15 
REMARK    5  A    between atoms: N_15  and  C_16 
REMARK    6  A    between atoms: C_20  and  N_21 
REMARK       I    between atoms: N_21  and  C_22 
REMARK    7  A    between atoms: C_22  and  C_24 
REMARK    8  A    between atoms: C_24  and  O_25 
ROOT
ATOM      1  C   UNL d   1      25.169 -14.301  -2.905  0.00  0.00     0.170 C 
ATOM      2  C   UNL d   1      24.804 -13.374  -4.056  0.00  0.00     0.042 C 
ENDROOT
BRANCH   1   3
ATOM      3  C   UNL d   1      26.219 -15.177  -3.604  0.00  0.00     0.244 C 
ATOM      4  N   UNL d   1      27.548 -14.912  -3.306  0.00  0.00    -0.323 N 
ATOM      5  H   UNL d   1      27.732 -13.989  -2.937  0.00  0.00     0.169 HD
ATOM      6  O   UNL d   1      25.856 -15.942  -4.500  0.00  0.00    -0.271 OA
BRANCH   4   7
ATOM      7  C   UNL d   1      28.662 -15.703  -3.732  0.00  0.00     0.074 A 
ATOM      8  C   UNL d   1      29.217 -15.652  -5.041  0.00  0.00     0.130 A 
ATOM      9  C   UNL d   1      30.330 -16.427  -5.393  0.00  0.00     0.039 A 
ATOM     10  C   UNL d   1      30.874 -17.330  -4.501  0.00  0.00     0.010 A 
ATOM     11  C   UNL d   1      30.342 -17.461  -3.216  0.00  0.00    -0.054 A 
ATOM     12  C   UNL d   1      30.974 -18.506  -2.325  0.00  0.00     0.049 C 
ATOM     13  C   UNL d   1      29.250 -16.632  -2.802  0.00  0.00    -0.027 A 
ATOM     14  C   UNL d   1      28.788 -16.808  -1.367  0.00  0.00     0.051 C 
BRANCH   8  15
ATOM     15  N   UNL d   1      28.597 -14.985  -6.198  0.00  0.00    -0.113 N 
ATOM     16  O   UNL d   1      29.264 -14.145  -6.813  0.00  0.00    -0.532 OA
ATOM     17  O   UNL d   1      27.380 -15.200  -6.385  0.00  0.00    -0.532 OA
ENDBRANCH   8  15
ENDBRANCH   4   7
ENDBRANCH   1   3
BRANCH   1  18
ATOM     18  N   UNL d   1      24.122 -15.202  -2.343  0.00  0.00    -0.377 N 
ATOM     19  H   UNL d   1      23.239 -14.714  -2.167  0.00  0.00     0.160 HD
BRANCH  18  20
ATOM     20  C   UNL d   1      24.340 -16.287  -1.517  0.00  0.00     0.030 C 
ATOM     21  C   UNL d   1      25.581 -16.543  -0.953  0.00  0.00     0.029 C 
ATOM     22  C   UNL d   1      25.761 -17.655  -0.111  0.00  0.00     0.004 C 
ATOM     23  C   UNL d   1      24.679 -18.496   0.227  0.00  0.00     0.029 C 
ATOM     24  C   UNL d   1      23.442 -18.291  -0.374  0.00  0.00     0.036 C 
ATOM     25  C   UNL d   1      23.358 -17.233  -1.270  0.00  0.00     0.058 C 
BRANCH  24  26
ATOM     26  N   UNL d   1      22.304 -19.128  -0.145  0.00  0.00    -0.325 N 
ATOM     27  C   UNL d   1      21.000 -18.839  -0.573  0.00  0.00     0.245 C 
ATOM     28  O   UNL d   1      20.616 -17.825  -1.158  0.00  0.00    -0.271 OA
ATOM     29  H   UNL d   1      22.469 -19.982   0.373  0.00  0.00     0.169 HD
BRANCH  27  30
ATOM     30  C   UNL d   1      19.924 -19.866  -0.245  0.00  0.00     0.267 C 
BRANCH  30  31
ATOM     31  O   UNL d   1      18.933 -19.915  -1.277  0.00  0.00    -0.392 OA
ATOM     32  H   UNL d   1      18.934 -19.031  -1.700  0.00  0.00     0.210 HD
ENDBRANCH  30  31
ENDBRANCH  27  30
ENDBRANCH  24  26
ENDBRANCH  18  20
ENDBRANCH   1  18
TORSDOF 8
ENDMDL
MODEL 2
REMARK VINA RESULT:    -8.894      1.815      3.191
REMARK INTER + INTRA:         -13.497
REMARK INTER:                 -11.280
REMARK INTRA:                  -2.217
REMARK CONF_INDEPENDENT:        2.386
REMARK UNBOUND:                -2.217
REMARK  8 active torsions:
REMARK  status: ('A' for Active; 'I' for Inactive)
REMARK    1  A    between atoms: C_5  and  N_6 
REMARK    2  A    between atoms: C_9  and  N_10 
REMARK       I    between atoms: N_10  and  C_11 
REMARK    3  A    between atoms: C_11  and  C_13 
REMARK    4  A    between atoms: C_13  and  N_15 
REMARK    5  A    between atoms: N_15  and  C_16 
REMARK    6  A    between atoms: C_20  and  N_21 
REMARK       I    between atoms: N_21  and  C_22 
REMARK    7  A    between atoms: C_22  and  C_24 
REMARK    8  A    between atoms: C_24  and  O_25 
ROOT
ATOM      1  C   UNL d   1      27.775 -16.959   0.134  0.00  0.00     0.170 C 
ATOM      2  C   UNL d   1      27.431 -15.693   0.906  0.00  0.00     0.042 C 
ENDROOT
BRANCH   1   3
ATOM      3  C   UNL d   1      28.362 -16.331  -1.139  0.00  0.00     0.244 C 
ATOM      4  N   UNL d   1      27.574 -16.389  -2.280  0.00  0.00    -0.323 N 
ATOM      5  H   UNL d   1      26.860 -17.104  -2.276  0.00  0.00     0.169 HD
ATOM      6  O   UNL d   1      29.539 -15.963  -1.135  0.00  0.00    -0.271 OA
BRANCH   4   7
ATOM      7  C   UNL d   1      27.870 -15.738  -3.520  0.00  0.00     0.074 A 
ATOM      8  C   UNL d   1      27.048 -14.734  -4.105  0.00  0.00     0.130 A 
ATOM      9  C   UNL d   1      27.406 -14.107  -5.306  0.00  0.00     0.039 A 
ATOM     10  C   UNL d   1      28.528 -14.503  -6.005  0.00  0.00     0.010 A 
ATOM     11  C   UNL d   1      29.349 -15.518  -5.506  0.00  0.00    -0.054 A 
ATOM     12  C   UNL d   1      30.529 -15.916  -6.362  0.00  0.00     0.049 C 
ATOM     13  C   UNL d   1      29.050 -16.130  -4.246  0.00  0.00    -0.027 A 
ATOM     14  C   UNL d   1      30.038 -17.176  -3.764  0.00  0.00     0.051 C 
BRANCH   8  15
ATOM     15  N   UNL d   1      25.683 -14.396  -3.669  0.00  0.00    -0.113 N 
ATOM     16  O   UNL d   1      24.773 -14.454  -4.503  0.00  0.00    -0.532 OA
ATOM     17  O   UNL d   1      25.563 -13.922  -2.518  0.00  0.00    -0.532 OA
ENDBRANCH   8  15
ENDBRANCH   4   7
ENDBRANCH   1   3
BRANCH   1  18
ATOM     18  N   UNL d   1      26.675 -17.878  -0.275  0.00  0.00    -0.377 N 
ATOM     19  H   UNL d   1      27.002 -18.631  -0.888  0.00  0.00     0.160 HD
BRANCH  18  20
ATOM     20  C   UNL d   1      25.352 -17.531  -0.464  0.00  0.00     0.030 C 
ATOM     21  C   UNL d   1      24.979 -16.267  -0.896  0.00  0.00     0.029 C 
ATOM     22  C   UNL d   1      23.620 -15.955  -1.084  0.00  0.00     0.004 C 
ATOM     23  C   UNL d   1      22.616 -16.929  -0.897  0.00  0.00     0.029 C 
ATOM     24  C   UNL d   1      22.964 -18.183  -0.407  0.00  0.00     0.036 C 
ATOM     25  C   UNL d   1      24.313 -18.394  -0.151  0.00  0.00     0.058 C 
BRANCH  24  26
ATOM     26  N   UNL d   1      22.011 -19.213  -0.124  0.00  0.00    -0.325 N 
ATOM     27  C   UNL d   1      20.671 -19.197  -0.533  0.00  0.00     0.245 C 
ATOM     28  O   UNL d   1      20.090 -18.298  -1.145  0.00  0.00    -0.271 OA
ATOM     29  H   UNL d   1      22.345 -19.999   0.420  0.00  0.00     0.169 HD
BRANCH  27  30
ATOM     30  C   UNL d   1      19.817 -20.397  -0.145  0.00  0.00     0.267 C 
BRANCH  30  31
ATOM     31  O   UNL d   1      18.434 -20.151  -0.422  0.00  0.00    -0.392 OA
ATOM     32  H   UNL d   1      18.407 -19.661  -1.270  0.00  0.00     0.210 HD
ENDBRANCH  30  31
ENDBRANCH  27  30
ENDBRANCH  24  26
ENDBRANCH  18  20
ENDBRANCH   1  18
TORSDOF 8
ENDMDL
MODEL 3
REMARK VINA RESULT:    -8.682      2.544      3.790
REMARK INTER + INTRA:         -13.320
REMARK INTER:                 -11.068
REMARK INTRA:                  -2.252
REMARK CONF_INDEPENDENT:        2.386
REMARK UNBOUND:                -2.252
REMARK  8 active torsions:
REMARK  status: ('A' for Active; 'I' for Inactive)
REMARK    1  A    between atoms: C_5  and  N_6 
REMARK    2  A    between atoms: C_9  and  N_10 
REMARK       I    between atoms: N_10  and  C_11 
REMARK    3  A    between atoms: C_11  and  C_13 
REMARK    4  A    between atoms: C_13  and  N_15 
REMARK    5  A    between atoms: N_15  and  C_16 
REMARK    6  A    between atoms: C_20  and  N_21 
REMARK       I    between atoms: N_21  and  C_22 
REMARK    7  A    between atoms: C_22  and  C_24 
REMARK    8  A    between atoms: C_24  and  O_25 
ROOT
ATOM      1  C   UNL d   1      25.683 -14.856  -3.336  0.00  0.00     0.170 C 
ATOM      2  C   UNL d   1      24.451 -13.991  -3.556  0.00  0.00     0.042 C 
ENDROOT
BRANCH   1   3
ATOM      3  C   UNL d   1      26.373 -14.671  -4.696  0.00  0.00     0.244 C 
ATOM      4  N   UNL d   1      26.923 -13.422  -4.948  0.00  0.00    -0.323 N 
ATOM      5  H   UNL d   1      26.549 -12.665  -4.393  0.00  0.00     0.169 HD
ATOM      6  O   UNL d   1      26.265 -15.558  -5.545  0.00  0.00    -0.271 OA
BRANCH   4   7
ATOM      7  C   UNL d   1      27.731 -13.092  -6.082  0.00  0.00     0.074 A 
ATOM      8  C   UNL d   1      28.850 -13.860  -6.510  0.00  0.00     0.130 A 
ATOM      9  C   UNL d   1      29.586 -13.507  -7.649  0.00  0.00     0.039 A 
ATOM     10  C   UNL d   1      29.299 -12.350  -8.346  0.00  0.00     0.010 A 
ATOM     11  C   UNL d   1      28.243 -11.528  -7.945  0.00  0.00    -0.054 A 
ATOM     12  C   UNL d   1      28.033 -10.260  -8.742  0.00  0.00     0.049 C 
ATOM     13  C   UNL d   1      27.427 -11.899  -6.829  0.00  0.00    -0.027 A 
ATOM     14  C   UNL d   1      26.268 -10.971  -6.515  0.00  0.00     0.051 C 
BRANCH   8  15
ATOM     15  N   UNL d   1      29.483 -14.940  -5.734  0.00  0.00    -0.113 N 
ATOM     16  O   UNL d   1      29.325 -16.104  -6.118  0.00  0.00    -0.532 OA
ATOM     17  O   UNL d   1      30.008 -14.616  -4.647  0.00  0.00    -0.532 OA
ENDBRANCH   8  15
ENDBRANCH   4   7
ENDBRANCH   1   3
BRANCH   1  18
ATOM     18  N   UNL d   1      25.509 -16.319  -3.107  0.00  0.00    -0.377 N 
ATOM     19  H   UNL d   1      25.102 -16.796  -3.917  0.00  0.00     0.160 HD
BRANCH  18  20
ATOM     20  C   UNL d   1      25.233 -16.927  -1.898  0.00  0.00     0.030 C 
ATOM     21  C   UNL d   1      26.234 -17.254  -0.996  0.00  0.00     0.029 C 
ATOM     22  C   UNL d   1      25.912 -17.867   0.229  0.00  0.00     0.004 C 
ATOM     23  C   UNL d   1      24.570 -18.107   0.593  0.00  0.00     0.029 C 
ATOM     24  C   UNL d   1      23.556 -17.841  -0.322  0.00  0.00     0.036 C 
ATOM     25  C   UNL d   1      23.953 -17.327  -1.550  0.00  0.00     0.058 C 
BRANCH  24  26
ATOM     26  N   UNL d   1      22.174 -18.111  -0.071  0.00  0.00    -0.325 N 
ATOM     27  C   UNL d   1      21.335 -18.844  -0.921  0.00  0.00     0.245 C 
ATOM     28  O   UNL d   1      21.623 -19.324  -2.019  0.00  0.00    -0.271 OA
ATOM     29  H   UNL d   1      21.789 -17.730   0.784  0.00  0.00     0.169 HD
BRANCH  27  30
ATOM     30  C   UNL d   1      19.893 -19.036  -0.469  0.00  0.00     0.267 C 
BRANCH  30  31
ATOM     31  O   UNL d   1      19.119 -19.678  -1.489  0.00  0.00    -0.392 OA
ATOM     32  H   UNL d   1      19.457 -19.338  -2.344  0.00  0.00     0.210 HD
ENDBRANCH  30  31
ENDBRANCH  27  30
ENDBRANCH  24  26
ENDBRANCH  18  20
ENDBRANCH   1  18
TORSDOF 8
ENDMDL
MODEL 4
REMARK VINA RESULT:    -8.658      2.546      4.231
REMARK INTER + INTRA:         -13.471
REMARK INTER:                 -11.044
REMARK INTRA:                  -2.427
REMARK CONF_INDEPENDENT:        2.386
REMARK UNBOUND:                -2.427
REMARK  8 active torsions:
REMARK  status: ('A' for Active; 'I' for Inactive)
REMARK    1  A    between atoms: C_5  and  N_6 
REMARK    2  A    between atoms: C_9  and  N_10 
REMARK       I    between atoms: N_10  and  C_11 
REMARK    3  A    between atoms: C_11  and  C_13 
REMARK    4  A    between atoms: C_13  and  N_15 
REMARK    5  A    between atoms: N_15  and  C_16 
REMARK    6  A    between atoms: C_20  and  N_21 
REMARK       I    between atoms: N_21  and  C_22 
REMARK    7  A    between atoms: C_22  and  C_24 
REMARK    8  A    between atoms: C_24  and  O_25 
ROOT
ATOM      1  C   UNL d   1      26.078 -14.864  -2.635  0.00  0.00     0.170 C 
ATOM      2  C   UNL d   1      26.281 -13.771  -1.596  0.00  0.00     0.042 C 
ENDROOT
BRANCH   1   3
ATOM      3  C   UNL d   1      25.840 -13.995  -3.878  0.00  0.00     0.244 C 
ATOM      4  N   UNL d   1      26.794 -13.025  -4.151  0.00  0.00    -0.323 N 
ATOM      5  H   UNL d   1      27.365 -12.747  -3.364  0.00  0.00     0.169 HD
ATOM      6  O   UNL d   1      24.760 -14.080  -4.468  0.00  0.00    -0.271 OA
BRANCH   4   7
ATOM      7  C   UNL d   1      26.836 -12.218  -5.332  0.00  0.00     0.074 A 
ATOM      8  C   UNL d   1      27.441 -12.629  -6.553  0.00  0.00     0.130 A 
ATOM      9  C   UNL d   1      27.422 -11.809  -7.690  0.00  0.00     0.039 A 
ATOM     10  C   UNL d   1      26.887 -10.538  -7.636  0.00  0.00     0.010 A 
ATOM     11  C   UNL d   1      26.323 -10.058  -6.451  0.00  0.00    -0.054 A 
ATOM     12  C   UNL d   1      25.804  -8.639  -6.475  0.00  0.00     0.049 C 
ATOM     13  C   UNL d   1      26.262 -10.898  -5.293  0.00  0.00    -0.027 A 
ATOM     14  C   UNL d   1      25.572 -10.306  -4.078  0.00  0.00     0.051 C 
BRANCH   8  15
ATOM     15  N   UNL d   1      28.309 -13.808  -6.714  0.00  0.00    -0.113 N 
ATOM     16  O   UNL d   1      29.443 -13.639  -7.174  0.00  0.00    -0.532 OA
ATOM     17  O   UNL d   1      27.781 -14.924  -6.518  0.00  0.00    -0.532 OA
ENDBRANCH   8  15
ENDBRANCH   4   7
ENDBRANCH   1   3
BRANCH   1  18
ATOM     18  N   UNL d   1      24.917 -15.790  -2.495  0.00  0.00    -0.377 N 
ATOM     19  H   UNL d   1      24.047 -15.382  -2.849  0.00  0.00     0.160 HD
BRANCH  18  20
ATOM     20  C   UNL d   1      24.736 -16.722  -1.493  0.00  0.00     0.030 C 
ATOM     21  C   UNL d   1      25.806 -17.321  -0.845  0.00  0.00     0.029 C 
ATOM     22  C   UNL d   1      25.579 -18.262   0.176  0.00  0.00     0.004 C 
ATOM     23  C   UNL d   1      24.271 -18.573   0.604  0.00  0.00     0.029 C 
ATOM     24  C   UNL d   1      23.184 -18.029  -0.073  0.00  0.00     0.036 C 
ATOM     25  C   UNL d   1      23.479 -17.182  -1.134  0.00  0.00     0.058 C 
BRANCH  24  26
ATOM     26  N   UNL d   1      21.823 -18.333   0.244  0.00  0.00    -0.325 N 
ATOM     27  C   UNL d   1      20.924 -18.973  -0.621  0.00  0.00     0.245 C 
ATOM     28  O   UNL d   1      21.134 -19.327  -1.782  0.00  0.00    -0.271 OA
ATOM     29  H   UNL d   1      21.499 -18.051   1.161  0.00  0.00     0.169 HD
BRANCH  27  30
ATOM     30  C   UNL d   1      19.518 -19.223  -0.092  0.00  0.00     0.267 C 
BRANCH  30  31
ATOM     31  O   UNL d   1      18.776 -20.059  -0.988  0.00  0.00    -0.392 OA
ATOM     32  H   UNL d   1      18.937 -19.705  -1.888  0.00  0.00     0.210 HD
ENDBRANCH  30  31
ENDBRANCH  27  30
ENDBRANCH  24  26
ENDBRANCH  18  20
ENDBRANCH   1  18
TORSDOF 8
ENDMDL
MODEL 5
REMARK VINA RESULT:    -8.479      2.415      3.180
REMARK INTER + INTRA:         -13.428
REMARK INTER:                 -10.866
REMARK INTRA:                  -2.562
REMARK CONF_INDEPENDENT:        2.386
REMARK UNBOUND:                -2.562
REMARK  8 active torsions:
REMARK  status: ('A' for Active; 'I' for Inactive)
REMARK    1  A    between atoms: C_5  and  N_6 
REMARK    2  A    between atoms: C_9  and  N_10 
REMARK       I    between atoms: N_10  and  C_11 
REMARK    3  A    between atoms: C_11  and  C_13 
REMARK    4  A    between atoms: C_13  and  N_15 
REMARK    5  A    between atoms: N_15  and  C_16 
REMARK    6  A    between atoms: C_20  and  N_21 
REMARK       I    between atoms: N_21  and  C_22 
REMARK    7  A    between atoms: C_22  and  C_24 
REMARK    8  A    between atoms: C_24  and  O_25 
ROOT
ATOM      1  C   UNL d   1      25.639 -14.848  -3.339  0.00  0.00     0.170 C 
ATOM      2  C   UNL d   1      24.472 -13.919  -3.642  0.00  0.00     0.042 C 
ENDROOT
BRANCH   1   3
ATOM      3  C   UNL d   1      26.431 -14.700  -4.646  0.00  0.00     0.244 C 
ATOM      4  N   UNL d   1      27.042 -13.473  -4.867  0.00  0.00    -0.323 N 
ATOM      5  H   UNL d   1      26.655 -12.698  -4.345  0.00  0.00     0.169 HD
ATOM      6  O   UNL d   1      26.355 -15.591  -5.494  0.00  0.00    -0.271 OA
BRANCH   4   7
ATOM      7  C   UNL d   1      27.941 -13.182  -5.941  0.00  0.00     0.074 A 
ATOM      8  C   UNL d   1      27.766 -12.103  -6.853  0.00  0.00     0.130 A 
ATOM      9  C   UNL d   1      28.698 -11.845  -7.867  0.00  0.00     0.039 A 
ATOM     10  C   UNL d   1      29.776 -12.684  -8.066  0.00  0.00     0.010 A 
ATOM     11  C   UNL d   1      29.975 -13.789  -7.234  0.00  0.00    -0.054 A 
ATOM     12  C   UNL d   1      31.156 -14.675  -7.558  0.00  0.00     0.049 C 
ATOM     13  C   UNL d   1      29.080 -14.038  -6.145  0.00  0.00    -0.027 A 
ATOM     14  C   UNL d   1      29.421 -15.226  -5.264  0.00  0.00     0.051 C 
BRANCH   8  15
ATOM     15  N   UNL d   1      26.542 -11.295  -6.983  0.00  0.00    -0.113 N 
ATOM     16  O   UNL d   1      25.699 -11.363  -6.082  0.00  0.00    -0.532 OA
ATOM     17  O   UNL d   1      26.367 -10.713  -8.076  0.00  0.00    -0.532 OA
ENDBRANCH   8  15
ENDBRANCH   4   7
ENDBRANCH   1   3
BRANCH   1  18
ATOM     18  N   UNL d   1      25.371 -16.300  -3.128  0.00  0.00    -0.377 N 
ATOM     19  H   UNL d   1      24.810 -16.707  -3.882  0.00  0.00     0.160 HD
BRANCH  18  20
ATOM     20  C   UNL d   1      25.222 -16.932  -1.910  0.00  0.00     0.030 C 
ATOM     21  C   UNL d   1      26.197 -16.869  -0.926  0.00  0.00     0.029 C 
ATOM     22  C   UNL d   1      26.005 -17.521   0.305  0.00  0.00     0.004 C 
ATOM     23  C   UNL d   1      24.801 -18.200   0.590  0.00  0.00     0.029 C 
ATOM     24  C   UNL d   1      23.836 -18.326  -0.404  0.00  0.00     0.036 C 
ATOM     25  C   UNL d   1      24.132 -17.741  -1.628  0.00  0.00     0.058 C 
BRANCH  24  26
ATOM     26  N   UNL d   1      22.614 -19.050  -0.232  0.00  0.00    -0.325 N 
ATOM     27  C   UNL d   1      21.354 -18.601  -0.652  0.00  0.00     0.245 C 
ATOM     28  O   UNL d   1      21.086 -17.520  -1.178  0.00  0.00    -0.271 OA
ATOM     29  H   UNL d   1      22.682 -19.945   0.235  0.00  0.00     0.169 HD
BRANCH  27  30
ATOM     30  C   UNL d   1      20.171 -19.526  -0.391  0.00  0.00     0.267 C 
BRANCH  30  31
ATOM     31  O   UNL d   1      19.147 -19.334  -1.373  0.00  0.00    -0.392 OA
ATOM     32  H   UNL d   1      19.200 -18.394  -1.644  0.00  0.00     0.210 HD
ENDBRANCH  30  31
ENDBRANCH  27  30
ENDBRANCH  24  26
ENDBRANCH  18  20
ENDBRANCH   1  18
TORSDOF 8
ENDMDL
MODEL 6
REMARK VINA RESULT:    -7.943      3.198      4.631
REMARK INTER + INTRA:         -13.018
REMARK INTER:                 -10.330
REMARK INTRA:                  -2.689
REMARK CONF_INDEPENDENT:        2.386
REMARK UNBOUND:                -2.689
REMARK  8 active torsions:
REMARK  status: ('A' for Active; 'I' for Inactive)
REMARK    1  A    between atoms: C_5  and  N_6 
REMARK    2  A    between atoms: C_9  and  N_10 
REMARK       I    between atoms: N_10  and  C_11 
REMARK    3  A    between atoms: C_11  and  C_13 
REMARK    4  A    between atoms: C_13  and  N_15 
REMARK    5  A    between atoms: N_15  and  C_16 
REMARK    6  A    between atoms: C_20  and  N_21 
REMARK       I    between atoms: N_21  and  C_22 
REMARK    7  A    between atoms: C_22  and  C_24 
REMARK    8  A    between atoms: C_24  and  O_25 
ROOT
ATOM      1  C   UNL d   1      26.444 -14.579  -2.668  0.00  0.00     0.170 C 
ATOM      2  C   UNL d   1      26.336 -13.539  -1.563  0.00  0.00     0.042 C 
ENDROOT
BRANCH   1   3
ATOM      3  C   UNL d   1      26.107 -13.700  -3.881  0.00  0.00     0.244 C 
ATOM      4  N   UNL d   1      26.949 -12.623  -4.122  0.00  0.00    -0.323 N 
ATOM      5  H   UNL d   1      27.490 -12.312  -3.327  0.00  0.00     0.169 HD
ATOM      6  O   UNL d   1      25.040 -13.883  -4.472  0.00  0.00    -0.271 OA
BRANCH   4   7
ATOM      7  C   UNL d   1      26.896 -11.778  -5.276  0.00  0.00     0.074 A 
ATOM      8  C   UNL d   1      26.289 -10.491  -5.290  0.00  0.00     0.130 A 
ATOM      9  C   UNL d   1      26.296  -9.693  -6.441  0.00  0.00     0.039 A 
ATOM     10  C   UNL d   1      26.822 -10.167  -7.627  0.00  0.00     0.010 A 
ATOM     11  C   UNL d   1      27.388 -11.442  -7.689  0.00  0.00    -0.054 A 
ATOM     12  C   UNL d   1      27.896 -11.892  -9.040  0.00  0.00     0.049 C 
ATOM     13  C   UNL d   1      27.460 -12.255  -6.512  0.00  0.00    -0.027 A 
ATOM     14  C   UNL d   1      28.151 -13.596  -6.671  0.00  0.00     0.051 C 
BRANCH   8  15
ATOM     15  N   UNL d   1      25.429  -9.949  -4.225  0.00  0.00    -0.113 N 
ATOM     16  O   UNL d   1      25.318 -10.596  -3.178  0.00  0.00    -0.532 OA
ATOM     17  O   UNL d   1      24.743  -8.944  -4.514  0.00  0.00    -0.532 OA
ENDBRANCH   8  15
ENDBRANCH   4   7
ENDBRANCH   1   3
BRANCH   1  18
ATOM     18  N   UNL d   1      25.505 -15.737  -2.667  0.00  0.00    -0.377 N 
ATOM     19  H   UNL d   1      24.704 -15.591  -3.289  0.00  0.00     0.160 HD
BRANCH  18  20
ATOM     20  C   UNL d   1      25.245 -16.573  -1.599  0.00  0.00     0.030 C 
ATOM     21  C   UNL d   1      26.255 -17.060  -0.784  0.00  0.00     0.029 C 
ATOM     22  C   UNL d   1      25.948 -17.904   0.298  0.00  0.00     0.004 C 
ATOM     23  C   UNL d   1      24.612 -18.226   0.615  0.00  0.00     0.029 C 
ATOM     24  C   UNL d   1      23.589 -17.798  -0.224  0.00  0.00     0.036 C 
ATOM     25  C   UNL d   1      23.970 -17.048  -1.330  0.00  0.00     0.058 C 
BRANCH  24  26
ATOM     26  N   UNL d   1      22.211 -18.127  -0.023  0.00  0.00    -0.325 N 
ATOM     27  C   UNL d   1      21.430 -18.875  -0.915  0.00  0.00     0.245 C 
ATOM     28  O   UNL d   1      21.772 -19.321  -2.011  0.00  0.00    -0.271 OA
ATOM     29  H   UNL d   1      21.784 -17.779   0.826  0.00  0.00     0.169 HD
BRANCH  27  30
ATOM     30  C   UNL d   1      19.983 -19.134  -0.513  0.00  0.00     0.267 C 
BRANCH  30  31
ATOM     31  O   UNL d   1      19.205 -19.546  -1.643  0.00  0.00    -0.392 OA
ATOM     32  H   UNL d   1      19.742 -19.337  -2.436  0.00  0.00     0.210 HD
ENDBRANCH  30  31
ENDBRANCH  27  30
ENDBRANCH  24  26
ENDBRANCH  18  20
ENDBRANCH   1  18
TORSDOF 8
ENDMDL
