MODEL 1
REMARK VINA RESULT:    -9.320      0.000      0.000
REMARK INTER + INTRA:         -16.128
REMARK INTER:                 -13.496
REMARK INTRA:                  -2.632
REMARK CONF_INDEPENDENT:        4.176
REMARK UNBOUND:                -2.632
REMARK  14 active torsions:
REMARK  status: ('A' for Active; 'I' for Inactive)
REMARK    1  A    between atoms: C_2  and  C_3 
REMARK    2  A    between atoms: C_3  and  C_4 
REMARK    3  A    between atoms: C_4  and  C_5 
REMARK    4  A    between atoms: C_5  and  C_6 
REMARK    5  A    between atoms: C_6  and  O_7 
REMARK    6  A    between atoms: O_7  and  C_8 
REMARK    7  A    between atoms: C_11  and  C_12 
REMARK       I    between atoms: C_12  and  N_14 
REMARK    8  A    between atoms: N_14  and  C_15 
REMARK    9  A    between atoms: C_15  and  N_17 
REMARK   10  A    between atoms: C_23  and  C_24 
REMARK   11  A    between atoms: C_24  and  C_25 
REMARK   12  A    between atoms: C_25  and  O_27 
REMARK   13  A    between atoms: C_28  and  O_27 
REMARK   14  A    between atoms: C_28  and  C_30 
ROOT
ATOM      1  C   UNL d   1      27.209 -12.297  -2.299  0.00  0.00     0.177 C 
ATOM      2  S   UNL d   1      28.700 -11.975  -1.577  0.00  0.00    -0.041 SA
ENDROOT
BRANCH   1   3
ATOM      3  N   UNL d   1      26.455 -13.484  -2.026  0.00  0.00    -0.299 N 
ATOM      4  C   UNL d   1      26.785 -14.601  -1.184  0.00  0.00     0.257 C 
ATOM      5  O   UNL d   1      27.811 -14.649  -0.506  0.00  0.00    -0.267 OA
ATOM      6  H   UNL d   1      25.659 -13.610  -2.620  0.00  0.00     0.171 HD
BRANCH   4   7
ATOM      7  C   UNL d   1      25.885 -15.828  -1.056  0.00  0.00     0.032 C 
ATOM      8  C   UNL d   1      26.166 -16.770  -0.044  0.00  0.00     0.020 C 
ATOM      9  C   UNL d   1      25.397 -17.943   0.116  0.00  0.00     0.038 C 
ATOM     10  C   UNL d   1      24.235 -18.131  -0.626  0.00  0.00     0.068 C 
ATOM     11  C   UNL d   1      23.911 -17.183  -1.582  0.00  0.00     0.038 C 
ATOM     12  C   UNL d   1      24.792 -16.124  -1.868  0.00  0.00     0.020 C 
BRANCH  10  13
ATOM     13  O   UNL d   1      23.464 -19.220  -0.332  0.00  0.00    -0.351 OA
BRANCH  13  14
ATOM     14  C   UNL d   1      22.180 -18.921   0.230  0.00  0.00     0.175 C 
BRANCH  14  15
ATOM     15  C   UNL d   1      21.235 -18.523  -0.896  0.00  0.00     0.027 C 
BRANCH  15  16
ATOM     16  C   UNL d   1      20.274 -19.661  -1.225  0.00  0.00     0.002 C 
BRANCH  16  17
ATOM     17  C   UNL d   1      19.157 -19.739  -0.192  0.00  0.00    -0.000 C 
BRANCH  17  18
ATOM     18  C   UNL d   1      19.357 -20.931   0.738  0.00  0.00    -0.005 C 
ATOM     19  C   UNL d   1      18.024 -21.419   1.275  0.00  0.00     0.005 C 
ENDBRANCH  17  18
ENDBRANCH  16  17
ENDBRANCH  15  16
ENDBRANCH  14  15
ENDBRANCH  13  14
ENDBRANCH  10  13
ENDBRANCH   4   7
ENDBRANCH   1   3
BRANCH   1  20
ATOM     20  N   UNL d   1      26.690 -11.463  -3.351  0.00  0.00    -0.343 N 
ATOM     21  C   UNL d   1      26.254 -10.095  -3.000  0.00  0.00     0.146 C 
ATOM     22  C   UNL d   1      26.743  -9.166  -4.102  0.00  0.00     0.142 C 
ATOM     23  N   UNL d   1      26.154  -9.512  -5.367  0.00  0.00    -0.358 N 
ATOM     24  C   UNL d   1      25.890 -10.795  -5.729  0.00  0.00     0.241 C 
ATOM     25  H   UNL d   1      26.157  -8.867  -6.148  0.00  0.00     0.162 HD
ATOM     26  O   UNL d   1      25.578 -10.981  -6.902  0.00  0.00    -0.271 OA
ATOM     27  C   UNL d   1      25.945 -11.903  -4.626  0.00  0.00     0.188 C 
BRANCH  27  28
ATOM     28  C   UNL d   1      26.614 -13.083  -5.243  0.00  0.00     0.146 C 
BRANCH  28  29
ATOM     29  C   UNL d   1      26.166 -14.483  -4.929  0.00  0.00     0.261 C 
ATOM     30  O   UNL d   1      25.090 -14.742  -4.387  0.00  0.00    -0.265 OA
BRANCH  29  31
ATOM     31  O   UNL d   1      27.030 -15.490  -5.207  0.00  0.00    -0.316 OA
BRANCH  31  32
ATOM     32  C   UNL d   1      28.471 -15.578  -5.043  0.00  0.00     0.127 C 
ATOM     33  C   UNL d   1      28.982 -15.259  -3.680  0.00  0.00     0.040 C 
BRANCH  32  34
ATOM     34  C   UNL d   1      29.163 -14.668  -6.064  0.00  0.00     0.027 C 
ATOM     35  C   UNL d   1      30.132 -15.482  -6.894  0.00  0.00     0.007 C 
ENDBRANCH  32  34
ENDBRANCH  31  32
ENDBRANCH  29  31
ENDBRANCH  28  29
ENDBRANCH  27  28
ENDBRANCH   1  20
TORSDOF 14
ENDMDL
MODEL 2
REMARK VINA RESULT:    -8.987      2.349      4.140
REMARK INTER + INTRA:         -16.087
REMARK INTER:                 -13.164
REMARK INTRA:                  -2.923
REMARK CONF_INDEPENDENT:        4.176
REMARK UNBOUND:                -2.923
REMARK  14 active torsions:
REMARK  status: ('A' for Active; 'I' for Inactive)
REMARK    1  A    between atoms: C_2  and  C_3 
REMARK    2  A    between atoms: C_3  and  C_4 
REMARK    3  A    between atoms: C_4  and  C_5 
REMARK    4  A    between atoms: C_5  and  C_6 
REMARK    5  A    between atoms: C_6  and  O_7 
REMARK    6  A    between atoms: O_7  and  C_8 
REMARK    7  A    between atoms: C_11  and  C_12 
REMARK       I    between atoms: C_12  and  N_14 
REMARK    8  A    between atoms: N_14  and  C_15 
REMARK    9  A    between atoms: C_15  and  N_17 
REMARK   10  A    between atoms: C_23  and  C_24 
REMARK   11  A    between atoms: C_24  and  C_25 
REMARK   12  A    between atoms: C_25  and  O_27 
REMARK   13  A    between atoms: C_28  and  O_27 
REMARK   14  A    between atoms: C_28  and  C_30 
ROOT
ATOM      1  C   UNL d   1      29.532 -15.558  -2.223  0.00  0.00     0.177 C 
ATOM      2  S   UNL d   1      30.601 -14.920  -1.085  0.00  0.00    -0.041 SA
ENDROOT
BRANCH   1   3
ATOM      3  N   UNL d   1      28.178 -15.905  -1.908  0.00  0.00    -0.299 N 
ATOM      4  C   UNL d   1      27.679 -16.955  -1.063  0.00  0.00     0.257 C 
ATOM      5  O   UNL d   1      28.413 -17.705  -0.421  0.00  0.00    -0.267 OA
ATOM      6  H   UNL d   1      27.494 -15.440  -2.472  0.00  0.00     0.171 HD
BRANCH   4   7
ATOM      7  C   UNL d   1      26.186 -17.228  -0.887  0.00  0.00     0.032 C 
ATOM      8  C   UNL d   1      25.784 -18.201   0.052  0.00  0.00     0.020 C 
ATOM      9  C   UNL d   1      24.425 -18.530   0.248  0.00  0.00     0.038 C 
ATOM     10  C   UNL d   1      23.424 -17.789  -0.372  0.00  0.00     0.068 C 
ATOM     11  C   UNL d   1      23.803 -16.788  -1.251  0.00  0.00     0.038 C 
ATOM     12  C   UNL d   1      25.156 -16.605  -1.588  0.00  0.00     0.020 C 
BRANCH  10  13
ATOM     13  O   UNL d   1      22.129 -18.070  -0.040  0.00  0.00    -0.351 OA
BRANCH  13  14
ATOM     14  C   UNL d   1      21.677 -19.378  -0.412  0.00  0.00     0.175 C 
BRANCH  14  15
ATOM     15  C   UNL d   1      20.350 -19.245  -1.147  0.00  0.00     0.027 C 
BRANCH  15  16
ATOM     16  C   UNL d   1      19.179 -19.339  -0.172  0.00  0.00     0.002 C 
BRANCH  16  17
ATOM     17  C   UNL d   1      19.668 -19.704   1.224  0.00  0.00    -0.000 C 
BRANCH  17  18
ATOM     18  C   UNL d   1      18.651 -20.585   1.942  0.00  0.00    -0.005 C 
ATOM     19  C   UNL d   1      18.024 -21.573   0.976  0.00  0.00     0.005 C 
ENDBRANCH  17  18
ENDBRANCH  16  17
ENDBRANCH  15  16
ENDBRANCH  14  15
ENDBRANCH  13  14
ENDBRANCH  10  13
ENDBRANCH   4   7
ENDBRANCH   1   3
BRANCH   1  20
ATOM     20  N   UNL d   1      29.975 -15.933  -3.541  0.00  0.00    -0.343 N 
ATOM     21  C   UNL d   1      31.007 -16.985  -3.652  0.00  0.00     0.146 C 
ATOM     22  C   UNL d   1      30.605 -17.895  -4.804  0.00  0.00     0.142 C 
ATOM     23  N   UNL d   1      30.569 -17.171  -6.045  0.00  0.00    -0.358 N 
ATOM     24  C   UNL d   1      30.168 -15.875  -6.129  0.00  0.00     0.241 C 
ATOM     25  H   UNL d   1      30.574 -17.649  -6.939  0.00  0.00     0.162 HD
ATOM     26  O   UNL d   1      29.988 -15.429  -7.259  0.00  0.00    -0.271 OA
ATOM     27  C   UNL d   1      30.032 -15.054  -4.805  0.00  0.00     0.188 C 
BRANCH  27  28
ATOM     28  C   UNL d   1      28.789 -14.242  -4.935  0.00  0.00     0.146 C 
BRANCH  28  29
ATOM     29  C   UNL d   1      27.438 -14.895  -5.020  0.00  0.00     0.261 C 
ATOM     30  O   UNL d   1      26.967 -15.336  -6.070  0.00  0.00    -0.265 OA
BRANCH  29  31
ATOM     31  O   UNL d   1      26.694 -14.935  -3.888  0.00  0.00    -0.316 OA
BRANCH  31  32
ATOM     32  C   UNL d   1      25.726 -13.992  -3.353  0.00  0.00     0.127 C 
ATOM     33  C   UNL d   1      24.577 -13.677  -4.248  0.00  0.00     0.040 C 
BRANCH  32  34
ATOM     34  C   UNL d   1      26.435 -12.689  -2.967  0.00  0.00     0.027 C 
ATOM     35  C   UNL d   1      26.229 -11.658  -4.055  0.00  0.00     0.007 C 
ENDBRANCH  32  34
ENDBRANCH  31  32
ENDBRANCH  29  31
ENDBRANCH  28  29
ENDBRANCH  27  28
ENDBRANCH   1  20
TORSDOF 14
ENDMDL
MODEL 3
REMARK VINA RESULT:    -8.507      2.400      4.171
REMARK INTER + INTRA:         -15.666
REMARK INTER:                 -12.683
REMARK INTRA:                  -2.983
REMARK CONF_INDEPENDENT:        4.176
REMARK UNBOUND:                -2.983
REMARK  14 active torsions:
REMARK  status: ('A' for Active; 'I' for Inactive)
REMARK    1  A    between atoms: C_2  and  C_3 
REMARK    2  A    between atoms: C_3  and  C_4 
REMARK    3  A    between atoms: C_4  and  C_5 
REMARK    4  A    between atoms: C_5  and  C_6 
REMARK    5  A    between atoms: C_6  and  O_7 
REMARK    6  A    between atoms: O_7  and  C_8 
REMARK    7  A    between atoms: C_11  and  C_12 
REMARK       I    between atoms: C_12  and  N_14 
REMARK    8  A    between atoms: N_14  and  C_15 
REMARK    9  A    between atoms: C_15  and  N_17 
REMARK   10  A    between atoms: C_23  and  C_24 
REMARK   11  A    between atoms: C_24  and  C_25 
REMARK   12  A    between atoms: C_25  and  O_27 
REMARK   13  A    between atoms: C_28  and  O_27 
REMARK   14  A    between atoms: C_28  and  C_30 
ROOT
ATOM      1  C   UNL d   1      29.516 -15.343  -2.184  0.00  0.00     0.177 C 
ATOM      2  S   UNL d   1      30.649 -14.622  -1.163  0.00  0.00    -0.041 SA
ENDROOT
BRANCH   1   3
ATOM      3  N   UNL d   1      28.197 -15.698  -1.753  0.00  0.00    -0.299 N 
ATOM      4  C   UNL d   1      27.739 -16.903  -1.117  0.00  0.00     0.257 C 
ATOM      5  O   UNL d   1      28.494 -17.820  -0.797  0.00  0.00    -0.267 OA
ATOM      6  H   UNL d   1      27.479 -15.078  -2.075  0.00  0.00     0.171 HD
BRANCH   4   7
ATOM      7  C   UNL d   1      26.270 -17.147  -0.779  0.00  0.00     0.032 C 
ATOM      8  C   UNL d   1      25.282 -16.588  -1.618  0.00  0.00     0.020 C 
ATOM      9  C   UNL d   1      23.905 -16.744  -1.353  0.00  0.00     0.038 C 
ATOM     10  C   UNL d   1      23.474 -17.591  -0.337  0.00  0.00     0.068 C 
ATOM     11  C   UNL d   1      24.433 -18.197   0.458  0.00  0.00     0.038 C 
ATOM     12  C   UNL d   1      25.794 -17.875   0.309  0.00  0.00     0.020 C 
BRANCH  10  13
ATOM     13  O   UNL d   1      22.130 -17.804  -0.215  0.00  0.00    -0.351 OA
BRANCH  13  14
ATOM     14  C   UNL d   1      21.542 -18.585  -1.263  0.00  0.00     0.175 C 
BRANCH  14  15
ATOM     15  C   UNL d   1      20.103 -18.907  -0.884  0.00  0.00     0.027 C 
BRANCH  15  16
ATOM     16  C   UNL d   1      20.043 -20.126   0.032  0.00  0.00     0.002 C 
BRANCH  16  17
ATOM     17  C   UNL d   1      19.662 -19.718   1.449  0.00  0.00    -0.000 C 
BRANCH  17  18
ATOM     18  C   UNL d   1      18.515 -20.576   1.972  0.00  0.00    -0.005 C 
ATOM     19  C   UNL d   1      17.988 -21.488   0.879  0.00  0.00     0.005 C 
ENDBRANCH  17  18
ENDBRANCH  16  17
ENDBRANCH  15  16
ENDBRANCH  14  15
ENDBRANCH  13  14
ENDBRANCH  10  13
ENDBRANCH   4   7
ENDBRANCH   1   3
BRANCH   1  20
ATOM     20  N   UNL d   1      29.872 -15.781  -3.508  0.00  0.00    -0.343 N 
ATOM     21  C   UNL d   1      30.909 -16.826  -3.638  0.00  0.00     0.146 C 
ATOM     22  C   UNL d   1      30.441 -17.799  -4.711  0.00  0.00     0.142 C 
ATOM     23  N   UNL d   1      30.308 -17.140  -5.982  0.00  0.00    -0.358 N 
ATOM     24  C   UNL d   1      29.884 -15.855  -6.104  0.00  0.00     0.241 C 
ATOM     25  H   UNL d   1      30.258 -17.663  -6.848  0.00  0.00     0.162 HD
ATOM     26  O   UNL d   1      29.620 -15.470  -7.240  0.00  0.00    -0.271 OA
ATOM     27  C   UNL d   1      29.829 -14.967  -4.817  0.00  0.00     0.188 C 
BRANCH  27  28
ATOM     28  C   UNL d   1      28.568 -14.176  -4.901  0.00  0.00     0.146 C 
BRANCH  28  29
ATOM     29  C   UNL d   1      27.224 -14.847  -4.853  0.00  0.00     0.261 C 
ATOM     30  O   UNL d   1      26.784 -15.541  -5.772  0.00  0.00    -0.265 OA
BRANCH  29  31
ATOM     31  O   UNL d   1      26.451 -14.614  -3.766  0.00  0.00    -0.316 OA
BRANCH  31  32
ATOM     32  C   UNL d   1      26.126 -13.375  -3.078  0.00  0.00     0.127 C 
ATOM     33  C   UNL d   1      25.374 -12.373  -3.885  0.00  0.00     0.040 C 
BRANCH  32  34
ATOM     34  C   UNL d   1      27.410 -12.730  -2.544  0.00  0.00     0.027 C 
ATOM     35  C   UNL d   1      27.421 -12.801  -1.033  0.00  0.00     0.007 C 
ENDBRANCH  32  34
ENDBRANCH  31  32
ENDBRANCH  29  31
ENDBRANCH  28  29
ENDBRANCH  27  28
ENDBRANCH   1  20
TORSDOF 14
ENDMDL
MODEL 4
REMARK VINA RESULT:    -8.147      1.991      3.755
REMARK INTER + INTRA:         -15.195
REMARK INTER:                 -12.324
REMARK INTRA:                  -2.871
REMARK CONF_INDEPENDENT:        4.176
REMARK UNBOUND:                -2.871
REMARK  14 active torsions:
REMARK  status: ('A' for Active; 'I' for Inactive)
REMARK    1  A    between atoms: C_2  and  C_3 
REMARK    2  A    between atoms: C_3  and  C_4 
REMARK    3  A    between atoms: C_4  and  C_5 
REMARK    4  A    between atoms: C_5  and  C_6 
REMARK    5  A    between atoms: C_6  and  O_7 
REMARK    6  A    between atoms: O_7  and  C_8 
REMARK    7  A    between atoms: C_11  and  C_12 
REMARK       I    between atoms: C_12  and  N_14 
REMARK    8  A    between atoms: N_14  and  C_15 
REMARK    9  A    between atoms: C_15  and  N_17 
REMARK   10  A    between atoms: C_23  and  C_24 
REMARK   11  A    between atoms: C_24  and  C_25 
REMARK   12  A    between atoms: C_25  and  O_27 
REMARK   13  A    between atoms: C_28  and  O_27 
REMARK   14  A    between atoms: C_28  and  C_30 
ROOT
ATOM      1  C   UNL d   1      27.417 -13.201  -3.422  0.00  0.00     0.177 C 
ATOM      2  S   UNL d   1      27.828 -11.669  -2.848  0.00  0.00    -0.041 SA
ENDROOT
BRANCH   1   3
ATOM      3  N   UNL d   1      26.681 -14.151  -2.643  0.00  0.00    -0.299 N 
ATOM      4  C   UNL d   1      25.588 -14.999  -3.032  0.00  0.00     0.257 C 
ATOM      5  O   UNL d   1      25.157 -15.050  -4.184  0.00  0.00    -0.267 OA
ATOM      6  H   UNL d   1      26.863 -14.104  -1.659  0.00  0.00     0.171 HD
BRANCH   4   7
ATOM      7  C   UNL d   1      24.867 -15.916  -2.046  0.00  0.00     0.032 C 
ATOM      8  C   UNL d   1      23.557 -15.580  -1.645  0.00  0.00     0.020 C 
ATOM      9  C   UNL d   1      22.840 -16.361  -0.714  0.00  0.00     0.038 C 
ATOM     10  C   UNL d   1      23.347 -17.581  -0.278  0.00  0.00     0.068 C 
ATOM     11  C   UNL d   1      24.608 -17.956  -0.712  0.00  0.00     0.038 C 
ATOM     12  C   UNL d   1      25.392 -17.075  -1.479  0.00  0.00     0.020 C 
BRANCH  10  13
ATOM     13  O   UNL d   1      22.548 -18.353   0.518  0.00  0.00    -0.351 OA
BRANCH  13  14
ATOM     14  C   UNL d   1      21.914 -19.454  -0.145  0.00  0.00     0.175 C 
BRANCH  14  15
ATOM     15  C   UNL d   1      20.687 -18.937  -0.884  0.00  0.00     0.027 C 
BRANCH  15  16
ATOM     16  C   UNL d   1      19.414 -19.569  -0.330  0.00  0.00     0.002 C 
BRANCH  16  17
ATOM     17  C   UNL d   1      19.346 -19.407   1.183  0.00  0.00    -0.000 C 
BRANCH  17  18
ATOM     18  C   UNL d   1      18.822 -20.678   1.843  0.00  0.00    -0.005 C 
ATOM     19  C   UNL d   1      18.030 -21.509   0.849  0.00  0.00     0.005 C 
ENDBRANCH  17  18
ENDBRANCH  16  17
ENDBRANCH  15  16
ENDBRANCH  14  15
ENDBRANCH  13  14
ENDBRANCH  10  13
ENDBRANCH   4   7
ENDBRANCH   1   3
BRANCH   1  20
ATOM     20  N   UNL d   1      27.923 -13.692  -4.677  0.00  0.00    -0.343 N 
ATOM     21  C   UNL d   1      27.339 -13.148  -5.921  0.00  0.00     0.146 C 
ATOM     22  C   UNL d   1      28.484 -12.904  -6.893  0.00  0.00     0.142 C 
ATOM     23  N   UNL d   1      29.157 -14.134  -7.215  0.00  0.00    -0.358 N 
ATOM     24  C   UNL d   1      29.330 -15.136  -6.313  0.00  0.00     0.241 C 
ATOM     25  H   UNL d   1      29.764 -14.211  -8.023  0.00  0.00     0.162 HD
ATOM     26  O   UNL d   1      30.089 -16.043  -6.642  0.00  0.00    -0.271 OA
ATOM     27  C   UNL d   1      28.514 -15.083  -4.981  0.00  0.00     0.188 C 
BRANCH  27  28
ATOM     28  C   UNL d   1      29.446 -15.504  -3.896  0.00  0.00     0.146 C 
BRANCH  28  29
ATOM     29  C   UNL d   1      28.929 -15.942  -2.554  0.00  0.00     0.261 C 
ATOM     30  O   UNL d   1      28.500 -17.076  -2.333  0.00  0.00    -0.265 OA
BRANCH  29  31
ATOM     31  O   UNL d   1      28.885 -15.010  -1.570  0.00  0.00    -0.316 OA
BRANCH  31  32
ATOM     32  C   UNL d   1      29.618 -14.915  -0.318  0.00  0.00     0.127 C 
ATOM     33  C   UNL d   1      30.700 -15.923  -0.131  0.00  0.00     0.040 C 
BRANCH  32  34
ATOM     34  C   UNL d   1      28.640 -15.003   0.859  0.00  0.00     0.027 C 
ATOM     35  C   UNL d   1      27.220 -15.024   0.337  0.00  0.00     0.007 C 
ENDBRANCH  32  34
ENDBRANCH  31  32
ENDBRANCH  29  31
ENDBRANCH  28  29
ENDBRANCH  27  28
ENDBRANCH   1  20
TORSDOF 14
ENDMDL
MODEL 5
REMARK VINA RESULT:    -7.957      4.781      7.120
REMARK INTER + INTRA:         -14.595
REMARK INTER:                 -12.134
REMARK INTRA:                  -2.462
REMARK CONF_INDEPENDENT:        4.176
REMARK UNBOUND:                -2.462
REMARK  14 active torsions:
REMARK  status: ('A' for Active; 'I' for Inactive)
REMARK    1  A    between atoms: C_2  and  C_3 
REMARK    2  A    between atoms: C_3  and  C_4 
REMARK    3  A    between atoms: C_4  and  C_5 
REMARK    4  A    between atoms: C_5  and  C_6 
REMARK    5  A    between atoms: C_6  and  O_7 
REMARK    6  A    between atoms: O_7  and  C_8 
REMARK    7  A    between atoms: C_11  and  C_12 
REMARK       I    between atoms: C_12  and  N_14 
REMARK    8  A    between atoms: N_14  and  C_15 
REMARK    9  A    between atoms: C_15  and  N_17 
REMARK   10  A    between atoms: C_23  and  C_24 
REMARK   11  A    between atoms: C_24  and  C_25 
REMARK   12  A    between atoms: C_25  and  O_27 
REMARK   13  A    between atoms: C_28  and  O_27 
REMARK   14  A    between atoms: C_28  and  C_30 
ROOT
ATOM      1  C   UNL d   1      29.820 -14.006   1.943  0.00  0.00     0.177 C 
ATOM      2  S   UNL d   1      31.463 -14.376   1.847  0.00  0.00    -0.041 SA
ENDROOT
BRANCH   1   3
ATOM      3  N   UNL d   1      28.794 -14.914   1.525  0.00  0.00    -0.299 N 
ATOM      4  C   UNL d   1      27.998 -14.903   0.328  0.00  0.00     0.257 C 
ATOM      5  O   UNL d   1      28.153 -14.078  -0.572  0.00  0.00    -0.267 OA
ATOM      6  H   UNL d   1      28.498 -15.554   2.236  0.00  0.00     0.171 HD
BRANCH   4   7
ATOM      7  C   UNL d   1      26.890 -15.922   0.068  0.00  0.00     0.032 C 
ATOM      8  C   UNL d   1      27.059 -17.240   0.542  0.00  0.00     0.020 C 
ATOM      9  C   UNL d   1      26.093 -18.243   0.313  0.00  0.00     0.038 C 
ATOM     10  C   UNL d   1      24.865 -17.922  -0.255  0.00  0.00     0.068 C 
ATOM     11  C   UNL d   1      24.659 -16.617  -0.670  0.00  0.00     0.038 C 
ATOM     12  C   UNL d   1      25.703 -15.676  -0.618  0.00  0.00     0.020 C 
BRANCH  10  13
ATOM     13  O   UNL d   1      23.922 -18.909  -0.328  0.00  0.00    -0.351 OA
BRANCH  13  14
ATOM     14  C   UNL d   1      22.647 -18.572   0.233  0.00  0.00     0.175 C 
BRANCH  14  15
ATOM     15  C   UNL d   1      21.714 -18.151  -0.894  0.00  0.00     0.027 C 
BRANCH  15  16
ATOM     16  C   UNL d   1      20.408 -18.938  -0.839  0.00  0.00     0.002 C 
BRANCH  16  17
ATOM     17  C   UNL d   1      20.503 -20.071   0.176  0.00  0.00    -0.000 C 
BRANCH  17  18
ATOM     18  C   UNL d   1      19.116 -20.567   0.569  0.00  0.00    -0.005 C 
ATOM     19  C   UNL d   1      18.765 -20.115   1.975  0.00  0.00     0.005 C 
ENDBRANCH  17  18
ENDBRANCH  16  17
ENDBRANCH  15  16
ENDBRANCH  14  15
ENDBRANCH  13  14
ENDBRANCH  10  13
ENDBRANCH   4   7
ENDBRANCH   1   3
BRANCH   1  20
ATOM     20  N   UNL d   1      29.368 -12.689   2.309  0.00  0.00    -0.343 N 
ATOM     21  C   UNL d   1      30.079 -11.527   1.734  0.00  0.00     0.146 C 
ATOM     22  C   UNL d   1      29.027 -10.503   1.337  0.00  0.00     0.142 C 
ATOM     23  N   UNL d   1      28.287 -10.052   2.485  0.00  0.00    -0.358 N 
ATOM     24  C   UNL d   1      27.975 -10.868   3.526  0.00  0.00     0.241 C 
ATOM     25  H   UNL d   1      27.734  -9.203   2.460  0.00  0.00     0.162 HD
ATOM     26  O   UNL d   1      27.174 -10.427   4.346  0.00  0.00    -0.271 OA
ATOM     27  C   UNL d   1      28.696 -12.251   3.625  0.00  0.00     0.188 C 
BRANCH  27  28
ATOM     28  C   UNL d   1      27.661 -13.241   4.039  0.00  0.00     0.146 C 
BRANCH  28  29
ATOM     29  C   UNL d   1      28.023 -14.449   4.857  0.00  0.00     0.261 C 
ATOM     30  O   UNL d   1      28.157 -15.575   4.374  0.00  0.00    -0.265 OA
BRANCH  29  31
ATOM     31  O   UNL d   1      28.143 -14.281   6.196  0.00  0.00    -0.316 OA
BRANCH  31  32
ATOM     32  C   UNL d   1      29.268 -13.833   7.000  0.00  0.00     0.127 C 
ATOM     33  C   UNL d   1      29.145 -14.076   8.466  0.00  0.00     0.040 C 
BRANCH  32  34
ATOM     34  C   UNL d   1      29.514 -12.340   6.757  0.00  0.00     0.027 C 
ATOM     35  C   UNL d   1      28.555 -11.525   7.597  0.00  0.00     0.007 C 
ENDBRANCH  32  34
ENDBRANCH  31  32
ENDBRANCH  29  31
ENDBRANCH  28  29
ENDBRANCH  27  28
ENDBRANCH   1  20
TORSDOF 14
ENDMDL
MODEL 6
REMARK VINA RESULT:    -7.883      4.503      6.884
REMARK INTER + INTRA:         -14.633
REMARK INTER:                 -12.059
REMARK INTRA:                  -2.574
REMARK CONF_INDEPENDENT:        4.176
REMARK UNBOUND:                -2.574
REMARK  14 active torsions:
REMARK  status: ('A' for Active; 'I' for Inactive)
REMARK    1  A    between atoms: C_2  and  C_3 
REMARK    2  A    between atoms: C_3  and  C_4 
REMARK    3  A    between atoms: C_4  and  C_5 
REMARK    4  A    between atoms: C_5  and  C_6 
REMARK    5  A    between atoms: C_6  and  O_7 
REMARK    6  A    between atoms: O_7  and  C_8 
REMARK    7  A    between atoms: C_11  and  C_12 
REMARK       I    between atoms: C_12  and  N_14 
REMARK    8  A    between atoms: N_14  and  C_15 
REMARK    9  A    between atoms: C_15  and  N_17 
REMARK   10  A    between atoms: C_23  and  C_24 
REMARK   11  A    between atoms: C_24  and  C_25 
REMARK   12  A    between atoms: C_25  and  O_27 
REMARK   13  A    between atoms: C_28  and  O_27 
REMARK   14  A    between atoms: C_28  and  C_30 
ROOT
ATOM      1  C   UNL d   1      30.961 -16.327  -0.138  0.00  0.00     0.177 C 
ATOM      2  S   UNL d   1      31.789 -16.613  -1.580  0.00  0.00    -0.041 SA
ENDROOT
BRANCH   1   3
ATOM      3  N   UNL d   1      29.588 -16.688   0.053  0.00  0.00    -0.299 N 
ATOM      4  C   UNL d   1      28.510 -16.715  -0.897  0.00  0.00     0.257 C 
ATOM      5  O   UNL d   1      28.664 -16.460  -2.092  0.00  0.00    -0.267 OA
ATOM      6  H   UNL d   1      29.321 -16.794   1.013  0.00  0.00     0.171 HD
BRANCH   4   7
ATOM      7  C   UNL d   1      27.077 -17.066  -0.505  0.00  0.00     0.032 C 
ATOM      8  C   UNL d   1      26.023 -16.282  -1.021  0.00  0.00     0.020 C 
ATOM      9  C   UNL d   1      24.676 -16.527  -0.679  0.00  0.00     0.038 C 
ATOM     10  C   UNL d   1      24.330 -17.654   0.058  0.00  0.00     0.068 C 
ATOM     11  C   UNL d   1      25.349 -18.470   0.521  0.00  0.00     0.038 C 
ATOM     12  C   UNL d   1      26.695 -18.104   0.342  0.00  0.00     0.020 C 
BRANCH  10  13
ATOM     13  O   UNL d   1      23.000 -17.908   0.244  0.00  0.00    -0.351 OA
BRANCH  13  14
ATOM     14  C   UNL d   1      22.171 -17.665  -0.900  0.00  0.00     0.175 C 
BRANCH  14  15
ATOM     15  C   UNL d   1      21.439 -18.953  -1.254  0.00  0.00     0.027 C 
BRANCH  15  16
ATOM     16  C   UNL d   1      20.854 -19.605  -0.005  0.00  0.00     0.002 C 
BRANCH  16  17
ATOM     17  C   UNL d   1      19.333 -19.522  -0.016  0.00  0.00    -0.000 C 
BRANCH  17  18
ATOM     18  C   UNL d   1      18.746 -20.147   1.245  0.00  0.00    -0.005 C 
ATOM     19  C   UNL d   1      18.308 -21.576   0.979  0.00  0.00     0.005 C 
ENDBRANCH  17  18
ENDBRANCH  16  17
ENDBRANCH  15  16
ENDBRANCH  14  15
ENDBRANCH  13  14
ENDBRANCH  10  13
ENDBRANCH   4   7
ENDBRANCH   1   3
BRANCH   1  20
ATOM     20  N   UNL d   1      31.552 -15.560   0.927  0.00  0.00    -0.343 N 
ATOM     21  C   UNL d   1      32.915 -15.922   1.369  0.00  0.00     0.146 C 
ATOM     22  C   UNL d   1      33.681 -14.626   1.587  0.00  0.00     0.142 C 
ATOM     23  N   UNL d   1      33.072 -13.835   2.621  0.00  0.00    -0.358 N 
ATOM     24  C   UNL d   1      31.727 -13.783   2.811  0.00  0.00     0.241 C 
ATOM     25  H   UNL d   1      33.571 -13.079   3.075  0.00  0.00     0.162 HD
ATOM     26  O   UNL d   1      31.316 -12.923   3.586  0.00  0.00    -0.271 OA
ATOM     27  C   UNL d   1      30.834 -14.843   2.087  0.00  0.00     0.188 C 
BRANCH  27  28
ATOM     28  C   UNL d   1      29.631 -14.117   1.591  0.00  0.00     0.146 C 
BRANCH  28  29
ATOM     29  C   UNL d   1      28.250 -14.496   2.047  0.00  0.00     0.261 C 
ATOM     30  O   UNL d   1      27.705 -15.558   1.737  0.00  0.00    -0.265 OA
BRANCH  29  31
ATOM     31  O   UNL d   1      27.566 -13.587   2.782  0.00  0.00    -0.316 OA
BRANCH  31  32
ATOM     32  C   UNL d   1      27.476 -13.403   4.221  0.00  0.00     0.127 C 
ATOM     33  C   UNL d   1      28.334 -12.322   4.784  0.00  0.00     0.040 C 
BRANCH  32  34
ATOM     34  C   UNL d   1      27.799 -14.722   4.931  0.00  0.00     0.027 C 
ATOM     35  C   UNL d   1      28.905 -14.498   5.939  0.00  0.00     0.007 C 
ENDBRANCH  32  34
ENDBRANCH  31  32
ENDBRANCH  29  31
ENDBRANCH  28  29
ENDBRANCH  27  28
ENDBRANCH   1  20
TORSDOF 14
ENDMDL
MODEL 7
REMARK VINA RESULT:    -7.711      3.323      5.209
REMARK INTER + INTRA:         -14.402
REMARK INTER:                 -11.887
REMARK INTRA:                  -2.515
REMARK CONF_INDEPENDENT:        4.176
REMARK UNBOUND:                -2.515
REMARK  14 active torsions:
REMARK  status: ('A' for Active; 'I' for Inactive)
REMARK    1  A    between atoms: C_2  and  C_3 
REMARK    2  A    between atoms: C_3  and  C_4 
REMARK    3  A    between atoms: C_4  and  C_5 
REMARK    4  A    between atoms: C_5  and  C_6 
REMARK    5  A    between atoms: C_6  and  O_7 
REMARK    6  A    between atoms: O_7  and  C_8 
REMARK    7  A    between atoms: C_11  and  C_12 
REMARK       I    between atoms: C_12  and  N_14 
REMARK    8  A    between atoms: N_14  and  C_15 
REMARK    9  A    between atoms: C_15  and  N_17 
REMARK   10  A    between atoms: C_23  and  C_24 
REMARK   11  A    between atoms: C_24  and  C_25 
REMARK   12  A    between atoms: C_25  and  O_27 
REMARK   13  A    between atoms: C_28  and  O_27 
REMARK   14  A    between atoms: C_28  and  C_30 
ROOT
ATOM      1  C   UNL d   1      28.211 -11.331  -0.329  0.00  0.00     0.177 C 
ATOM      2  S   UNL d   1      29.897 -11.255  -0.321  0.00  0.00    -0.041 SA
ENDROOT
BRANCH   1   3
ATOM      3  N   UNL d   1      27.490 -12.568  -0.326  0.00  0.00    -0.299 N 
ATOM      4  C   UNL d   1      27.209 -13.463  -1.415  0.00  0.00     0.257 C 
ATOM      5  O   UNL d   1      27.633 -13.284  -2.556  0.00  0.00    -0.267 OA
ATOM      6  H   UNL d   1      26.993 -12.751   0.524  0.00  0.00     0.171 HD
BRANCH   4   7
ATOM      7  C   UNL d   1      26.359 -14.721  -1.246  0.00  0.00     0.032 C 
ATOM      8  C   UNL d   1      26.741 -15.669  -0.273  0.00  0.00     0.020 C 
ATOM      9  C   UNL d   1      26.023 -16.869  -0.080  0.00  0.00     0.038 C 
ATOM     10  C   UNL d   1      24.819 -17.084  -0.743  0.00  0.00     0.068 C 
ATOM     11  C   UNL d   1      24.398 -16.133  -1.658  0.00  0.00     0.038 C 
ATOM     12  C   UNL d   1      25.223 -15.041  -1.985  0.00  0.00     0.020 C 
BRANCH  10  13
ATOM     13  O   UNL d   1      24.105 -18.203  -0.416  0.00  0.00    -0.351 OA
BRANCH  13  14
ATOM     14  C   UNL d   1      22.937 -18.432  -1.213  0.00  0.00     0.175 C 
BRANCH  14  15
ATOM     15  C   UNL d   1      21.834 -18.980  -0.318  0.00  0.00     0.027 C 
BRANCH  15  16
ATOM     16  C   UNL d   1      20.553 -19.210  -1.115  0.00  0.00     0.002 C 
BRANCH  16  17
ATOM     17  C   UNL d   1      19.498 -19.890  -0.253  0.00  0.00    -0.000 C 
BRANCH  17  18
ATOM     18  C   UNL d   1      19.779 -19.668   1.229  0.00  0.00    -0.005 C 
ATOM     19  C   UNL d   1      18.807 -20.461   2.083  0.00  0.00     0.005 C 
ENDBRANCH  17  18
ENDBRANCH  16  17
ENDBRANCH  15  16
ENDBRANCH  14  15
ENDBRANCH  13  14
ENDBRANCH  10  13
ENDBRANCH   4   7
ENDBRANCH   1   3
BRANCH   1  20
ATOM     20  N   UNL d   1      27.409 -10.148  -0.497  0.00  0.00    -0.343 N 
ATOM     21  C   UNL d   1      27.587  -9.359  -1.734  0.00  0.00     0.146 C 
ATOM     22  C   UNL d   1      26.203  -8.946  -2.213  0.00  0.00     0.142 C 
ATOM     23  N   UNL d   1      25.549  -8.112  -1.241  0.00  0.00    -0.358 N 
ATOM     24  C   UNL d   1      25.699  -8.287   0.098  0.00  0.00     0.241 C 
ATOM     25  H   UNL d   1      24.746  -7.542  -1.484  0.00  0.00     0.162 HD
ATOM     26  O   UNL d   1      24.940  -7.650   0.823  0.00  0.00    -0.271 OA
ATOM     27  C   UNL d   1      26.849  -9.221   0.600  0.00  0.00     0.188 C 
BRANCH  27  28
ATOM     28  C   UNL d   1      26.287 -10.020   1.725  0.00  0.00     0.146 C 
BRANCH  28  29
ATOM     29  C   UNL d   1      27.183 -10.761   2.677  0.00  0.00     0.261 C 
ATOM     30  O   UNL d   1      27.889 -10.197   3.515  0.00  0.00    -0.265 OA
BRANCH  29  31
ATOM     31  O   UNL d   1      27.249 -12.108   2.549  0.00  0.00    -0.316 OA
BRANCH  31  32
ATOM     32  C   UNL d   1      28.256 -13.057   2.996  0.00  0.00     0.127 C 
ATOM     33  C   UNL d   1      28.097 -14.448   2.484  0.00  0.00     0.040 C 
BRANCH  32  34
ATOM     34  C   UNL d   1      28.293 -13.085   4.528  0.00  0.00     0.027 C 
ATOM     35  C   UNL d   1      27.411 -14.205   5.035  0.00  0.00     0.007 C 
ENDBRANCH  32  34
ENDBRANCH  31  32
ENDBRANCH  29  31
ENDBRANCH  28  29
ENDBRANCH  27  28
ENDBRANCH   1  20
TORSDOF 14
ENDMDL
MODEL 8
REMARK VINA RESULT:    -7.526      1.604      2.213
REMARK INTER + INTRA:         -15.076
REMARK INTER:                 -11.702
REMARK INTRA:                  -3.373
REMARK CONF_INDEPENDENT:        4.176
REMARK UNBOUND:                -3.373
REMARK  14 active torsions:
REMARK  status: ('A' for Active; 'I' for Inactive)
REMARK    1  A    between atoms: C_2  and  C_3 
REMARK    2  A    between atoms: C_3  and  C_4 
REMARK    3  A    between atoms: C_4  and  C_5 
REMARK    4  A    between atoms: C_5  and  C_6 
REMARK    5  A    between atoms: C_6  and  O_7 
REMARK    6  A    between atoms: O_7  and  C_8 
REMARK    7  A    between atoms: C_11  and  C_12 
REMARK       I    between atoms: C_12  and  N_14 
REMARK    8  A    between atoms: N_14  and  C_15 
REMARK    9  A    between atoms: C_15  and  N_17 
REMARK   10  A    between atoms: C_23  and  C_24 
REMARK   11  A    between atoms: C_24  and  C_25 
REMARK   12  A    between atoms: C_25  and  O_27 
REMARK   13  A    between atoms: C_28  and  O_27 
REMARK   14  A    between atoms: C_28  and  C_30 
ROOT
ATOM      1  C   UNL d   1      27.294 -12.554  -0.757  0.00  0.00     0.177 C 
ATOM      2  S   UNL d   1      27.540 -11.518   0.551  0.00  0.00    -0.041 SA
ENDROOT
BRANCH   1   3
ATOM      3  N   UNL d   1      26.493 -13.738  -0.670  0.00  0.00    -0.299 N 
ATOM      4  C   UNL d   1      26.903 -15.114  -0.609  0.00  0.00     0.257 C 
ATOM      5  O   UNL d   1      28.083 -15.461  -0.570  0.00  0.00    -0.267 OA
ATOM      6  H   UNL d   1      25.515 -13.584  -0.820  0.00  0.00     0.171 HD
BRANCH   4   7
ATOM      7  C   UNL d   1      25.903 -16.269  -0.585  0.00  0.00     0.032 C 
ATOM      8  C   UNL d   1      24.777 -16.206  -1.431  0.00  0.00     0.020 C 
ATOM      9  C   UNL d   1      23.794 -17.220  -1.441  0.00  0.00     0.038 C 
ATOM     10  C   UNL d   1      23.989 -18.396  -0.725  0.00  0.00     0.068 C 
ATOM     11  C   UNL d   1      25.122 -18.500   0.064  0.00  0.00     0.038 C 
ATOM     12  C   UNL d   1      25.989 -17.403   0.220  0.00  0.00     0.020 C 
BRANCH  10  13
ATOM     13  O   UNL d   1      23.067 -19.393  -0.879  0.00  0.00    -0.351 OA
BRANCH  13  14
ATOM     14  C   UNL d   1      21.861 -19.227  -0.123  0.00  0.00     0.175 C 
BRANCH  14  15
ATOM     15  C   UNL d   1      20.682 -19.190  -1.086  0.00  0.00     0.027 C 
BRANCH  15  16
ATOM     16  C   UNL d   1      19.401 -19.641  -0.391  0.00  0.00     0.002 C 
BRANCH  16  17
ATOM     17  C   UNL d   1      19.501 -19.431   1.114  0.00  0.00    -0.000 C 
BRANCH  17  18
ATOM     18  C   UNL d   1      18.981 -20.650   1.868  0.00  0.00    -0.005 C 
ATOM     19  C   UNL d   1      18.075 -21.482   0.979  0.00  0.00     0.005 C 
ENDBRANCH  17  18
ENDBRANCH  16  17
ENDBRANCH  15  16
ENDBRANCH  14  15
ENDBRANCH  13  14
ENDBRANCH  10  13
ENDBRANCH   4   7
ENDBRANCH   1   3
BRANCH   1  20
ATOM     20  N   UNL d   1      28.008 -12.381  -1.995  0.00  0.00    -0.343 N 
ATOM     21  C   UNL d   1      29.484 -12.457  -1.962  0.00  0.00     0.146 C 
ATOM     22  C   UNL d   1      29.925 -13.260  -3.176  0.00  0.00     0.142 C 
ATOM     23  N   UNL d   1      29.538 -12.604  -4.396  0.00  0.00    -0.358 N 
ATOM     24  C   UNL d   1      28.379 -11.906  -4.520  0.00  0.00     0.241 C 
ATOM     25  H   UNL d   1      29.958 -12.848  -5.286  0.00  0.00     0.162 HD
ATOM     26  O   UNL d   1      28.064 -11.565  -5.657  0.00  0.00    -0.271 OA
ATOM     27  C   UNL d   1      27.587 -11.546  -3.221  0.00  0.00     0.188 C 
BRANCH  27  28
ATOM     28  C   UNL d   1      26.145 -11.759  -3.530  0.00  0.00     0.146 C 
BRANCH  28  29
ATOM     29  C   UNL d   1      25.590 -13.140  -3.738  0.00  0.00     0.261 C 
ATOM     30  O   UNL d   1      24.874 -13.711  -2.913  0.00  0.00    -0.265 OA
BRANCH  29  31
ATOM     31  O   UNL d   1      25.957 -13.795  -4.866  0.00  0.00    -0.316 OA
BRANCH  31  32
ATOM     32  C   UNL d   1      26.698 -15.032  -5.048  0.00  0.00     0.127 C 
ATOM     33  C   UNL d   1      27.350 -15.575  -3.823  0.00  0.00     0.040 C 
BRANCH  32  34
ATOM     34  C   UNL d   1      27.757 -14.843  -6.140  0.00  0.00     0.027 C 
ATOM     35  C   UNL d   1      29.066 -15.451  -5.687  0.00  0.00     0.007 C 
ENDBRANCH  32  34
ENDBRANCH  31  32
ENDBRANCH  29  31
ENDBRANCH  28  29
ENDBRANCH  27  28
ENDBRANCH   1  20
TORSDOF 14
ENDMDL
MODEL 9
REMARK VINA RESULT:    -7.500      2.597      3.467
REMARK INTER + INTRA:         -14.655
REMARK INTER:                 -11.676
REMARK INTRA:                  -2.979
REMARK CONF_INDEPENDENT:        4.176
REMARK UNBOUND:                -2.979
REMARK  14 active torsions:
REMARK  status: ('A' for Active; 'I' for Inactive)
REMARK    1  A    between atoms: C_2  and  C_3 
REMARK    2  A    between atoms: C_3  and  C_4 
REMARK    3  A    between atoms: C_4  and  C_5 
REMARK    4  A    between atoms: C_5  and  C_6 
REMARK    5  A    between atoms: C_6  and  O_7 
REMARK    6  A    between atoms: O_7  and  C_8 
REMARK    7  A    between atoms: C_11  and  C_12 
REMARK       I    between atoms: C_12  and  N_14 
REMARK    8  A    between atoms: N_14  and  C_15 
REMARK    9  A    between atoms: C_15  and  N_17 
REMARK   10  A    between atoms: C_23  and  C_24 
REMARK   11  A    between atoms: C_24  and  C_25 
REMARK   12  A    between atoms: C_25  and  O_27 
REMARK   13  A    between atoms: C_28  and  O_27 
REMARK   14  A    between atoms: C_28  and  C_30 
ROOT
ATOM      1  C   UNL d   1      29.787 -14.964  -0.070  0.00  0.00     0.177 C 
ATOM      2  S   UNL d   1      31.055 -15.460   0.927  0.00  0.00    -0.041 SA
ENDROOT
BRANCH   1   3
ATOM      3  N   UNL d   1      28.603 -15.745  -0.267  0.00  0.00    -0.299 N 
ATOM      4  C   UNL d   1      27.226 -15.382  -0.067  0.00  0.00     0.257 C 
ATOM      5  O   UNL d   1      26.874 -14.253   0.273  0.00  0.00    -0.267 OA
ATOM      6  H   UNL d   1      28.775 -16.719  -0.423  0.00  0.00     0.171 HD
BRANCH   4   7
ATOM      7  C   UNL d   1      26.079 -16.370  -0.264  0.00  0.00     0.032 C 
ATOM      8  C   UNL d   1      24.940 -15.948  -0.982  0.00  0.00     0.020 C 
ATOM      9  C   UNL d   1      23.827 -16.794  -1.178  0.00  0.00     0.038 C 
ATOM     10  C   UNL d   1      23.884 -18.132  -0.801  0.00  0.00     0.068 C 
ATOM     11  C   UNL d   1      25.021 -18.578  -0.148  0.00  0.00     0.038 C 
ATOM     12  C   UNL d   1      26.037 -17.676   0.217  0.00  0.00     0.020 C 
BRANCH  10  13
ATOM     13  O   UNL d   1      22.828 -18.932  -1.136  0.00  0.00    -0.351 OA
BRANCH  13  14
ATOM     14  C   UNL d   1      21.572 -18.550  -0.561  0.00  0.00     0.175 C 
BRANCH  14  15
ATOM     15  C   UNL d   1      20.461 -19.326  -1.256  0.00  0.00     0.027 C 
BRANCH  15  16
ATOM     16  C   UNL d   1      19.243 -19.462  -0.347  0.00  0.00     0.002 C 
BRANCH  16  17
ATOM     17  C   UNL d   1      19.672 -19.690   1.097  0.00  0.00    -0.000 C 
BRANCH  17  18
ATOM     18  C   UNL d   1      18.616 -20.484   1.858  0.00  0.00    -0.005 C 
ATOM     19  C   UNL d   1      18.031 -21.574   0.980  0.00  0.00     0.005 C 
ENDBRANCH  17  18
ENDBRANCH  16  17
ENDBRANCH  15  16
ENDBRANCH  14  15
ENDBRANCH  13  14
ENDBRANCH  10  13
ENDBRANCH   4   7
ENDBRANCH   1   3
BRANCH   1  20
ATOM     20  N   UNL d   1      29.900 -13.793  -0.900  0.00  0.00    -0.343 N 
ATOM     21  C   UNL d   1      29.861 -12.470  -0.242  0.00  0.00     0.146 C 
ATOM     22  C   UNL d   1      30.925 -11.604  -0.900  0.00  0.00     0.142 C 
ATOM     23  N   UNL d   1      30.646 -11.417  -2.298  0.00  0.00    -0.358 N 
ATOM     24  C   UNL d   1      30.088 -12.385  -3.073  0.00  0.00     0.241 C 
ATOM     25  H   UNL d   1      31.087 -10.679  -2.834  0.00  0.00     0.162 HD
ATOM     26  O   UNL d   1      30.084 -12.182  -4.284  0.00  0.00    -0.271 OA
ATOM     27  C   UNL d   1      29.452 -13.626  -2.365  0.00  0.00     0.188 C 
BRANCH  27  28
ATOM     28  C   UNL d   1      29.840 -14.818  -3.171  0.00  0.00     0.146 C 
BRANCH  28  29
ATOM     29  C   UNL d   1      28.879 -15.952  -3.395  0.00  0.00     0.261 C 
ATOM     30  O   UNL d   1      28.754 -16.895  -2.611  0.00  0.00    -0.265 OA
BRANCH  29  31
ATOM     31  O   UNL d   1      28.170 -15.948  -4.550  0.00  0.00    -0.316 OA
BRANCH  31  32
ATOM     32  C   UNL d   1      27.024 -15.154  -4.959  0.00  0.00     0.127 C 
ATOM     33  C   UNL d   1      27.339 -13.944  -5.770  0.00  0.00     0.040 C 
BRANCH  32  34
ATOM     34  C   UNL d   1      26.219 -14.735  -3.723  0.00  0.00     0.027 C 
ATOM     35  C   UNL d   1      25.117 -13.784  -4.135  0.00  0.00     0.007 C 
ENDBRANCH  32  34
ENDBRANCH  31  32
ENDBRANCH  29  31
ENDBRANCH  28  29
ENDBRANCH  27  28
ENDBRANCH   1  20
TORSDOF 14
ENDMDL
