MODEL 1
REMARK VINA RESULT:    -7.174      0.000      0.000
REMARK INTER + INTRA:         -16.063
REMARK INTER:                 -11.947
REMARK INTRA:                  -4.116
REMARK CONF_INDEPENDENT:        4.773
REMARK UNBOUND:                -4.116
REMARK  16 active torsions:
REMARK  status: ('A' for Active; 'I' for Inactive)
REMARK    1  A    between atoms: C_2  and  C_3 
REMARK    2  A    between atoms: C_3  and  C_4 
REMARK    3  A    between atoms: C_4  and  C_5 
REMARK    4  A    between atoms: C_5  and  C_6 
REMARK    5  A    between atoms: C_6  and  N_7 
REMARK       I    between atoms: N_7  and  C_8 
REMARK    6  A    between atoms: C_18  and  N_7 
REMARK    7  A    between atoms: C_8  and  C_10 
REMARK    8  A    between atoms: C_10  and  C_11 
REMARK    9  A    between atoms: C_18  and  C_26 
REMARK   10  A    between atoms: C_18  and  C_19 
REMARK       I    between atoms: C_19  and  N_21 
REMARK   11  A    between atoms: N_21  and  C_22 
REMARK   12  A    between atoms: C_22  and  C_23 
REMARK   13  A    between atoms: C_23  and  C_24 
REMARK   14  A    between atoms: C_27  and  O_28 
REMARK   15  A    between atoms: C_30  and  O_31 
REMARK   16  A    between atoms: C_33  and  O_34 
ROOT
ATOM      1  C   UNL d   1      27.603 -13.499  -4.143  0.00  0.00     0.218 C 
ENDROOT
BRANCH   1   2
ATOM      2  C   UNL d   1      27.114 -12.490  -5.213  0.00  0.00     0.040 C 
ATOM      3  C   UNL d   1      27.695 -12.401  -6.500  0.00  0.00     0.080 C 
ATOM      4  C   UNL d   1      27.505 -11.295  -7.343  0.00  0.00     0.073 C 
ATOM      5  C   UNL d   1      26.578 -10.333  -6.983  0.00  0.00     0.071 C 
ATOM      6  C   UNL d   1      25.838 -10.483  -5.825  0.00  0.00     0.073 C 
ATOM      7  C   UNL d   1      26.080 -11.569  -4.982  0.00  0.00     0.080 C 
BRANCH   3   8
ATOM      8  O   UNL d   1      28.555 -13.369  -6.969  0.00  0.00    -0.360 OA
ATOM      9  H   UNL d   1      28.023 -14.196  -6.943  0.00  0.00     0.217 HD
ENDBRANCH   3   8
BRANCH   5  10
ATOM     10  O   UNL d   1      26.315  -9.242  -7.755  0.00  0.00    -0.361 OA
ATOM     11  H   UNL d   1      25.802  -9.524  -8.530  0.00  0.00     0.217 HD
ENDBRANCH   5  10
BRANCH   7  12
ATOM     12  O   UNL d   1      25.165 -11.781  -3.993  0.00  0.00    -0.360 OA
ATOM     13  H   UNL d   1      24.449 -12.346  -4.328  0.00  0.00     0.217 HD
ENDBRANCH   7  12
ENDBRANCH   1   2
BRANCH   1  14
ATOM     14  C   UNL d   1      28.029 -14.886  -4.740  0.00  0.00     0.245 C 
ATOM     15  O   UNL d   1      27.295 -15.573  -5.461  0.00  0.00    -0.271 OA
ATOM     16  N   UNL d   1      29.201 -15.432  -4.232  0.00  0.00    -0.359 N 
ATOM     17  H   UNL d   1      29.612 -15.058  -3.386  0.00  0.00     0.162 HD
BRANCH  16  18
ATOM     18  C   UNL d   1      29.636 -16.714  -4.739  0.00  0.00     0.122 C 
BRANCH  18  19
ATOM     19  C   UNL d   1      30.823 -16.582  -5.673  0.00  0.00     0.019 C 
BRANCH  19  20
ATOM     20  C   UNL d   1      30.786 -17.666  -6.744  0.00  0.00    -0.003 C 
ATOM     21  C   UNL d   1      30.550 -19.024  -6.112  0.00  0.00     0.005 C 
ENDBRANCH  19  20
ENDBRANCH  18  19
ENDBRANCH  16  18
ENDBRANCH   1  14
BRANCH   1  22
ATOM     22  N   UNL d   1      26.612 -13.933  -3.035  0.00  0.00    -0.334 N 
ATOM     23  C   UNL d   1      25.440 -14.619  -3.310  0.00  0.00     0.225 C 
ATOM     24  O   UNL d   1      24.925 -14.459  -4.428  0.00  0.00    -0.273 OA
BRANCH  22  25
ATOM     25  C   UNL d   1      26.764 -13.181  -1.770  0.00  0.00     0.127 C 
BRANCH  25  26
ATOM     26  C   UNL d   1      28.080 -13.432  -1.124  0.00  0.00     0.020 C 
BRANCH  26  27
ATOM     27  C   UNL d   1      28.101 -13.988   0.243  0.00  0.00     0.002 C 
BRANCH  27  28
ATOM     28  C   UNL d   1      26.660 -13.931   0.744  0.00  0.00    -0.000 C 
BRANCH  28  29
ATOM     29  C   UNL d   1      26.659 -13.026   1.947  0.00  0.00    -0.005 C 
ATOM     30  C   UNL d   1      27.408 -13.654   3.094  0.00  0.00     0.005 C 
ENDBRANCH  28  29
ENDBRANCH  27  28
ENDBRANCH  26  27
ENDBRANCH  25  26
ENDBRANCH  22  25
BRANCH  23  31
ATOM     31  C   UNL d   1      24.546 -15.403  -2.360  0.00  0.00     0.142 C 
BRANCH  31  32
ATOM     32  C   UNL d   1      25.123 -16.402  -1.386  0.00  0.00    -0.043 A 
ATOM     33  C   UNL d   1      26.535 -16.479  -1.384  0.00  0.00     0.008 A 
ATOM     34  C   UNL d   1      27.191 -17.408  -0.586  0.00  0.00     0.001 A 
ATOM     35  C   UNL d   1      26.451 -18.258   0.225  0.00  0.00     0.001 A 
ATOM     36  C   UNL d   1      25.066 -18.193   0.226  0.00  0.00     0.007 A 
ATOM     37  C   UNL d   1      24.391 -17.294  -0.592  0.00  0.00    -0.055 A 
ATOM     38  C   UNL d   1      22.904 -17.329  -0.497  0.00  0.00     0.049 C 
ENDBRANCH  31  32
ENDBRANCH  23  31
ENDBRANCH   1  22
TORSDOF 16
ENDMDL
MODEL 2
REMARK VINA RESULT:    -6.964      2.109      5.558
REMARK INTER + INTRA:         -15.308
REMARK INTER:                 -11.737
REMARK INTRA:                  -3.571
REMARK CONF_INDEPENDENT:        4.773
REMARK UNBOUND:                -3.571
REMARK  16 active torsions:
REMARK  status: ('A' for Active; 'I' for Inactive)
REMARK    1  A    between atoms: C_2  and  C_3 
REMARK    2  A    between atoms: C_3  and  C_4 
REMARK    3  A    between atoms: C_4  and  C_5 
REMARK    4  A    between atoms: C_5  and  C_6 
REMARK    5  A    between atoms: C_6  and  N_7 
REMARK       I    between atoms: N_7  and  C_8 
REMARK    6  A    between atoms: C_18  and  N_7 
REMARK    7  A    between atoms: C_8  and  C_10 
REMARK    8  A    between atoms: C_10  and  C_11 
REMARK    9  A    between atoms: C_18  and  C_26 
REMARK   10  A    between atoms: C_18  and  C_19 
REMARK       I    between atoms: C_19  and  N_21 
REMARK   11  A    between atoms: N_21  and  C_22 
REMARK   12  A    between atoms: C_22  and  C_23 
REMARK   13  A    between atoms: C_23  and  C_24 
REMARK   14  A    between atoms: C_27  and  O_28 
REMARK   15  A    between atoms: C_30  and  O_31 
REMARK   16  A    between atoms: C_33  and  O_34 
ROOT
ATOM      1  C   UNL d   1      25.988 -13.312  -4.044  0.00  0.00     0.218 C 
ENDROOT
BRANCH   1   2
ATOM      2  C   UNL d   1      26.804 -13.264  -5.361  0.00  0.00     0.040 C 
ATOM      3  C   UNL d   1      27.626 -14.333  -5.789  0.00  0.00     0.080 C 
ATOM      4  C   UNL d   1      28.614 -14.182  -6.774  0.00  0.00     0.073 C 
ATOM      5  C   UNL d   1      28.674 -12.994  -7.482  0.00  0.00     0.071 C 
ATOM      6  C   UNL d   1      27.756 -11.991  -7.234  0.00  0.00     0.073 C 
ATOM      7  C   UNL d   1      26.813 -12.151  -6.216  0.00  0.00     0.080 C 
BRANCH   3   8
ATOM      8  O   UNL d   1      27.557 -15.574  -5.197  0.00  0.00    -0.360 OA
ATOM      9  H   UNL d   1      28.262 -15.552  -4.512  0.00  0.00     0.217 HD
ENDBRANCH   3   8
BRANCH   5  10
ATOM     10  O   UNL d   1      29.585 -12.775  -8.471  0.00  0.00    -0.361 OA
ATOM     11  H   UNL d   1      29.454 -13.437  -9.168  0.00  0.00     0.217 HD
ENDBRANCH   5  10
BRANCH   7  12
ATOM     12  O   UNL d   1      25.801 -11.236  -6.183  0.00  0.00    -0.360 OA
ATOM     13  H   UNL d   1      24.999 -11.653  -5.827  0.00  0.00     0.217 HD
ENDBRANCH   7  12
ENDBRANCH   1   2
BRANCH   1  14
ATOM     14  C   UNL d   1      26.124 -12.013  -3.175  0.00  0.00     0.245 C 
ATOM     15  O   UNL d   1      26.584 -12.006  -2.026  0.00  0.00    -0.271 OA
ATOM     16  N   UNL d   1      25.486 -10.882  -3.668  0.00  0.00    -0.359 N 
ATOM     17  H   UNL d   1      24.807 -10.964  -4.413  0.00  0.00     0.162 HD
BRANCH  16  18
ATOM     18  C   UNL d   1      25.572  -9.659  -2.903  0.00  0.00     0.122 C 
BRANCH  18  19
ATOM     19  C   UNL d   1      25.405  -8.430  -3.774  0.00  0.00     0.019 C 
BRANCH  19  20
ATOM     20  C   UNL d   1      24.480  -8.727  -4.949  0.00  0.00    -0.003 C 
ATOM     21  C   UNL d   1      23.766  -7.463  -5.390  0.00  0.00     0.005 C 
ENDBRANCH  19  20
ENDBRANCH  18  19
ENDBRANCH  16  18
ENDBRANCH   1  14
BRANCH   1  22
ATOM     22  N   UNL d   1      26.330 -14.412  -3.008  0.00  0.00    -0.334 N 
ATOM     23  C   UNL d   1      27.567 -14.493  -2.389  0.00  0.00     0.225 C 
ATOM     24  O   UNL d   1      28.547 -14.032  -2.993  0.00  0.00    -0.273 OA
BRANCH  22  25
ATOM     25  C   UNL d   1      25.444 -15.594  -3.079  0.00  0.00     0.127 C 
BRANCH  25  26
ATOM     26  C   UNL d   1      24.398 -15.575  -2.021  0.00  0.00     0.020 C 
BRANCH  26  27
ATOM     27  C   UNL d   1      24.296 -16.729  -1.107  0.00  0.00     0.002 C 
BRANCH  27  28
ATOM     28  C   UNL d   1      22.888 -16.680  -0.521  0.00  0.00    -0.000 C 
BRANCH  28  29
ATOM     29  C   UNL d   1      22.279 -18.038  -0.751  0.00  0.00    -0.005 C 
ATOM     30  C   UNL d   1      23.296 -19.128  -0.535  0.00  0.00     0.005 C 
ENDBRANCH  28  29
ENDBRANCH  27  28
ENDBRANCH  26  27
ENDBRANCH  25  26
ENDBRANCH  22  25
BRANCH  23  31
ATOM     31  C   UNL d   1      27.959 -15.265  -1.137  0.00  0.00     0.142 C 
BRANCH  31  32
ATOM     32  C   UNL d   1      27.866 -14.636   0.232  0.00  0.00    -0.043 A 
ATOM     33  C   UNL d   1      26.638 -13.991   0.506  0.00  0.00     0.008 A 
ATOM     34  C   UNL d   1      26.448 -13.311   1.702  0.00  0.00     0.001 A 
ATOM     35  C   UNL d   1      27.470 -13.278   2.641  0.00  0.00     0.001 A 
ATOM     36  C   UNL d   1      28.680 -13.903   2.380  0.00  0.00     0.007 A 
ATOM     37  C   UNL d   1      28.901 -14.558   1.174  0.00  0.00    -0.055 A 
ATOM     38  C   UNL d   1      30.244 -15.185   1.019  0.00  0.00     0.049 C 
ENDBRANCH  31  32
ENDBRANCH  23  31
ENDBRANCH   1  22
TORSDOF 16
ENDMDL
MODEL 3
REMARK VINA RESULT:    -6.455      2.033      5.965
REMARK INTER + INTRA:         -15.764
REMARK INTER:                 -11.228
REMARK INTRA:                  -4.535
REMARK CONF_INDEPENDENT:        4.773
REMARK UNBOUND:                -4.535
REMARK  16 active torsions:
REMARK  status: ('A' for Active; 'I' for Inactive)
REMARK    1  A    between atoms: C_2  and  C_3 
REMARK    2  A    between atoms: C_3  and  C_4 
REMARK    3  A    between atoms: C_4  and  C_5 
REMARK    4  A    between atoms: C_5  and  C_6 
REMARK    5  A    between atoms: C_6  and  N_7 
REMARK       I    between atoms: N_7  and  C_8 
REMARK    6  A    between atoms: C_18  and  N_7 
REMARK    7  A    between atoms: C_8  and  C_10 
REMARK    8  A    between atoms: C_10  and  C_11 
REMARK    9  A    between atoms: C_18  and  C_26 
REMARK   10  A    between atoms: C_18  and  C_19 
REMARK       I    between atoms: C_19  and  N_21 
REMARK   11  A    between atoms: N_21  and  C_22 
REMARK   12  A    between atoms: C_22  and  C_23 
REMARK   13  A    between atoms: C_23  and  C_24 
REMARK   14  A    between atoms: C_27  and  O_28 
REMARK   15  A    between atoms: C_30  and  O_31 
REMARK   16  A    between atoms: C_33  and  O_34 
ROOT
ATOM      1  C   UNL d   1      26.484 -15.778  -2.847  0.00  0.00     0.218 C 
ENDROOT
BRANCH   1   2
ATOM      2  C   UNL d   1      27.854 -15.856  -3.568  0.00  0.00     0.040 C 
ATOM      3  C   UNL d   1      29.014 -16.376  -2.947  0.00  0.00     0.080 C 
ATOM      4  C   UNL d   1      30.306 -16.147  -3.443  0.00  0.00     0.073 C 
ATOM      5  C   UNL d   1      30.449 -15.541  -4.681  0.00  0.00     0.071 C 
ATOM      6  C   UNL d   1      29.330 -15.198  -5.416  0.00  0.00     0.073 C 
ATOM      7  C   UNL d   1      28.058 -15.395  -4.877  0.00  0.00     0.080 C 
BRANCH   3   8
ATOM      8  O   UNL d   1      28.945 -17.073  -1.762  0.00  0.00    -0.360 OA
ATOM      9  H   UNL d   1      29.312 -16.451  -1.095  0.00  0.00     0.217 HD
ENDBRANCH   3   8
BRANCH   5  10
ATOM     10  O   UNL d   1      31.665 -15.306  -5.246  0.00  0.00    -0.361 OA
ATOM     11  H   UNL d   1      32.262 -16.036  -5.019  0.00  0.00     0.217 HD
ENDBRANCH   5  10
BRANCH   7  12
ATOM     12  O   UNL d   1      27.009 -15.256  -5.740  0.00  0.00    -0.360 OA
ATOM     13  H   UNL d   1      26.301 -14.747  -5.311  0.00  0.00     0.217 HD
ENDBRANCH   7  12
ENDBRANCH   1   2
BRANCH   1  14
ATOM     14  C   UNL d   1      25.698 -14.452  -3.137  0.00  0.00     0.245 C 
ATOM     15  O   UNL d   1      24.701 -14.396  -3.866  0.00  0.00    -0.271 OA
ATOM     16  N   UNL d   1      26.311 -13.278  -2.718  0.00  0.00    -0.359 N 
ATOM     17  H   UNL d   1      27.287 -13.280  -2.451  0.00  0.00     0.162 HD
BRANCH  16  18
ATOM     18  C   UNL d   1      25.635 -12.025  -2.968  0.00  0.00     0.122 C 
BRANCH  18  19
ATOM     19  C   UNL d   1      26.274 -11.252  -4.104  0.00  0.00     0.019 C 
BRANCH  19  20
ATOM     20  C   UNL d   1      26.230 -12.060  -5.396  0.00  0.00    -0.003 C 
ATOM     21  C   UNL d   1      27.604 -12.104  -6.037  0.00  0.00     0.005 C 
ENDBRANCH  19  20
ENDBRANCH  18  19
ENDBRANCH  16  18
ENDBRANCH   1  14
BRANCH   1  22
ATOM     22  N   UNL d   1      26.465 -15.814  -1.298  0.00  0.00    -0.334 N 
ATOM     23  C   UNL d   1      27.241 -14.966  -0.524  0.00  0.00     0.225 C 
ATOM     24  O   UNL d   1      28.294 -14.535  -1.017  0.00  0.00    -0.273 OA
BRANCH  22  25
ATOM     25  C   UNL d   1      25.944 -17.079  -0.737  0.00  0.00     0.127 C 
BRANCH  25  26
ATOM     26  C   UNL d   1      24.481 -17.229  -0.955  0.00  0.00     0.020 C 
BRANCH  26  27
ATOM     27  C   UNL d   1      23.850 -18.529  -0.655  0.00  0.00     0.002 C 
BRANCH  27  28
ATOM     28  C   UNL d   1      22.559 -18.209   0.093  0.00  0.00    -0.000 C 
BRANCH  28  29
ATOM     29  C   UNL d   1      21.436 -18.377  -0.896  0.00  0.00    -0.005 C 
ATOM     30  C   UNL d   1      20.400 -19.340  -0.377  0.00  0.00     0.005 C 
ENDBRANCH  28  29
ENDBRANCH  27  28
ENDBRANCH  26  27
ENDBRANCH  25  26
ENDBRANCH  22  25
BRANCH  23  31
ATOM     31  C   UNL d   1      27.105 -14.630   0.954  0.00  0.00     0.142 C 
BRANCH  31  32
ATOM     32  C   UNL d   1      27.153 -13.202   1.441  0.00  0.00    -0.043 A 
ATOM     33  C   UNL d   1      27.105 -12.226   0.419  0.00  0.00     0.008 A 
ATOM     34  C   UNL d   1      27.212 -10.876   0.726  0.00  0.00     0.001 A 
ATOM     35  C   UNL d   1      27.355 -10.484   2.050  0.00  0.00     0.001 A 
ATOM     36  C   UNL d   1      27.407 -11.433   3.059  0.00  0.00     0.007 A 
ATOM     37  C   UNL d   1      27.336 -12.791   2.768  0.00  0.00    -0.055 A 
ATOM     38  C   UNL d   1      27.409 -13.706   3.942  0.00  0.00     0.049 C 
ENDBRANCH  31  32
ENDBRANCH  23  31
ENDBRANCH   1  22
TORSDOF 16
ENDMDL
MODEL 4
REMARK VINA RESULT:    -6.325      3.618      7.503
REMARK INTER + INTRA:         -15.482
REMARK INTER:                 -11.098
REMARK INTRA:                  -4.384
REMARK CONF_INDEPENDENT:        4.773
REMARK UNBOUND:                -4.384
REMARK  16 active torsions:
REMARK  status: ('A' for Active; 'I' for Inactive)
REMARK    1  A    between atoms: C_2  and  C_3 
REMARK    2  A    between atoms: C_3  and  C_4 
REMARK    3  A    between atoms: C_4  and  C_5 
REMARK    4  A    between atoms: C_5  and  C_6 
REMARK    5  A    between atoms: C_6  and  N_7 
REMARK       I    between atoms: N_7  and  C_8 
REMARK    6  A    between atoms: C_18  and  N_7 
REMARK    7  A    between atoms: C_8  and  C_10 
REMARK    8  A    between atoms: C_10  and  C_11 
REMARK    9  A    between atoms: C_18  and  C_26 
REMARK   10  A    between atoms: C_18  and  C_19 
REMARK       I    between atoms: C_19  and  N_21 
REMARK   11  A    between atoms: N_21  and  C_22 
REMARK   12  A    between atoms: C_22  and  C_23 
REMARK   13  A    between atoms: C_23  and  C_24 
REMARK   14  A    between atoms: C_27  and  O_28 
REMARK   15  A    between atoms: C_30  and  O_31 
REMARK   16  A    between atoms: C_33  and  O_34 
ROOT
ATOM      1  C   UNL d   1      29.060 -13.872   1.140  0.00  0.00     0.218 C 
ENDROOT
BRANCH   1   2
ATOM      2  C   UNL d   1      28.967 -13.959   2.684  0.00  0.00     0.040 C 
ATOM      3  C   UNL d   1      30.090 -14.224   3.503  0.00  0.00     0.080 C 
ATOM      4  C   UNL d   1      29.974 -14.637   4.839  0.00  0.00     0.073 C 
ATOM      5  C   UNL d   1      28.726 -14.619   5.437  0.00  0.00     0.071 C 
ATOM      6  C   UNL d   1      27.625 -14.174   4.730  0.00  0.00     0.073 C 
ATOM      7  C   UNL d   1      27.762 -13.813   3.389  0.00  0.00     0.080 C 
BRANCH   3   8
ATOM      8  O   UNL d   1      31.372 -14.168   3.004  0.00  0.00    -0.360 OA
ATOM      9  H   UNL d   1      31.943 -14.260   3.799  0.00  0.00     0.217 HD
ENDBRANCH   3   8
BRANCH   5  10
ATOM     10  O   UNL d   1      28.530 -14.981   6.736  0.00  0.00    -0.361 OA
ATOM     11  H   UNL d   1      28.511 -15.949   6.791  0.00  0.00     0.217 HD
ENDBRANCH   5  10
BRANCH   7  12
ATOM     12  O   UNL d   1      26.699 -13.166   2.827  0.00  0.00    -0.360 OA
ATOM     13  H   UNL d   1      26.912 -12.928   1.909  0.00  0.00     0.217 HD
ENDBRANCH   7  12
ENDBRANCH   1   2
BRANCH   1  14
ATOM     14  C   UNL d   1      28.681 -12.461   0.569  0.00  0.00     0.245 C 
ATOM     15  O   UNL d   1      28.149 -11.572   1.245  0.00  0.00    -0.271 OA
ATOM     16  N   UNL d   1      28.758 -12.323  -0.811  0.00  0.00    -0.359 N 
ATOM     17  H   UNL d   1      28.837 -13.141  -1.401  0.00  0.00     0.162 HD
BRANCH  16  18
ATOM     18  C   UNL d   1      28.410 -11.046  -1.393  0.00  0.00     0.122 C 
BRANCH  18  19
ATOM     19  C   UNL d   1      27.921 -11.186  -2.821  0.00  0.00     0.019 C 
BRANCH  19  20
ATOM     20  C   UNL d   1      26.786 -10.208  -3.098  0.00  0.00    -0.003 C 
ATOM     21  C   UNL d   1      25.780 -10.825  -4.051  0.00  0.00     0.005 C 
ENDBRANCH  19  20
ENDBRANCH  18  19
ENDBRANCH  16  18
ENDBRANCH   1  14
BRANCH   1  22
ATOM     22  N   UNL d   1      28.152 -14.800   0.295  0.00  0.00    -0.334 N 
ATOM     23  C   UNL d   1      26.892 -14.418  -0.136  0.00  0.00     0.225 C 
ATOM     24  O   UNL d   1      26.281 -13.575   0.538  0.00  0.00    -0.273 OA
BRANCH  22  25
ATOM     25  C   UNL d   1      28.517 -16.231   0.380  0.00  0.00     0.127 C 
BRANCH  25  26
ATOM     26  C   UNL d   1      27.386 -17.069   0.861  0.00  0.00     0.020 C 
BRANCH  26  27
ATOM     27  C   UNL d   1      26.734 -17.990  -0.090  0.00  0.00     0.002 C 
BRANCH  27  28
ATOM     28  C   UNL d   1      25.309 -18.184   0.420  0.00  0.00    -0.000 C 
BRANCH  28  29
ATOM     29  C   UNL d   1      24.402 -18.048  -0.774  0.00  0.00    -0.005 C 
ATOM     30  C   UNL d   1      23.328 -17.023  -0.521  0.00  0.00     0.005 C 
ENDBRANCH  28  29
ENDBRANCH  27  28
ENDBRANCH  26  27
ENDBRANCH  25  26
ENDBRANCH  22  25
BRANCH  23  31
ATOM     31  C   UNL d   1      26.027 -15.036  -1.225  0.00  0.00     0.142 C 
BRANCH  31  32
ATOM     32  C   UNL d   1      26.471 -15.045  -2.668  0.00  0.00    -0.043 A 
ATOM     33  C   UNL d   1      27.763 -15.574  -2.887  0.00  0.00     0.008 A 
ATOM     34  C   UNL d   1      28.320 -15.575  -4.159  0.00  0.00     0.001 A 
ATOM     35  C   UNL d   1      27.593 -15.063  -5.226  0.00  0.00     0.001 A 
ATOM     36  C   UNL d   1      26.327 -14.538  -5.020  0.00  0.00     0.007 A 
ATOM     37  C   UNL d   1      25.767 -14.496  -3.748  0.00  0.00    -0.055 A 
ATOM     38  C   UNL d   1      24.402 -13.903  -3.665  0.00  0.00     0.049 C 
ENDBRANCH  31  32
ENDBRANCH  23  31
ENDBRANCH   1  22
TORSDOF 16
ENDMDL
MODEL 5
REMARK VINA RESULT:    -6.203      2.019      5.849
REMARK INTER + INTRA:         -15.444
REMARK INTER:                 -10.975
REMARK INTRA:                  -4.468
REMARK CONF_INDEPENDENT:        4.773
REMARK UNBOUND:                -4.468
REMARK  16 active torsions:
REMARK  status: ('A' for Active; 'I' for Inactive)
REMARK    1  A    between atoms: C_2  and  C_3 
REMARK    2  A    between atoms: C_3  and  C_4 
REMARK    3  A    between atoms: C_4  and  C_5 
REMARK    4  A    between atoms: C_5  and  C_6 
REMARK    5  A    between atoms: C_6  and  N_7 
REMARK       I    between atoms: N_7  and  C_8 
REMARK    6  A    between atoms: C_18  and  N_7 
REMARK    7  A    between atoms: C_8  and  C_10 
REMARK    8  A    between atoms: C_10  and  C_11 
REMARK    9  A    between atoms: C_18  and  C_26 
REMARK   10  A    between atoms: C_18  and  C_19 
REMARK       I    between atoms: C_19  and  N_21 
REMARK   11  A    between atoms: N_21  and  C_22 
REMARK   12  A    between atoms: C_22  and  C_23 
REMARK   13  A    between atoms: C_23  and  C_24 
REMARK   14  A    between atoms: C_27  and  O_28 
REMARK   15  A    between atoms: C_30  and  O_31 
REMARK   16  A    between atoms: C_33  and  O_34 
ROOT
ATOM      1  C   UNL d   1      26.426 -15.512  -2.611  0.00  0.00     0.218 C 
ENDROOT
BRANCH   1   2
ATOM      2  C   UNL d   1      27.857 -15.829  -3.115  0.00  0.00     0.040 C 
ATOM      3  C   UNL d   1      28.213 -15.776  -4.483  0.00  0.00     0.080 C 
ATOM      4  C   UNL d   1      29.378 -16.375  -4.987  0.00  0.00     0.073 C 
ATOM      5  C   UNL d   1      30.306 -16.886  -4.094  0.00  0.00     0.071 C 
ATOM      6  C   UNL d   1      30.090 -16.778  -2.733  0.00  0.00     0.073 C 
ATOM      7  C   UNL d   1      28.901 -16.219  -2.262  0.00  0.00     0.080 C 
BRANCH   3   8
ATOM      8  O   UNL d   1      27.386 -15.199  -5.420  0.00  0.00    -0.360 OA
ATOM      9  H   UNL d   1      26.522 -15.649  -5.287  0.00  0.00     0.217 HD
ENDBRANCH   3   8
BRANCH   5  10
ATOM     10  O   UNL d   1      31.473 -17.461  -4.498  0.00  0.00    -0.361 OA
ATOM     11  H   UNL d   1      31.775 -18.073  -3.809  0.00  0.00     0.217 HD
ENDBRANCH   5  10
BRANCH   7  12
ATOM     12  O   UNL d   1      28.858 -15.930  -0.929  0.00  0.00    -0.360 OA
ATOM     13  H   UNL d   1      29.229 -15.045  -0.776  0.00  0.00     0.217 HD
ENDBRANCH   7  12
ENDBRANCH   1   2
BRANCH   1  14
ATOM     14  C   UNL d   1      25.665 -14.470  -3.503  0.00  0.00     0.245 C 
ATOM     15  O   UNL d   1      24.783 -14.782  -4.313  0.00  0.00    -0.271 OA
ATOM     16  N   UNL d   1      26.187 -13.183  -3.515  0.00  0.00    -0.359 N 
ATOM     17  H   UNL d   1      27.114 -13.006  -3.150  0.00  0.00     0.162 HD
BRANCH  16  18
ATOM     18  C   UNL d   1      25.530 -12.184  -4.328  0.00  0.00     0.122 C 
BRANCH  18  19
ATOM     19  C   UNL d   1      26.496 -11.492  -5.269  0.00  0.00     0.019 C 
BRANCH  19  20
ATOM     20  C   UNL d   1      27.935 -11.861  -4.928  0.00  0.00    -0.003 C 
ATOM     21  C   UNL d   1      28.556 -12.658  -6.060  0.00  0.00     0.005 C 
ENDBRANCH  19  20
ENDBRANCH  18  19
ENDBRANCH  16  18
ENDBRANCH   1  14
BRANCH   1  22
ATOM     22  N   UNL d   1      26.264 -14.887  -1.203  0.00  0.00    -0.334 N 
ATOM     23  C   UNL d   1      26.939 -13.740  -0.815  0.00  0.00     0.225 C 
ATOM     24  O   UNL d   1      28.020 -13.490  -1.368  0.00  0.00    -0.273 OA
BRANCH  22  25
ATOM     25  C   UNL d   1      25.731 -15.825  -0.192  0.00  0.00     0.127 C 
BRANCH  25  26
ATOM     26  C   UNL d   1      25.115 -17.028  -0.812  0.00  0.00     0.020 C 
BRANCH  26  27
ATOM     27  C   UNL d   1      23.653 -17.049  -1.013  0.00  0.00     0.002 C 
BRANCH  27  28
ATOM     28  C   UNL d   1      23.274 -18.516  -1.201  0.00  0.00    -0.000 C 
BRANCH  28  29
ATOM     29  C   UNL d   1      22.184 -18.810  -0.206  0.00  0.00    -0.005 C 
ATOM     30  C   UNL d   1      20.849 -18.947  -0.892  0.00  0.00     0.005 C 
ENDBRANCH  28  29
ENDBRANCH  27  28
ENDBRANCH  26  27
ENDBRANCH  25  26
ENDBRANCH  22  25
BRANCH  23  31
ATOM     31  C   UNL d   1      26.655 -12.817   0.362  0.00  0.00     0.142 C 
BRANCH  31  32
ATOM     32  C   UNL d   1      27.229 -13.095   1.730  0.00  0.00    -0.043 A 
ATOM     33  C   UNL d   1      27.672 -14.422   1.930  0.00  0.00     0.008 A 
ATOM     34  C   UNL d   1      28.156 -14.828   3.166  0.00  0.00     0.001 A 
ATOM     35  C   UNL d   1      28.216 -13.915   4.211  0.00  0.00     0.001 A 
ATOM     36  C   UNL d   1      27.780 -12.612   4.027  0.00  0.00     0.007 A 
ATOM     37  C   UNL d   1      27.260 -12.197   2.806  0.00  0.00    -0.055 A 
ATOM     38  C   UNL d   1      26.823 -10.773   2.743  0.00  0.00     0.049 C 
ENDBRANCH  31  32
ENDBRANCH  23  31
ENDBRANCH   1  22
TORSDOF 16
ENDMDL
MODEL 6
REMARK VINA RESULT:    -6.116      1.999      5.617
REMARK INTER + INTRA:         -15.871
REMARK INTER:                 -10.889
REMARK INTRA:                  -4.982
REMARK CONF_INDEPENDENT:        4.773
REMARK UNBOUND:                -4.982
REMARK  16 active torsions:
REMARK  status: ('A' for Active; 'I' for Inactive)
REMARK    1  A    between atoms: C_2  and  C_3 
REMARK    2  A    between atoms: C_3  and  C_4 
REMARK    3  A    between atoms: C_4  and  C_5 
REMARK    4  A    between atoms: C_5  and  C_6 
REMARK    5  A    between atoms: C_6  and  N_7 
REMARK       I    between atoms: N_7  and  C_8 
REMARK    6  A    between atoms: C_18  and  N_7 
REMARK    7  A    between atoms: C_8  and  C_10 
REMARK    8  A    between atoms: C_10  and  C_11 
REMARK    9  A    between atoms: C_18  and  C_26 
REMARK   10  A    between atoms: C_18  and  C_19 
REMARK       I    between atoms: C_19  and  N_21 
REMARK   11  A    between atoms: N_21  and  C_22 
REMARK   12  A    between atoms: C_22  and  C_23 
REMARK   13  A    between atoms: C_23  and  C_24 
REMARK   14  A    between atoms: C_27  and  O_28 
REMARK   15  A    between atoms: C_30  and  O_31 
REMARK   16  A    between atoms: C_33  and  O_34 
ROOT
ATOM      1  C   UNL d   1      26.265 -15.167  -2.698  0.00  0.00     0.218 C 
ENDROOT
BRANCH   1   2
ATOM      2  C   UNL d   1      27.564 -15.571  -3.441  0.00  0.00     0.040 C 
ATOM      3  C   UNL d   1      28.722 -16.018  -2.764  0.00  0.00     0.080 C 
ATOM      4  C   UNL d   1      29.987 -16.060  -3.372  0.00  0.00     0.073 C 
ATOM      5  C   UNL d   1      30.081 -15.824  -4.733  0.00  0.00     0.071 C 
ATOM      6  C   UNL d   1      28.941 -15.579  -5.475  0.00  0.00     0.073 C 
ATOM      7  C   UNL d   1      27.702 -15.498  -4.836  0.00  0.00     0.080 C 
BRANCH   3   8
ATOM      8  O   UNL d   1      28.689 -16.364  -1.432  0.00  0.00    -0.360 OA
ATOM      9  H   UNL d   1      28.902 -15.527  -0.961  0.00  0.00     0.217 HD
ENDBRANCH   3   8
BRANCH   5  10
ATOM     10  O   UNL d   1      31.265 -15.870  -5.405  0.00  0.00    -0.361 OA
ATOM     11  H   UNL d   1      31.214 -15.275  -6.169  0.00  0.00     0.217 HD
ENDBRANCH   5  10
BRANCH   7  12
ATOM     12  O   UNL d   1      26.605 -15.490  -5.647  0.00  0.00    -0.360 OA
ATOM     13  H   UNL d   1      26.015 -14.763  -5.388  0.00  0.00     0.217 HD
ENDBRANCH   7  12
ENDBRANCH   1   2
BRANCH   1  14
ATOM     14  C   UNL d   1      25.517 -13.956  -3.356  0.00  0.00     0.245 C 
ATOM     15  O   UNL d   1      24.491 -14.078  -4.037  0.00  0.00    -0.271 OA
ATOM     16  N   UNL d   1      26.191 -12.742  -3.337  0.00  0.00    -0.359 N 
ATOM     17  H   UNL d   1      27.176 -12.710  -3.113  0.00  0.00     0.162 HD
BRANCH  16  18
ATOM     18  C   UNL d   1      25.551 -11.594  -3.939  0.00  0.00     0.122 C 
BRANCH  18  19
ATOM     19  C   UNL d   1      25.905 -11.449  -5.406  0.00  0.00     0.019 C 
BRANCH  19  20
ATOM     20  C   UNL d   1      27.417 -11.384  -5.589  0.00  0.00    -0.003 C 
ATOM     21  C   UNL d   1      27.899 -12.563  -6.414  0.00  0.00     0.005 C 
ENDBRANCH  19  20
ENDBRANCH  18  19
ENDBRANCH  16  18
ENDBRANCH   1  14
BRANCH   1  22
ATOM     22  N   UNL d   1      26.377 -14.696  -1.226  0.00  0.00    -0.334 N 
ATOM     23  C   UNL d   1      27.251 -13.697  -0.829  0.00  0.00     0.225 C 
ATOM     24  O   UNL d   1      28.276 -13.523  -1.505  0.00  0.00    -0.273 OA
BRANCH  22  25
ATOM     25  C   UNL d   1      25.852 -15.670  -0.246  0.00  0.00     0.127 C 
BRANCH  25  26
ATOM     26  C   UNL d   1      25.813 -17.052  -0.794  0.00  0.00     0.020 C 
BRANCH  26  27
ATOM     27  C   UNL d   1      24.554 -17.542  -1.388  0.00  0.00     0.002 C 
BRANCH  27  28
ATOM     28  C   UNL d   1      23.432 -16.785  -0.682  0.00  0.00    -0.000 C 
BRANCH  28  29
ATOM     29  C   UNL d   1      22.414 -17.813  -0.268  0.00  0.00    -0.005 C 
ATOM     30  C   UNL d   1      22.923 -19.209  -0.521  0.00  0.00     0.005 C 
ENDBRANCH  28  29
ENDBRANCH  27  28
ENDBRANCH  26  27
ENDBRANCH  25  26
ENDBRANCH  22  25
BRANCH  23  31
ATOM     31  C   UNL d   1      27.256 -12.889   0.462  0.00  0.00     0.142 C 
BRANCH  31  32
ATOM     32  C   UNL d   1      27.817 -13.461   1.741  0.00  0.00    -0.043 A 
ATOM     33  C   UNL d   1      26.977 -13.325   2.870  0.00  0.00     0.008 A 
ATOM     34  C   UNL d   1      27.404 -13.745   4.123  0.00  0.00     0.001 A 
ATOM     35  C   UNL d   1      28.662 -14.316   4.263  0.00  0.00     0.001 A 
ATOM     36  C   UNL d   1      29.495 -14.450   3.162  0.00  0.00     0.007 A 
ATOM     37  C   UNL d   1      29.099 -14.003   1.907  0.00  0.00    -0.055 A 
ATOM     38  C   UNL d   1      30.089 -14.203   0.811  0.00  0.00     0.049 C 
ENDBRANCH  31  32
ENDBRANCH  23  31
ENDBRANCH   1  22
TORSDOF 16
ENDMDL
MODEL 7
REMARK VINA RESULT:    -5.803      3.036      6.778
REMARK INTER + INTRA:         -15.451
REMARK INTER:                 -10.576
REMARK INTRA:                  -4.875
REMARK CONF_INDEPENDENT:        4.773
REMARK UNBOUND:                -4.875
REMARK  16 active torsions:
REMARK  status: ('A' for Active; 'I' for Inactive)
REMARK    1  A    between atoms: C_2  and  C_3 
REMARK    2  A    between atoms: C_3  and  C_4 
REMARK    3  A    between atoms: C_4  and  C_5 
REMARK    4  A    between atoms: C_5  and  C_6 
REMARK    5  A    between atoms: C_6  and  N_7 
REMARK       I    between atoms: N_7  and  C_8 
REMARK    6  A    between atoms: C_18  and  N_7 
REMARK    7  A    between atoms: C_8  and  C_10 
REMARK    8  A    between atoms: C_10  and  C_11 
REMARK    9  A    between atoms: C_18  and  C_26 
REMARK   10  A    between atoms: C_18  and  C_19 
REMARK       I    between atoms: C_19  and  N_21 
REMARK   11  A    between atoms: N_21  and  C_22 
REMARK   12  A    between atoms: C_22  and  C_23 
REMARK   13  A    between atoms: C_23  and  C_24 
REMARK   14  A    between atoms: C_27  and  O_28 
REMARK   15  A    between atoms: C_30  and  O_31 
REMARK   16  A    between atoms: C_33  and  O_34 
ROOT
ATOM      1  C   UNL d   1      27.141 -15.677  -1.557  0.00  0.00     0.218 C 
ENDROOT
BRANCH   1   2
ATOM      2  C   UNL d   1      25.956 -16.540  -1.053  0.00  0.00     0.040 C 
ATOM      3  C   UNL d   1      26.122 -17.597  -0.127  0.00  0.00     0.080 C 
ATOM      4  C   UNL d   1      25.147 -18.586   0.077  0.00  0.00     0.073 C 
ATOM      5  C   UNL d   1      23.905 -18.431  -0.515  0.00  0.00     0.071 C 
ATOM      6  C   UNL d   1      23.632 -17.305  -1.269  0.00  0.00     0.073 C 
ATOM      7  C   UNL d   1      24.635 -16.360  -1.493  0.00  0.00     0.080 C 
BRANCH   3   8
ATOM      8  O   UNL d   1      27.296 -17.763   0.573  0.00  0.00    -0.360 OA
ATOM      9  H   UNL d   1      27.320 -16.995   1.187  0.00  0.00     0.217 HD
ENDBRANCH   3   8
BRANCH   5  10
ATOM     10  O   UNL d   1      22.896 -19.330  -0.348  0.00  0.00    -0.361 OA
ATOM     11  H   UNL d   1      22.698 -19.405   0.599  0.00  0.00     0.217 HD
ENDBRANCH   5  10
BRANCH   7  12
ATOM     12  O   UNL d   1      24.237 -15.174  -2.038  0.00  0.00    -0.360 OA
ATOM     13  H   UNL d   1      23.266 -15.122  -2.027  0.00  0.00     0.217 HD
ENDBRANCH   7  12
ENDBRANCH   1   2
BRANCH   1  14
ATOM     14  C   UNL d   1      28.486 -16.474  -1.683  0.00  0.00     0.245 C 
ATOM     15  O   UNL d   1      28.815 -17.099  -2.698  0.00  0.00    -0.271 OA
ATOM     16  N   UNL d   1      29.205 -16.643  -0.506  0.00  0.00    -0.359 N 
ATOM     17  H   UNL d   1      28.770 -16.456   0.388  0.00  0.00     0.162 HD
BRANCH  16  18
ATOM     18  C   UNL d   1      30.449 -17.378  -0.563  0.00  0.00     0.122 C 
BRANCH  18  19
ATOM     19  C   UNL d   1      31.577 -16.639   0.127  0.00  0.00     0.019 C 
BRANCH  19  20
ATOM     20  C   UNL d   1      31.307 -15.138   0.143  0.00  0.00    -0.003 C 
ATOM     21  C   UNL d   1      31.465 -14.560  -1.251  0.00  0.00     0.005 C 
ENDBRANCH  19  20
ENDBRANCH  18  19
ENDBRANCH  16  18
ENDBRANCH   1  14
BRANCH   1  22
ATOM     22  N   UNL d   1      27.582 -14.463  -0.702  0.00  0.00    -0.334 N 
ATOM     23  C   UNL d   1      27.739 -14.537   0.672  0.00  0.00     0.225 C 
ATOM     24  O   UNL d   1      27.071 -15.384   1.286  0.00  0.00    -0.273 OA
BRANCH  22  25
ATOM     25  C   UNL d   1      27.371 -13.158  -1.366  0.00  0.00     0.127 C 
BRANCH  25  26
ATOM     26  C   UNL d   1      26.205 -13.180  -2.289  0.00  0.00     0.020 C 
BRANCH  26  27
ATOM     27  C   UNL d   1      26.454 -13.208  -3.743  0.00  0.00     0.002 C 
BRANCH  27  28
ATOM     28  C   UNL d   1      25.309 -14.013  -4.352  0.00  0.00    -0.000 C 
BRANCH  28  29
ATOM     29  C   UNL d   1      25.904 -15.309  -4.836  0.00  0.00    -0.005 C 
ATOM     30  C   UNL d   1      27.403 -15.204  -4.951  0.00  0.00     0.005 C 
ENDBRANCH  28  29
ENDBRANCH  27  28
ENDBRANCH  26  27
ENDBRANCH  25  26
ENDBRANCH  22  25
BRANCH  23  31
ATOM     31  C   UNL d   1      28.471 -13.580   1.603  0.00  0.00     0.142 C 
BRANCH  31  32
ATOM     32  C   UNL d   1      28.615 -13.877   3.076  0.00  0.00    -0.043 A 
ATOM     33  C   UNL d   1      27.402 -13.879   3.802  0.00  0.00     0.008 A 
ATOM     34  C   UNL d   1      27.401 -14.067   5.178  0.00  0.00     0.001 A 
ATOM     35  C   UNL d   1      28.604 -14.270   5.842  0.00  0.00     0.001 A 
ATOM     36  C   UNL d   1      29.799 -14.267   5.140  0.00  0.00     0.007 A 
ATOM     37  C   UNL d   1      29.822 -14.044   3.768  0.00  0.00    -0.055 A 
ATOM     38  C   UNL d   1      31.172 -14.061   3.135  0.00  0.00     0.049 C 
ENDBRANCH  31  32
ENDBRANCH  23  31
ENDBRANCH   1  22
TORSDOF 16
ENDMDL
MODEL 8
REMARK VINA RESULT:    -5.770      2.341      6.349
REMARK INTER + INTRA:         -15.415
REMARK INTER:                 -10.543
REMARK INTRA:                  -4.872
REMARK CONF_INDEPENDENT:        4.773
REMARK UNBOUND:                -4.872
REMARK  16 active torsions:
REMARK  status: ('A' for Active; 'I' for Inactive)
REMARK    1  A    between atoms: C_2  and  C_3 
REMARK    2  A    between atoms: C_3  and  C_4 
REMARK    3  A    between atoms: C_4  and  C_5 
REMARK    4  A    between atoms: C_5  and  C_6 
REMARK    5  A    between atoms: C_6  and  N_7 
REMARK       I    between atoms: N_7  and  C_8 
REMARK    6  A    between atoms: C_18  and  N_7 
REMARK    7  A    between atoms: C_8  and  C_10 
REMARK    8  A    between atoms: C_10  and  C_11 
REMARK    9  A    between atoms: C_18  and  C_26 
REMARK   10  A    between atoms: C_18  and  C_19 
REMARK       I    between atoms: C_19  and  N_21 
REMARK   11  A    between atoms: N_21  and  C_22 
REMARK   12  A    between atoms: C_22  and  C_23 
REMARK   13  A    between atoms: C_23  and  C_24 
REMARK   14  A    between atoms: C_27  and  O_28 
REMARK   15  A    between atoms: C_30  and  O_31 
REMARK   16  A    between atoms: C_33  and  O_34 
ROOT
ATOM      1  C   UNL d   1      25.867 -15.023  -1.172  0.00  0.00     0.218 C 
ENDROOT
BRANCH   1   2
ATOM      2  C   UNL d   1      25.094 -16.290  -0.727  0.00  0.00     0.040 C 
ATOM      3  C   UNL d   1      25.669 -17.281   0.104  0.00  0.00     0.080 C 
ATOM      4  C   UNL d   1      25.125 -18.568   0.237  0.00  0.00     0.073 C 
ATOM      5  C   UNL d   1      23.885 -18.829  -0.323  0.00  0.00     0.071 C 
ATOM      6  C   UNL d   1      23.194 -17.826  -0.975  0.00  0.00     0.073 C 
ATOM      7  C   UNL d   1      23.780 -16.569  -1.132  0.00  0.00     0.080 C 
BRANCH   3   8
ATOM      8  O   UNL d   1      26.853 -17.062   0.772  0.00  0.00    -0.360 OA
ATOM      9  H   UNL d   1      27.535 -17.464   0.188  0.00  0.00     0.217 HD
ENDBRANCH   3   8
BRANCH   5  10
ATOM     10  O   UNL d   1      23.275 -20.043  -0.219  0.00  0.00    -0.361 OA
ATOM     11  H   UNL d   1      22.751 -20.059   0.597  0.00  0.00     0.217 HD
ENDBRANCH   5  10
BRANCH   7  12
ATOM     12  O   UNL d   1      22.958 -15.571  -1.570  0.00  0.00    -0.360 OA
ATOM     13  H   UNL d   1      23.400 -15.074  -2.278  0.00  0.00     0.217 HD
ENDBRANCH   7  12
ENDBRANCH   1   2
BRANCH   1  14
ATOM     14  C   UNL d   1      25.611 -14.627  -2.668  0.00  0.00     0.245 C 
ATOM     15  O   UNL d   1      24.848 -13.715  -3.011  0.00  0.00    -0.271 OA
ATOM     16  N   UNL d   1      26.107 -15.505  -3.623  0.00  0.00    -0.359 N 
ATOM     17  H   UNL d   1      26.409 -16.432  -3.354  0.00  0.00     0.162 HD
BRANCH  16  18
ATOM     18  C   UNL d   1      25.891 -15.193  -5.018  0.00  0.00     0.122 C 
BRANCH  18  19
ATOM     19  C   UNL d   1      27.126 -14.596  -5.665  0.00  0.00     0.019 C 
BRANCH  19  20
ATOM     20  C   UNL d   1      27.535 -13.311  -4.955  0.00  0.00    -0.003 C 
ATOM     21  C   UNL d   1      26.653 -12.159  -5.401  0.00  0.00     0.005 C 
ENDBRANCH  19  20
ENDBRANCH  18  19
ENDBRANCH  16  18
ENDBRANCH   1  14
BRANCH   1  22
ATOM     22  N   UNL d   1      27.415 -15.050  -1.122  0.00  0.00    -0.334 N 
ATOM     23  C   UNL d   1      28.163 -16.026  -1.761  0.00  0.00     0.225 C 
ATOM     24  O   UNL d   1      27.634 -17.132  -1.946  0.00  0.00    -0.273 OA
BRANCH  22  25
ATOM     25  C   UNL d   1      27.990 -14.273  -0.003  0.00  0.00     0.127 C 
BRANCH  25  26
ATOM     26  C   UNL d   1      27.026 -13.280   0.543  0.00  0.00     0.020 C 
BRANCH  26  27
ATOM     27  C   UNL d   1      26.818 -13.228   2.003  0.00  0.00     0.002 C 
BRANCH  27  28
ATOM     28  C   UNL d   1      27.780 -14.250   2.604  0.00  0.00    -0.000 C 
BRANCH  28  29
ATOM     29  C   UNL d   1      27.947 -13.882   4.054  0.00  0.00    -0.005 C 
ATOM     30  C   UNL d   1      28.159 -15.111   4.901  0.00  0.00     0.005 C 
ENDBRANCH  28  29
ENDBRANCH  27  28
ENDBRANCH  26  27
ENDBRANCH  25  26
ENDBRANCH  22  25
BRANCH  23  31
ATOM     31  C   UNL d   1      29.647 -16.021  -2.101  0.00  0.00     0.142 C 
BRANCH  31  32
ATOM     32  C   UNL d   1      30.163 -16.660  -3.368  0.00  0.00    -0.043 A 
ATOM     33  C   UNL d   1      29.865 -15.951  -4.554  0.00  0.00     0.008 A 
ATOM     34  C   UNL d   1      30.219 -16.466  -5.793  0.00  0.00     0.001 A 
ATOM     35  C   UNL d   1      30.885 -17.682  -5.865  0.00  0.00     0.001 A 
ATOM     36  C   UNL d   1      31.179 -18.388  -4.708  0.00  0.00     0.007 A 
ATOM     37  C   UNL d   1      30.800 -17.905  -3.460  0.00  0.00    -0.055 A 
ATOM     38  C   UNL d   1      31.172 -18.762  -2.299  0.00  0.00     0.049 C 
ENDBRANCH  31  32
ENDBRANCH  23  31
ENDBRANCH   1  22
TORSDOF 16
ENDMDL
MODEL 9
REMARK VINA RESULT:    -5.750      1.982      5.492
REMARK INTER + INTRA:         -15.570
REMARK INTER:                 -10.523
REMARK INTRA:                  -5.047
REMARK CONF_INDEPENDENT:        4.773
REMARK UNBOUND:                -5.047
REMARK  16 active torsions:
REMARK  status: ('A' for Active; 'I' for Inactive)
REMARK    1  A    between atoms: C_2  and  C_3 
REMARK    2  A    between atoms: C_3  and  C_4 
REMARK    3  A    between atoms: C_4  and  C_5 
REMARK    4  A    between atoms: C_5  and  C_6 
REMARK    5  A    between atoms: C_6  and  N_7 
REMARK       I    between atoms: N_7  and  C_8 
REMARK    6  A    between atoms: C_18  and  N_7 
REMARK    7  A    between atoms: C_8  and  C_10 
REMARK    8  A    between atoms: C_10  and  C_11 
REMARK    9  A    between atoms: C_18  and  C_26 
REMARK   10  A    between atoms: C_18  and  C_19 
REMARK       I    between atoms: C_19  and  N_21 
REMARK   11  A    between atoms: N_21  and  C_22 
REMARK   12  A    between atoms: C_22  and  C_23 
REMARK   13  A    between atoms: C_23  and  C_24 
REMARK   14  A    between atoms: C_27  and  O_28 
REMARK   15  A    between atoms: C_30  and  O_31 
REMARK   16  A    between atoms: C_33  and  O_34 
ROOT
ATOM      1  C   UNL d   1      27.092 -15.771  -2.957  0.00  0.00     0.218 C 
ENDROOT
BRANCH   1   2
ATOM      2  C   UNL d   1      28.049 -15.670  -4.172  0.00  0.00     0.040 C 
ATOM      3  C   UNL d   1      29.417 -16.024  -4.096  0.00  0.00     0.080 C 
ATOM      4  C   UNL d   1      30.356 -15.627  -5.060  0.00  0.00     0.073 C 
ATOM      5  C   UNL d   1      29.906 -15.018  -6.220  0.00  0.00     0.071 C 
ATOM      6  C   UNL d   1      28.552 -14.835  -6.426  0.00  0.00     0.073 C 
ATOM      7  C   UNL d   1      27.644 -15.197  -5.429  0.00  0.00     0.080 C 
BRANCH   3   8
ATOM      8  O   UNL d   1      29.923 -16.714  -3.018  0.00  0.00    -0.360 OA
ATOM      9  H   UNL d   1      29.720 -16.138  -2.247  0.00  0.00     0.217 HD
ENDBRANCH   3   8
BRANCH   5  10
ATOM     10  O   UNL d   1      30.748 -14.626  -7.217  0.00  0.00    -0.361 OA
ATOM     11  H   UNL d   1      30.260 -14.623  -8.055  0.00  0.00     0.217 HD
ENDBRANCH   5  10
BRANCH   7  12
ATOM     12  O   UNL d   1      26.327 -15.207  -5.788  0.00  0.00    -0.360 OA
ATOM     13  H   UNL d   1      25.803 -14.745  -5.113  0.00  0.00     0.217 HD
ENDBRANCH   7  12
ENDBRANCH   1   2
BRANCH   1  14
ATOM     14  C   UNL d   1      26.016 -14.630  -2.910  0.00  0.00     0.245 C 
ATOM     15  O   UNL d   1      24.817 -14.813  -3.154  0.00  0.00    -0.271 OA
ATOM     16  N   UNL d   1      26.508 -13.335  -2.807  0.00  0.00    -0.359 N 
ATOM     17  H   UNL d   1      27.487 -13.148  -2.975  0.00  0.00     0.162 HD
BRANCH  16  18
ATOM     18  C   UNL d   1      25.561 -12.244  -2.769  0.00  0.00     0.122 C 
BRANCH  18  19
ATOM     19  C   UNL d   1      25.815 -11.233  -3.869  0.00  0.00     0.019 C 
BRANCH  19  20
ATOM     20  C   UNL d   1      26.274 -11.930  -5.144  0.00  0.00    -0.003 C 
ATOM     21  C   UNL d   1      27.757 -11.702  -5.365  0.00  0.00     0.005 C 
ENDBRANCH  19  20
ENDBRANCH  18  19
ENDBRANCH  16  18
ENDBRANCH   1  14
BRANCH   1  22
ATOM     22  N   UNL d   1      27.697 -15.681  -1.534  0.00  0.00    -0.334 N 
ATOM     23  C   UNL d   1      28.522 -14.639  -1.141  0.00  0.00     0.225 C 
ATOM     24  O   UNL d   1      29.178 -14.058  -2.018  0.00  0.00    -0.273 OA
BRANCH  22  25
ATOM     25  C   UNL d   1      27.718 -16.971  -0.811  0.00  0.00     0.127 C 
BRANCH  25  26
ATOM     26  C   UNL d   1      26.692 -17.026   0.265  0.00  0.00     0.020 C 
BRANCH  26  27
ATOM     27  C   UNL d   1      25.693 -18.112   0.233  0.00  0.00     0.002 C 
BRANCH  27  28
ATOM     28  C   UNL d   1      24.489 -17.557  -0.523  0.00  0.00    -0.000 C 
BRANCH  28  29
ATOM     29  C   UNL d   1      23.265 -18.143   0.129  0.00  0.00    -0.005 C 
ATOM     30  C   UNL d   1      22.247 -18.551  -0.904  0.00  0.00     0.005 C 
ENDBRANCH  28  29
ENDBRANCH  27  28
ENDBRANCH  26  27
ENDBRANCH  25  26
ENDBRANCH  22  25
BRANCH  23  31
ATOM     31  C   UNL d   1      28.918 -14.213   0.266  0.00  0.00     0.142 C 
BRANCH  31  32
ATOM     32  C   UNL d   1      28.096 -13.212   1.041  0.00  0.00    -0.043 A 
ATOM     33  C   UNL d   1      27.730 -12.055   0.316  0.00  0.00     0.008 A 
ATOM     34  C   UNL d   1      27.034 -11.024   0.933  0.00  0.00     0.001 A 
ATOM     35  C   UNL d   1      26.683 -11.139   2.271  0.00  0.00     0.001 A 
ATOM     36  C   UNL d   1      27.041 -12.268   2.993  0.00  0.00     0.007 A 
ATOM     37  C   UNL d   1      27.768 -13.294   2.402  0.00  0.00    -0.055 A 
ATOM     38  C   UNL d   1      28.091 -14.448   3.289  0.00  0.00     0.049 C 
ENDBRANCH  31  32
ENDBRANCH  23  31
ENDBRANCH   1  22
TORSDOF 16
ENDMDL
