MODEL 1
REMARK VINA RESULT:   -32.670      0.000      0.000
REMARK INTER + INTRA:         -37.456
REMARK INTER:                 -35.952
REMARK INTRA:                  -1.505
REMARK CONF_INDEPENDENT:        3.281
REMARK UNBOUND:                -1.505
REMARK  11 active torsions:
REMARK  status: ('A' for Active; 'I' for Inactive)
REMARK    1  A    between atoms: O_2  and  C_3 
REMARK    2  A    between atoms: C_5  and  C_6 
REMARK    3  A    between atoms: C_6  and  N_7 
REMARK    4  A    between atoms: N_7  and  C_8 
REMARK    5  A    between atoms: C_8  and  C_9 
REMARK    6  A    between atoms: C_9  and  N_10 
REMARK    7  A    between atoms: N_10  and  C_11 
REMARK    8  A    between atoms: C_14  and  N_15 
REMARK    9  A    between atoms: C_24  and  O_25 
REMARK   10  A    between atoms: O_25  and  C_26 
REMARK   11  A    between atoms: C_26  and  C_27 
ROOT
ATOM      1  C   UNL d   1      28.987 -15.210  -0.357  0.00  0.00     0.271 C 
ENDROOT
BRANCH   1   2
ATOM      2  C   UNL d   1      27.612 -15.717  -0.679  0.00  0.00    -0.028 A 
ATOM      3  C   UNL d   1      26.852 -15.125  -1.694  0.00  0.00     0.048 A 
ATOM      4  C   UNL d   1      25.549 -15.576  -1.960  0.00  0.00     0.103 A 
ATOM      5  C   UNL d   1      24.984 -16.646  -1.212  0.00  0.00     0.124 A 
ATOM      6  C   UNL d   1      25.769 -17.249  -0.216  0.00  0.00     0.070 A 
ATOM      7  C   UNL d   1      27.049 -16.773   0.039  0.00  0.00     0.035 A 
ATOM      8 CL   UNL d   1      25.372 -18.575   0.833  0.00  0.00    -0.081 Cl
BRANCH   4   9
ATOM      9  O   UNL d   1      24.732 -14.923  -2.855  0.00  0.00    -0.353 OA
ATOM     10  C   UNL d   1      25.357 -14.188  -3.907  0.00  0.00     0.210 C 
ENDBRANCH   4   9
BRANCH   5  11
ATOM     11  O   UNL d   1      23.697 -16.974  -1.560  0.00  0.00    -0.342 OA
BRANCH  11  12
ATOM     12  C   UNL d   1      23.394 -18.354  -1.724  0.00  0.00     0.216 C 
BRANCH  12  13
ATOM     13  C   UNL d   1      22.163 -18.714  -0.968  0.00  0.00    -0.017 A 
ATOM     14  C   UNL d   1      22.161 -18.762   0.424  0.00  0.00     0.012 A 
ATOM     15  C   UNL d   1      20.979 -19.061   1.083  0.00  0.00     0.020 A 
ATOM     16  C   UNL d   1      19.849 -19.316   0.320  0.00  0.00     0.116 A 
ATOM     17  N   UNL d   1      19.832 -19.325  -1.029  0.00  0.00    -0.272 NA
ATOM     18  C   UNL d   1      20.990 -19.027  -1.644  0.00  0.00     0.125 A 
ENDBRANCH  12  13
ENDBRANCH  11  12
ENDBRANCH   5  11
ENDBRANCH   1   2
BRANCH   1  19
ATOM     19  N   UNL d   1      29.275 -15.232   1.106  0.00  0.00    -0.070 N 
ATOM     20  H   UNL d   1      30.067 -15.871   1.271  0.00  0.00     0.277 HD
ATOM     21  H   UNL d   1      28.460 -15.626   1.598  0.00  0.00     0.277 HD
BRANCH  19  22
ATOM     22  C   UNL d   1      29.597 -13.901   1.682  0.00  0.00     0.252 C 
BRANCH  22  23
ATOM     23  C   UNL d   1      29.612 -14.007   3.206  0.00  0.00     0.147 C 
BRANCH  23  24
ATOM     24  N   UNL d   1      28.313 -13.697   3.772  0.00  0.00    -0.387 N 
ATOM     25  H   UNL d   1      27.912 -14.263   4.514  0.00  0.00     0.159 HD
BRANCH  24  26
ATOM     26  C   UNL d   1      27.739 -12.443   3.550  0.00  0.00     0.050 A 
ATOM     27  C   UNL d   1      27.986 -11.406   4.473  0.00  0.00     0.033 A 
ATOM     28  C   UNL d   1      27.506 -10.104   4.252  0.00  0.00     0.038 A 
ATOM     29  C   UNL d   1      26.779  -9.827   3.088  0.00  0.00     0.104 A 
ATOM     30  C   UNL d   1      26.509 -10.837   2.170  0.00  0.00     0.062 A 
ATOM     31  C   UNL d   1      26.970 -12.130   2.406  0.00  0.00     0.062 A 
ATOM     32 CL   UNL d   1      26.404 -13.324   1.284  0.00  0.00    -0.082 Cl
BRANCH  29  33
ATOM     33  N   UNL d   1      26.286  -8.472   2.817  0.00  0.00    -0.116 N 
ATOM     34  O   UNL d   1      26.702  -7.555   3.525  0.00  0.00    -0.532 OA
ATOM     35  O   UNL d   1      25.483  -8.339   1.876  0.00  0.00    -0.532 OA
ENDBRANCH  29  33
ENDBRANCH  24  26
ENDBRANCH  23  24
ENDBRANCH  22  23
ENDBRANCH  19  22
ENDBRANCH   1  19
TORSDOF 11
ENDMDL
MODEL 2
REMARK VINA RESULT:   -32.256      1.354      1.601
REMARK INTER + INTRA:         -37.150
REMARK INTER:                 -35.537
REMARK INTRA:                  -1.613
REMARK CONF_INDEPENDENT:        3.281
REMARK UNBOUND:                -1.613
REMARK  11 active torsions:
REMARK  status: ('A' for Active; 'I' for Inactive)
REMARK    1  A    between atoms: O_2  and  C_3 
REMARK    2  A    between atoms: C_5  and  C_6 
REMARK    3  A    between atoms: C_6  and  N_7 
REMARK    4  A    between atoms: N_7  and  C_8 
REMARK    5  A    between atoms: C_8  and  C_9 
REMARK    6  A    between atoms: C_9  and  N_10 
REMARK    7  A    between atoms: N_10  and  C_11 
REMARK    8  A    between atoms: C_14  and  N_15 
REMARK    9  A    between atoms: C_24  and  O_25 
REMARK   10  A    between atoms: O_25  and  C_26 
REMARK   11  A    between atoms: C_26  and  C_27 
ROOT
ATOM      1  C   UNL d   1      29.432 -15.423  -0.683  0.00  0.00     0.271 C 
ENDROOT
BRANCH   1   2
ATOM      2  C   UNL d   1      28.037 -15.895  -0.969  0.00  0.00    -0.028 A 
ATOM      3  C   UNL d   1      27.368 -15.486  -2.127  0.00  0.00     0.048 A 
ATOM      4  C   UNL d   1      26.046 -15.897  -2.366  0.00  0.00     0.103 A 
ATOM      5  C   UNL d   1      25.370 -16.741  -1.442  0.00  0.00     0.124 A 
ATOM      6  C   UNL d   1      26.064 -17.167  -0.299  0.00  0.00     0.070 A 
ATOM      7  C   UNL d   1      27.365 -16.733  -0.077  0.00  0.00     0.035 A 
ATOM      8 CL   UNL d   1      25.523 -18.208   0.982  0.00  0.00    -0.081 Cl
BRANCH   4   9
ATOM      9  O   UNL d   1      25.319 -15.398  -3.424  0.00  0.00    -0.353 OA
ATOM     10  C   UNL d   1      24.843 -14.056  -3.325  0.00  0.00     0.210 C 
ENDBRANCH   4   9
BRANCH   5  11
ATOM     11  O   UNL d   1      24.077 -17.050  -1.787  0.00  0.00    -0.342 OA
BRANCH  11  12
ATOM     12  C   UNL d   1      23.046 -16.639  -0.896  0.00  0.00     0.216 C 
BRANCH  12  13
ATOM     13  C   UNL d   1      22.056 -17.734  -0.700  0.00  0.00    -0.017 A 
ATOM     14  C   UNL d   1      22.376 -18.870   0.039  0.00  0.00     0.012 A 
ATOM     15  C   UNL d   1      21.405 -19.842   0.228  0.00  0.00     0.020 A 
ATOM     16  C   UNL d   1      20.158 -19.644  -0.344  0.00  0.00     0.116 A 
ATOM     17  N   UNL d   1      19.834 -18.577  -1.105  0.00  0.00    -0.272 NA
ATOM     18  C   UNL d   1      20.791 -17.646  -1.269  0.00  0.00     0.125 A 
ENDBRANCH  12  13
ENDBRANCH  11  12
ENDBRANCH   5  11
ENDBRANCH   1   2
BRANCH   1  19
ATOM     19  N   UNL d   1      29.953 -15.936   0.617  0.00  0.00    -0.070 N 
ATOM     20  H   UNL d   1      30.228 -16.921   0.491  0.00  0.00     0.277 HD
ATOM     21  H   UNL d   1      29.189 -15.920   1.309  0.00  0.00     0.277 HD
BRANCH  19  22
ATOM     22  C   UNL d   1      31.110 -15.173   1.151  0.00  0.00     0.252 C 
BRANCH  22  23
ATOM     23  C   UNL d   1      30.693 -14.469   2.441  0.00  0.00     0.147 C 
BRANCH  23  24
ATOM     24  N   UNL d   1      29.251 -14.440   2.587  0.00  0.00    -0.387 N 
ATOM     25  H   UNL d   1      28.734 -15.262   2.885  0.00  0.00     0.159 HD
BRANCH  24  26
ATOM     26  C   UNL d   1      28.583 -13.215   2.644  0.00  0.00     0.050 A 
ATOM     27  C   UNL d   1      28.233 -12.571   1.439  0.00  0.00     0.033 A 
ATOM     28  C   UNL d   1      27.483 -11.382   1.438  0.00  0.00     0.038 A 
ATOM     29  C   UNL d   1      27.066 -10.831   2.655  0.00  0.00     0.104 A 
ATOM     30  C   UNL d   1      27.413 -11.439   3.859  0.00  0.00     0.062 A 
ATOM     31  C   UNL d   1      28.173 -12.605   3.852  0.00  0.00     0.062 A 
ATOM     32 CL   UNL d   1      28.691 -13.149   5.414  0.00  0.00    -0.082 Cl
BRANCH  29  33
ATOM     33  N   UNL d   1      26.262  -9.604   2.686  0.00  0.00    -0.116 N 
ATOM     34  O   UNL d   1      26.415  -8.838   3.637  0.00  0.00    -0.532 OA
ATOM     35  O   UNL d   1      25.483  -9.414   1.734  0.00  0.00    -0.532 OA
ENDBRANCH  29  33
ENDBRANCH  24  26
ENDBRANCH  23  24
ENDBRANCH  22  23
ENDBRANCH  19  22
ENDBRANCH   1  19
TORSDOF 11
ENDMDL
MODEL 3
REMARK VINA RESULT:   -31.478      1.698      2.564
REMARK INTER + INTRA:         -36.302
REMARK INTER:                 -34.759
REMARK INTRA:                  -1.542
REMARK CONF_INDEPENDENT:        3.281
REMARK UNBOUND:                -1.542
REMARK  11 active torsions:
REMARK  status: ('A' for Active; 'I' for Inactive)
REMARK    1  A    between atoms: O_2  and  C_3 
REMARK    2  A    between atoms: C_5  and  C_6 
REMARK    3  A    between atoms: C_6  and  N_7 
REMARK    4  A    between atoms: N_7  and  C_8 
REMARK    5  A    between atoms: C_8  and  C_9 
REMARK    6  A    between atoms: C_9  and  N_10 
REMARK    7  A    between atoms: N_10  and  C_11 
REMARK    8  A    between atoms: C_14  and  N_15 
REMARK    9  A    between atoms: C_24  and  O_25 
REMARK   10  A    between atoms: O_25  and  C_26 
REMARK   11  A    between atoms: C_26  and  C_27 
ROOT
ATOM      1  C   UNL d   1      29.321 -15.591  -0.974  0.00  0.00     0.271 C 
ENDROOT
BRANCH   1   2
ATOM      2  C   UNL d   1      27.866 -15.937  -0.847  0.00  0.00    -0.028 A 
ATOM      3  C   UNL d   1      27.431 -16.848   0.122  0.00  0.00     0.048 A 
ATOM      4  C   UNL d   1      26.075 -17.201   0.205  0.00  0.00     0.103 A 
ATOM      5  C   UNL d   1      25.120 -16.632  -0.684  0.00  0.00     0.124 A 
ATOM      6  C   UNL d   1      25.567 -15.698  -1.631  0.00  0.00     0.070 A 
ATOM      7  C   UNL d   1      26.918 -15.378  -1.705  0.00  0.00     0.035 A 
ATOM      8 CL   UNL d   1      24.651 -14.824  -2.819  0.00  0.00    -0.081 Cl
BRANCH   4   9
ATOM      9  O   UNL d   1      25.642 -18.195   1.054  0.00  0.00    -0.353 OA
ATOM     10  C   UNL d   1      26.634 -18.947   1.752  0.00  0.00     0.210 C 
ENDBRANCH   4   9
BRANCH   5  11
ATOM     11  O   UNL d   1      23.833 -17.078  -0.507  0.00  0.00    -0.342 OA
BRANCH  11  12
ATOM     12  C   UNL d   1      23.492 -18.336  -1.077  0.00  0.00     0.216 C 
BRANCH  12  13
ATOM     13  C   UNL d   1      22.131 -18.755  -0.644  0.00  0.00    -0.017 A 
ATOM     14  C   UNL d   1      21.830 -18.946   0.704  0.00  0.00     0.012 A 
ATOM     15  C   UNL d   1      20.537 -19.296   1.059  0.00  0.00     0.020 A 
ATOM     16  C   UNL d   1      19.599 -19.455   0.050  0.00  0.00     0.116 A 
ATOM     17  N   UNL d   1      19.872 -19.325  -1.266  0.00  0.00    -0.272 NA
ATOM     18  C   UNL d   1      21.133 -18.980  -1.584  0.00  0.00     0.125 A 
ENDBRANCH  12  13
ENDBRANCH  11  12
ENDBRANCH   5  11
ENDBRANCH   1   2
BRANCH   1  19
ATOM     19  N   UNL d   1      30.139 -16.147   0.142  0.00  0.00    -0.070 N 
ATOM     20  H   UNL d   1      30.738 -16.896  -0.237  0.00  0.00     0.277 HD
ATOM     21  H   UNL d   1      29.508 -16.583   0.830  0.00  0.00     0.277 HD
BRANCH  19  22
ATOM     22  C   UNL d   1      30.993 -15.144   0.829  0.00  0.00     0.252 C 
BRANCH  22  23
ATOM     23  C   UNL d   1      30.275 -13.796   0.833  0.00  0.00     0.147 C 
BRANCH  23  24
ATOM     24  N   UNL d   1      29.083 -13.832   1.658  0.00  0.00    -0.387 N 
ATOM     25  H   UNL d   1      28.861 -14.642   2.230  0.00  0.00     0.159 HD
BRANCH  24  26
ATOM     26  C   UNL d   1      28.396 -12.649   1.939  0.00  0.00     0.050 A 
ATOM     27  C   UNL d   1      27.754 -11.965   0.887  0.00  0.00     0.033 A 
ATOM     28  C   UNL d   1      26.977 -10.819   1.128  0.00  0.00     0.038 A 
ATOM     29  C   UNL d   1      26.827 -10.354   2.440  0.00  0.00     0.104 A 
ATOM     30  C   UNL d   1      27.465 -11.002   3.494  0.00  0.00     0.062 A 
ATOM     31  C   UNL d   1      28.250 -12.124   3.244  0.00  0.00     0.062 A 
ATOM     32 CL   UNL d   1      29.134 -12.718   4.612  0.00  0.00    -0.082 Cl
BRANCH  29  33
ATOM     33  N   UNL d   1      26.003  -9.174   2.727  0.00  0.00    -0.116 N 
ATOM     34  O   UNL d   1      26.556  -8.189   3.216  0.00  0.00    -0.532 OA
ATOM     35  O   UNL d   1      24.793  -9.247   2.443  0.00  0.00    -0.532 OA
ENDBRANCH  29  33
ENDBRANCH  24  26
ENDBRANCH  23  24
ENDBRANCH  22  23
ENDBRANCH  19  22
ENDBRANCH   1  19
TORSDOF 11
ENDMDL
MODEL 4
REMARK VINA RESULT:   -31.452      1.817      2.560
REMARK INTER + INTRA:         -36.160
REMARK INTER:                 -34.734
REMARK INTRA:                  -1.427
REMARK CONF_INDEPENDENT:        3.281
REMARK UNBOUND:                -1.427
REMARK  11 active torsions:
REMARK  status: ('A' for Active; 'I' for Inactive)
REMARK    1  A    between atoms: O_2  and  C_3 
REMARK    2  A    between atoms: C_5  and  C_6 
REMARK    3  A    between atoms: C_6  and  N_7 
REMARK    4  A    between atoms: N_7  and  C_8 
REMARK    5  A    between atoms: C_8  and  C_9 
REMARK    6  A    between atoms: C_9  and  N_10 
REMARK    7  A    between atoms: N_10  and  C_11 
REMARK    8  A    between atoms: C_14  and  N_15 
REMARK    9  A    between atoms: C_24  and  O_25 
REMARK   10  A    between atoms: O_25  and  C_26 
REMARK   11  A    between atoms: C_26  and  C_27 
ROOT
ATOM      1  C   UNL d   1      29.165 -14.577   0.203  0.00  0.00     0.271 C 
ENDROOT
BRANCH   1   2
ATOM      2  C   UNL d   1      27.874 -15.244  -0.173  0.00  0.00    -0.028 A 
ATOM      3  C   UNL d   1      27.486 -16.443   0.435  0.00  0.00     0.048 A 
ATOM      4  C   UNL d   1      26.299 -17.084   0.046  0.00  0.00     0.103 A 
ATOM      5  C   UNL d   1      25.467 -16.523  -0.964  0.00  0.00     0.124 A 
ATOM      6  C   UNL d   1      25.856 -15.305  -1.545  0.00  0.00     0.070 A 
ATOM      7  C   UNL d   1      27.044 -14.699  -1.154  0.00  0.00     0.035 A 
ATOM      8 CL   UNL d   1      25.048 -14.371  -2.766  0.00  0.00    -0.081 Cl
BRANCH   4   9
ATOM      9  O   UNL d   1      25.964 -18.330   0.526  0.00  0.00    -0.353 OA
ATOM     10  C   UNL d   1      27.030 -19.223   0.847  0.00  0.00     0.210 C 
ENDBRANCH   4   9
BRANCH   5  11
ATOM     11  O   UNL d   1      24.348 -17.261  -1.263  0.00  0.00    -0.342 OA
BRANCH  11  12
ATOM     12  C   UNL d   1      23.087 -16.718  -0.888  0.00  0.00     0.216 C 
BRANCH  12  13
ATOM     13  C   UNL d   1      22.087 -17.804  -0.696  0.00  0.00    -0.017 A 
ATOM     14  C   UNL d   1      22.394 -18.944   0.045  0.00  0.00     0.012 A 
ATOM     15  C   UNL d   1      21.414 -19.907   0.230  0.00  0.00     0.020 A 
ATOM     16  C   UNL d   1      20.170 -19.697  -0.347  0.00  0.00     0.116 A 
ATOM     17  N   UNL d   1      19.859 -18.628  -1.109  0.00  0.00    -0.272 NA
ATOM     18  C   UNL d   1      20.825 -17.705  -1.269  0.00  0.00     0.125 A 
ENDBRANCH  12  13
ENDBRANCH  11  12
ENDBRANCH   5  11
ENDBRANCH   1   2
BRANCH   1  19
ATOM     19  N   UNL d   1      29.775 -15.168   1.429  0.00  0.00    -0.070 N 
ATOM     20  H   UNL d   1      30.216 -16.064   1.174  0.00  0.00     0.277 HD
ATOM     21  H   UNL d   1      29.025 -15.380   2.103  0.00  0.00     0.277 HD
BRANCH  19  22
ATOM     22  C   UNL d   1      30.787 -14.299   2.083  0.00  0.00     0.252 C 
BRANCH  22  23
ATOM     23  C   UNL d   1      30.722 -14.508   3.595  0.00  0.00     0.147 C 
BRANCH  23  24
ATOM     24  N   UNL d   1      30.736 -13.244   4.307  0.00  0.00    -0.387 N 
ATOM     25  H   UNL d   1      31.547 -12.950   4.843  0.00  0.00     0.159 HD
BRANCH  24  26
ATOM     26  C   UNL d   1      29.784 -12.268   4.009  0.00  0.00     0.050 A 
ATOM     27  C   UNL d   1      30.174 -11.139   3.259  0.00  0.00     0.033 A 
ATOM     28  C   UNL d   1      29.238 -10.172   2.856  0.00  0.00     0.038 A 
ATOM     29  C   UNL d   1      27.890 -10.335   3.196  0.00  0.00     0.104 A 
ATOM     30  C   UNL d   1      27.482 -11.432   3.950  0.00  0.00     0.062 A 
ATOM     31  C   UNL d   1      28.419 -12.376   4.362  0.00  0.00     0.062 A 
ATOM     32 CL   UNL d   1      27.811 -13.583   5.448  0.00  0.00    -0.082 Cl
BRANCH  29  33
ATOM     33  N   UNL d   1      26.885  -9.355   2.770  0.00  0.00    -0.116 N 
ATOM     34  O   UNL d   1      26.991  -8.874   1.642  0.00  0.00    -0.532 OA
ATOM     35  O   UNL d   1      25.981  -9.082   3.580  0.00  0.00    -0.532 OA
ENDBRANCH  29  33
ENDBRANCH  24  26
ENDBRANCH  23  24
ENDBRANCH  22  23
ENDBRANCH  19  22
ENDBRANCH   1  19
TORSDOF 11
ENDMDL
MODEL 5
REMARK VINA RESULT:   -31.287      2.967      3.736
REMARK INTER + INTRA:         -35.934
REMARK INTER:                 -34.568
REMARK INTRA:                  -1.366
REMARK CONF_INDEPENDENT:        3.281
REMARK UNBOUND:                -1.366
REMARK  11 active torsions:
REMARK  status: ('A' for Active; 'I' for Inactive)
REMARK    1  A    between atoms: O_2  and  C_3 
REMARK    2  A    between atoms: C_5  and  C_6 
REMARK    3  A    between atoms: C_6  and  N_7 
REMARK    4  A    between atoms: N_7  and  C_8 
REMARK    5  A    between atoms: C_8  and  C_9 
REMARK    6  A    between atoms: C_9  and  N_10 
REMARK    7  A    between atoms: N_10  and  C_11 
REMARK    8  A    between atoms: C_14  and  N_15 
REMARK    9  A    between atoms: C_24  and  O_25 
REMARK   10  A    between atoms: O_25  and  C_26 
REMARK   11  A    between atoms: C_26  and  C_27 
ROOT
ATOM      1  C   UNL d   1      29.114 -14.740  -0.077  0.00  0.00     0.271 C 
ENDROOT
BRANCH   1   2
ATOM      2  C   UNL d   1      27.798 -15.414  -0.336  0.00  0.00    -0.028 A 
ATOM      3  C   UNL d   1      27.453 -16.590   0.339  0.00  0.00     0.048 A 
ATOM      4  C   UNL d   1      26.240 -17.239   0.059  0.00  0.00     0.103 A 
ATOM      5  C   UNL d   1      25.338 -16.708  -0.905  0.00  0.00     0.124 A 
ATOM      6  C   UNL d   1      25.685 -15.512  -1.553  0.00  0.00     0.070 A 
ATOM      7  C   UNL d   1      26.899 -14.898  -1.270  0.00  0.00     0.035 A 
ATOM      8 CL   UNL d   1      24.791 -14.616  -2.742  0.00  0.00    -0.081 Cl
BRANCH   4   9
ATOM      9  O   UNL d   1      25.940 -18.468   0.604  0.00  0.00    -0.353 OA
ATOM     10  C   UNL d   1      27.030 -19.300   0.999  0.00  0.00     0.210 C 
ENDBRANCH   4   9
BRANCH   5  11
ATOM     11  O   UNL d   1      24.199 -17.451  -1.096  0.00  0.00    -0.342 OA
BRANCH  11  12
ATOM     12  C   UNL d   1      22.950 -16.796  -0.905  0.00  0.00     0.216 C 
BRANCH  12  13
ATOM     13  C   UNL d   1      21.901 -17.774  -0.507  0.00  0.00    -0.017 A 
ATOM     14  C   UNL d   1      22.054 -18.576   0.622  0.00  0.00     0.012 A 
ATOM     15  C   UNL d   1      21.030 -19.442   0.973  0.00  0.00     0.020 A 
ATOM     16  C   UNL d   1      19.900 -19.481   0.171  0.00  0.00     0.116 A 
ATOM     17  N   UNL d   1      19.743 -18.752  -0.954  0.00  0.00    -0.272 NA
ATOM     18  C   UNL d   1      20.749 -17.917  -1.271  0.00  0.00     0.125 A 
ENDBRANCH  12  13
ENDBRANCH  11  12
ENDBRANCH   5  11
ENDBRANCH   1   2
BRANCH   1  19
ATOM     19  N   UNL d   1      29.512 -14.799   1.359  0.00  0.00    -0.070 N 
ATOM     20  H   UNL d   1      29.751 -15.774   1.591  0.00  0.00     0.277 HD
ATOM     21  H   UNL d   1      28.700 -14.541   1.939  0.00  0.00     0.277 HD
BRANCH  19  22
ATOM     22  C   UNL d   1      30.659 -13.922   1.708  0.00  0.00     0.252 C 
BRANCH  22  23
ATOM     23  C   UNL d   1      30.931 -14.029   3.208  0.00  0.00     0.147 C 
BRANCH  23  24
ATOM     24  N   UNL d   1      29.781 -14.552   3.920  0.00  0.00    -0.387 N 
ATOM     25  H   UNL d   1      29.427 -15.486   3.736  0.00  0.00     0.159 HD
BRANCH  24  26
ATOM     26  C   UNL d   1      29.344 -13.926   5.089  0.00  0.00     0.050 A 
ATOM     27  C   UNL d   1      29.750 -14.446   6.335  0.00  0.00     0.033 A 
ATOM     28  C   UNL d   1      29.412 -13.804   7.539  0.00  0.00     0.038 A 
ATOM     29  C   UNL d   1      28.667 -12.619   7.501  0.00  0.00     0.104 A 
ATOM     30  C   UNL d   1      28.240 -12.095   6.284  0.00  0.00     0.062 A 
ATOM     31  C   UNL d   1      28.561 -12.749   5.098  0.00  0.00     0.062 A 
ATOM     32 CL   UNL d   1      27.811 -12.096   3.677  0.00  0.00    -0.082 Cl
BRANCH  29  33
ATOM     33  N   UNL d   1      28.319 -11.914   8.739  0.00  0.00    -0.116 N 
ATOM     34  O   UNL d   1      27.793 -12.562   9.644  0.00  0.00    -0.532 OA
ATOM     35  O   UNL d   1      28.591 -10.700   8.795  0.00  0.00    -0.532 OA
ENDBRANCH  29  33
ENDBRANCH  24  26
ENDBRANCH  23  24
ENDBRANCH  22  23
ENDBRANCH  19  22
ENDBRANCH   1  19
TORSDOF 11
ENDMDL
MODEL 6
REMARK VINA RESULT:   -31.185      1.374      1.578
REMARK INTER + INTRA:         -36.100
REMARK INTER:                 -34.466
REMARK INTRA:                  -1.633
REMARK CONF_INDEPENDENT:        3.281
REMARK UNBOUND:                -1.633
REMARK  11 active torsions:
REMARK  status: ('A' for Active; 'I' for Inactive)
REMARK    1  A    between atoms: O_2  and  C_3 
REMARK    2  A    between atoms: C_5  and  C_6 
REMARK    3  A    between atoms: C_6  and  N_7 
REMARK    4  A    between atoms: N_7  and  C_8 
REMARK    5  A    between atoms: C_8  and  C_9 
REMARK    6  A    between atoms: C_9  and  N_10 
REMARK    7  A    between atoms: N_10  and  C_11 
REMARK    8  A    between atoms: C_14  and  N_15 
REMARK    9  A    between atoms: C_24  and  O_25 
REMARK   10  A    between atoms: O_25  and  C_26 
REMARK   11  A    between atoms: C_26  and  C_27 
ROOT
ATOM      1  C   UNL d   1      29.507 -15.538  -0.718  0.00  0.00     0.271 C 
ENDROOT
BRANCH   1   2
ATOM      2  C   UNL d   1      28.107 -15.987  -1.017  0.00  0.00    -0.028 A 
ATOM      3  C   UNL d   1      27.466 -15.590  -2.196  0.00  0.00     0.048 A 
ATOM      4  C   UNL d   1      26.141 -15.978  -2.450  0.00  0.00     0.103 A 
ATOM      5  C   UNL d   1      25.431 -16.787  -1.519  0.00  0.00     0.124 A 
ATOM      6  C   UNL d   1      26.096 -17.202  -0.354  0.00  0.00     0.070 A 
ATOM      7  C   UNL d   1      27.402 -16.790  -0.119  0.00  0.00     0.035 A 
ATOM      8 CL   UNL d   1      25.511 -18.202   0.939  0.00  0.00    -0.081 Cl
BRANCH   4   9
ATOM      9  O   UNL d   1      25.443 -15.488  -3.531  0.00  0.00    -0.353 OA
ATOM     10  C   UNL d   1      24.801 -14.222  -3.385  0.00  0.00     0.210 C 
ENDBRANCH   4   9
BRANCH   5  11
ATOM     11  O   UNL d   1      24.138 -17.077  -1.880  0.00  0.00    -0.342 OA
BRANCH  11  12
ATOM     12  C   UNL d   1      23.102 -16.658  -0.998  0.00  0.00     0.216 C 
BRANCH  12  13
ATOM     13  C   UNL d   1      22.121 -17.756  -0.782  0.00  0.00    -0.017 A 
ATOM     14  C   UNL d   1      22.481 -18.921  -0.108  0.00  0.00     0.012 A 
ATOM     15  C   UNL d   1      21.519 -19.897   0.104  0.00  0.00     0.020 A 
ATOM     16  C   UNL d   1      20.240 -19.674  -0.381  0.00  0.00     0.116 A 
ATOM     17  N   UNL d   1      19.874 -18.578  -1.079  0.00  0.00    -0.272 NA
ATOM     18  C   UNL d   1      20.824 -17.644  -1.267  0.00  0.00     0.125 A 
ENDBRANCH  12  13
ENDBRANCH  11  12
ENDBRANCH   5  11
ENDBRANCH   1   2
BRANCH   1  19
ATOM     19  N   UNL d   1      29.857 -15.688   0.724  0.00  0.00    -0.070 N 
ATOM     20  H   UNL d   1      29.904 -16.694   0.944  0.00  0.00     0.277 HD
ATOM     21  H   UNL d   1      29.098 -15.289   1.293  0.00  0.00     0.277 HD
BRANCH  19  22
ATOM     22  C   UNL d   1      31.143 -15.049   1.107  0.00  0.00     0.252 C 
BRANCH  22  23
ATOM     23  C   UNL d   1      30.851 -13.791   1.922  0.00  0.00     0.147 C 
BRANCH  23  24
ATOM     24  N   UNL d   1      30.379 -12.709   1.079  0.00  0.00    -0.387 N 
ATOM     25  H   UNL d   1      30.629 -12.659   0.096  0.00  0.00     0.159 HD
BRANCH  24  26
ATOM     26  C   UNL d   1      29.321 -11.905   1.507  0.00  0.00     0.050 A 
ATOM     27  C   UNL d   1      29.247 -11.540   2.867  0.00  0.00     0.033 A 
ATOM     28  C   UNL d   1      28.254 -10.662   3.333  0.00  0.00     0.038 A 
ATOM     29  C   UNL d   1      27.325 -10.131   2.430  0.00  0.00     0.104 A 
ATOM     30  C   UNL d   1      27.366 -10.490   1.086  0.00  0.00     0.062 A 
ATOM     31  C   UNL d   1      28.341 -11.377   0.635  0.00  0.00     0.062 A 
ATOM     32 CL   UNL d   1      28.163 -11.883  -1.013  0.00  0.00    -0.082 Cl
BRANCH  29  33
ATOM     33  N   UNL d   1      26.291  -9.194   2.882  0.00  0.00    -0.116 N 
ATOM     34  O   UNL d   1      25.133  -9.392   2.515  0.00  0.00    -0.532 OA
ATOM     35  O   UNL d   1      26.656  -8.262   3.622  0.00  0.00    -0.532 OA
ENDBRANCH  29  33
ENDBRANCH  24  26
ENDBRANCH  23  24
ENDBRANCH  22  23
ENDBRANCH  19  22
ENDBRANCH   1  19
TORSDOF 11
ENDMDL
MODEL 7
REMARK VINA RESULT:   -31.040      2.469      2.953
REMARK INTER + INTRA:         -35.433
REMARK INTER:                 -34.321
REMARK INTRA:                  -1.112
REMARK CONF_INDEPENDENT:        3.281
REMARK UNBOUND:                -1.112
REMARK  11 active torsions:
REMARK  status: ('A' for Active; 'I' for Inactive)
REMARK    1  A    between atoms: O_2  and  C_3 
REMARK    2  A    between atoms: C_5  and  C_6 
REMARK    3  A    between atoms: C_6  and  N_7 
REMARK    4  A    between atoms: N_7  and  C_8 
REMARK    5  A    between atoms: C_8  and  C_9 
REMARK    6  A    between atoms: C_9  and  N_10 
REMARK    7  A    between atoms: N_10  and  C_11 
REMARK    8  A    between atoms: C_14  and  N_15 
REMARK    9  A    between atoms: C_24  and  O_25 
REMARK   10  A    between atoms: O_25  and  C_26 
REMARK   11  A    between atoms: C_26  and  C_27 
ROOT
ATOM      1  C   UNL d   1      29.389 -15.951  -0.602  0.00  0.00     0.271 C 
ENDROOT
BRANCH   1   2
ATOM      2  C   UNL d   1      27.958 -16.266  -0.924  0.00  0.00    -0.028 A 
ATOM      3  C   UNL d   1      27.370 -15.791  -2.102  0.00  0.00     0.048 A 
ATOM      4  C   UNL d   1      26.018 -16.053  -2.376  0.00  0.00     0.103 A 
ATOM      5  C   UNL d   1      25.227 -16.811  -1.468  0.00  0.00     0.124 A 
ATOM      6  C   UNL d   1      25.838 -17.305  -0.305  0.00  0.00     0.070 A 
ATOM      7  C   UNL d   1      27.174 -17.018  -0.049  0.00  0.00     0.035 A 
ATOM      8 CL   UNL d   1      25.151 -18.272   0.964  0.00  0.00    -0.081 Cl
BRANCH   4   9
ATOM      9  O   UNL d   1      25.379 -15.482  -3.454  0.00  0.00    -0.353 OA
ATOM     10  C   UNL d   1      24.726 -14.230  -3.249  0.00  0.00     0.210 C 
ENDBRANCH   4   9
BRANCH   5  11
ATOM     11  O   UNL d   1      23.917 -16.976  -1.847  0.00  0.00    -0.342 OA
BRANCH  11  12
ATOM     12  C   UNL d   1      22.913 -16.604  -0.909  0.00  0.00     0.216 C 
BRANCH  12  13
ATOM     13  C   UNL d   1      21.941 -17.716  -0.714  0.00  0.00    -0.017 A 
ATOM     14  C   UNL d   1      22.286 -18.855   0.010  0.00  0.00     0.012 A 
ATOM     15  C   UNL d   1      21.332 -19.843   0.199  0.00  0.00     0.020 A 
ATOM     16  C   UNL d   1      20.076 -19.658  -0.359  0.00  0.00     0.116 A 
ATOM     17  N   UNL d   1      19.729 -18.589  -1.106  0.00  0.00    -0.272 NA
ATOM     18  C   UNL d   1      20.670 -17.642  -1.270  0.00  0.00     0.125 A 
ENDBRANCH  12  13
ENDBRANCH  11  12
ENDBRANCH   5  11
ENDBRANCH   1   2
BRANCH   1  19
ATOM     19  N   UNL d   1      29.610 -15.730   0.856  0.00  0.00    -0.070 N 
ATOM     20  H   UNL d   1      30.010 -16.591   1.258  0.00  0.00     0.277 HD
ATOM     21  H   UNL d   1      28.698 -15.578   1.310  0.00  0.00     0.277 HD
BRANCH  19  22
ATOM     22  C   UNL d   1      30.507 -14.588   1.169  0.00  0.00     0.252 C 
BRANCH  22  23
ATOM     23  C   UNL d   1      29.689 -13.473   1.818  0.00  0.00     0.147 C 
BRANCH  23  24
ATOM     24  N   UNL d   1      28.637 -14.008   2.660  0.00  0.00    -0.387 N 
ATOM     25  H   UNL d   1      28.129 -14.848   2.401  0.00  0.00     0.159 HD
BRANCH  24  26
ATOM     26  C   UNL d   1      28.523 -13.581   3.985  0.00  0.00     0.050 A 
ATOM     27  C   UNL d   1      28.931 -14.448   5.019  0.00  0.00     0.033 A 
ATOM     28  C   UNL d   1      28.921 -14.036   6.363  0.00  0.00     0.038 A 
ATOM     29  C   UNL d   1      28.508 -12.737   6.681  0.00  0.00     0.104 A 
ATOM     30  C   UNL d   1      28.084 -11.868   5.679  0.00  0.00     0.062 A 
ATOM     31  C   UNL d   1      28.078 -12.291   4.353  0.00  0.00     0.062 A 
ATOM     32 CL   UNL d   1      27.353 -11.181   3.235  0.00  0.00    -0.082 Cl
BRANCH  29  33
ATOM     33  N   UNL d   1      28.508 -12.270   8.072  0.00  0.00    -0.116 N 
ATOM     34  O   UNL d   1      28.137 -13.056   8.944  0.00  0.00    -0.532 OA
ATOM     35  O   UNL d   1      28.897 -11.106   8.278  0.00  0.00    -0.532 OA
ENDBRANCH  29  33
ENDBRANCH  24  26
ENDBRANCH  23  24
ENDBRANCH  22  23
ENDBRANCH  19  22
ENDBRANCH   1  19
TORSDOF 11
ENDMDL
MODEL 8
REMARK VINA RESULT:   -30.909      1.778      2.498
REMARK INTER + INTRA:         -35.755
REMARK INTER:                 -34.191
REMARK INTRA:                  -1.565
REMARK CONF_INDEPENDENT:        3.281
REMARK UNBOUND:                -1.565
REMARK  11 active torsions:
REMARK  status: ('A' for Active; 'I' for Inactive)
REMARK    1  A    between atoms: O_2  and  C_3 
REMARK    2  A    between atoms: C_5  and  C_6 
REMARK    3  A    between atoms: C_6  and  N_7 
REMARK    4  A    between atoms: N_7  and  C_8 
REMARK    5  A    between atoms: C_8  and  C_9 
REMARK    6  A    between atoms: C_9  and  N_10 
REMARK    7  A    between atoms: N_10  and  C_11 
REMARK    8  A    between atoms: C_14  and  N_15 
REMARK    9  A    between atoms: C_24  and  O_25 
REMARK   10  A    between atoms: O_25  and  C_26 
REMARK   11  A    between atoms: C_26  and  C_27 
ROOT
ATOM      1  C   UNL d   1      29.083 -14.747  -0.113  0.00  0.00     0.271 C 
ENDROOT
BRANCH   1   2
ATOM      2  C   UNL d   1      27.754 -15.378  -0.409  0.00  0.00    -0.028 A 
ATOM      3  C   UNL d   1      27.347 -16.535   0.264  0.00  0.00     0.048 A 
ATOM      4  C   UNL d   1      26.122 -17.145  -0.049  0.00  0.00     0.103 A 
ATOM      5  C   UNL d   1      25.269 -16.592  -1.045  0.00  0.00     0.124 A 
ATOM      6  C   UNL d   1      25.677 -15.414  -1.691  0.00  0.00     0.070 A 
ATOM      7  C   UNL d   1      26.902 -14.840  -1.375  0.00  0.00     0.035 A 
ATOM      8 CL   UNL d   1      24.853 -14.498  -2.915  0.00  0.00    -0.081 Cl
BRANCH   4   9
ATOM      9  O   UNL d   1      25.762 -18.357   0.495  0.00  0.00    -0.353 OA
ATOM     10  C   UNL d   1      26.655 -18.949   1.439  0.00  0.00     0.210 C 
ENDBRANCH   4   9
BRANCH   5  11
ATOM     11  O   UNL d   1      24.112 -17.297  -1.267  0.00  0.00    -0.342 OA
BRANCH  11  12
ATOM     12  C   UNL d   1      22.922 -16.810  -0.656  0.00  0.00     0.216 C 
BRANCH  12  13
ATOM     13  C   UNL d   1      21.906 -17.894  -0.551  0.00  0.00    -0.017 A 
ATOM     14  C   UNL d   1      22.125 -19.011   0.253  0.00  0.00     0.012 A 
ATOM     15  C   UNL d   1      21.131 -19.972   0.350  0.00  0.00     0.020 A 
ATOM     16  C   UNL d   1      19.963 -19.784  -0.374  0.00  0.00     0.116 A 
ATOM     17  N   UNL d   1      19.743 -18.738  -1.198  0.00  0.00    -0.272 NA
ATOM     18  C   UNL d   1      20.720 -17.817  -1.271  0.00  0.00     0.125 A 
ENDBRANCH  12  13
ENDBRANCH  11  12
ENDBRANCH   5  11
ENDBRANCH   1   2
BRANCH   1  19
ATOM     19  N   UNL d   1      29.794 -15.417   1.013  0.00  0.00    -0.070 N 
ATOM     20  H   UNL d   1      30.005 -16.387   0.733  0.00  0.00     0.277 HD
ATOM     21  H   UNL d   1      29.159 -15.467   1.823  0.00  0.00     0.277 HD
BRANCH  19  22
ATOM     22  C   UNL d   1      31.055 -14.745   1.421  0.00  0.00     0.252 C 
BRANCH  22  23
ATOM     23  C   UNL d   1      30.718 -13.544   2.303  0.00  0.00     0.147 C 
BRANCH  23  24
ATOM     24  N   UNL d   1      30.467 -12.357   1.509  0.00  0.00    -0.387 N 
ATOM     25  H   UNL d   1      30.924 -12.215   0.613  0.00  0.00     0.159 HD
BRANCH  24  26
ATOM     26  C   UNL d   1      29.362 -11.552   1.792  0.00  0.00     0.050 A 
ATOM     27  C   UNL d   1      29.151 -11.123   3.119  0.00  0.00     0.033 A 
ATOM     28  C   UNL d   1      28.106 -10.241   3.443  0.00  0.00     0.038 A 
ATOM     29  C   UNL d   1      27.264  -9.769   2.429  0.00  0.00     0.104 A 
ATOM     30  C   UNL d   1      27.442 -10.191   1.114  0.00  0.00     0.062 A 
ATOM     31  C   UNL d   1      28.467 -11.081   0.805  0.00  0.00     0.062 A 
ATOM     32 CL   UNL d   1      28.458 -11.667  -0.827  0.00  0.00    -0.082 Cl
BRANCH  29  33
ATOM     33  N   UNL d   1      26.179  -8.829   2.732  0.00  0.00    -0.116 N 
ATOM     34  O   UNL d   1      25.021  -9.211   2.563  0.00  0.00    -0.532 OA
ATOM     35  O   UNL d   1      26.506  -7.705   3.154  0.00  0.00    -0.532 OA
ENDBRANCH  29  33
ENDBRANCH  24  26
ENDBRANCH  23  24
ENDBRANCH  22  23
ENDBRANCH  19  22
ENDBRANCH   1  19
TORSDOF 11
ENDMDL
MODEL 9
REMARK VINA RESULT:   -30.272      4.587      6.118
REMARK INTER + INTRA:         -34.725
REMARK INTER:                 -33.553
REMARK INTRA:                  -1.172
REMARK CONF_INDEPENDENT:        3.281
REMARK UNBOUND:                -1.172
REMARK  11 active torsions:
REMARK  status: ('A' for Active; 'I' for Inactive)
REMARK    1  A    between atoms: O_2  and  C_3 
REMARK    2  A    between atoms: C_5  and  C_6 
REMARK    3  A    between atoms: C_6  and  N_7 
REMARK    4  A    between atoms: N_7  and  C_8 
REMARK    5  A    between atoms: C_8  and  C_9 
REMARK    6  A    between atoms: C_9  and  N_10 
REMARK    7  A    between atoms: N_10  and  C_11 
REMARK    8  A    between atoms: C_14  and  N_15 
REMARK    9  A    between atoms: C_24  and  O_25 
REMARK   10  A    between atoms: O_25  and  C_26 
REMARK   11  A    between atoms: C_26  and  C_27 
ROOT
ATOM      1  C   UNL d   1      29.061 -17.091  -0.143  0.00  0.00     0.271 C 
ENDROOT
BRANCH   1   2
ATOM      2  C   UNL d   1      27.605 -17.095  -0.505  0.00  0.00    -0.028 A 
ATOM      3  C   UNL d   1      26.702 -17.920   0.175  0.00  0.00     0.048 A 
ATOM      4  C   UNL d   1      25.349 -17.951  -0.198  0.00  0.00     0.103 A 
ATOM      5  C   UNL d   1      24.870 -17.138  -1.263  0.00  0.00     0.124 A 
ATOM      6  C   UNL d   1      25.782 -16.293  -1.917  0.00  0.00     0.070 A 
ATOM      7  C   UNL d   1      27.119 -16.294  -1.539  0.00  0.00     0.035 A 
ATOM      8 CL   UNL d   1      25.498 -15.179  -3.218  0.00  0.00    -0.081 Cl
BRANCH   4   9
ATOM      9  O   UNL d   1      24.470 -18.853   0.359  0.00  0.00    -0.353 OA
ATOM     10  C   UNL d   1      23.813 -19.765  -0.521  0.00  0.00     0.210 C 
ENDBRANCH   4   9
BRANCH   5  11
ATOM     11  O   UNL d   1      23.532 -17.278  -1.537  0.00  0.00    -0.342 OA
BRANCH  11  12
ATOM     12  C   UNL d   1      22.612 -16.906  -0.518  0.00  0.00     0.216 C 
BRANCH  12  13
ATOM     13  C   UNL d   1      21.630 -17.997  -0.274  0.00  0.00    -0.017 A 
ATOM     14  C   UNL d   1      21.593 -18.675   0.943  0.00  0.00     0.012 A 
ATOM     15  C   UNL d   1      20.632 -19.655   1.136  0.00  0.00     0.020 A 
ATOM     16  C   UNL d   1      19.756 -19.929   0.096  0.00  0.00     0.116 A 
ATOM     17  N   UNL d   1      19.799 -19.324  -1.110  0.00  0.00    -0.272 NA
ATOM     18  C   UNL d   1      20.737 -18.373  -1.270  0.00  0.00     0.125 A 
ENDBRANCH  12  13
ENDBRANCH  11  12
ENDBRANCH   5  11
ENDBRANCH   1   2
BRANCH   1  19
ATOM     19  N   UNL d   1      29.476 -15.834   0.543  0.00  0.00    -0.070 N 
ATOM     20  H   UNL d   1      29.379 -15.972   1.560  0.00  0.00     0.277 HD
ATOM     21  H   UNL d   1      28.825 -15.081   0.276  0.00  0.00     0.277 HD
BRANCH  19  22
ATOM     22  C   UNL d   1      30.866 -15.407   0.241  0.00  0.00     0.252 C 
BRANCH  22  23
ATOM     23  C   UNL d   1      31.647 -16.599  -0.309  0.00  0.00     0.147 C 
BRANCH  23  24
ATOM     24  N   UNL d   1      32.048 -16.381  -1.685  0.00  0.00    -0.387 N 
ATOM     25  H   UNL d   1      32.989 -16.601  -2.002  0.00  0.00     0.159 HD
BRANCH  24  26
ATOM     26  C   UNL d   1      31.078 -16.182  -2.670  0.00  0.00     0.050 A 
ATOM     27  C   UNL d   1      30.491 -14.907  -2.801  0.00  0.00     0.033 A 
ATOM     28  C   UNL d   1      29.576 -14.628  -3.830  0.00  0.00     0.038 A 
ATOM     29  C   UNL d   1      29.247 -15.631  -4.750  0.00  0.00     0.104 A 
ATOM     30  C   UNL d   1      29.801 -16.903  -4.631  0.00  0.00     0.062 A 
ATOM     31  C   UNL d   1      30.691 -17.177  -3.596  0.00  0.00     0.062 A 
ATOM     32 CL   UNL d   1      31.156 -18.841  -3.453  0.00  0.00    -0.082 Cl
BRANCH  29  33
ATOM     33  N   UNL d   1      28.313 -15.364  -5.849  0.00  0.00    -0.116 N 
ATOM     34  O   UNL d   1      28.780 -15.200  -6.976  0.00  0.00    -0.532 OA
ATOM     35  O   UNL d   1      27.101 -15.333  -5.566  0.00  0.00    -0.532 OA
ENDBRANCH  29  33
ENDBRANCH  24  26
ENDBRANCH  23  24
ENDBRANCH  22  23
ENDBRANCH  19  22
ENDBRANCH   1  19
TORSDOF 11
ENDMDL
