MODEL 1
REMARK VINA RESULT:    -8.301      0.000      0.000
REMARK INTER + INTRA:         -17.362
REMARK INTER:                 -11.881
REMARK INTRA:                  -5.481
REMARK CONF_INDEPENDENT:        3.580
REMARK UNBOUND:                -5.481
REMARK  12 active torsions:
REMARK  status: ('A' for Active; 'I' for Inactive)
REMARK    1  A    between atoms: C_2  and  C_3 
REMARK    2  A    between atoms: C_3  and  C_4 
REMARK    3  A    between atoms: C_3  and  C_33 
REMARK       I    between atoms: C_4  and  N_6 
REMARK    4  A    between atoms: N_6  and  C_7 
REMARK    5  A    between atoms: N_6  and  C_14 
REMARK    6  A    between atoms: C_7  and  C_8 
REMARK    7  A    between atoms: C_14  and  C_15 
REMARK    8  A    between atoms: C_14  and  C_24 
REMARK       I    between atoms: C_15  and  N_17 
REMARK    9  A    between atoms: N_17  and  C_18 
REMARK   10  A    between atoms: C_25  and  O_26 
REMARK   11  A    between atoms: C_28  and  O_29 
REMARK   12  A    between atoms: C_31  and  O_32 
ROOT
ATOM      1  C   UNL d   1      26.776 -13.488  -5.148  0.00  0.00     0.218 C 
ENDROOT
BRANCH   1   2
ATOM      2  N   UNL d   1      28.266 -13.834  -4.948  0.00  0.00    -0.331 N 
ATOM      3  C   UNL d   1      28.725 -14.860  -5.819  0.00  0.00     0.229 C 
ATOM      4  O   UNL d   1      27.935 -15.572  -6.505  0.00  0.00    -0.273 OA
BRANCH   3   5
ATOM      5  C   UNL d   1      30.179 -15.123  -6.011  0.00  0.00     0.110 C 
BRANCH   5   6
ATOM      6  C   UNL d   1      30.847 -13.840  -6.981  0.00  0.00     0.014 C 
ATOM      7  C   UNL d   1      29.980 -12.920  -7.989  0.00  0.00     0.006 C 
ENDBRANCH   5   6
BRANCH   5   8
ATOM      8  C   UNL d   1      30.657 -16.465  -6.463  0.00  0.00    -0.045 C 
ATOM      9  C   UNL d   1      30.273 -17.529  -5.675  0.00  0.00     0.008 C 
ATOM     10  C   UNL d   1      30.776 -18.773  -5.901  0.00  0.00     0.001 C 
ATOM     11  C   UNL d   1      31.585 -18.983  -7.008  0.00  0.00     0.000 C 
ATOM     12  C   UNL d   1      31.908 -17.942  -7.885  0.00  0.00     0.001 C 
ATOM     13  C   UNL d   1      31.437 -16.664  -7.623  0.00  0.00     0.008 C 
ENDBRANCH   5   8
ENDBRANCH   3   5
BRANCH   2  14
ATOM     14  C   UNL d   1      29.012 -12.892  -3.928  0.00  0.00     0.169 C 
BRANCH  14  15
ATOM     15  C   UNL d   1      29.254 -13.060  -2.352  0.00  0.00     0.125 A 
ATOM     16  C   UNL d   1      29.090 -11.966  -1.575  0.00  0.00     0.061 A 
ATOM     17  C   UNL d   1      28.555 -12.078  -0.317  0.00  0.00     0.014 A 
ATOM     18  C   UNL d   1      28.395 -13.425  -0.241  0.00  0.00     0.040 A 
ATOM     19  C   UNL d   1      27.870 -14.033   0.988  0.00  0.00     0.076 C 
ATOM     20  O   UNL d   1      28.705 -14.068  -1.475  0.00  0.00    -0.340 OA
ENDBRANCH  14  15
ENDBRANCH   2  14
ENDBRANCH   1   2
BRANCH   1  21
ATOM     21  C   UNL d   1      26.059 -14.711  -4.419  0.00  0.00     0.245 C 
ATOM     22  O   UNL d   1      25.158 -15.345  -4.966  0.00  0.00    -0.271 OA
ATOM     23  N   UNL d   1      26.503 -15.101  -3.161  0.00  0.00    -0.354 N 
ATOM     24  H   UNL d   1      27.220 -14.548  -2.688  0.00  0.00     0.162 HD
BRANCH  23  25
ATOM     25  C   UNL d   1      25.890 -16.197  -2.430  0.00  0.00     0.084 C 
ATOM     26  C   UNL d   1      26.840 -16.599  -1.301  0.00  0.00     0.025 C 
ATOM     27  C   UNL d   1      26.307 -17.759  -0.491  0.00  0.00     0.002 C 
ATOM     28  C   UNL d   1      24.938 -17.432   0.083  0.00  0.00     0.000 C 
ATOM     29  C   UNL d   1      23.962 -17.039  -1.023  0.00  0.00     0.002 C 
ATOM     30  C   UNL d   1      24.496 -15.866  -1.858  0.00  0.00     0.025 C 
ENDBRANCH  23  25
ENDBRANCH   1  21
BRANCH   1  31
ATOM     31  C   UNL d   1      26.218 -12.077  -4.629  0.00  0.00     0.040 C 
ATOM     32  C   UNL d   1      26.114 -11.780  -3.246  0.00  0.00     0.080 C 
ATOM     33  C   UNL d   1      25.905 -10.468  -2.766  0.00  0.00     0.073 C 
ATOM     34  C   UNL d   1      25.788  -9.408  -3.649  0.00  0.00     0.071 C 
ATOM     35  C   UNL d   1      25.765  -9.654  -4.993  0.00  0.00     0.073 C 
ATOM     36  C   UNL d   1      25.814 -10.976  -5.440  0.00  0.00     0.080 C 
BRANCH  32  37
ATOM     37  O   UNL d   1      26.122 -12.708  -2.233  0.00  0.00    -0.360 OA
ATOM     38  H   UNL d   1      26.989 -13.126  -2.130  0.00  0.00     0.217 HD
ENDBRANCH  32  37
BRANCH  34  39
ATOM     39  O   UNL d   1      25.574  -8.121  -3.269  0.00  0.00    -0.361 OA
ATOM     40  H   UNL d   1      24.646  -8.024  -3.008  0.00  0.00     0.217 HD
ENDBRANCH  34  39
BRANCH  36  41
ATOM     41  O   UNL d   1      25.281 -11.079  -6.705  0.00  0.00    -0.360 OA
ATOM     42  H   UNL d   1      24.306 -10.966  -6.619  0.00  0.00     0.217 HD
ENDBRANCH  36  41
ENDBRANCH   1  31
TORSDOF 12
ENDMDL
MODEL 2
REMARK VINA RESULT:    -8.238      2.084      6.607
REMARK INTER + INTRA:         -16.483
REMARK INTER:                 -11.817
REMARK INTRA:                  -4.665
REMARK CONF_INDEPENDENT:        3.580
REMARK UNBOUND:                -4.665
REMARK  12 active torsions:
REMARK  status: ('A' for Active; 'I' for Inactive)
REMARK    1  A    between atoms: C_2  and  C_3 
REMARK    2  A    between atoms: C_3  and  C_4 
REMARK    3  A    between atoms: C_3  and  C_33 
REMARK       I    between atoms: C_4  and  N_6 
REMARK    4  A    between atoms: N_6  and  C_7 
REMARK    5  A    between atoms: N_6  and  C_14 
REMARK    6  A    between atoms: C_7  and  C_8 
REMARK    7  A    between atoms: C_14  and  C_15 
REMARK    8  A    between atoms: C_14  and  C_24 
REMARK       I    between atoms: C_15  and  N_17 
REMARK    9  A    between atoms: N_17  and  C_18 
REMARK   10  A    between atoms: C_25  and  O_26 
REMARK   11  A    between atoms: C_28  and  O_29 
REMARK   12  A    between atoms: C_31  and  O_32 
ROOT
ATOM      1  C   UNL d   1      26.397 -12.789  -4.488  0.00  0.00     0.218 C 
ENDROOT
BRANCH   1   2
ATOM      2  N   UNL d   1      26.528 -13.363  -3.062  0.00  0.00    -0.331 N 
ATOM      3  C   UNL d   1      25.938 -14.649  -2.919  0.00  0.00     0.229 C 
ATOM      4  O   UNL d   1      25.181 -15.150  -3.801  0.00  0.00    -0.273 OA
BRANCH   3   5
ATOM      5  C   UNL d   1      26.222 -15.506  -1.734  0.00  0.00     0.110 C 
BRANCH   5   6
ATOM      6  C   UNL d   1      27.738 -16.323  -1.996  0.00  0.00     0.014 C 
ATOM      7  C   UNL d   1      29.042 -16.138  -1.057  0.00  0.00     0.006 C 
ENDBRANCH   5   6
BRANCH   5   8
ATOM      8  C   UNL d   1      25.180 -16.433  -1.197  0.00  0.00    -0.045 C 
ATOM      9  C   UNL d   1      23.874 -16.032  -1.386  0.00  0.00     0.008 C 
ATOM     10  C   UNL d   1      22.850 -16.716  -0.806  0.00  0.00     0.001 C 
ATOM     11  C   UNL d   1      23.126 -17.891  -0.123  0.00  0.00     0.000 C 
ATOM     12  C   UNL d   1      24.432 -18.378  -0.003  0.00  0.00     0.001 C 
ATOM     13  C   UNL d   1      25.480 -17.652  -0.550  0.00  0.00     0.008 C 
ENDBRANCH   5   8
ENDBRANCH   3   5
BRANCH   2  14
ATOM     14  C   UNL d   1      27.406 -12.482  -2.094  0.00  0.00     0.169 C 
BRANCH  14  15
ATOM     15  C   UNL d   1      27.558 -12.538  -0.499  0.00  0.00     0.125 A 
ATOM     16  C   UNL d   1      26.486 -12.951   0.216  0.00  0.00     0.061 A 
ATOM     17  C   UNL d   1      26.654 -13.709   1.347  0.00  0.00     0.014 A 
ATOM     18  C   UNL d   1      28.010 -13.755   1.410  0.00  0.00     0.040 A 
ATOM     19  C   UNL d   1      28.669 -14.452   2.522  0.00  0.00     0.076 C 
ATOM     20  O   UNL d   1      28.616 -13.153   0.269  0.00  0.00    -0.340 OA
ENDBRANCH  14  15
ENDBRANCH   2  14
ENDBRANCH   1   2
BRANCH   1  21
ATOM     21  C   UNL d   1      26.446 -11.220  -4.211  0.00  0.00     0.245 C 
ATOM     22  O   UNL d   1      27.491 -10.582  -4.314  0.00  0.00    -0.271 OA
ATOM     23  N   UNL d   1      25.266 -10.554  -3.900  0.00  0.00    -0.354 N 
ATOM     24  H   UNL d   1      24.406 -11.089  -3.769  0.00  0.00     0.162 HD
BRANCH  23  25
ATOM     25  C   UNL d   1      25.233  -9.128  -3.621  0.00  0.00     0.084 C 
ATOM     26  C   UNL d   1      26.081  -8.873  -2.375  0.00  0.00     0.025 C 
ATOM     27  C   UNL d   1      26.090  -7.413  -1.979  0.00  0.00     0.002 C 
ATOM     28  C   UNL d   1      26.588  -6.546  -3.123  0.00  0.00     0.000 C 
ATOM     29  C   UNL d   1      25.751  -6.770  -4.381  0.00  0.00     0.002 C 
ATOM     30  C   UNL d   1      25.728  -8.250  -4.790  0.00  0.00     0.025 C 
ENDBRANCH  23  25
ENDBRANCH   1  21
BRANCH   1  31
ATOM     31  C   UNL d   1      27.453 -13.227  -5.613  0.00  0.00     0.040 C 
ATOM     32  C   UNL d   1      27.884 -12.327  -6.621  0.00  0.00     0.080 C 
ATOM     33  C   UNL d   1      29.008 -12.584  -7.437  0.00  0.00     0.073 C 
ATOM     34  C   UNL d   1      29.738 -13.750  -7.278  0.00  0.00     0.071 C 
ATOM     35  C   UNL d   1      29.299 -14.704  -6.403  0.00  0.00     0.073 C 
ATOM     36  C   UNL d   1      28.097 -14.495  -5.723  0.00  0.00     0.080 C 
BRANCH  32  37
ATOM     37  O   UNL d   1      27.240 -11.167  -6.975  0.00  0.00    -0.360 OA
ATOM     38  H   UNL d   1      27.272 -10.503  -6.271  0.00  0.00     0.217 HD
ENDBRANCH  32  37
BRANCH  34  39
ATOM     39  O   UNL d   1      30.822 -14.078  -8.030  0.00  0.00    -0.361 OA
ATOM     40  H   UNL d   1      30.708 -13.707  -8.918  0.00  0.00     0.217 HD
ENDBRANCH  34  39
BRANCH  36  41
ATOM     41  O   UNL d   1      27.559 -15.693  -5.313  0.00  0.00    -0.360 OA
ATOM     42  H   UNL d   1      26.579 -15.605  -5.366  0.00  0.00     0.217 HD
ENDBRANCH  36  41
ENDBRANCH   1  31
TORSDOF 12
ENDMDL
MODEL 3
REMARK VINA RESULT:    -8.059      2.783      7.638
REMARK INTER + INTRA:         -16.740
REMARK INTER:                 -11.639
REMARK INTRA:                  -5.102
REMARK CONF_INDEPENDENT:        3.580
REMARK UNBOUND:                -5.102
REMARK  12 active torsions:
REMARK  status: ('A' for Active; 'I' for Inactive)
REMARK    1  A    between atoms: C_2  and  C_3 
REMARK    2  A    between atoms: C_3  and  C_4 
REMARK    3  A    between atoms: C_3  and  C_33 
REMARK       I    between atoms: C_4  and  N_6 
REMARK    4  A    between atoms: N_6  and  C_7 
REMARK    5  A    between atoms: N_6  and  C_14 
REMARK    6  A    between atoms: C_7  and  C_8 
REMARK    7  A    between atoms: C_14  and  C_15 
REMARK    8  A    between atoms: C_14  and  C_24 
REMARK       I    between atoms: C_15  and  N_17 
REMARK    9  A    between atoms: N_17  and  C_18 
REMARK   10  A    between atoms: C_25  and  O_26 
REMARK   11  A    between atoms: C_28  and  O_29 
REMARK   12  A    between atoms: C_31  and  O_32 
ROOT
ATOM      1  C   UNL d   1      29.285 -14.267   0.812  0.00  0.00     0.218 C 
ENDROOT
BRANCH   1   2
ATOM      2  N   UNL d   1      28.824 -15.529   0.054  0.00  0.00    -0.331 N 
ATOM      3  C   UNL d   1      27.424 -15.761   0.152  0.00  0.00     0.229 C 
ATOM      4  O   UNL d   1      26.688 -15.138   0.972  0.00  0.00    -0.273 OA
BRANCH   3   5
ATOM      5  C   UNL d   1      26.732 -16.725  -0.748  0.00  0.00     0.110 C 
BRANCH   5   6
ATOM      6  C   UNL d   1      27.046 -16.262  -2.397  0.00  0.00     0.014 C 
ATOM      7  C   UNL d   1      25.914 -15.717  -3.416  0.00  0.00     0.006 C 
ENDBRANCH   5   6
BRANCH   5   8
ATOM      8  C   UNL d   1      25.293 -17.069  -0.534  0.00  0.00    -0.045 C 
ATOM      9  C   UNL d   1      25.039 -18.384  -0.207  0.00  0.00     0.008 C 
ATOM     10  C   UNL d   1      23.760 -18.845  -0.141  0.00  0.00     0.001 C 
ATOM     11  C   UNL d   1      22.712 -17.949  -0.289  0.00  0.00     0.000 C 
ATOM     12  C   UNL d   1      22.940 -16.589  -0.520  0.00  0.00     0.001 C 
ATOM     13  C   UNL d   1      24.244 -16.130  -0.638  0.00  0.00     0.008 C 
ENDBRANCH   5   8
ENDBRANCH   3   5
BRANCH   2  14
ATOM     14  C   UNL d   1      29.960 -16.222  -0.790  0.00  0.00     0.169 C 
BRANCH  14  15
ATOM     15  C   UNL d   1      30.365 -16.033  -2.330  0.00  0.00     0.125 A 
ATOM     16  C   UNL d   1      30.418 -17.141  -3.102  0.00  0.00     0.061 A 
ATOM     17  C   UNL d   1      30.025 -17.095  -4.415  0.00  0.00     0.014 A 
ATOM     18  C   UNL d   1      29.724 -15.775  -4.532  0.00  0.00     0.040 A 
ATOM     19  C   UNL d   1      29.281 -15.235  -5.824  0.00  0.00     0.076 C 
ATOM     20  O   UNL d   1      29.812 -15.097  -3.282  0.00  0.00    -0.340 OA
ENDBRANCH  14  15
ENDBRANCH   2  14
ENDBRANCH   1   2
BRANCH   1  21
ATOM     21  C   UNL d   1      28.469 -13.122   0.060  0.00  0.00     0.245 C 
ATOM     22  O   UNL d   1      28.055 -12.131   0.659  0.00  0.00    -0.271 OA
ATOM     23  N   UNL d   1      28.272 -13.224  -1.311  0.00  0.00    -0.354 N 
ATOM     24  H   UNL d   1      28.576 -14.067  -1.802  0.00  0.00     0.162 HD
BRANCH  23  25
ATOM     25  C   UNL d   1      27.527 -12.228  -2.062  0.00  0.00     0.084 C 
ATOM     26  C   UNL d   1      28.435 -11.699  -3.173  0.00  0.00     0.025 C 
ATOM     27  C   UNL d   1      27.761 -10.629  -4.001  0.00  0.00     0.002 C 
ATOM     28  C   UNL d   1      26.465 -11.147  -4.602  0.00  0.00     0.000 C 
ATOM     29  C   UNL d   1      25.530 -11.671  -3.515  0.00  0.00     0.002 C 
ATOM     30  C   UNL d   1      26.206 -12.754  -2.662  0.00  0.00     0.025 C 
ENDBRANCH  23  25
ENDBRANCH   1  21
BRANCH   1  31
ATOM     31  C   UNL d   1      29.094 -14.188   2.401  0.00  0.00     0.040 C 
ATOM     32  C   UNL d   1      27.841 -13.872   2.987  0.00  0.00     0.080 C 
ATOM     33  C   UNL d   1      27.572 -14.075   4.359  0.00  0.00     0.073 C 
ATOM     34  C   UNL d   1      28.545 -14.595   5.195  0.00  0.00     0.071 C 
ATOM     35  C   UNL d   1      29.805 -14.808   4.709  0.00  0.00     0.073 C 
ATOM     36  C   UNL d   1      30.089 -14.450   3.389  0.00  0.00     0.080 C 
BRANCH  32  37
ATOM     37  O   UNL d   1      26.790 -13.275   2.335  0.00  0.00    -0.360 OA
ATOM     38  H   UNL d   1      26.733 -13.551   1.409  0.00  0.00     0.217 HD
ENDBRANCH  32  37
BRANCH  34  39
ATOM     39  O   UNL d   1      28.371 -14.808   6.526  0.00  0.00    -0.361 OA
ATOM     40  H   UNL d   1      28.350 -15.763   6.688  0.00  0.00     0.217 HD
ENDBRANCH  34  39
BRANCH  36  41
ATOM     41  O   UNL d   1      31.440 -14.245   3.224  0.00  0.00    -0.360 OA
ATOM     42  H   UNL d   1      31.895 -14.682   3.981  0.00  0.00     0.217 HD
ENDBRANCH  36  41
ENDBRANCH   1  31
TORSDOF 12
ENDMDL
MODEL 4
REMARK VINA RESULT:    -7.871      2.138      6.916
REMARK INTER + INTRA:         -16.439
REMARK INTER:                 -11.450
REMARK INTRA:                  -4.989
REMARK CONF_INDEPENDENT:        3.580
REMARK UNBOUND:                -4.989
REMARK  12 active torsions:
REMARK  status: ('A' for Active; 'I' for Inactive)
REMARK    1  A    between atoms: C_2  and  C_3 
REMARK    2  A    between atoms: C_3  and  C_4 
REMARK    3  A    between atoms: C_3  and  C_33 
REMARK       I    between atoms: C_4  and  N_6 
REMARK    4  A    between atoms: N_6  and  C_7 
REMARK    5  A    between atoms: N_6  and  C_14 
REMARK    6  A    between atoms: C_7  and  C_8 
REMARK    7  A    between atoms: C_14  and  C_15 
REMARK    8  A    between atoms: C_14  and  C_24 
REMARK       I    between atoms: C_15  and  N_17 
REMARK    9  A    between atoms: N_17  and  C_18 
REMARK   10  A    between atoms: C_25  and  O_26 
REMARK   11  A    between atoms: C_28  and  O_29 
REMARK   12  A    between atoms: C_31  and  O_32 
ROOT
ATOM      1  C   UNL d   1      26.654 -13.224  -3.869  0.00  0.00     0.218 C 
ENDROOT
BRANCH   1   2
ATOM      2  N   UNL d   1      26.222 -13.590  -2.435  0.00  0.00    -0.331 N 
ATOM      3  C   UNL d   1      25.626 -14.877  -2.340  0.00  0.00     0.229 C 
ATOM      4  O   UNL d   1      25.271 -15.538  -3.360  0.00  0.00    -0.273 OA
BRANCH   3   5
ATOM      5  C   UNL d   1      25.429 -15.547  -1.024  0.00  0.00     0.110 C 
BRANCH   5   6
ATOM      6  C   UNL d   1      26.992 -15.962  -0.378  0.00  0.00     0.014 C 
ATOM      7  C   UNL d   1      27.973 -17.074  -1.024  0.00  0.00     0.006 C 
ENDBRANCH   5   6
BRANCH   5   8
ATOM      8  C   UNL d   1      24.454 -16.672  -0.879  0.00  0.00    -0.045 C 
ATOM      9  C   UNL d   1      23.124 -16.310  -0.896  0.00  0.00     0.008 C 
ATOM     10  C   UNL d   1      22.156 -17.225  -0.619  0.00  0.00     0.001 C 
ATOM     11  C   UNL d   1      22.514 -18.553  -0.438  0.00  0.00     0.000 C 
ATOM     12  C   UNL d   1      23.848 -18.967  -0.519  0.00  0.00     0.001 C 
ATOM     13  C   UNL d   1      24.839 -18.024  -0.750  0.00  0.00     0.008 C 
ENDBRANCH   5   8
ENDBRANCH   3   5
BRANCH   2  14
ATOM     14  C   UNL d   1      26.654 -12.535  -1.346  0.00  0.00     0.169 C 
BRANCH  14  15
ATOM     15  C   UNL d   1      27.824 -12.600  -0.252  0.00  0.00     0.125 A 
ATOM     16  C   UNL d   1      27.476 -12.914   1.017  0.00  0.00     0.061 A 
ATOM     17  C   UNL d   1      28.304 -13.680   1.797  0.00  0.00     0.014 A 
ATOM     18  C   UNL d   1      29.352 -13.847   0.948  0.00  0.00     0.040 A 
ATOM     19  C   UNL d   1      30.537 -14.597   1.384  0.00  0.00     0.076 C 
ATOM     20  O   UNL d   1      29.083 -13.304  -0.342  0.00  0.00    -0.340 OA
ENDBRANCH  14  15
ENDBRANCH   2  14
ENDBRANCH   1   2
BRANCH   1  21
ATOM     21  C   UNL d   1      26.855 -11.646  -3.754  0.00  0.00     0.245 C 
ATOM     22  O   UNL d   1      27.883 -11.163  -3.283  0.00  0.00    -0.271 OA
ATOM     23  N   UNL d   1      25.868 -10.803  -4.250  0.00  0.00    -0.354 N 
ATOM     24  H   UNL d   1      24.995 -11.202  -4.600  0.00  0.00     0.162 HD
BRANCH  23  25
ATOM     25  C   UNL d   1      25.973  -9.356  -4.168  0.00  0.00     0.084 C 
ATOM     26  C   UNL d   1      25.061  -8.756  -5.237  0.00  0.00     0.025 C 
ATOM     27  C   UNL d   1      25.119  -7.246  -5.257  0.00  0.00     0.002 C 
ATOM     28  C   UNL d   1      24.758  -6.674  -3.896  0.00  0.00     0.000 C 
ATOM     29  C   UNL d   1      25.662  -7.245  -2.806  0.00  0.00     0.002 C 
ATOM     30  C   UNL d   1      25.617  -8.780  -2.781  0.00  0.00     0.025 C 
ENDBRANCH  23  25
ENDBRANCH   1  21
BRANCH   1  31
ATOM     31  C   UNL d   1      27.936 -13.940  -4.513  0.00  0.00     0.040 C 
ATOM     32  C   UNL d   1      27.810 -14.901  -5.549  0.00  0.00     0.080 C 
ATOM     33  C   UNL d   1      28.912 -15.329  -6.324  0.00  0.00     0.073 C 
ATOM     34  C   UNL d   1      30.176 -14.817  -6.088  0.00  0.00     0.071 C 
ATOM     35  C   UNL d   1      30.374 -13.978  -5.028  0.00  0.00     0.073 C 
ATOM     36  C   UNL d   1      29.301 -13.694  -4.181  0.00  0.00     0.080 C 
BRANCH  32  37
ATOM     37  O   UNL d   1      26.658 -15.575  -5.869  0.00  0.00    -0.360 OA
ATOM     38  H   UNL d   1      26.298 -16.061  -5.113  0.00  0.00     0.217 HD
ENDBRANCH  32  37
BRANCH  34  39
ATOM     39  O   UNL d   1      31.287 -15.186  -6.779  0.00  0.00    -0.361 OA
ATOM     40  H   UNL d   1      31.893 -14.431  -6.821  0.00  0.00     0.217 HD
ENDBRANCH  34  39
BRANCH  36  41
ATOM     41  O   UNL d   1      29.754 -13.291  -2.945  0.00  0.00    -0.360 OA
ATOM     42  H   UNL d   1      28.987 -12.896  -2.470  0.00  0.00     0.217 HD
ENDBRANCH  36  41
ENDBRANCH   1  31
TORSDOF 12
ENDMDL
MODEL 5
REMARK VINA RESULT:    -7.783      2.339      7.358
REMARK INTER + INTRA:         -16.528
REMARK INTER:                 -11.363
REMARK INTRA:                  -5.165
REMARK CONF_INDEPENDENT:        3.580
REMARK UNBOUND:                -5.165
REMARK  12 active torsions:
REMARK  status: ('A' for Active; 'I' for Inactive)
REMARK    1  A    between atoms: C_2  and  C_3 
REMARK    2  A    between atoms: C_3  and  C_4 
REMARK    3  A    between atoms: C_3  and  C_33 
REMARK       I    between atoms: C_4  and  N_6 
REMARK    4  A    between atoms: N_6  and  C_7 
REMARK    5  A    between atoms: N_6  and  C_14 
REMARK    6  A    between atoms: C_7  and  C_8 
REMARK    7  A    between atoms: C_14  and  C_15 
REMARK    8  A    between atoms: C_14  and  C_24 
REMARK       I    between atoms: C_15  and  N_17 
REMARK    9  A    between atoms: N_17  and  C_18 
REMARK   10  A    between atoms: C_25  and  O_26 
REMARK   11  A    between atoms: C_28  and  O_29 
REMARK   12  A    between atoms: C_31  and  O_32 
ROOT
ATOM      1  C   UNL d   1      28.465 -13.759  -0.370  0.00  0.00     0.218 C 
ENDROOT
BRANCH   1   2
ATOM      2  N   UNL d   1      27.868 -14.957  -1.137  0.00  0.00    -0.331 N 
ATOM      3  C   UNL d   1      26.501 -15.196  -0.828  0.00  0.00     0.229 C 
ATOM      4  O   UNL d   1      25.918 -14.639   0.148  0.00  0.00    -0.273 OA
BRANCH   3   5
ATOM      5  C   UNL d   1      25.657 -16.085  -1.674  0.00  0.00     0.110 C 
BRANCH   5   6
ATOM      6  C   UNL d   1      25.155 -15.192  -3.083  0.00  0.00     0.014 C 
ATOM      7  C   UNL d   1      25.901 -15.264  -4.516  0.00  0.00     0.006 C 
ENDBRANCH   5   6
BRANCH   5   8
ATOM      8  C   UNL d   1      24.524 -16.856  -1.076  0.00  0.00    -0.045 C 
ATOM      9  C   UNL d   1      24.853 -18.097  -0.572  0.00  0.00     0.008 C 
ATOM     10  C   UNL d   1      23.880 -18.948  -0.145  0.00  0.00     0.001 C 
ATOM     11  C   UNL d   1      22.565 -18.508  -0.111  0.00  0.00     0.000 C 
ATOM     12  C   UNL d   1      22.216 -17.216  -0.520  0.00  0.00     0.001 C 
ATOM     13  C   UNL d   1      23.202 -16.368  -1.004  0.00  0.00     0.008 C 
ENDBRANCH   5   8
ENDBRANCH   3   5
BRANCH   2  14
ATOM     14  C   UNL d   1      28.841 -15.581  -2.209  0.00  0.00     0.169 C 
BRANCH  14  15
ATOM     15  C   UNL d   1      29.352 -14.991  -3.609  0.00  0.00     0.125 A 
ATOM     16  C   UNL d   1      29.637 -15.874  -4.593  0.00  0.00     0.061 A 
ATOM     17  C   UNL d   1      29.363 -15.572  -5.902  0.00  0.00     0.014 A 
ATOM     18  C   UNL d   1      28.884 -14.308  -5.764  0.00  0.00     0.040 A 
ATOM     19  C   UNL d   1      28.485 -13.541  -6.952  0.00  0.00     0.076 C 
ATOM     20  O   UNL d   1      28.756 -13.934  -4.395  0.00  0.00    -0.340 OA
ENDBRANCH  14  15
ENDBRANCH   2  14
ENDBRANCH   1   2
BRANCH   1  21
ATOM     21  C   UNL d   1      27.555 -12.557  -0.889  0.00  0.00     0.245 C 
ATOM     22  O   UNL d   1      27.103 -11.715  -0.115  0.00  0.00    -0.271 OA
ATOM     23  N   UNL d   1      27.318 -12.431  -2.252  0.00  0.00    -0.354 N 
ATOM     24  H   UNL d   1      27.655 -13.154  -2.890  0.00  0.00     0.162 HD
BRANCH  23  25
ATOM     25  C   UNL d   1      26.488 -11.370  -2.798  0.00  0.00     0.084 C 
ATOM     26  C   UNL d   1      27.091 -10.033  -2.369  0.00  0.00     0.025 C 
ATOM     27  C   UNL d   1      26.282  -8.855  -2.864  0.00  0.00     0.002 C 
ATOM     28  C   UNL d   1      26.143  -8.893  -4.377  0.00  0.00     0.000 C 
ATOM     29  C   UNL d   1      25.530 -10.214  -4.836  0.00  0.00     0.002 C 
ATOM     30  C   UNL d   1      26.339 -11.419  -4.333  0.00  0.00     0.025 C 
ENDBRANCH  23  25
ENDBRANCH   1  21
BRANCH   1  31
ATOM     31  C   UNL d   1      28.534 -13.805   1.231  0.00  0.00     0.040 C 
ATOM     32  C   UNL d   1      29.603 -14.442   1.913  0.00  0.00     0.080 C 
ATOM     33  C   UNL d   1      29.842 -14.252   3.292  0.00  0.00     0.073 C 
ATOM     34  C   UNL d   1      29.020 -13.425   4.040  0.00  0.00     0.071 C 
ATOM     35  C   UNL d   1      27.910 -12.879   3.459  0.00  0.00     0.073 C 
ATOM     36  C   UNL d   1      27.607 -13.209   2.137  0.00  0.00     0.080 C 
BRANCH  32  37
ATOM     37  O   UNL d   1      30.464 -15.355   1.357  0.00  0.00    -0.360 OA
ATOM     38  H   UNL d   1      30.320 -16.248   1.703  0.00  0.00     0.217 HD
ENDBRANCH  32  37
BRANCH  34  39
ATOM     39  O   UNL d   1      29.175 -13.201   5.371  0.00  0.00    -0.361 OA
ATOM     40  H   UNL d   1      29.805 -13.847   5.725  0.00  0.00     0.217 HD
ENDBRANCH  34  39
BRANCH  36  41
ATOM     41  O   UNL d   1      26.268 -13.018   1.885  0.00  0.00    -0.360 OA
ATOM     42  H   UNL d   1      26.191 -12.682   0.962  0.00  0.00     0.217 HD
ENDBRANCH  36  41
ENDBRANCH   1  31
TORSDOF 12
ENDMDL
MODEL 6
REMARK VINA RESULT:    -7.508      1.386      2.731
REMARK INTER + INTRA:         -16.539
REMARK INTER:                 -11.087
REMARK INTRA:                  -5.452
REMARK CONF_INDEPENDENT:        3.580
REMARK UNBOUND:                -5.452
REMARK  12 active torsions:
REMARK  status: ('A' for Active; 'I' for Inactive)
REMARK    1  A    between atoms: C_2  and  C_3 
REMARK    2  A    between atoms: C_3  and  C_4 
REMARK    3  A    between atoms: C_3  and  C_33 
REMARK       I    between atoms: C_4  and  N_6 
REMARK    4  A    between atoms: N_6  and  C_7 
REMARK    5  A    between atoms: N_6  and  C_14 
REMARK    6  A    between atoms: C_7  and  C_8 
REMARK    7  A    between atoms: C_14  and  C_15 
REMARK    8  A    between atoms: C_14  and  C_24 
REMARK       I    between atoms: C_15  and  N_17 
REMARK    9  A    between atoms: N_17  and  C_18 
REMARK   10  A    between atoms: C_25  and  O_26 
REMARK   11  A    between atoms: C_28  and  O_29 
REMARK   12  A    between atoms: C_31  and  O_32 
ROOT
ATOM      1  C   UNL d   1      26.208 -13.156  -4.971  0.00  0.00     0.218 C 
ENDROOT
BRANCH   1   2
ATOM      2  N   UNL d   1      27.637 -13.735  -4.935  0.00  0.00    -0.331 N 
ATOM      3  C   UNL d   1      27.778 -14.929  -5.695  0.00  0.00     0.229 C 
ATOM      4  O   UNL d   1      26.782 -15.569  -6.143  0.00  0.00    -0.273 OA
BRANCH   3   5
ATOM      5  C   UNL d   1      29.119 -15.470  -6.050  0.00  0.00     0.110 C 
BRANCH   5   6
ATOM      6  C   UNL d   1      29.885 -16.045  -4.595  0.00  0.00     0.014 C 
ATOM      7  C   UNL d   1      29.103 -16.315  -3.205  0.00  0.00     0.006 C 
ENDBRANCH   5   6
BRANCH   5   8
ATOM      8  C   UNL d   1      30.063 -14.674  -6.894  0.00  0.00    -0.045 C 
ATOM      9  C   UNL d   1      29.595 -13.446  -7.310  0.00  0.00     0.008 C 
ATOM     10  C   UNL d   1      30.303 -12.704  -8.205  0.00  0.00     0.001 C 
ATOM     11  C   UNL d   1      31.557 -13.143  -8.602  0.00  0.00     0.000 C 
ATOM     12  C   UNL d   1      32.102 -14.337  -8.116  0.00  0.00     0.001 C 
ATOM     13  C   UNL d   1      31.357 -15.117  -7.244  0.00  0.00     0.008 C 
ENDBRANCH   5   8
ENDBRANCH   3   5
BRANCH   2  14
ATOM     14  C   UNL d   1      28.682 -12.819  -4.192  0.00  0.00     0.169 C 
BRANCH  14  15
ATOM     15  C   UNL d   1      29.088 -12.763  -2.641  0.00  0.00     0.125 A 
ATOM     16  C   UNL d   1      29.452 -11.564  -2.134  0.00  0.00     0.061 A 
ATOM     17  C   UNL d   1      29.114 -11.218  -0.851  0.00  0.00     0.014 A 
ATOM     18  C   UNL d   1      28.493 -12.358  -0.448  0.00  0.00     0.040 A 
ATOM     19  C   UNL d   1      27.981 -12.469   0.924  0.00  0.00     0.076 C 
ATOM     20  O   UNL d   1      28.355 -13.293  -1.514  0.00  0.00    -0.340 OA
ENDBRANCH  14  15
ENDBRANCH   2  14
ENDBRANCH   1   2
BRANCH   1  21
ATOM     21  C   UNL d   1      25.496 -13.982  -3.809  0.00  0.00     0.245 C 
ATOM     22  O   UNL d   1      24.271 -14.075  -3.746  0.00  0.00    -0.271 OA
ATOM     23  N   UNL d   1      26.281 -14.655  -2.881  0.00  0.00    -0.354 N 
ATOM     24  H   UNL d   1      27.296 -14.542  -2.906  0.00  0.00     0.162 HD
BRANCH  23  25
ATOM     25  C   UNL d   1      25.704 -15.417  -1.786  0.00  0.00     0.084 C 
ATOM     26  C   UNL d   1      24.824 -16.513  -2.388  0.00  0.00     0.025 C 
ATOM     27  C   UNL d   1      24.149 -17.351  -1.326  0.00  0.00     0.002 C 
ATOM     28  C   UNL d   1      25.176 -17.973  -0.395  0.00  0.00     0.000 C 
ATOM     29  C   UNL d   1      26.063 -16.900   0.233  0.00  0.00     0.002 C 
ATOM     30  C   UNL d   1      26.750 -16.037  -0.835  0.00  0.00     0.025 C 
ENDBRANCH  23  25
ENDBRANCH   1  21
BRANCH   1  31
ATOM     31  C   UNL d   1      25.993 -11.577  -4.796  0.00  0.00     0.040 C 
ATOM     32  C   UNL d   1      25.835 -10.717  -5.913  0.00  0.00     0.080 C 
ATOM     33  C   UNL d   1      25.363  -9.391  -5.790  0.00  0.00     0.073 C 
ATOM     34  C   UNL d   1      25.037  -8.876  -4.547  0.00  0.00     0.071 C 
ATOM     35  C   UNL d   1      25.280  -9.620  -3.426  0.00  0.00     0.073 C 
ATOM     36  C   UNL d   1      25.895 -10.866  -3.563  0.00  0.00     0.080 C 
BRANCH  32  37
ATOM     37  O   UNL d   1      26.184 -11.025  -7.205  0.00  0.00    -0.360 OA
ATOM     38  H   UNL d   1      26.239 -10.238  -7.765  0.00  0.00     0.217 HD
ENDBRANCH  32  37
BRANCH  34  39
ATOM     39  O   UNL d   1      24.590  -7.609  -4.342  0.00  0.00    -0.361 OA
ATOM     40  H   UNL d   1      24.058  -7.594  -3.532  0.00  0.00     0.217 HD
ENDBRANCH  34  39
BRANCH  36  41
ATOM     41  O   UNL d   1      26.512 -11.232  -2.388  0.00  0.00    -0.360 OA
ATOM     42  H   UNL d   1      26.775 -12.176  -2.480  0.00  0.00     0.217 HD
ENDBRANCH  36  41
ENDBRANCH   1  31
TORSDOF 12
ENDMDL
MODEL 7
REMARK VINA RESULT:    -7.370      2.960      6.318
REMARK INTER + INTRA:         -17.007
REMARK INTER:                 -10.950
REMARK INTRA:                  -6.057
REMARK CONF_INDEPENDENT:        3.580
REMARK UNBOUND:                -6.057
REMARK  12 active torsions:
REMARK  status: ('A' for Active; 'I' for Inactive)
REMARK    1  A    between atoms: C_2  and  C_3 
REMARK    2  A    between atoms: C_3  and  C_4 
REMARK    3  A    between atoms: C_3  and  C_33 
REMARK       I    between atoms: C_4  and  N_6 
REMARK    4  A    between atoms: N_6  and  C_7 
REMARK    5  A    between atoms: N_6  and  C_14 
REMARK    6  A    between atoms: C_7  and  C_8 
REMARK    7  A    between atoms: C_14  and  C_15 
REMARK    8  A    between atoms: C_14  and  C_24 
REMARK       I    between atoms: C_15  and  N_17 
REMARK    9  A    between atoms: N_17  and  C_18 
REMARK   10  A    between atoms: C_25  and  O_26 
REMARK   11  A    between atoms: C_28  and  O_29 
REMARK   12  A    between atoms: C_31  and  O_32 
ROOT
ATOM      1  C   UNL d   1      27.645 -16.094   0.576  0.00  0.00     0.218 C 
ENDROOT
BRANCH   1   2
ATOM      2  N   UNL d   1      28.639 -15.575  -0.482  0.00  0.00    -0.331 N 
ATOM      3  C   UNL d   1      29.076 -16.584  -1.384  0.00  0.00     0.229 C 
ATOM      4  O   UNL d   1      28.858 -17.814  -1.182  0.00  0.00    -0.273 OA
BRANCH   3   5
ATOM      5  C   UNL d   1      29.776 -16.241  -2.653  0.00  0.00     0.110 C 
BRANCH   5   6
ATOM      6  C   UNL d   1      31.177 -15.281  -2.268  0.00  0.00     0.014 C 
ATOM      7  C   UNL d   1      32.074 -15.480  -0.936  0.00  0.00     0.006 C 
ENDBRANCH   5   6
BRANCH   5   8
ATOM      8  C   UNL d   1      29.019 -15.674  -3.812  0.00  0.00    -0.045 C 
ATOM      9  C   UNL d   1      27.670 -15.484  -3.603  0.00  0.00     0.008 C 
ATOM     10  C   UNL d   1      26.856 -15.119  -4.632  0.00  0.00     0.001 C 
ATOM     11  C   UNL d   1      27.419 -14.825  -5.865  0.00  0.00     0.000 C 
ATOM     12  C   UNL d   1      28.799 -14.910  -6.078  0.00  0.00     0.001 C 
ATOM     13  C   UNL d   1      29.621 -15.331  -5.042  0.00  0.00     0.008 C 
ENDBRANCH   5   8
ENDBRANCH   3   5
BRANCH   2  14
ATOM     14  C   UNL d   1      28.860 -14.015  -0.444  0.00  0.00     0.169 C 
BRANCH  14  15
ATOM     15  C   UNL d   1      28.094 -12.843  -1.227  0.00  0.00     0.125 A 
ATOM     16  C   UNL d   1      28.695 -12.328  -2.324  0.00  0.00     0.061 A 
ATOM     17  C   UNL d   1      27.951 -11.942  -3.409  0.00  0.00     0.014 A 
ATOM     18  C   UNL d   1      26.698 -12.188  -2.945  0.00  0.00     0.040 A 
ATOM     19  C   UNL d   1      25.532 -11.877  -3.781  0.00  0.00     0.076 C 
ATOM     20  O   UNL d   1      26.719 -12.827  -1.671  0.00  0.00    -0.340 OA
ENDBRANCH  14  15
ENDBRANCH   2  14
ENDBRANCH   1   2
BRANCH   1  21
ATOM     21  C   UNL d   1      27.442 -14.803   1.490  0.00  0.00     0.245 C 
ATOM     22  O   UNL d   1      26.655 -13.912   1.178  0.00  0.00    -0.271 OA
ATOM     23  N   UNL d   1      28.132 -14.715   2.693  0.00  0.00    -0.354 N 
ATOM     24  H   UNL d   1      28.819 -15.431   2.933  0.00  0.00     0.162 HD
BRANCH  23  25
ATOM     25  C   UNL d   1      28.010 -13.564   3.572  0.00  0.00     0.084 C 
ATOM     26  C   UNL d   1      27.943 -14.075   5.011  0.00  0.00     0.025 C 
ATOM     27  C   UNL d   1      27.784 -12.952   6.011  0.00  0.00     0.002 C 
ATOM     28  C   UNL d   1      28.916 -11.947   5.877  0.00  0.00     0.000 C 
ATOM     29  C   UNL d   1      29.001 -11.407   4.451  0.00  0.00     0.002 C 
ATOM     30  C   UNL d   1      29.155 -12.539   3.426  0.00  0.00     0.025 C 
ENDBRANCH  23  25
ENDBRANCH   1  21
BRANCH   1  31
ATOM     31  C   UNL d   1      26.243 -16.713   0.104  0.00  0.00     0.040 C 
ATOM     32  C   UNL d   1      25.919 -18.076   0.325  0.00  0.00     0.080 C 
ATOM     33  C   UNL d   1      24.605 -18.575   0.186  0.00  0.00     0.073 C 
ATOM     34  C   UNL d   1      23.570 -17.733  -0.183  0.00  0.00     0.071 C 
ATOM     35  C   UNL d   1      23.846 -16.437  -0.520  0.00  0.00     0.073 C 
ATOM     36  C   UNL d   1      25.175 -16.010  -0.528  0.00  0.00     0.080 C 
BRANCH  32  37
ATOM     37  O   UNL d   1      26.823 -19.069   0.614  0.00  0.00    -0.360 OA
ATOM     38  H   UNL d   1      27.725 -18.823   0.366  0.00  0.00     0.217 HD
ENDBRANCH  32  37
BRANCH  34  39
ATOM     39  O   UNL d   1      22.283 -18.136  -0.351  0.00  0.00    -0.361 OA
ATOM     40  H   UNL d   1      21.780 -17.912   0.447  0.00  0.00     0.217 HD
ENDBRANCH  34  39
BRANCH  36  41
ATOM     41  O   UNL d   1      25.326 -14.913  -1.345  0.00  0.00    -0.360 OA
ATOM     42  H   UNL d   1      25.817 -14.232  -0.831  0.00  0.00     0.217 HD
ENDBRANCH  36  41
ENDBRANCH   1  31
TORSDOF 12
ENDMDL
MODEL 8
REMARK VINA RESULT:    -7.316      1.230      2.215
REMARK INTER + INTRA:         -16.838
REMARK INTER:                 -10.896
REMARK INTRA:                  -5.942
REMARK CONF_INDEPENDENT:        3.580
REMARK UNBOUND:                -5.942
REMARK  12 active torsions:
REMARK  status: ('A' for Active; 'I' for Inactive)
REMARK    1  A    between atoms: C_2  and  C_3 
REMARK    2  A    between atoms: C_3  and  C_4 
REMARK    3  A    between atoms: C_3  and  C_33 
REMARK       I    between atoms: C_4  and  N_6 
REMARK    4  A    between atoms: N_6  and  C_7 
REMARK    5  A    between atoms: N_6  and  C_14 
REMARK    6  A    between atoms: C_7  and  C_8 
REMARK    7  A    between atoms: C_14  and  C_15 
REMARK    8  A    between atoms: C_14  and  C_24 
REMARK       I    between atoms: C_15  and  N_17 
REMARK    9  A    between atoms: N_17  and  C_18 
REMARK   10  A    between atoms: C_25  and  O_26 
REMARK   11  A    between atoms: C_28  and  O_29 
REMARK   12  A    between atoms: C_31  and  O_32 
ROOT
ATOM      1  C   UNL d   1      26.725 -13.455  -5.177  0.00  0.00     0.218 C 
ENDROOT
BRANCH   1   2
ATOM      2  N   UNL d   1      28.229 -13.772  -5.058  0.00  0.00    -0.331 N 
ATOM      3  C   UNL d   1      28.651 -14.825  -5.917  0.00  0.00     0.229 C 
ATOM      4  O   UNL d   1      27.831 -15.573  -6.525  0.00  0.00    -0.273 OA
BRANCH   3   5
ATOM      5  C   UNL d   1      30.093 -15.074  -6.189  0.00  0.00     0.110 C 
BRANCH   5   6
ATOM      6  C   UNL d   1      30.930 -15.194  -4.666  0.00  0.00     0.014 C 
ATOM      7  C   UNL d   1      30.502 -16.200  -3.474  0.00  0.00     0.006 C 
ENDBRANCH   5   6
BRANCH   5   8
ATOM      8  C   UNL d   1      30.843 -14.224  -7.165  0.00  0.00    -0.045 C 
ATOM      9  C   UNL d   1      30.206 -13.065  -7.553  0.00  0.00     0.008 C 
ATOM     10  C   UNL d   1      30.721 -12.294  -8.550  0.00  0.00     0.001 C 
ATOM     11  C   UNL d   1      31.956 -12.624  -9.088  0.00  0.00     0.000 C 
ATOM     12  C   UNL d   1      32.674 -13.738  -8.641  0.00  0.00     0.001 C 
ATOM     13  C   UNL d   1      32.123 -14.552  -7.662  0.00  0.00     0.008 C 
ENDBRANCH   5   8
ENDBRANCH   3   5
BRANCH   2  14
ATOM     14  C   UNL d   1      29.022 -12.781  -4.123  0.00  0.00     0.169 C 
BRANCH  14  15
ATOM     15  C   UNL d   1      29.336 -12.869  -2.553  0.00  0.00     0.125 A 
ATOM     16  C   UNL d   1      29.116 -11.761  -1.809  0.00  0.00     0.061 A 
ATOM     17  C   UNL d   1      28.640 -11.866  -0.528  0.00  0.00     0.014 A 
ATOM     18  C   UNL d   1      28.589 -13.217  -0.397  0.00  0.00     0.040 A 
ATOM     19  C   UNL d   1      28.159 -13.815   0.874  0.00  0.00     0.076 C 
ATOM     20  O   UNL d   1      28.900 -13.882  -1.619  0.00  0.00    -0.340 OA
ENDBRANCH  14  15
ENDBRANCH   2  14
ENDBRANCH   1   2
BRANCH   1  21
ATOM     21  C   UNL d   1      26.073 -14.683  -4.397  0.00  0.00     0.245 C 
ATOM     22  O   UNL d   1      25.154 -15.339  -4.886  0.00  0.00    -0.271 OA
ATOM     23  N   UNL d   1      26.594 -15.052  -3.163  0.00  0.00    -0.354 N 
ATOM     24  H   UNL d   1      27.327 -14.482  -2.736  0.00  0.00     0.162 HD
BRANCH  23  25
ATOM     25  C   UNL d   1      26.044 -16.151  -2.388  0.00  0.00     0.084 C 
ATOM     26  C   UNL d   1      26.987 -16.418  -1.215  0.00  0.00     0.025 C 
ATOM     27  C   UNL d   1      26.519 -17.571  -0.355  0.00  0.00     0.002 C 
ATOM     28  C   UNL d   1      25.113 -17.319   0.165  0.00  0.00     0.000 C 
ATOM     29  C   UNL d   1      24.143 -17.062  -0.986  0.00  0.00     0.002 C 
ATOM     30  C   UNL d   1      24.612 -15.898  -1.871  0.00  0.00     0.025 C 
ENDBRANCH  23  25
ENDBRANCH   1  21
BRANCH   1  31
ATOM     31  C   UNL d   1      26.171 -12.049  -4.641  0.00  0.00     0.040 C 
ATOM     32  C   UNL d   1      26.110 -11.751  -3.256  0.00  0.00     0.080 C 
ATOM     33  C   UNL d   1      25.904 -10.440  -2.771  0.00  0.00     0.073 C 
ATOM     34  C   UNL d   1      25.747  -9.383  -3.651  0.00  0.00     0.071 C 
ATOM     35  C   UNL d   1      25.681  -9.631  -4.993  0.00  0.00     0.073 C 
ATOM     36  C   UNL d   1      25.728 -10.953  -5.440  0.00  0.00     0.080 C 
BRANCH  32  37
ATOM     37  O   UNL d   1      26.161 -12.677  -2.243  0.00  0.00    -0.360 OA
ATOM     38  H   UNL d   1      27.030 -13.100  -2.180  0.00  0.00     0.217 HD
ENDBRANCH  32  37
BRANCH  34  39
ATOM     39  O   UNL d   1      25.533  -8.098  -3.265  0.00  0.00    -0.361 OA
ATOM     40  H   UNL d   1      24.686  -8.050  -2.798  0.00  0.00     0.217 HD
ENDBRANCH  34  39
BRANCH  36  41
ATOM     41  O   UNL d   1      25.154 -11.063  -6.685  0.00  0.00    -0.360 OA
ATOM     42  H   UNL d   1      24.185 -11.178  -6.550  0.00  0.00     0.217 HD
ENDBRANCH  36  41
ENDBRANCH   1  31
TORSDOF 12
ENDMDL
MODEL 9
REMARK VINA RESULT:    -7.298      1.390      1.924
REMARK INTER + INTRA:         -16.860
REMARK INTER:                 -10.877
REMARK INTRA:                  -5.983
REMARK CONF_INDEPENDENT:        3.580
REMARK UNBOUND:                -5.983
REMARK  12 active torsions:
REMARK  status: ('A' for Active; 'I' for Inactive)
REMARK    1  A    between atoms: C_2  and  C_3 
REMARK    2  A    between atoms: C_3  and  C_4 
REMARK    3  A    between atoms: C_3  and  C_33 
REMARK       I    between atoms: C_4  and  N_6 
REMARK    4  A    between atoms: N_6  and  C_7 
REMARK    5  A    between atoms: N_6  and  C_14 
REMARK    6  A    between atoms: C_7  and  C_8 
REMARK    7  A    between atoms: C_14  and  C_15 
REMARK    8  A    between atoms: C_14  and  C_24 
REMARK       I    between atoms: C_15  and  N_17 
REMARK    9  A    between atoms: N_17  and  C_18 
REMARK   10  A    between atoms: C_25  and  O_26 
REMARK   11  A    between atoms: C_28  and  O_29 
REMARK   12  A    between atoms: C_31  and  O_32 
ROOT
ATOM      1  C   UNL d   1      26.815 -13.686  -4.984  0.00  0.00     0.218 C 
ENDROOT
BRANCH   1   2
ATOM      2  N   UNL d   1      28.271 -14.058  -4.636  0.00  0.00    -0.331 N 
ATOM      3  C   UNL d   1      28.857 -14.960  -5.565  0.00  0.00     0.229 C 
ATOM      4  O   UNL d   1      28.175 -15.574  -6.437  0.00  0.00    -0.273 OA
BRANCH   3   5
ATOM      5  C   UNL d   1      30.327 -15.197  -5.596  0.00  0.00     0.110 C 
BRANCH   5   6
ATOM      6  C   UNL d   1      30.702 -16.149  -7.006  0.00  0.00     0.014 C 
ATOM      7  C   UNL d   1      30.784 -17.765  -7.013  0.00  0.00     0.006 C 
ENDBRANCH   5   6
BRANCH   5   8
ATOM      8  C   UNL d   1      31.044 -15.699  -4.384  0.00  0.00    -0.045 C 
ATOM      9  C   UNL d   1      30.343 -16.600  -3.610  0.00  0.00     0.008 C 
ATOM     10  C   UNL d   1      30.833 -17.004  -2.406  0.00  0.00     0.001 C 
ATOM     11  C   UNL d   1      32.100 -16.593  -2.021  0.00  0.00     0.000 C 
ATOM     12  C   UNL d   1      32.877 -15.760  -2.834  0.00  0.00     0.001 C 
ATOM     13  C   UNL d   1      32.355 -15.308  -4.037  0.00  0.00     0.008 C 
ENDBRANCH   5   8
ENDBRANCH   3   5
BRANCH   2  14
ATOM     14  C   UNL d   1      28.862 -13.259  -3.412  0.00  0.00     0.169 C 
BRANCH  14  15
ATOM     15  C   UNL d   1      29.133 -13.731  -1.904  0.00  0.00     0.125 A 
ATOM     16  C   UNL d   1      29.471 -12.781  -1.004  0.00  0.00     0.061 A 
ATOM     17  C   UNL d   1      29.029 -12.860   0.292  0.00  0.00     0.014 A 
ATOM     18  C   UNL d   1      28.358 -14.040   0.248  0.00  0.00     0.040 A 
ATOM     19  C   UNL d   1      27.727 -14.571   1.463  0.00  0.00     0.076 C 
ATOM     20  O   UNL d   1      28.297 -14.568  -1.074  0.00  0.00    -0.340 OA
ENDBRANCH  14  15
ENDBRANCH   2  14
ENDBRANCH   1   2
BRANCH   1  21
ATOM     21  C   UNL d   1      26.006 -14.883  -4.310  0.00  0.00     0.245 C 
ATOM     22  O   UNL d   1      25.155 -15.515  -4.935  0.00  0.00    -0.271 OA
ATOM     23  N   UNL d   1      26.311 -15.254  -3.006  0.00  0.00    -0.354 N 
ATOM     24  H   UNL d   1      26.984 -14.702  -2.472  0.00  0.00     0.162 HD
BRANCH  23  25
ATOM     25  C   UNL d   1      25.607 -16.325  -2.322  0.00  0.00     0.084 C 
ATOM     26  C   UNL d   1      26.545 -16.902  -1.261  0.00  0.00     0.025 C 
ATOM     27  C   UNL d   1      25.916 -18.050  -0.505  0.00  0.00     0.002 C 
ATOM     28  C   UNL d   1      24.612 -17.619   0.145  0.00  0.00     0.000 C 
ATOM     29  C   UNL d   1      23.647 -17.050  -0.893  0.00  0.00     0.002 C 
ATOM     30  C   UNL d   1      24.277 -15.887  -1.673  0.00  0.00     0.025 C 
ENDBRANCH  23  25
ENDBRANCH   1  21
BRANCH   1  31
ATOM     31  C   UNL d   1      26.239 -12.257  -4.542  0.00  0.00     0.040 C 
ATOM     32  C   UNL d   1      26.136 -11.884  -3.177  0.00  0.00     0.080 C 
ATOM     33  C   UNL d   1      25.910 -10.550  -2.770  0.00  0.00     0.073 C 
ATOM     34  C   UNL d   1      25.774  -9.543  -3.710  0.00  0.00     0.071 C 
ATOM     35  C   UNL d   1      25.749  -9.864  -5.039  0.00  0.00     0.073 C 
ATOM     36  C   UNL d   1      25.815 -11.208  -5.411  0.00  0.00     0.080 C 
BRANCH  32  37
ATOM     37  O   UNL d   1      26.162 -12.754  -2.114  0.00  0.00    -0.360 OA
ATOM     38  H   UNL d   1      27.066 -12.960  -1.835  0.00  0.00     0.217 HD
ENDBRANCH  32  37
BRANCH  34  39
ATOM     39  O   UNL d   1      25.543  -8.240  -3.402  0.00  0.00    -0.361 OA
ATOM     40  H   UNL d   1      24.774  -8.191  -2.815  0.00  0.00     0.217 HD
ENDBRANCH  34  39
BRANCH  36  41
ATOM     41  O   UNL d   1      25.278 -11.389  -6.665  0.00  0.00    -0.360 OA
ATOM     42  H   UNL d   1      24.345 -11.076  -6.630  0.00  0.00     0.217 HD
ENDBRANCH  36  41
ENDBRANCH   1  31
TORSDOF 12
ENDMDL
