MODEL 1
REMARK VINA RESULT:    -6.832      0.000      0.000
REMARK INTER + INTRA:          -9.365
REMARK INTER:                  -8.323
REMARK INTRA:                  -1.042
REMARK CONF_INDEPENDENT:        1.492
REMARK UNBOUND:                -1.042
REMARK  5 active torsions:
REMARK  status: ('A' for Active; 'I' for Inactive)
REMARK    1  A    between atoms: C_2  and  C_3 
REMARK    2  A    between atoms: C_3  and  N_4 
REMARK       I    between atoms: N_4  and  C_5 
REMARK       I    between atoms: C_5  and  N_7 
REMARK    3  A    between atoms: N_7  and  N_8 
REMARK       I    between atoms: N_8  and  C_9 
REMARK    4  A    between atoms: C_9  and  C_11 
REMARK    5  A    between atoms: C_16  and  N_17 
ROOT
ATOM      1  N   UNL d   1      24.554 -17.770   0.399  0.00  0.00    -0.262 N 
ATOM      2  C   UNL d   1      25.783 -17.594  -0.232  0.00  0.00     0.270 C 
ATOM      3  O   UNL d   1      26.686 -18.423  -0.115  0.00  0.00    -0.266 OA
ATOM      4  H   UNL d   1      24.513 -18.523   1.087  0.00  0.00     0.190 HD
ENDROOT
BRANCH   2   5
ATOM      5  C   UNL d   1      26.062 -16.305  -0.942  0.00  0.00     0.036 A 
ATOM      6  C   UNL d   1      26.447 -15.156  -0.234  0.00  0.00     0.018 A 
ATOM      7  C   UNL d   1      26.629 -13.936  -0.909  0.00  0.00     0.010 A 
ATOM      8  C   UNL d   1      26.441 -13.837  -2.302  0.00  0.00    -0.029 A 
ATOM      9  C   UNL d   1      26.646 -12.505  -2.969  0.00  0.00     0.050 C 
ATOM     10  C   UNL d   1      26.047 -14.991  -3.001  0.00  0.00     0.109 A 
ATOM     11  C   UNL d   1      25.833 -16.192  -2.312  0.00  0.00     0.053 A 
BRANCH  10  12
ATOM     12  N   UNL d   1      25.845 -15.031  -4.467  0.00  0.00    -0.115 N 
ATOM     13  O   UNL d   1      26.695 -15.572  -5.179  0.00  0.00    -0.532 OA
ATOM     14  O   UNL d   1      24.796 -14.535  -4.908  0.00  0.00    -0.532 OA
ENDBRANCH  10  12
ENDBRANCH   2   5
BRANCH   1  15
ATOM     15  N   UNL d   1      23.301 -17.553  -0.267  0.00  0.00    -0.249 N 
ATOM     16  C   UNL d   1      22.454 -18.631  -0.461  0.00  0.00     0.334 C 
ATOM     17  N   UNL d   1      21.239 -18.299  -1.028  0.00  0.00    -0.342 N 
ATOM     18  O   UNL d   1      22.761 -19.779  -0.145  0.00  0.00    -0.246 OA
ATOM     19  H   UNL d   1      21.009 -17.333  -1.206  0.00  0.00     0.164 HD
ATOM     20  H   UNL d   1      23.089 -16.633  -0.627  0.00  0.00     0.192 HD
BRANCH  17  21
ATOM     21  C   UNL d   1      20.219 -19.319  -1.266  0.00  0.00     0.124 C 
BRANCH  21  22
ATOM     22  C   UNL d   1      19.247 -19.513  -0.097  0.00  0.00     0.015 C 
ATOM     23  C   UNL d   1      19.507 -20.824   0.644  0.00  0.00     0.006 C 
ENDBRANCH  21  22
ENDBRANCH  17  21
ENDBRANCH   1  15
TORSDOF 5
ENDMDL
MODEL 2
REMARK VINA RESULT:    -6.223      2.386      3.442
REMARK INTER + INTRA:          -8.699
REMARK INTER:                  -7.715
REMARK INTRA:                  -0.984
REMARK CONF_INDEPENDENT:        1.492
REMARK UNBOUND:                -0.984
REMARK  5 active torsions:
REMARK  status: ('A' for Active; 'I' for Inactive)
REMARK    1  A    between atoms: C_2  and  C_3 
REMARK    2  A    between atoms: C_3  and  N_4 
REMARK       I    between atoms: N_4  and  C_5 
REMARK       I    between atoms: C_5  and  N_7 
REMARK    3  A    between atoms: N_7  and  N_8 
REMARK       I    between atoms: N_8  and  C_9 
REMARK    4  A    between atoms: C_9  and  C_11 
REMARK    5  A    between atoms: C_16  and  N_17 
ROOT
ATOM      1  N   UNL d   1      21.517 -17.623  -1.071  0.00  0.00    -0.262 N 
ATOM      2  C   UNL d   1      22.463 -16.616  -0.897  0.00  0.00     0.270 C 
ATOM      3  O   UNL d   1      22.155 -15.427  -0.986  0.00  0.00    -0.266 OA
ATOM      4  H   UNL d   1      20.614 -17.323  -1.442  0.00  0.00     0.190 HD
ENDROOT
BRANCH   2   5
ATOM      5  C   UNL d   1      23.906 -16.988  -0.744  0.00  0.00     0.036 A 
ATOM      6  C   UNL d   1      24.319 -17.901   0.238  0.00  0.00     0.018 A 
ATOM      7  C   UNL d   1      25.686 -18.179   0.417  0.00  0.00     0.010 A 
ATOM      8  C   UNL d   1      26.668 -17.562  -0.383  0.00  0.00    -0.029 A 
ATOM      9  C   UNL d   1      28.114 -17.894  -0.144  0.00  0.00     0.050 C 
ATOM     10  C   UNL d   1      26.245 -16.641  -1.358  0.00  0.00     0.109 A 
ATOM     11  C   UNL d   1      24.883 -16.345  -1.502  0.00  0.00     0.053 A 
BRANCH  10  12
ATOM     12  N   UNL d   1      27.169 -15.946  -2.282  0.00  0.00    -0.115 N 
ATOM     13  O   UNL d   1      28.352 -15.806  -1.960  0.00  0.00    -0.532 OA
ATOM     14  O   UNL d   1      26.703 -15.561  -3.367  0.00  0.00    -0.532 OA
ENDBRANCH  10  12
ENDBRANCH   2   5
BRANCH   1  15
ATOM     15  N   UNL d   1      21.413 -18.752  -0.191  0.00  0.00    -0.249 N 
ATOM     16  C   UNL d   1      20.270 -19.533  -0.241  0.00  0.00     0.334 C 
ATOM     17  N   UNL d   1      20.309 -20.643   0.579  0.00  0.00    -0.342 N 
ATOM     18  O   UNL d   1      19.312 -19.258  -0.962  0.00  0.00    -0.246 OA
ATOM     19  H   UNL d   1      21.146 -20.861   1.099  0.00  0.00     0.164 HD
ATOM     20  H   UNL d   1      22.149 -18.921   0.480  0.00  0.00     0.192 HD
BRANCH  17  21
ATOM     21  C   UNL d   1      19.193 -21.587   0.616  0.00  0.00     0.124 C 
BRANCH  21  22
ATOM     22  C   UNL d   1      17.932 -21.035   1.289  0.00  0.00     0.015 C 
ATOM     23  C   UNL d   1      18.273 -20.075   2.428  0.00  0.00     0.006 C 
ENDBRANCH  21  22
ENDBRANCH  17  21
ENDBRANCH   1  15
TORSDOF 5
ENDMDL
MODEL 3
REMARK VINA RESULT:    -6.172      3.641      6.201
REMARK INTER + INTRA:          -8.552
REMARK INTER:                  -7.663
REMARK INTRA:                  -0.889
REMARK CONF_INDEPENDENT:        1.492
REMARK UNBOUND:                -0.889
REMARK  5 active torsions:
REMARK  status: ('A' for Active; 'I' for Inactive)
REMARK    1  A    between atoms: C_2  and  C_3 
REMARK    2  A    between atoms: C_3  and  N_4 
REMARK       I    between atoms: N_4  and  C_5 
REMARK       I    between atoms: C_5  and  N_7 
REMARK    3  A    between atoms: N_7  and  N_8 
REMARK       I    between atoms: N_8  and  C_9 
REMARK    4  A    between atoms: C_9  and  C_11 
REMARK    5  A    between atoms: C_16  and  N_17 
ROOT
ATOM      1  N   UNL d   1      30.111 -15.645  -0.428  0.00  0.00    -0.262 N 
ATOM      2  C   UNL d   1      29.415 -16.540  -1.238  0.00  0.00     0.270 C 
ATOM      3  O   UNL d   1      29.999 -17.250  -2.056  0.00  0.00    -0.266 OA
ATOM      4  H   UNL d   1      31.090 -15.494  -0.675  0.00  0.00     0.190 HD
ENDROOT
BRANCH   2   5
ATOM      5  C   UNL d   1      27.917 -16.532  -1.214  0.00  0.00     0.036 A 
ATOM      6  C   UNL d   1      27.205 -17.196  -0.204  0.00  0.00     0.018 A 
ATOM      7  C   UNL d   1      25.800 -17.243  -0.241  0.00  0.00     0.010 A 
ATOM      8  C   UNL d   1      25.076 -16.624  -1.279  0.00  0.00    -0.029 A 
ATOM      9  C   UNL d   1      23.575 -16.711  -1.270  0.00  0.00     0.050 C 
ATOM     10  C   UNL d   1      25.798 -15.969  -2.292  0.00  0.00     0.109 A 
ATOM     11  C   UNL d   1      27.199 -15.960  -2.264  0.00  0.00     0.053 A 
BRANCH  10  12
ATOM     12  N   UNL d   1      25.161 -15.255  -3.421  0.00  0.00    -0.115 N 
ATOM     13  O   UNL d   1      25.518 -15.510  -4.575  0.00  0.00    -0.532 OA
ATOM     14  O   UNL d   1      24.263 -14.444  -3.145  0.00  0.00    -0.532 OA
ENDBRANCH  10  12
ENDBRANCH   2   5
BRANCH   1  15
ATOM     15  N   UNL d   1      29.864 -15.517   0.980  0.00  0.00    -0.249 N 
ATOM     16  C   UNL d   1      28.916 -14.602   1.409  0.00  0.00     0.334 C 
ATOM     17  N   UNL d   1      28.691 -14.622   2.771  0.00  0.00    -0.342 N 
ATOM     18  O   UNL d   1      28.327 -13.849   0.637  0.00  0.00    -0.246 OA
ATOM     19  H   UNL d   1      29.151 -15.306   3.352  0.00  0.00     0.164 HD
ATOM     20  H   UNL d   1      30.422 -16.055   1.627  0.00  0.00     0.192 HD
BRANCH  17  21
ATOM     21  C   UNL d   1      27.695 -13.740   3.379  0.00  0.00     0.124 C 
BRANCH  21  22
ATOM     22  C   UNL d   1      27.382 -14.072   4.843  0.00  0.00     0.015 C 
ATOM     23  C   UNL d   1      28.530 -14.827   5.510  0.00  0.00     0.006 C 
ENDBRANCH  21  22
ENDBRANCH  17  21
ENDBRANCH   1  15
TORSDOF 5
ENDMDL
MODEL 4
REMARK VINA RESULT:    -6.107      2.868      3.790
REMARK INTER + INTRA:          -8.861
REMARK INTER:                  -7.599
REMARK INTRA:                  -1.262
REMARK CONF_INDEPENDENT:        1.492
REMARK UNBOUND:                -1.262
REMARK  5 active torsions:
REMARK  status: ('A' for Active; 'I' for Inactive)
REMARK    1  A    between atoms: C_2  and  C_3 
REMARK    2  A    between atoms: C_3  and  N_4 
REMARK       I    between atoms: N_4  and  C_5 
REMARK       I    between atoms: C_5  and  N_7 
REMARK    3  A    between atoms: N_7  and  N_8 
REMARK       I    between atoms: N_8  and  C_9 
REMARK    4  A    between atoms: C_9  and  C_11 
REMARK    5  A    between atoms: C_16  and  N_17 
ROOT
ATOM      1  N   UNL d   1      29.009 -16.303   0.305  0.00  0.00    -0.262 N 
ATOM      2  C   UNL d   1      29.310 -15.505  -0.796  0.00  0.00     0.270 C 
ATOM      3  O   UNL d   1      30.467 -15.159  -1.037  0.00  0.00    -0.266 OA
ATOM      4  H   UNL d   1      29.764 -16.432   0.979  0.00  0.00     0.190 HD
ENDROOT
BRANCH   2   5
ATOM      5  C   UNL d   1      28.192 -14.939  -1.616  0.00  0.00     0.036 A 
ATOM      6  C   UNL d   1      27.331 -13.963  -1.092  0.00  0.00     0.018 A 
ATOM      7  C   UNL d   1      26.241 -13.499  -1.848  0.00  0.00     0.010 A 
ATOM      8  C   UNL d   1      25.990 -13.990  -3.145  0.00  0.00    -0.029 A 
ATOM      9  C   UNL d   1      24.807 -13.461  -3.906  0.00  0.00     0.050 C 
ATOM     10  C   UNL d   1      26.853 -14.974  -3.659  0.00  0.00     0.109 A 
ATOM     11  C   UNL d   1      27.914 -15.455  -2.881  0.00  0.00     0.053 A 
BRANCH  10  12
ATOM     12  N   UNL d   1      26.720 -15.551  -5.015  0.00  0.00    -0.115 N 
ATOM     13  O   UNL d   1      25.616 -15.952  -5.395  0.00  0.00    -0.532 OA
ATOM     14  O   UNL d   1      27.739 -15.575  -5.724  0.00  0.00    -0.532 OA
ENDBRANCH  10  12
ENDBRANCH   2   5
BRANCH   1  15
ATOM     15  N   UNL d   1      28.131 -17.436   0.226  0.00  0.00    -0.249 N 
ATOM     16  C   UNL d   1      26.765 -17.228   0.318  0.00  0.00     0.334 C 
ATOM     17  N   UNL d   1      26.008 -18.369   0.141  0.00  0.00    -0.342 N 
ATOM     18  O   UNL d   1      26.277 -16.120   0.532  0.00  0.00    -0.246 OA
ATOM     19  H   UNL d   1      26.454 -19.242  -0.100  0.00  0.00     0.164 HD
ATOM     20  H   UNL d   1      28.530 -18.362   0.159  0.00  0.00     0.192 HD
BRANCH  17  21
ATOM     21  C   UNL d   1      24.547 -18.313   0.174  0.00  0.00     0.124 C 
BRANCH  21  22
ATOM     22  C   UNL d   1      23.912 -17.850  -1.141  0.00  0.00     0.015 C 
ATOM     23  C   UNL d   1      23.923 -16.327  -1.270  0.00  0.00     0.006 C 
ENDBRANCH  21  22
ENDBRANCH  17  21
ENDBRANCH   1  15
TORSDOF 5
ENDMDL
MODEL 5
REMARK VINA RESULT:    -6.106      1.332      1.643
REMARK INTER + INTRA:          -8.718
REMARK INTER:                  -7.598
REMARK INTRA:                  -1.121
REMARK CONF_INDEPENDENT:        1.492
REMARK UNBOUND:                -1.121
REMARK  5 active torsions:
REMARK  status: ('A' for Active; 'I' for Inactive)
REMARK    1  A    between atoms: C_2  and  C_3 
REMARK    2  A    between atoms: C_3  and  N_4 
REMARK       I    between atoms: N_4  and  C_5 
REMARK       I    between atoms: C_5  and  N_7 
REMARK    3  A    between atoms: N_7  and  N_8 
REMARK       I    between atoms: N_8  and  C_9 
REMARK    4  A    between atoms: C_9  and  C_11 
REMARK    5  A    between atoms: C_16  and  N_17 
ROOT
ATOM      1  N   UNL d   1      25.701 -16.612   0.012  0.00  0.00    -0.262 N 
ATOM      2  C   UNL d   1      26.861 -16.199  -0.639  0.00  0.00     0.270 C 
ATOM      3  O   UNL d   1      27.972 -16.569  -0.261  0.00  0.00    -0.266 OA
ATOM      4  H   UNL d   1      25.839 -17.086   0.905  0.00  0.00     0.190 HD
ENDROOT
BRANCH   2   5
ATOM      5  C   UNL d   1      26.762 -15.172  -1.725  0.00  0.00     0.036 A 
ATOM      6  C   UNL d   1      26.635 -13.808  -1.423  0.00  0.00     0.018 A 
ATOM      7  C   UNL d   1      26.467 -12.867  -2.454  0.00  0.00     0.010 A 
ATOM      8  C   UNL d   1      26.430 -13.262  -3.806  0.00  0.00    -0.029 A 
ATOM      9  C   UNL d   1      26.243 -12.213  -4.865  0.00  0.00     0.050 C 
ATOM     10  C   UNL d   1      26.549 -14.632  -4.098  0.00  0.00     0.109 A 
ATOM     11  C   UNL d   1      26.680 -15.565  -3.060  0.00  0.00     0.053 A 
BRANCH  10  12
ATOM     12  N   UNL d   1      26.556 -15.178  -5.474  0.00  0.00    -0.115 N 
ATOM     13  O   UNL d   1      27.439 -14.822  -6.260  0.00  0.00    -0.532 OA
ATOM     14  O   UNL d   1      25.675 -16.004  -5.761  0.00  0.00    -0.532 OA
ENDBRANCH  10  12
ENDBRANCH   2   5
BRANCH   1  15
ATOM     15  N   UNL d   1      24.537 -17.074  -0.691  0.00  0.00    -0.249 N 
ATOM     16  C   UNL d   1      23.740 -18.039  -0.099  0.00  0.00     0.334 C 
ATOM     17  N   UNL d   1      22.601 -18.347  -0.815  0.00  0.00    -0.342 N 
ATOM     18  O   UNL d   1      24.026 -18.565   0.976  0.00  0.00    -0.246 OA
ATOM     19  H   UNL d   1      22.378 -17.837  -1.657  0.00  0.00     0.164 HD
ATOM     20  H   UNL d   1      24.356 -16.725  -1.622  0.00  0.00     0.192 HD
BRANCH  17  21
ATOM     21  C   UNL d   1      21.637 -19.322  -0.308  0.00  0.00     0.124 C 
BRANCH  21  22
ATOM     22  C   UNL d   1      20.240 -19.196  -0.928  0.00  0.00     0.015 C 
ATOM     23  C   UNL d   1      19.194 -19.970  -0.126  0.00  0.00     0.006 C 
ENDBRANCH  21  22
ENDBRANCH  17  21
ENDBRANCH   1  15
TORSDOF 5
ENDMDL
MODEL 6
REMARK VINA RESULT:    -6.002      2.767      7.147
REMARK INTER + INTRA:          -8.371
REMARK INTER:                  -7.493
REMARK INTRA:                  -0.878
REMARK CONF_INDEPENDENT:        1.492
REMARK UNBOUND:                -0.878
REMARK  5 active torsions:
REMARK  status: ('A' for Active; 'I' for Inactive)
REMARK    1  A    between atoms: C_2  and  C_3 
REMARK    2  A    between atoms: C_3  and  N_4 
REMARK       I    between atoms: N_4  and  C_5 
REMARK       I    between atoms: C_5  and  N_7 
REMARK    3  A    between atoms: N_7  and  N_8 
REMARK       I    between atoms: N_8  and  C_9 
REMARK    4  A    between atoms: C_9  and  C_11 
REMARK    5  A    between atoms: C_16  and  N_17 
ROOT
ATOM      1  N   UNL d   1      26.387 -13.323  -3.875  0.00  0.00    -0.262 N 
ATOM      2  C   UNL d   1      25.336 -14.187  -3.577  0.00  0.00     0.270 C 
ATOM      3  O   UNL d   1      24.240 -14.075  -4.127  0.00  0.00    -0.266 OA
ATOM      4  H   UNL d   1      26.143 -12.505  -4.434  0.00  0.00     0.190 HD
ENDROOT
BRANCH   2   5
ATOM      5  C   UNL d   1      25.496 -15.174  -2.462  0.00  0.00     0.036 A 
ATOM      6  C   UNL d   1      26.759 -15.454  -1.917  0.00  0.00     0.018 A 
ATOM      7  C   UNL d   1      26.900 -16.440  -0.925  0.00  0.00     0.010 A 
ATOM      8  C   UNL d   1      25.787 -17.161  -0.448  0.00  0.00    -0.029 A 
ATOM      9  C   UNL d   1      25.999 -18.206   0.611  0.00  0.00     0.050 C 
ATOM     10  C   UNL d   1      24.527 -16.880  -1.006  0.00  0.00     0.109 A 
ATOM     11  C   UNL d   1      24.405 -15.921  -2.020  0.00  0.00     0.053 A 
BRANCH  10  12
ATOM     12  N   UNL d   1      23.276 -17.542  -0.575  0.00  0.00    -0.115 N 
ATOM     13  O   UNL d   1      22.234 -16.884  -0.517  0.00  0.00    -0.532 OA
ATOM     14  O   UNL d   1      23.335 -18.756  -0.319  0.00  0.00    -0.532 OA
ENDBRANCH  10  12
ENDBRANCH   2   5
BRANCH   1  15
ATOM     15  N   UNL d   1      27.726 -13.782  -4.112  0.00  0.00    -0.249 N 
ATOM     16  C   UNL d   1      27.946 -14.708  -5.118  0.00  0.00     0.334 C 
ATOM     17  N   UNL d   1      29.276 -15.014  -5.322  0.00  0.00    -0.342 N 
ATOM     18  O   UNL d   1      27.030 -15.203  -5.772  0.00  0.00    -0.246 OA
ATOM     19  H   UNL d   1      29.994 -14.528  -4.805  0.00  0.00     0.164 HD
ATOM     20  H   UNL d   1      28.469 -13.461  -3.506  0.00  0.00     0.192 HD
BRANCH  17  21
ATOM     21  C   UNL d   1      29.678 -15.949  -6.372  0.00  0.00     0.124 C 
BRANCH  21  22
ATOM     22  C   UNL d   1      30.387 -17.204  -5.849  0.00  0.00     0.015 C 
ATOM     23  C   UNL d   1      30.059 -17.468  -4.380  0.00  0.00     0.006 C 
ENDBRANCH  21  22
ENDBRANCH  17  21
ENDBRANCH   1  15
TORSDOF 5
ENDMDL
MODEL 7
REMARK VINA RESULT:    -5.913      8.232     10.094
REMARK INTER + INTRA:          -8.101
REMARK INTER:                  -7.405
REMARK INTRA:                  -0.696
REMARK CONF_INDEPENDENT:        1.492
REMARK UNBOUND:                -0.696
REMARK  5 active torsions:
REMARK  status: ('A' for Active; 'I' for Inactive)
REMARK    1  A    between atoms: C_2  and  C_3 
REMARK    2  A    between atoms: C_3  and  N_4 
REMARK       I    between atoms: N_4  and  C_5 
REMARK       I    between atoms: C_5  and  N_7 
REMARK    3  A    between atoms: N_7  and  N_8 
REMARK       I    between atoms: N_8  and  C_9 
REMARK    4  A    between atoms: C_9  and  C_11 
REMARK    5  A    between atoms: C_16  and  N_17 
ROOT
ATOM      1  N   UNL d   1      29.396 -14.280   4.043  0.00  0.00    -0.262 N 
ATOM      2  C   UNL d   1      28.227 -13.534   3.917  0.00  0.00     0.270 C 
ATOM      3  O   UNL d   1      27.190 -14.039   3.487  0.00  0.00    -0.266 OA
ATOM      4  H   UNL d   1      29.384 -15.200   3.602  0.00  0.00     0.190 HD
ENDROOT
BRANCH   2   5
ATOM      5  C   UNL d   1      28.272 -12.058   4.170  0.00  0.00     0.036 A 
ATOM      6  C   UNL d   1      29.200 -11.504   5.064  0.00  0.00     0.018 A 
ATOM      7  C   UNL d   1      29.176 -10.127   5.348  0.00  0.00     0.010 A 
ATOM      8  C   UNL d   1      28.234  -9.272   4.741  0.00  0.00    -0.029 A 
ATOM      9  C   UNL d   1      28.253  -7.809   5.085  0.00  0.00     0.050 C 
ATOM     10  C   UNL d   1      27.302  -9.838   3.854  0.00  0.00     0.109 A 
ATOM     11  C   UNL d   1      27.312 -11.218   3.608  0.00  0.00     0.053 A 
BRANCH  10  12
ATOM     12  N   UNL d   1      26.281  -9.050   3.128  0.00  0.00    -0.115 N 
ATOM     13  O   UNL d   1      25.197  -9.574   2.854  0.00  0.00    -0.532 OA
ATOM     14  O   UNL d   1      26.561  -7.872   2.855  0.00  0.00    -0.532 OA
ENDBRANCH  10  12
ENDBRANCH   2   5
BRANCH   1  15
ATOM     15  N   UNL d   1      30.227 -14.232   5.213  0.00  0.00    -0.249 N 
ATOM     16  C   UNL d   1      29.626 -14.290   6.459  0.00  0.00     0.334 C 
ATOM     17  N   UNL d   1      30.517 -14.328   7.513  0.00  0.00    -0.342 N 
ATOM     18  O   UNL d   1      28.405 -14.314   6.605  0.00  0.00    -0.246 OA
ATOM     19  H   UNL d   1      31.509 -14.376   7.338  0.00  0.00     0.164 HD
ATOM     20  H   UNL d   1      31.223 -14.103   5.103  0.00  0.00     0.192 HD
BRANCH  17  21
ATOM     21  C   UNL d   1      30.042 -14.426   8.893  0.00  0.00     0.124 C 
BRANCH  21  22
ATOM     22  C   UNL d   1      29.002 -13.365   9.269  0.00  0.00     0.015 C 
ATOM     23  C   UNL d   1      28.155 -13.802  10.464  0.00  0.00     0.006 C 
ENDBRANCH  21  22
ENDBRANCH  17  21
ENDBRANCH   1  15
TORSDOF 5
ENDMDL
MODEL 8
REMARK VINA RESULT:    -5.783      4.454      7.020
REMARK INTER + INTRA:          -8.082
REMARK INTER:                  -7.275
REMARK INTRA:                  -0.807
REMARK CONF_INDEPENDENT:        1.492
REMARK UNBOUND:                -0.807
REMARK  5 active torsions:
REMARK  status: ('A' for Active; 'I' for Inactive)
REMARK    1  A    between atoms: C_2  and  C_3 
REMARK    2  A    between atoms: C_3  and  N_4 
REMARK       I    between atoms: N_4  and  C_5 
REMARK       I    between atoms: C_5  and  N_7 
REMARK    3  A    between atoms: N_7  and  N_8 
REMARK       I    between atoms: N_8  and  C_9 
REMARK    4  A    between atoms: C_9  and  C_11 
REMARK    5  A    between atoms: C_16  and  N_17 
ROOT
ATOM      1  N   UNL d   1      29.066 -13.683   1.050  0.00  0.00    -0.262 N 
ATOM      2  C   UNL d   1      28.879 -14.133  -0.254  0.00  0.00     0.270 C 
ATOM      3  O   UNL d   1      29.623 -13.776  -1.167  0.00  0.00    -0.266 OA
ATOM      4  H   UNL d   1      29.735 -12.920   1.164  0.00  0.00     0.190 HD
ENDROOT
BRANCH   2   5
ATOM      5  C   UNL d   1      27.665 -14.949  -0.577  0.00  0.00     0.036 A 
ATOM      6  C   UNL d   1      27.319 -16.070   0.193  0.00  0.00     0.018 A 
ATOM      7  C   UNL d   1      26.220 -16.869  -0.171  0.00  0.00     0.010 A 
ATOM      8  C   UNL d   1      25.439 -16.564  -1.304  0.00  0.00    -0.029 A 
ATOM      9  C   UNL d   1      24.280 -17.456  -1.648  0.00  0.00     0.050 C 
ATOM     10  C   UNL d   1      25.799 -15.444  -2.075  0.00  0.00     0.109 A 
ATOM     11  C   UNL d   1      26.918 -14.678  -1.723  0.00  0.00     0.053 A 
BRANCH  10  12
ATOM     12  N   UNL d   1      25.048 -14.997  -3.269  0.00  0.00    -0.115 N 
ATOM     13  O   UNL d   1      24.006 -14.353  -3.120  0.00  0.00    -0.532 OA
ATOM     14  O   UNL d   1      25.530 -15.273  -4.379  0.00  0.00    -0.532 OA
ENDBRANCH  10  12
ENDBRANCH   2   5
BRANCH   1  15
ATOM     15  N   UNL d   1      29.017 -14.556   2.189  0.00  0.00    -0.249 N 
ATOM     16  C   UNL d   1      28.664 -14.027   3.419  0.00  0.00     0.334 C 
ATOM     17  N   UNL d   1      28.559 -14.966   4.427  0.00  0.00    -0.342 N 
ATOM     18  O   UNL d   1      28.455 -12.828   3.588  0.00  0.00    -0.246 OA
ATOM     19  H   UNL d   1      28.673 -15.947   4.221  0.00  0.00     0.164 HD
ATOM     20  H   UNL d   1      29.293 -15.522   2.079  0.00  0.00     0.192 HD
BRANCH  17  21
ATOM     21  C   UNL d   1      28.160 -14.574   5.778  0.00  0.00     0.124 C 
BRANCH  21  22
ATOM     22  C   UNL d   1      29.203 -13.723   6.512  0.00  0.00     0.015 C 
ATOM     23  C   UNL d   1      28.577 -12.918   7.650  0.00  0.00     0.006 C 
ENDBRANCH  21  22
ENDBRANCH  17  21
ENDBRANCH   1  15
TORSDOF 5
ENDMDL
