MODEL 1
REMARK VINA RESULT:    -8.423      0.000      0.000
REMARK INTER + INTRA:         -12.335
REMARK INTER:                 -10.810
REMARK INTRA:                  -1.525
REMARK CONF_INDEPENDENT:        2.386
REMARK UNBOUND:                -1.525
REMARK  8 active torsions:
REMARK  status: ('A' for Active; 'I' for Inactive)
REMARK    1  A    between atoms: C_2  and  C_4 
REMARK    2  A    between atoms: C_4  and  N_5 
REMARK       I    between atoms: N_5  and  C_6 
REMARK       I    between atoms: C_6  and  N_8 
REMARK    3  A    between atoms: N_8  and  N_9 
REMARK       I    between atoms: N_9  and  C_10 
REMARK    4  A    between atoms: C_10  and  C_12 
REMARK    5  A    between atoms: C_12  and  C_13 
REMARK    6  A    between atoms: C_13  and  C_14 
REMARK    7  A    between atoms: C_14  and  O_15 
REMARK    8  A    between atoms: O_15  and  C_16 
ROOT
ATOM      1  N   UNL d   1      23.641 -17.652  -0.598  0.00  0.00    -0.266 N 
ATOM      2  C   UNL d   1      24.959 -17.496  -0.186  0.00  0.00     0.236 C 
ATOM      3  O   UNL d   1      25.490 -18.295   0.587  0.00  0.00    -0.272 OA
ATOM      4  H   UNL d   1      23.154 -17.019  -1.231  0.00  0.00     0.190 HD
ENDROOT
BRANCH   2   5
ATOM      5  C   UNL d   1      25.710 -16.274  -0.752  0.00  0.00     0.106 C 
BRANCH   5   6
ATOM      6  C   UNL d   1      25.484 -16.097  -2.271  0.00  0.00     0.036 C 
BRANCH   6   7
ATOM      7  C   UNL d   1      24.904 -14.727  -2.655  0.00  0.00     0.176 C 
BRANCH   7   8
ATOM      8  O   UNL d   1      24.780 -14.648  -4.088  0.00  0.00    -0.348 OA
BRANCH   8   9
ATOM      9  C   UNL d   1      25.902 -14.204  -4.747  0.00  0.00     0.107 A 
ATOM     10  C   UNL d   1      26.744 -15.185  -5.286  0.00  0.00     0.040 A 
ATOM     11  C   UNL d   1      27.917 -14.823  -5.966  0.00  0.00     0.003 A 
ATOM     12  C   UNL d   1      28.271 -13.480  -6.089  0.00  0.00     0.003 A 
ATOM     13  C   UNL d   1      27.460 -12.502  -5.520  0.00  0.00     0.045 A 
ATOM     14  C   UNL d   1      26.291 -12.865  -4.851  0.00  0.00     0.149 A 
ATOM     15  F   UNL d   1      25.578 -11.884  -4.284  0.00  0.00    -0.203 F 
ENDBRANCH   8   9
ENDBRANCH   7   8
ENDBRANCH   6   7
ENDBRANCH   5   6
ENDBRANCH   2   5
BRANCH   1  16
ATOM     16  N   UNL d   1      22.871 -18.761  -0.110  0.00  0.00    -0.249 N 
ATOM     17  C   UNL d   1      21.523 -18.855  -0.420  0.00  0.00     0.334 C 
ATOM     18  N   UNL d   1      20.879 -19.958   0.108  0.00  0.00    -0.341 N 
ATOM     19  O   UNL d   1      20.951 -18.013  -1.114  0.00  0.00    -0.246 OA
ATOM     20  H   UNL d   1      21.402 -20.617   0.666  0.00  0.00     0.164 HD
ATOM     21  H   UNL d   1      23.377 -19.444   0.448  0.00  0.00     0.192 HD
BRANCH  18  22
ATOM     22  C   UNL d   1      19.455 -20.220  -0.147  0.00  0.00     0.128 C 
BRANCH  22  23
ATOM     23  C   UNL d   1      18.579 -20.342   1.123  0.00  0.00    -0.005 C 
ATOM     24  C   UNL d   1      17.662 -21.575   1.052  0.00  0.00     0.011 C 
ATOM     25  C   UNL d   1      19.439 -20.447   2.382  0.00  0.00     0.011 C 
ENDBRANCH  22  23
ENDBRANCH  18  22
ENDBRANCH   1  16
TORSDOF 8
ENDMDL
MODEL 2
REMARK VINA RESULT:    -8.315      1.030      1.493
REMARK INTER + INTRA:         -12.240
REMARK INTER:                 -10.702
REMARK INTRA:                  -1.538
REMARK CONF_INDEPENDENT:        2.386
REMARK UNBOUND:                -1.538
REMARK  8 active torsions:
REMARK  status: ('A' for Active; 'I' for Inactive)
REMARK    1  A    between atoms: C_2  and  C_4 
REMARK    2  A    between atoms: C_4  and  N_5 
REMARK       I    between atoms: N_5  and  C_6 
REMARK       I    between atoms: C_6  and  N_8 
REMARK    3  A    between atoms: N_8  and  N_9 
REMARK       I    between atoms: N_9  and  C_10 
REMARK    4  A    between atoms: C_10  and  C_12 
REMARK    5  A    between atoms: C_12  and  C_13 
REMARK    6  A    between atoms: C_13  and  C_14 
REMARK    7  A    between atoms: C_14  and  O_15 
REMARK    8  A    between atoms: O_15  and  C_16 
ROOT
ATOM      1  N   UNL d   1      23.740 -17.634  -0.376  0.00  0.00    -0.266 N 
ATOM      2  C   UNL d   1      25.118 -17.679  -0.191  0.00  0.00     0.236 C 
ATOM      3  O   UNL d   1      25.669 -18.666   0.297  0.00  0.00    -0.272 OA
ATOM      4  H   UNL d   1      23.235 -16.843  -0.770  0.00  0.00     0.190 HD
ENDROOT
BRANCH   2   5
ATOM      5  C   UNL d   1      25.905 -16.429  -0.633  0.00  0.00     0.106 C 
BRANCH   5   6
ATOM      6  C   UNL d   1      25.777 -16.160  -2.150  0.00  0.00     0.036 C 
BRANCH   6   7
ATOM      7  C   UNL d   1      24.848 -14.985  -2.493  0.00  0.00     0.176 C 
BRANCH   7   8
ATOM      8  O   UNL d   1      24.811 -14.811  -3.923  0.00  0.00    -0.348 OA
BRANCH   8   9
ATOM      9  C   UNL d   1      25.741 -13.934  -4.429  0.00  0.00     0.107 A 
ATOM     10  C   UNL d   1      25.513 -12.572  -4.198  0.00  0.00     0.040 A 
ATOM     11  C   UNL d   1      26.404 -11.605  -4.688  0.00  0.00     0.003 A 
ATOM     12  C   UNL d   1      27.516 -11.991  -5.435  0.00  0.00     0.003 A 
ATOM     13  C   UNL d   1      27.728 -13.341  -5.704  0.00  0.00     0.045 A 
ATOM     14  C   UNL d   1      26.843 -14.299  -5.209  0.00  0.00     0.149 A 
ATOM     15  F   UNL d   1      27.072 -15.576  -5.541  0.00  0.00    -0.203 F 
ENDBRANCH   8   9
ENDBRANCH   7   8
ENDBRANCH   6   7
ENDBRANCH   5   6
ENDBRANCH   2   5
BRANCH   1  16
ATOM     16  N   UNL d   1      22.934 -18.756   0.017  0.00  0.00    -0.249 N 
ATOM     17  C   UNL d   1      21.582 -18.773  -0.285  0.00  0.00     0.334 C 
ATOM     18  N   UNL d   1      20.902 -19.896   0.146  0.00  0.00    -0.341 N 
ATOM     19  O   UNL d   1      21.035 -17.851  -0.893  0.00  0.00    -0.246 OA
ATOM     20  H   UNL d   1      21.405 -20.622   0.636  0.00  0.00     0.164 HD
ATOM     21  H   UNL d   1      23.420 -19.505   0.504  0.00  0.00     0.192 HD
BRANCH  18  22
ATOM     22  C   UNL d   1      19.468 -20.083  -0.116  0.00  0.00     0.128 C 
BRANCH  22  23
ATOM     23  C   UNL d   1      18.621 -20.443   1.128  0.00  0.00    -0.005 C 
ATOM     24  C   UNL d   1      17.998 -21.843   0.993  0.00  0.00     0.011 C 
ATOM     25  C   UNL d   1      19.464 -20.406   2.403  0.00  0.00     0.011 C 
ENDBRANCH  22  23
ENDBRANCH  18  22
ENDBRANCH   1  16
TORSDOF 8
ENDMDL
MODEL 3
REMARK VINA RESULT:    -7.619      1.725      2.225
REMARK INTER + INTRA:         -11.535
REMARK INTER:                 -10.006
REMARK INTRA:                  -1.529
REMARK CONF_INDEPENDENT:        2.386
REMARK UNBOUND:                -1.529
REMARK  8 active torsions:
REMARK  status: ('A' for Active; 'I' for Inactive)
REMARK    1  A    between atoms: C_2  and  C_4 
REMARK    2  A    between atoms: C_4  and  N_5 
REMARK       I    between atoms: N_5  and  C_6 
REMARK       I    between atoms: C_6  and  N_8 
REMARK    3  A    between atoms: N_8  and  N_9 
REMARK       I    between atoms: N_9  and  C_10 
REMARK    4  A    between atoms: C_10  and  C_12 
REMARK    5  A    between atoms: C_12  and  C_13 
REMARK    6  A    between atoms: C_13  and  C_14 
REMARK    7  A    between atoms: C_14  and  O_15 
REMARK    8  A    between atoms: O_15  and  C_16 
ROOT
ATOM      1  N   UNL d   1      23.746 -17.696  -0.548  0.00  0.00    -0.266 N 
ATOM      2  C   UNL d   1      25.104 -17.676  -0.252  0.00  0.00     0.236 C 
ATOM      3  O   UNL d   1      25.637 -18.589   0.381  0.00  0.00    -0.272 OA
ATOM      4  H   UNL d   1      23.256 -16.967  -1.063  0.00  0.00     0.190 HD
ENDROOT
BRANCH   2   5
ATOM      5  C   UNL d   1      25.894 -16.454  -0.760  0.00  0.00     0.106 C 
BRANCH   5   6
ATOM      6  C   UNL d   1      27.404 -16.557  -0.447  0.00  0.00     0.036 C 
BRANCH   6   7
ATOM      7  C   UNL d   1      28.301 -15.888  -1.500  0.00  0.00     0.176 C 
BRANCH   7   8
ATOM      8  O   UNL d   1      27.661 -15.965  -2.788  0.00  0.00    -0.348 OA
BRANCH   8   9
ATOM      9  C   UNL d   1      26.942 -14.851  -3.151  0.00  0.00     0.107 A 
ATOM     10  C   UNL d   1      27.227 -13.666  -2.461  0.00  0.00     0.040 A 
ATOM     11  C   UNL d   1      26.533 -12.483  -2.758  0.00  0.00     0.003 A 
ATOM     12  C   UNL d   1      25.531 -12.482  -3.728  0.00  0.00     0.003 A 
ATOM     13  C   UNL d   1      25.215 -13.666  -4.390  0.00  0.00     0.045 A 
ATOM     14  C   UNL d   1      25.912 -14.838  -4.096  0.00  0.00     0.149 A 
ATOM     15  F   UNL d   1      25.530 -15.954  -4.730  0.00  0.00    -0.203 F 
ENDBRANCH   8   9
ENDBRANCH   7   8
ENDBRANCH   6   7
ENDBRANCH   5   6
ENDBRANCH   2   5
BRANCH   1  16
ATOM     16  N   UNL d   1      22.938 -18.797  -0.104  0.00  0.00    -0.249 N 
ATOM     17  C   UNL d   1      21.577 -18.805  -0.368  0.00  0.00     0.334 C 
ATOM     18  N   UNL d   1      20.897 -19.908   0.111  0.00  0.00    -0.341 N 
ATOM     19  O   UNL d   1      21.025 -17.893  -0.985  0.00  0.00    -0.246 OA
ATOM     20  H   UNL d   1      21.405 -20.627   0.606  0.00  0.00     0.164 HD
ATOM     21  H   UNL d   1      23.428 -19.539   0.389  0.00  0.00     0.192 HD
BRANCH  18  22
ATOM     22  C   UNL d   1      19.454 -20.084  -0.105  0.00  0.00     0.128 C 
BRANCH  22  23
ATOM     23  C   UNL d   1      18.624 -20.299   1.182  0.00  0.00    -0.005 C 
ATOM     24  C   UNL d   1      17.772 -21.576   1.091  0.00  0.00     0.011 C 
ATOM     25  C   UNL d   1      19.525 -20.402   2.413  0.00  0.00     0.011 C 
ENDBRANCH  22  23
ENDBRANCH  18  22
ENDBRANCH   1  16
TORSDOF 8
ENDMDL
MODEL 4
REMARK VINA RESULT:    -7.333      1.475      1.711
REMARK INTER + INTRA:         -11.360
REMARK INTER:                  -9.720
REMARK INTRA:                  -1.641
REMARK CONF_INDEPENDENT:        2.386
REMARK UNBOUND:                -1.641
REMARK  8 active torsions:
REMARK  status: ('A' for Active; 'I' for Inactive)
REMARK    1  A    between atoms: C_2  and  C_4 
REMARK    2  A    between atoms: C_4  and  N_5 
REMARK       I    between atoms: N_5  and  C_6 
REMARK       I    between atoms: C_6  and  N_8 
REMARK    3  A    between atoms: N_8  and  N_9 
REMARK       I    between atoms: N_9  and  C_10 
REMARK    4  A    between atoms: C_10  and  C_12 
REMARK    5  A    between atoms: C_12  and  C_13 
REMARK    6  A    between atoms: C_13  and  C_14 
REMARK    7  A    between atoms: C_14  and  O_15 
REMARK    8  A    between atoms: O_15  and  C_16 
ROOT
ATOM      1  N   UNL d   1      23.791 -17.856  -0.734  0.00  0.00    -0.266 N 
ATOM      2  C   UNL d   1      25.143 -17.856  -0.411  0.00  0.00     0.236 C 
ATOM      3  O   UNL d   1      25.626 -18.712   0.332  0.00  0.00    -0.272 OA
ATOM      4  H   UNL d   1      23.341 -17.170  -1.338  0.00  0.00     0.190 HD
ENDROOT
BRANCH   2   5
ATOM      5  C   UNL d   1      25.992 -16.730  -1.034  0.00  0.00     0.106 C 
BRANCH   5   6
ATOM      6  C   UNL d   1      25.200 -15.413  -1.190  0.00  0.00     0.036 C 
BRANCH   6   7
ATOM      7  C   UNL d   1      25.100 -14.918  -2.641  0.00  0.00     0.176 C 
BRANCH   7   8
ATOM      8  O   UNL d   1      25.745 -15.867  -3.512  0.00  0.00    -0.348 OA
BRANCH   8   9
ATOM      9  C   UNL d   1      26.867 -15.402  -4.155  0.00  0.00     0.107 A 
ATOM     10  C   UNL d   1      26.668 -14.767  -5.387  0.00  0.00     0.040 A 
ATOM     11  C   UNL d   1      27.758 -14.271  -6.119  0.00  0.00     0.003 A 
ATOM     12  C   UNL d   1      29.057 -14.430  -5.638  0.00  0.00     0.003 A 
ATOM     13  C   UNL d   1      29.266 -15.096  -4.433  0.00  0.00     0.045 A 
ATOM     14  C   UNL d   1      28.179 -15.582  -3.706  0.00  0.00     0.149 A 
ATOM     15  F   UNL d   1      28.446 -16.256  -2.580  0.00  0.00    -0.203 F 
ENDBRANCH   8   9
ENDBRANCH   7   8
ENDBRANCH   6   7
ENDBRANCH   5   6
ENDBRANCH   2   5
BRANCH   1  16
ATOM     16  N   UNL d   1      22.930 -18.867  -0.188  0.00  0.00    -0.249 N 
ATOM     17  C   UNL d   1      21.569 -18.828  -0.448  0.00  0.00     0.334 C 
ATOM     18  N   UNL d   1      20.835 -19.845   0.134  0.00  0.00    -0.341 N 
ATOM     19  O   UNL d   1      21.060 -17.948  -1.144  0.00  0.00    -0.246 OA
ATOM     20  H   UNL d   1      21.309 -20.540   0.692  0.00  0.00     0.164 HD
ATOM     21  H   UNL d   1      23.384 -19.585   0.370  0.00  0.00     0.192 HD
BRANCH  18  22
ATOM     22  C   UNL d   1      19.383 -19.964  -0.063  0.00  0.00     0.128 C 
BRANCH  22  23
ATOM     23  C   UNL d   1      18.590 -20.396   1.193  0.00  0.00    -0.005 C 
ATOM     24  C   UNL d   1      17.978 -21.795   1.012  0.00  0.00     0.011 C 
ATOM     25  C   UNL d   1      19.482 -20.413   2.434  0.00  0.00     0.011 C 
ENDBRANCH  22  23
ENDBRANCH  18  22
ENDBRANCH   1  16
TORSDOF 8
ENDMDL
MODEL 5
REMARK VINA RESULT:    -7.293      3.541      5.176
REMARK INTER + INTRA:         -11.208
REMARK INTER:                  -9.679
REMARK INTRA:                  -1.529
REMARK CONF_INDEPENDENT:        2.386
REMARK UNBOUND:                -1.529
REMARK  8 active torsions:
REMARK  status: ('A' for Active; 'I' for Inactive)
REMARK    1  A    between atoms: C_2  and  C_4 
REMARK    2  A    between atoms: C_4  and  N_5 
REMARK       I    between atoms: N_5  and  C_6 
REMARK       I    between atoms: C_6  and  N_8 
REMARK    3  A    between atoms: N_8  and  N_9 
REMARK       I    between atoms: N_9  and  C_10 
REMARK    4  A    between atoms: C_10  and  C_12 
REMARK    5  A    between atoms: C_12  and  C_13 
REMARK    6  A    between atoms: C_13  and  C_14 
REMARK    7  A    between atoms: C_14  and  O_15 
REMARK    8  A    between atoms: O_15  and  C_16 
ROOT
ATOM      1  N   UNL d   1      23.884 -17.662  -0.510  0.00  0.00    -0.266 N 
ATOM      2  C   UNL d   1      25.215 -17.642  -0.108  0.00  0.00     0.236 C 
ATOM      3  O   UNL d   1      25.684 -18.528   0.608  0.00  0.00    -0.272 OA
ATOM      4  H   UNL d   1      23.447 -16.953  -1.097  0.00  0.00     0.190 HD
ENDROOT
BRANCH   2   5
ATOM      5  C   UNL d   1      26.060 -16.454  -0.611  0.00  0.00     0.106 C 
BRANCH   5   6
ATOM      6  C   UNL d   1      27.570 -16.651  -0.343  0.00  0.00     0.036 C 
BRANCH   6   7
ATOM      7  C   UNL d   1      28.159 -15.636   0.650  0.00  0.00     0.176 C 
BRANCH   7   8
ATOM      8  O   UNL d   1      27.094 -14.837   1.201  0.00  0.00    -0.348 OA
BRANCH   8   9
ATOM      9  C   UNL d   1      27.443 -14.066   2.284  0.00  0.00     0.107 A 
ATOM     10  C   UNL d   1      28.014 -14.733   3.374  0.00  0.00     0.040 A 
ATOM     11  C   UNL d   1      28.390 -14.027   4.527  0.00  0.00     0.003 A 
ATOM     12  C   UNL d   1      28.174 -12.652   4.608  0.00  0.00     0.003 A 
ATOM     13  C   UNL d   1      27.569 -11.988   3.544  0.00  0.00     0.045 A 
ATOM     14  C   UNL d   1      27.203 -12.693   2.398  0.00  0.00     0.149 A 
ATOM     15  F   UNL d   1      26.582 -12.009   1.428  0.00  0.00    -0.203 F 
ENDBRANCH   8   9
ENDBRANCH   7   8
ENDBRANCH   6   7
ENDBRANCH   5   6
ENDBRANCH   2   5
BRANCH   1  16
ATOM     16  N   UNL d   1      23.029 -18.731  -0.078  0.00  0.00    -0.249 N 
ATOM     17  C   UNL d   1      21.671 -18.683  -0.356  0.00  0.00     0.334 C 
ATOM     18  N   UNL d   1      20.942 -19.760   0.112  0.00  0.00    -0.341 N 
ATOM     19  O   UNL d   1      21.162 -17.746  -0.973  0.00  0.00    -0.246 OA
ATOM     20  H   UNL d   1      21.416 -20.500   0.609  0.00  0.00     0.164 HD
ATOM     21  H   UNL d   1      23.484 -19.494   0.416  0.00  0.00     0.192 HD
BRANCH  18  22
ATOM     22  C   UNL d   1      19.495 -19.875  -0.119  0.00  0.00     0.128 C 
BRANCH  22  23
ATOM     23  C   UNL d   1      18.664 -20.247   1.132  0.00  0.00    -0.005 C 
ATOM     24  C   UNL d   1      18.016 -21.634   0.980  0.00  0.00     0.011 C 
ATOM     25  C   UNL d   1      19.529 -20.249   2.392  0.00  0.00     0.011 C 
ENDBRANCH  22  23
ENDBRANCH  18  22
ENDBRANCH   1  16
TORSDOF 8
ENDMDL
MODEL 6
REMARK VINA RESULT:    -7.081      4.574      9.489
REMARK INTER + INTRA:         -10.791
REMARK INTER:                  -9.468
REMARK INTRA:                  -1.323
REMARK CONF_INDEPENDENT:        2.386
REMARK UNBOUND:                -1.323
REMARK  8 active torsions:
REMARK  status: ('A' for Active; 'I' for Inactive)
REMARK    1  A    between atoms: C_2  and  C_4 
REMARK    2  A    between atoms: C_4  and  N_5 
REMARK       I    between atoms: N_5  and  C_6 
REMARK       I    between atoms: C_6  and  N_8 
REMARK    3  A    between atoms: N_8  and  N_9 
REMARK       I    between atoms: N_9  and  C_10 
REMARK    4  A    between atoms: C_10  and  C_12 
REMARK    5  A    between atoms: C_12  and  C_13 
REMARK    6  A    between atoms: C_13  and  C_14 
REMARK    7  A    between atoms: C_14  and  O_15 
REMARK    8  A    between atoms: O_15  and  C_16 
ROOT
ATOM      1  N   UNL d   1      26.007 -16.022  -0.265  0.00  0.00    -0.266 N 
ATOM      2  C   UNL d   1      25.354 -17.238  -0.428  0.00  0.00     0.236 C 
ATOM      3  O   UNL d   1      25.757 -18.263   0.123  0.00  0.00    -0.272 OA
ATOM      4  H   UNL d   1      25.719 -15.148  -0.701  0.00  0.00     0.190 HD
ENDROOT
BRANCH   2   5
ATOM      5  C   UNL d   1      24.105 -17.224  -1.332  0.00  0.00     0.106 C 
BRANCH   5   6
ATOM      6  C   UNL d   1      22.791 -17.285  -0.521  0.00  0.00     0.036 C 
BRANCH   6   7
ATOM      7  C   UNL d   1      22.153 -18.683  -0.482  0.00  0.00     0.176 C 
BRANCH   7   8
ATOM      8  O   UNL d   1      20.731 -18.561  -0.678  0.00  0.00    -0.348 OA
BRANCH   8   9
ATOM      9  C   UNL d   1      19.961 -19.399   0.094  0.00  0.00     0.107 A 
ATOM     10  C   UNL d   1      18.904 -20.054  -0.551  0.00  0.00     0.040 A 
ATOM     11  C   UNL d   1      18.060 -20.919   0.162  0.00  0.00     0.003 A 
ATOM     12  C   UNL d   1      18.249 -21.115   1.529  0.00  0.00     0.003 A 
ATOM     13  C   UNL d   1      19.272 -20.435   2.185  0.00  0.00     0.045 A 
ATOM     14  C   UNL d   1      20.113 -19.582   1.472  0.00  0.00     0.149 A 
ATOM     15  F   UNL d   1      21.048 -18.920   2.165  0.00  0.00    -0.203 F 
ENDBRANCH   8   9
ENDBRANCH   7   8
ENDBRANCH   6   7
ENDBRANCH   5   6
ENDBRANCH   2   5
BRANCH   1  16
ATOM     16  N   UNL d   1      27.183 -15.953   0.557  0.00  0.00    -0.249 N 
ATOM     17  C   UNL d   1      27.541 -14.751   1.148  0.00  0.00     0.334 C 
ATOM     18  N   UNL d   1      28.693 -14.797   1.910  0.00  0.00    -0.341 N 
ATOM     19  O   UNL d   1      26.876 -13.725   0.999  0.00  0.00    -0.246 OA
ATOM     20  H   UNL d   1      29.194 -15.669   1.999  0.00  0.00     0.164 HD
ATOM     21  H   UNL d   1      27.700 -16.821   0.669  0.00  0.00     0.192 HD
BRANCH  18  22
ATOM     22  C   UNL d   1      29.197 -13.616   2.626  0.00  0.00     0.128 C 
BRANCH  22  23
ATOM     23  C   UNL d   1      28.711 -13.485   4.088  0.00  0.00    -0.005 C 
ATOM     24  C   UNL d   1      29.086 -12.116   4.681  0.00  0.00     0.011 C 
ATOM     25  C   UNL d   1      27.196 -13.659   4.187  0.00  0.00     0.011 C 
ENDBRANCH  22  23
ENDBRANCH  18  22
ENDBRANCH   1  16
TORSDOF 8
ENDMDL
MODEL 7
REMARK VINA RESULT:    -6.756      3.031      9.527
REMARK INTER + INTRA:         -10.455
REMARK INTER:                  -9.142
REMARK INTRA:                  -1.312
REMARK CONF_INDEPENDENT:        2.386
REMARK UNBOUND:                -1.312
REMARK  8 active torsions:
REMARK  status: ('A' for Active; 'I' for Inactive)
REMARK    1  A    between atoms: C_2  and  C_4 
REMARK    2  A    between atoms: C_4  and  N_5 
REMARK       I    between atoms: N_5  and  C_6 
REMARK       I    between atoms: C_6  and  N_8 
REMARK    3  A    between atoms: N_8  and  N_9 
REMARK       I    between atoms: N_9  and  C_10 
REMARK    4  A    between atoms: C_10  and  C_12 
REMARK    5  A    between atoms: C_12  and  C_13 
REMARK    6  A    between atoms: C_13  and  C_14 
REMARK    7  A    between atoms: C_14  and  O_15 
REMARK    8  A    between atoms: O_15  and  C_16 
ROOT
ATOM      1  N   UNL d   1      25.387 -16.260  -1.954  0.00  0.00    -0.266 N 
ATOM      2  C   UNL d   1      25.719 -17.059  -0.865  0.00  0.00     0.236 C 
ATOM      3  O   UNL d   1      26.890 -17.222  -0.521  0.00  0.00    -0.272 OA
ATOM      4  H   UNL d   1      24.437 -16.096  -2.282  0.00  0.00     0.190 HD
ENDROOT
BRANCH   2   5
ATOM      5  C   UNL d   1      24.540 -17.719  -0.121  0.00  0.00     0.106 C 
BRANCH   5   6
ATOM      6  C   UNL d   1      23.274 -17.824  -1.000  0.00  0.00     0.036 C 
BRANCH   6   7
ATOM      7  C   UNL d   1      22.317 -18.949  -0.577  0.00  0.00     0.176 C 
BRANCH   7   8
ATOM      8  O   UNL d   1      21.035 -18.383  -0.244  0.00  0.00    -0.348 OA
BRANCH   8   9
ATOM      9  C   UNL d   1      20.131 -19.264   0.300  0.00  0.00     0.107 A 
ATOM     10  C   UNL d   1      20.276 -19.554   1.662  0.00  0.00     0.040 A 
ATOM     11  C   UNL d   1      19.404 -20.452   2.298  0.00  0.00     0.003 A 
ATOM     12  C   UNL d   1      18.398 -21.086   1.570  0.00  0.00     0.003 A 
ATOM     13  C   UNL d   1      18.273 -20.834   0.207  0.00  0.00     0.045 A 
ATOM     14  C   UNL d   1      19.137 -19.936  -0.420  0.00  0.00     0.149 A 
ATOM     15  F   UNL d   1      18.999 -19.771  -1.741  0.00  0.00    -0.203 F 
ENDBRANCH   8   9
ENDBRANCH   7   8
ENDBRANCH   6   7
ENDBRANCH   5   6
ENDBRANCH   2   5
BRANCH   1  16
ATOM     16  N   UNL d   1      26.427 -15.615  -2.704  0.00  0.00    -0.249 N 
ATOM     17  C   UNL d   1      26.100 -14.675  -3.669  0.00  0.00     0.334 C 
ATOM     18  N   UNL d   1      27.178 -14.124  -4.334  0.00  0.00    -0.341 N 
ATOM     19  O   UNL d   1      24.933 -14.362  -3.909  0.00  0.00    -0.246 OA
ATOM     20  H   UNL d   1      28.113 -14.417  -4.091  0.00  0.00     0.164 HD
ATOM     21  H   UNL d   1      27.379 -15.887  -2.471  0.00  0.00     0.192 HD
BRANCH  18  22
ATOM     22  C   UNL d   1      27.007 -13.094  -5.370  0.00  0.00     0.128 C 
BRANCH  22  23
ATOM     23  C   UNL d   1      25.811 -12.139  -5.145  0.00  0.00    -0.005 C 
ATOM     24  C   UNL d   1      25.948 -11.375  -3.817  0.00  0.00     0.011 C 
ATOM     25  C   UNL d   1      25.690 -11.123  -6.280  0.00  0.00     0.011 C 
ENDBRANCH  22  23
ENDBRANCH  18  22
ENDBRANCH   1  16
TORSDOF 8
ENDMDL
MODEL 8
REMARK VINA RESULT:    -6.235      1.938      2.714
REMARK INTER + INTRA:         -11.013
REMARK INTER:                  -8.621
REMARK INTRA:                  -2.391
REMARK CONF_INDEPENDENT:        2.386
REMARK UNBOUND:                -2.391
REMARK  8 active torsions:
REMARK  status: ('A' for Active; 'I' for Inactive)
REMARK    1  A    between atoms: C_2  and  C_4 
REMARK    2  A    between atoms: C_4  and  N_5 
REMARK       I    between atoms: N_5  and  C_6 
REMARK       I    between atoms: C_6  and  N_8 
REMARK    3  A    between atoms: N_8  and  N_9 
REMARK       I    between atoms: N_9  and  C_10 
REMARK    4  A    between atoms: C_10  and  C_12 
REMARK    5  A    between atoms: C_12  and  C_13 
REMARK    6  A    between atoms: C_13  and  C_14 
REMARK    7  A    between atoms: C_14  and  O_15 
REMARK    8  A    between atoms: O_15  and  C_16 
ROOT
ATOM      1  N   UNL d   1      25.761 -17.312   0.109  0.00  0.00    -0.266 N 
ATOM      2  C   UNL d   1      27.066 -17.759   0.284  0.00  0.00     0.236 C 
ATOM      3  O   UNL d   1      27.310 -18.923   0.605  0.00  0.00    -0.272 OA
ATOM      4  H   UNL d   1      25.506 -16.361  -0.151  0.00  0.00     0.190 HD
ENDROOT
BRANCH   2   5
ATOM      5  C   UNL d   1      28.179 -16.718   0.052  0.00  0.00     0.106 C 
BRANCH   5   6
ATOM      6  C   UNL d   1      27.954 -15.424   0.867  0.00  0.00     0.036 C 
BRANCH   6   7
ATOM      7  C   UNL d   1      27.453 -14.241   0.024  0.00  0.00     0.176 C 
BRANCH   7   8
ATOM      8  O   UNL d   1      26.166 -14.568  -0.535  0.00  0.00    -0.348 OA
BRANCH   8   9
ATOM      9  C   UNL d   1      26.070 -14.432  -1.900  0.00  0.00     0.107 A 
ATOM     10  C   UNL d   1      25.989 -15.615  -2.645  0.00  0.00     0.040 A 
ATOM     11  C   UNL d   1      25.900 -15.572  -4.045  0.00  0.00     0.003 A 
ATOM     12  C   UNL d   1      25.919 -14.347  -4.712  0.00  0.00     0.003 A 
ATOM     13  C   UNL d   1      26.041 -13.169  -3.980  0.00  0.00     0.045 A 
ATOM     14  C   UNL d   1      26.122 -13.216  -2.588  0.00  0.00     0.149 A 
ATOM     15  F   UNL d   1      26.287 -12.054  -1.943  0.00  0.00    -0.203 F 
ENDBRANCH   8   9
ENDBRANCH   7   8
ENDBRANCH   6   7
ENDBRANCH   5   6
ENDBRANCH   2   5
BRANCH   1  16
ATOM     16  N   UNL d   1      24.667 -18.220   0.313  0.00  0.00    -0.249 N 
ATOM     17  C   UNL d   1      23.504 -18.074  -0.426  0.00  0.00     0.334 C 
ATOM     18  N   UNL d   1      22.514 -18.996  -0.143  0.00  0.00    -0.341 N 
ATOM     19  O   UNL d   1      23.371 -17.186  -1.270  0.00  0.00    -0.246 OA
ATOM     20  H   UNL d   1      22.682 -19.704   0.557  0.00  0.00     0.164 HD
ATOM     21  H   UNL d   1      24.816 -18.948   1.007  0.00  0.00     0.192 HD
BRANCH  18  22
ATOM     22  C   UNL d   1      21.228 -18.997  -0.856  0.00  0.00     0.128 C 
BRANCH  22  23
ATOM     23  C   UNL d   1      20.204 -20.040  -0.348  0.00  0.00    -0.005 C 
ATOM     24  C   UNL d   1      20.249 -20.166   1.184  0.00  0.00     0.011 C 
ATOM     25  C   UNL d   1      18.781 -19.670  -0.765  0.00  0.00     0.011 C 
ENDBRANCH  22  23
ENDBRANCH  18  22
ENDBRANCH   1  16
TORSDOF 8
ENDMDL
MODEL 9
REMARK VINA RESULT:    -5.915      4.666      7.982
REMARK INTER + INTRA:         -10.784
REMARK INTER:                  -8.302
REMARK INTRA:                  -2.482
REMARK CONF_INDEPENDENT:        2.386
REMARK UNBOUND:                -2.482
REMARK  8 active torsions:
REMARK  status: ('A' for Active; 'I' for Inactive)
REMARK    1  A    between atoms: C_2  and  C_4 
REMARK    2  A    between atoms: C_4  and  N_5 
REMARK       I    between atoms: N_5  and  C_6 
REMARK       I    between atoms: C_6  and  N_8 
REMARK    3  A    between atoms: N_8  and  N_9 
REMARK       I    between atoms: N_9  and  C_10 
REMARK    4  A    between atoms: C_10  and  C_12 
REMARK    5  A    between atoms: C_12  and  C_13 
REMARK    6  A    between atoms: C_13  and  C_14 
REMARK    7  A    between atoms: C_14  and  O_15 
REMARK    8  A    between atoms: O_15  and  C_16 
ROOT
ATOM      1  N   UNL d   1      27.892 -15.180  -0.194  0.00  0.00    -0.266 N 
ATOM      2  C   UNL d   1      28.383 -16.046  -1.164  0.00  0.00     0.236 C 
ATOM      3  O   UNL d   1      29.135 -16.978  -0.874  0.00  0.00    -0.272 OA
ATOM      4  H   UNL d   1      27.273 -14.393  -0.381  0.00  0.00     0.190 HD
ENDROOT
BRANCH   2   5
ATOM      5  C   UNL d   1      27.932 -15.771  -2.613  0.00  0.00     0.106 C 
BRANCH   5   6
ATOM      6  C   UNL d   1      26.407 -15.939  -2.796  0.00  0.00     0.036 C 
BRANCH   6   7
ATOM      7  C   UNL d   1      25.574 -14.905  -2.021  0.00  0.00     0.176 C 
BRANCH   7   8
ATOM      8  O   UNL d   1      25.328 -15.396  -0.689  0.00  0.00    -0.348 OA
BRANCH   8   9
ATOM      9  C   UNL d   1      24.526 -16.510  -0.615  0.00  0.00     0.107 A 
ATOM     10  C   UNL d   1      23.166 -16.325  -0.892  0.00  0.00     0.040 A 
ATOM     11  C   UNL d   1      22.272 -17.405  -0.828  0.00  0.00     0.003 A 
ATOM     12  C   UNL d   1      22.726 -18.671  -0.462  0.00  0.00     0.003 A 
ATOM     13  C   UNL d   1      24.070 -18.854  -0.146  0.00  0.00     0.045 A 
ATOM     14  C   UNL d   1      24.956 -17.779  -0.216  0.00  0.00     0.149 A 
ATOM     15  F   UNL d   1      26.225 -18.005   0.146  0.00  0.00    -0.203 F 
ENDBRANCH   8   9
ENDBRANCH   7   8
ENDBRANCH   6   7
ENDBRANCH   5   6
ENDBRANCH   2   5
BRANCH   1  16
ATOM     16  N   UNL d   1      28.271 -15.364   1.179  0.00  0.00    -0.249 N 
ATOM     17  C   UNL d   1      27.706 -14.568   2.163  0.00  0.00     0.334 C 
ATOM     18  N   UNL d   1      28.148 -14.826   3.447  0.00  0.00    -0.341 N 
ATOM     19  O   UNL d   1      26.872 -13.699   1.903  0.00  0.00    -0.246 OA
ATOM     20  H   UNL d   1      28.830 -15.555   3.598  0.00  0.00     0.164 HD
ATOM     21  H   UNL d   1      28.950 -16.099   1.359  0.00  0.00     0.192 HD
BRANCH  18  22
ATOM     22  C   UNL d   1      27.630 -14.089   4.608  0.00  0.00     0.128 C 
BRANCH  22  23
ATOM     23  C   UNL d   1      28.534 -14.134   5.863  0.00  0.00    -0.005 C 
ATOM     24  C   UNL d   1      29.875 -14.824   5.560  0.00  0.00     0.011 C 
ATOM     25  C   UNL d   1      28.818 -12.729   6.393  0.00  0.00     0.011 C 
ENDBRANCH  22  23
ENDBRANCH  18  22
ENDBRANCH   1  16
TORSDOF 8
ENDMDL
