MODEL 1
REMARK VINA RESULT:    -7.772      0.000      0.000
REMARK INTER + INTRA:         -11.796
REMARK INTER:                 -10.159
REMARK INTRA:                  -1.637
REMARK CONF_INDEPENDENT:        2.386
REMARK UNBOUND:                -1.637
REMARK  8 active torsions:
REMARK  status: ('A' for Active; 'I' for Inactive)
REMARK    1  A    between atoms: C_2  and  O_3 
REMARK    2  A    between atoms: O_3  and  C_4 
REMARK    3  A    between atoms: C_4  and  C_5 
REMARK       I    between atoms: C_5  and  N_7 
REMARK    4  A    between atoms: N_7  and  N_8 
REMARK       I    between atoms: N_8  and  C_9 
REMARK       I    between atoms: C_9  and  N_11 
REMARK    5  A    between atoms: N_11  and  C_12 
REMARK    6  A    between atoms: C_12  and  C_13 
REMARK    7  A    between atoms: C_12  and  C_17 
REMARK    8  A    between atoms: C_13  and  C_14 
ROOT
ATOM      1  N   UNL d   1      22.768 -18.983  -0.834  0.00  0.00    -0.249 N 
ATOM      2  C   UNL d   1      23.084 -17.640  -1.108  0.00  0.00     0.335 C 
ATOM      3  O   UNL d   1      22.273 -16.730  -0.896  0.00  0.00    -0.246 OA
ATOM      4  N   UNL d   1      24.448 -17.409  -1.320  0.00  0.00    -0.333 N 
ATOM      5  H   UNL d   1      23.336 -19.777  -1.116  0.00  0.00     0.192 HD
ATOM      6  H   UNL d   1      25.036 -18.194  -1.567  0.00  0.00     0.165 HD
ENDROOT
BRANCH   4   7
ATOM      7  C   UNL d   1      25.157 -16.115  -1.042  0.00  0.00     0.119 C 
BRANCH   7   8
ATOM      8  C   UNL d   1      26.530 -16.207  -0.269  0.00  0.00     0.034 C 
BRANCH   8   9
ATOM      9  C   UNL d   1      27.326 -17.503  -0.434  0.00  0.00    -0.021 C 
ATOM     10  C   UNL d   1      28.811 -17.232  -0.255  0.00  0.00     0.009 C 
ATOM     11  C   UNL d   1      27.031 -18.534   0.647  0.00  0.00     0.009 C 
ENDBRANCH   8   9
ENDBRANCH   7   8
BRANCH   7  12
ATOM     12  C   UNL d   1      25.410 -15.381  -2.374  0.00  0.00    -0.035 A 
ATOM     13  C   UNL d   1      26.612 -15.574  -3.067  0.00  0.00     0.009 A 
ATOM     14  C   UNL d   1      26.940 -14.762  -4.161  0.00  0.00     0.001 A 
ATOM     15  C   UNL d   1      26.034 -13.820  -4.644  0.00  0.00     0.000 A 
ATOM     16  C   UNL d   1      24.800 -13.676  -4.027  0.00  0.00     0.001 A 
ATOM     17  C   UNL d   1      24.499 -14.440  -2.898  0.00  0.00     0.009 A 
ENDBRANCH   7  12
ENDBRANCH   4   7
BRANCH   1  18
ATOM     18  N   UNL d   1      21.571 -19.321  -0.080  0.00  0.00    -0.264 N 
ATOM     19  C   UNL d   1      20.406 -19.644  -0.769  0.00  0.00     0.259 C 
ATOM     20  O   UNL d   1      20.405 -19.701  -2.007  0.00  0.00    -0.269 OA
ATOM     21  H   UNL d   1      21.668 -19.368   0.934  0.00  0.00     0.190 HD
BRANCH  19  22
ATOM     22  C   UNL d   1      19.126 -19.900   0.085  0.00  0.00     0.272 C 
BRANCH  22  23
ATOM     23  O   UNL d   1      19.381 -19.791   1.492  0.00  0.00    -0.382 OA
BRANCH  23  24
ATOM     24  C   UNL d   1      18.779 -20.824   2.271  0.00  0.00     0.163 C 
ATOM     25  C   UNL d   1      18.006 -21.764   1.356  0.00  0.00     0.033 C 
ENDBRANCH  23  24
ENDBRANCH  22  23
ENDBRANCH  19  22
ENDBRANCH   1  18
TORSDOF 8
ENDMDL
MODEL 2
REMARK VINA RESULT:    -7.543      0.969      1.323
REMARK INTER + INTRA:         -11.617
REMARK INTER:                  -9.929
REMARK INTRA:                  -1.688
REMARK CONF_INDEPENDENT:        2.386
REMARK UNBOUND:                -1.688
REMARK  8 active torsions:
REMARK  status: ('A' for Active; 'I' for Inactive)
REMARK    1  A    between atoms: C_2  and  O_3 
REMARK    2  A    between atoms: O_3  and  C_4 
REMARK    3  A    between atoms: C_4  and  C_5 
REMARK       I    between atoms: C_5  and  N_7 
REMARK    4  A    between atoms: N_7  and  N_8 
REMARK       I    between atoms: N_8  and  C_9 
REMARK       I    between atoms: C_9  and  N_11 
REMARK    5  A    between atoms: N_11  and  C_12 
REMARK    6  A    between atoms: C_12  and  C_13 
REMARK    7  A    between atoms: C_12  and  C_17 
REMARK    8  A    between atoms: C_13  and  C_14 
ROOT
ATOM      1  N   UNL d   1      23.006 -19.186  -0.295  0.00  0.00    -0.249 N 
ATOM      2  C   UNL d   1      23.471 -17.939  -0.752  0.00  0.00     0.335 C 
ATOM      3  O   UNL d   1      22.701 -16.983  -0.910  0.00  0.00    -0.246 OA
ATOM      4  N   UNL d   1      24.862 -17.797  -0.696  0.00  0.00    -0.333 N 
ATOM      5  H   UNL d   1      23.560 -20.037  -0.281  0.00  0.00     0.192 HD
ATOM      6  H   UNL d   1      25.428 -18.631  -0.646  0.00  0.00     0.165 HD
ENDROOT
BRANCH   4   7
ATOM      7  C   UNL d   1      25.588 -16.493  -0.529  0.00  0.00     0.119 C 
BRANCH   7   8
ATOM      8  C   UNL d   1      27.035 -16.561   0.098  0.00  0.00     0.034 C 
BRANCH   8   9
ATOM      9  C   UNL d   1      27.476 -15.363   0.941  0.00  0.00    -0.021 C 
ATOM     10  C   UNL d   1      28.887 -14.944   0.560  0.00  0.00     0.009 C 
ATOM     11  C   UNL d   1      26.660 -14.105   0.676  0.00  0.00     0.009 C 
ENDBRANCH   8   9
ENDBRANCH   7   8
BRANCH   7  12
ATOM     12  C   UNL d   1      25.696 -15.795  -1.899  0.00  0.00    -0.035 A 
ATOM     13  C   UNL d   1      26.854 -15.940  -2.674  0.00  0.00     0.009 A 
ATOM     14  C   UNL d   1      27.049 -15.152  -3.816  0.00  0.00     0.001 A 
ATOM     15  C   UNL d   1      26.051 -14.285  -4.259  0.00  0.00     0.000 A 
ATOM     16  C   UNL d   1      24.860 -14.193  -3.556  0.00  0.00     0.001 A 
ATOM     17  C   UNL d   1      24.691 -14.932  -2.384  0.00  0.00     0.009 A 
ENDBRANCH   7  12
ENDBRANCH   4   7
BRANCH   1  18
ATOM     18  N   UNL d   1      21.654 -19.325   0.225  0.00  0.00    -0.264 N 
ATOM     19  C   UNL d   1      20.595 -19.458  -0.667  0.00  0.00     0.259 C 
ATOM     20  O   UNL d   1      20.808 -19.517  -1.887  0.00  0.00    -0.269 OA
ATOM     21  H   UNL d   1      21.559 -19.385   1.239  0.00  0.00     0.190 HD
BRANCH  19  22
ATOM     22  C   UNL d   1      19.159 -19.502  -0.061  0.00  0.00     0.272 C 
BRANCH  22  23
ATOM     23  O   UNL d   1      19.172 -19.442   1.372  0.00  0.00    -0.382 OA
BRANCH  23  24
ATOM     24  C   UNL d   1      18.779 -20.658   2.006  0.00  0.00     0.163 C 
ATOM     25  C   UNL d   1      18.124 -21.575   0.981  0.00  0.00     0.033 C 
ENDBRANCH  23  24
ENDBRANCH  22  23
ENDBRANCH  19  22
ENDBRANCH   1  18
TORSDOF 8
ENDMDL
MODEL 3
REMARK VINA RESULT:    -7.501      1.387      3.438
REMARK INTER + INTRA:         -11.704
REMARK INTER:                  -9.888
REMARK INTRA:                  -1.816
REMARK CONF_INDEPENDENT:        2.386
REMARK UNBOUND:                -1.816
REMARK  8 active torsions:
REMARK  status: ('A' for Active; 'I' for Inactive)
REMARK    1  A    between atoms: C_2  and  O_3 
REMARK    2  A    between atoms: O_3  and  C_4 
REMARK    3  A    between atoms: C_4  and  C_5 
REMARK       I    between atoms: C_5  and  N_7 
REMARK    4  A    between atoms: N_7  and  N_8 
REMARK       I    between atoms: N_8  and  C_9 
REMARK       I    between atoms: C_9  and  N_11 
REMARK    5  A    between atoms: N_11  and  C_12 
REMARK    6  A    between atoms: C_12  and  C_13 
REMARK    7  A    between atoms: C_12  and  C_17 
REMARK    8  A    between atoms: C_13  and  C_14 
ROOT
ATOM      1  N   UNL d   1      22.200 -18.222   0.530  0.00  0.00    -0.249 N 
ATOM      2  C   UNL d   1      23.490 -18.347  -0.016  0.00  0.00     0.335 C 
ATOM      3  O   UNL d   1      23.877 -19.409  -0.520  0.00  0.00    -0.246 OA
ATOM      4  N   UNL d   1      24.140 -17.125  -0.221  0.00  0.00    -0.333 N 
ATOM      5  H   UNL d   1      21.880 -17.428   1.078  0.00  0.00     0.192 HD
ATOM      6  H   UNL d   1      23.814 -16.315   0.288  0.00  0.00     0.165 HD
ENDROOT
BRANCH   4   7
ATOM      7  C   UNL d   1      25.182 -16.869  -1.272  0.00  0.00     0.119 C 
BRANCH   7   8
ATOM      8  C   UNL d   1      24.823 -15.811  -2.387  0.00  0.00     0.034 C 
BRANCH   8   9
ATOM      9  C   UNL d   1      25.996 -15.086  -3.050  0.00  0.00    -0.021 C 
ATOM     10  C   UNL d   1      25.905 -15.217  -4.562  0.00  0.00     0.009 C 
ATOM     11  C   UNL d   1      25.976 -13.580  -2.832  0.00  0.00     0.009 C 
ENDBRANCH   8   9
ENDBRANCH   7   8
BRANCH   7  12
ATOM     12  C   UNL d   1      26.488 -16.416  -0.590  0.00  0.00    -0.035 A 
ATOM     13  C   UNL d   1      26.498 -15.278   0.227  0.00  0.00     0.009 A 
ATOM     14  C   UNL d   1      27.710 -14.740   0.682  0.00  0.00     0.001 A 
ATOM     15  C   UNL d   1      28.917 -15.385   0.418  0.00  0.00     0.000 A 
ATOM     16  C   UNL d   1      28.920 -16.564  -0.313  0.00  0.00     0.001 A 
ATOM     17  C   UNL d   1      27.720 -17.065  -0.819  0.00  0.00     0.009 A 
ENDBRANCH   7  12
ENDBRANCH   4   7
BRANCH   1  18
ATOM     18  N   UNL d   1      21.202 -19.259   0.314  0.00  0.00    -0.264 N 
ATOM     19  C   UNL d   1      20.050 -18.951  -0.403  0.00  0.00     0.259 C 
ATOM     20  O   UNL d   1      19.904 -17.825  -0.900  0.00  0.00    -0.269 OA
ATOM     21  H   UNL d   1      21.436 -20.194   0.649  0.00  0.00     0.190 HD
BRANCH  19  22
ATOM     22  C   UNL d   1      18.969 -20.069  -0.520  0.00  0.00     0.272 C 
BRANCH  22  23
ATOM     23  O   UNL d   1      19.235 -21.175   0.353  0.00  0.00    -0.382 OA
BRANCH  23  24
ATOM     24  C   UNL d   1      18.430 -21.188   1.531  0.00  0.00     0.163 C 
ATOM     25  C   UNL d   1      19.156 -20.451   2.649  0.00  0.00     0.033 C 
ENDBRANCH  23  24
ENDBRANCH  22  23
ENDBRANCH  19  22
ENDBRANCH   1  18
TORSDOF 8
ENDMDL
MODEL 4
REMARK VINA RESULT:    -6.715      1.560      3.627
REMARK INTER + INTRA:         -11.025
REMARK INTER:                  -9.101
REMARK INTRA:                  -1.924
REMARK CONF_INDEPENDENT:        2.386
REMARK UNBOUND:                -1.924
REMARK  8 active torsions:
REMARK  status: ('A' for Active; 'I' for Inactive)
REMARK    1  A    between atoms: C_2  and  O_3 
REMARK    2  A    between atoms: O_3  and  C_4 
REMARK    3  A    between atoms: C_4  and  C_5 
REMARK       I    between atoms: C_5  and  N_7 
REMARK    4  A    between atoms: N_7  and  N_8 
REMARK       I    between atoms: N_8  and  C_9 
REMARK       I    between atoms: C_9  and  N_11 
REMARK    5  A    between atoms: N_11  and  C_12 
REMARK    6  A    between atoms: C_12  and  C_13 
REMARK    7  A    between atoms: C_12  and  C_17 
REMARK    8  A    between atoms: C_13  and  C_14 
ROOT
ATOM      1  N   UNL d   1      22.786 -17.545  -0.219  0.00  0.00    -0.249 N 
ATOM      2  C   UNL d   1      24.191 -17.572  -0.157  0.00  0.00     0.335 C 
ATOM      3  O   UNL d   1      24.800 -18.575   0.235  0.00  0.00    -0.246 OA
ATOM      4  N   UNL d   1      24.810 -16.530  -0.856  0.00  0.00    -0.333 N 
ATOM      5  H   UNL d   1      22.233 -16.711  -0.397  0.00  0.00     0.192 HD
ATOM      6  H   UNL d   1      24.266 -15.707  -1.073  0.00  0.00     0.165 HD
ENDROOT
BRANCH   4   7
ATOM      7  C   UNL d   1      26.179 -16.599  -1.471  0.00  0.00     0.119 C 
BRANCH   7   8
ATOM      8  C   UNL d   1      26.367 -15.892  -2.869  0.00  0.00     0.034 C 
BRANCH   8   9
ATOM      9  C   UNL d   1      25.457 -14.697  -3.164  0.00  0.00    -0.021 C 
ATOM     10  C   UNL d   1      25.975 -13.457  -2.454  0.00  0.00     0.009 C 
ATOM     11  C   UNL d   1      25.461 -14.283  -4.629  0.00  0.00     0.009 C 
ENDBRANCH   8   9
ENDBRANCH   7   8
BRANCH   7  12
ATOM     12  C   UNL d   1      27.204 -15.994  -0.492  0.00  0.00    -0.035 A 
ATOM     13  C   UNL d   1      26.790 -15.079   0.486  0.00  0.00     0.009 A 
ATOM     14  C   UNL d   1      27.734 -14.370   1.241  0.00  0.00     0.001 A 
ATOM     15  C   UNL d   1      29.095 -14.636   1.107  0.00  0.00     0.000 A 
ATOM     16  C   UNL d   1      29.521 -15.603   0.209  0.00  0.00     0.001 A 
ATOM     17  C   UNL d   1      28.585 -16.265  -0.587  0.00  0.00     0.009 A 
ENDBRANCH   7  12
ENDBRANCH   4   7
BRANCH   1  18
ATOM     18  N   UNL d   1      22.015 -18.768  -0.047  0.00  0.00    -0.264 N 
ATOM     19  C   UNL d   1      20.733 -18.841  -0.583  0.00  0.00     0.259 C 
ATOM     20  O   UNL d   1      20.278 -17.900  -1.249  0.00  0.00    -0.269 OA
ATOM     21  H   UNL d   1      22.490 -19.546   0.410  0.00  0.00     0.190 HD
BRANCH  19  22
ATOM     22  C   UNL d   1      19.913 -20.133  -0.284  0.00  0.00     0.272 C 
BRANCH  22  23
ATOM     23  O   UNL d   1      20.000 -20.525   1.093  0.00  0.00    -0.382 OA
BRANCH  23  24
ATOM     24  C   UNL d   1      18.736 -20.615   1.749  0.00  0.00     0.163 C 
ATOM     25  C   UNL d   1      17.836 -21.577   0.986  0.00  0.00     0.033 C 
ENDBRANCH  23  24
ENDBRANCH  22  23
ENDBRANCH  19  22
ENDBRANCH   1  18
TORSDOF 8
ENDMDL
MODEL 5
REMARK VINA RESULT:    -6.427      4.594      7.827
REMARK INTER + INTRA:         -10.622
REMARK INTER:                  -8.813
REMARK INTRA:                  -1.808
REMARK CONF_INDEPENDENT:        2.386
REMARK UNBOUND:                -1.808
REMARK  8 active torsions:
REMARK  status: ('A' for Active; 'I' for Inactive)
REMARK    1  A    between atoms: C_2  and  O_3 
REMARK    2  A    between atoms: O_3  and  C_4 
REMARK    3  A    between atoms: C_4  and  C_5 
REMARK       I    between atoms: C_5  and  N_7 
REMARK    4  A    between atoms: N_7  and  N_8 
REMARK       I    between atoms: N_8  and  C_9 
REMARK       I    between atoms: C_9  and  N_11 
REMARK    5  A    between atoms: N_11  and  C_12 
REMARK    6  A    between atoms: C_12  and  C_13 
REMARK    7  A    between atoms: C_12  and  C_17 
REMARK    8  A    between atoms: C_13  and  C_14 
ROOT
ATOM      1  N   UNL d   1      27.453 -14.125   1.435  0.00  0.00    -0.249 N 
ATOM      2  C   UNL d   1      27.349 -14.684   0.149  0.00  0.00     0.335 C 
ATOM      3  O   UNL d   1      28.019 -15.670  -0.182  0.00  0.00    -0.246 OA
ATOM      4  N   UNL d   1      26.233 -14.245  -0.572  0.00  0.00    -0.333 N 
ATOM      5  H   UNL d   1      27.037 -13.240   1.715  0.00  0.00     0.192 HD
ATOM      6  H   UNL d   1      25.784 -13.386  -0.288  0.00  0.00     0.165 HD
ENDROOT
BRANCH   4   7
ATOM      7  C   UNL d   1      25.530 -15.036  -1.638  0.00  0.00     0.119 C 
BRANCH   7   8
ATOM      8  C   UNL d   1      26.419 -15.575  -2.826  0.00  0.00     0.034 C 
BRANCH   8   9
ATOM      9  C   UNL d   1      25.966 -15.215  -4.242  0.00  0.00    -0.021 C 
ATOM     10  C   UNL d   1      25.155 -13.930  -4.222  0.00  0.00     0.009 C 
ATOM     11  C   UNL d   1      27.120 -14.879  -5.177  0.00  0.00     0.009 C 
ENDBRANCH   8   9
ENDBRANCH   7   8
BRANCH   7  12
ATOM     12  C   UNL d   1      24.821 -16.241  -0.990  0.00  0.00    -0.035 A 
ATOM     13  C   UNL d   1      25.567 -17.340  -0.543  0.00  0.00     0.009 A 
ATOM     14  C   UNL d   1      24.924 -18.520  -0.145  0.00  0.00     0.001 A 
ATOM     15  C   UNL d   1      23.533 -18.588  -0.088  0.00  0.00     0.000 A 
ATOM     16  C   UNL d   1      22.778 -17.479  -0.440  0.00  0.00     0.001 A 
ATOM     17  C   UNL d   1      23.416 -16.325  -0.896  0.00  0.00     0.009 A 
ENDBRANCH   7  12
ENDBRANCH   4   7
BRANCH   1  18
ATOM     18  N   UNL d   1      28.174 -14.824   2.488  0.00  0.00    -0.264 N 
ATOM     19  C   UNL d   1      27.967 -14.451   3.813  0.00  0.00     0.259 C 
ATOM     20  O   UNL d   1      27.135 -13.577   4.095  0.00  0.00    -0.269 OA
ATOM     21  H   UNL d   1      28.756 -15.610   2.199  0.00  0.00     0.190 HD
BRANCH  19  22
ATOM     22  C   UNL d   1      28.839 -15.162   4.893  0.00  0.00     0.272 C 
BRANCH  22  23
ATOM     23  O   UNL d   1      28.459 -14.792   6.226  0.00  0.00    -0.382 OA
BRANCH  23  24
ATOM     24  C   UNL d   1      29.156 -13.654   6.731  0.00  0.00     0.163 C 
ATOM     25  C   UNL d   1      28.157 -12.555   7.065  0.00  0.00     0.033 C 
ENDBRANCH  23  24
ENDBRANCH  22  23
ENDBRANCH  19  22
ENDBRANCH   1  18
TORSDOF 8
ENDMDL
MODEL 6
REMARK VINA RESULT:    -6.298      4.712      7.335
REMARK INTER + INTRA:         -10.479
REMARK INTER:                  -8.685
REMARK INTRA:                  -1.794
REMARK CONF_INDEPENDENT:        2.386
REMARK UNBOUND:                -1.794
REMARK  8 active torsions:
REMARK  status: ('A' for Active; 'I' for Inactive)
REMARK    1  A    between atoms: C_2  and  O_3 
REMARK    2  A    between atoms: O_3  and  C_4 
REMARK    3  A    between atoms: C_4  and  C_5 
REMARK       I    between atoms: C_5  and  N_7 
REMARK    4  A    between atoms: N_7  and  N_8 
REMARK       I    between atoms: N_8  and  C_9 
REMARK       I    between atoms: C_9  and  N_11 
REMARK    5  A    between atoms: N_11  and  C_12 
REMARK    6  A    between atoms: C_12  and  C_13 
REMARK    7  A    between atoms: C_12  and  C_17 
REMARK    8  A    between atoms: C_13  and  C_14 
ROOT
ATOM      1  N   UNL d   1      27.372 -14.365   1.814  0.00  0.00    -0.249 N 
ATOM      2  C   UNL d   1      27.383 -14.974   0.546  0.00  0.00     0.335 C 
ATOM      3  O   UNL d   1      28.273 -15.770   0.221  0.00  0.00    -0.246 OA
ATOM      4  N   UNL d   1      26.177 -14.854  -0.152  0.00  0.00    -0.333 N 
ATOM      5  H   UNL d   1      26.753 -13.605   2.083  0.00  0.00     0.192 HD
ATOM      6  H   UNL d   1      25.532 -14.126   0.123  0.00  0.00     0.165 HD
ENDROOT
BRANCH   4   7
ATOM      7  C   UNL d   1      25.673 -15.830  -1.176  0.00  0.00     0.119 C 
BRANCH   7   8
ATOM      8  C   UNL d   1      24.183 -16.326  -1.013  0.00  0.00     0.034 C 
BRANCH   8   9
ATOM      9  C   UNL d   1      23.962 -17.566  -0.145  0.00  0.00    -0.021 C 
ATOM     10  C   UNL d   1      23.276 -18.656  -0.953  0.00  0.00     0.009 C 
ATOM     11  C   UNL d   1      25.258 -18.230   0.299  0.00  0.00     0.009 C 
ENDBRANCH   8   9
ENDBRANCH   7   8
BRANCH   7  12
ATOM     12  C   UNL d   1      25.816 -15.211  -2.580  0.00  0.00    -0.035 A 
ATOM     13  C   UNL d   1      26.897 -15.566  -3.399  0.00  0.00     0.009 A 
ATOM     14  C   UNL d   1      27.151 -14.862  -4.584  0.00  0.00     0.001 A 
ATOM     15  C   UNL d   1      26.278 -13.868  -5.021  0.00  0.00     0.000 A 
ATOM     16  C   UNL d   1      25.153 -13.564  -4.270  0.00  0.00     0.001 A 
ATOM     17  C   UNL d   1      24.933 -14.221  -3.059  0.00  0.00     0.009 A 
ENDBRANCH   7  12
ENDBRANCH   4   7
BRANCH   1  18
ATOM     18  N   UNL d   1      28.270 -14.824   2.863  0.00  0.00    -0.264 N 
ATOM     19  C   UNL d   1      28.030 -14.437   4.177  0.00  0.00     0.259 C 
ATOM     20  O   UNL d   1      27.031 -13.758   4.458  0.00  0.00    -0.269 OA
ATOM     21  H   UNL d   1      29.004 -15.474   2.582  0.00  0.00     0.190 HD
BRANCH  19  22
ATOM     22  C   UNL d   1      29.078 -14.873   5.247  0.00  0.00     0.272 C 
BRANCH  22  23
ATOM     23  O   UNL d   1      28.595 -14.691   6.585  0.00  0.00    -0.382 OA
BRANCH  23  24
ATOM     24  C   UNL d   1      29.115 -13.532   7.235  0.00  0.00     0.163 C 
ATOM     25  C   UNL d   1      28.200 -12.345   6.964  0.00  0.00     0.033 C 
ENDBRANCH  23  24
ENDBRANCH  22  23
ENDBRANCH  19  22
ENDBRANCH   1  18
TORSDOF 8
ENDMDL
MODEL 7
REMARK VINA RESULT:    -5.773      2.149      4.230
REMARK INTER + INTRA:         -10.020
REMARK INTER:                  -8.159
REMARK INTRA:                  -1.861
REMARK CONF_INDEPENDENT:        2.386
REMARK UNBOUND:                -1.861
REMARK  8 active torsions:
REMARK  status: ('A' for Active; 'I' for Inactive)
REMARK    1  A    between atoms: C_2  and  O_3 
REMARK    2  A    between atoms: O_3  and  C_4 
REMARK    3  A    between atoms: C_4  and  C_5 
REMARK       I    between atoms: C_5  and  N_7 
REMARK    4  A    between atoms: N_7  and  N_8 
REMARK       I    between atoms: N_8  and  C_9 
REMARK       I    between atoms: C_9  and  N_11 
REMARK    5  A    between atoms: N_11  and  C_12 
REMARK    6  A    between atoms: C_12  and  C_13 
REMARK    7  A    between atoms: C_12  and  C_17 
REMARK    8  A    between atoms: C_13  and  C_14 
ROOT
ATOM      1  N   UNL d   1      24.521 -17.330  -1.524  0.00  0.00    -0.249 N 
ATOM      2  C   UNL d   1      24.867 -16.101  -2.114  0.00  0.00     0.335 C 
ATOM      3  O   UNL d   1      24.021 -15.222  -2.317  0.00  0.00    -0.246 OA
ATOM      4  N   UNL d   1      26.244 -15.854  -2.145  0.00  0.00    -0.333 N 
ATOM      5  H   UNL d   1      25.139 -18.134  -1.463  0.00  0.00     0.192 HD
ATOM      6  H   UNL d   1      26.875 -16.638  -2.050  0.00  0.00     0.165 HD
ENDROOT
BRANCH   4   7
ATOM      7  C   UNL d   1      26.876 -14.492  -2.135  0.00  0.00     0.119 C 
BRANCH   7   8
ATOM      8  C   UNL d   1      26.041 -13.317  -2.778  0.00  0.00     0.034 C 
BRANCH   8   9
ATOM      9  C   UNL d   1      25.690 -13.454  -4.260  0.00  0.00    -0.021 C 
ATOM     10  C   UNL d   1      26.085 -12.192  -5.011  0.00  0.00     0.009 C 
ATOM     11  C   UNL d   1      26.484 -14.541  -4.971  0.00  0.00     0.009 C 
ENDBRANCH   8   9
ENDBRANCH   7   8
BRANCH   7  12
ATOM     12  C   UNL d   1      27.208 -14.099  -0.682  0.00  0.00    -0.035 A 
ATOM     13  C   UNL d   1      27.641 -15.072   0.229  0.00  0.00     0.009 A 
ATOM     14  C   UNL d   1      27.747 -14.770   1.593  0.00  0.00     0.001 A 
ATOM     15  C   UNL d   1      27.524 -13.474   2.054  0.00  0.00     0.000 A 
ATOM     16  C   UNL d   1      27.183 -12.475   1.155  0.00  0.00     0.001 A 
ATOM     17  C   UNL d   1      27.016 -12.789  -0.195  0.00  0.00     0.009 A 
ENDBRANCH   7  12
ENDBRANCH   4   7
BRANCH   1  18
ATOM     18  N   UNL d   1      23.209 -17.517  -0.923  0.00  0.00    -0.264 N 
ATOM     19  C   UNL d   1      22.847 -18.780  -0.467  0.00  0.00     0.259 C 
ATOM     20  O   UNL d   1      23.653 -19.720  -0.519  0.00  0.00    -0.269 OA
ATOM     21  H   UNL d   1      22.638 -16.680  -0.804  0.00  0.00     0.190 HD
BRANCH  19  22
ATOM     22  C   UNL d   1      21.394 -18.948   0.076  0.00  0.00     0.272 C 
BRANCH  22  23
ATOM     23  O   UNL d   1      20.405 -18.577  -0.895  0.00  0.00    -0.382 OA
BRANCH  23  24
ATOM     24  C   UNL d   1      19.193 -19.325  -0.800  0.00  0.00     0.163 C 
ATOM     25  C   UNL d   1      19.367 -20.446   0.216  0.00  0.00     0.033 C 
ENDBRANCH  23  24
ENDBRANCH  22  23
ENDBRANCH  19  22
ENDBRANCH   1  18
TORSDOF 8
ENDMDL
MODEL 8
REMARK VINA RESULT:    -5.633      4.033      8.423
REMARK INTER + INTRA:         -10.223
REMARK INTER:                  -8.019
REMARK INTRA:                  -2.204
REMARK CONF_INDEPENDENT:        2.386
REMARK UNBOUND:                -2.204
REMARK  8 active torsions:
REMARK  status: ('A' for Active; 'I' for Inactive)
REMARK    1  A    between atoms: C_2  and  O_3 
REMARK    2  A    between atoms: O_3  and  C_4 
REMARK    3  A    between atoms: C_4  and  C_5 
REMARK       I    between atoms: C_5  and  N_7 
REMARK    4  A    between atoms: N_7  and  N_8 
REMARK       I    between atoms: N_8  and  C_9 
REMARK       I    between atoms: C_9  and  N_11 
REMARK    5  A    between atoms: N_11  and  C_12 
REMARK    6  A    between atoms: C_12  and  C_13 
REMARK    7  A    between atoms: C_12  and  C_17 
REMARK    8  A    between atoms: C_13  and  C_14 
ROOT
ATOM      1  N   UNL d   1      25.091 -12.964  -4.166  0.00  0.00    -0.249 N 
ATOM      2  C   UNL d   1      25.124 -14.366  -4.063  0.00  0.00     0.335 C 
ATOM      3  O   UNL d   1      25.531 -15.071  -4.994  0.00  0.00    -0.246 OA
ATOM      4  N   UNL d   1      24.971 -14.843  -2.756  0.00  0.00    -0.333 N 
ATOM      5  H   UNL d   1      24.640 -12.347  -3.495  0.00  0.00     0.192 HD
ATOM      6  H   UNL d   1      24.557 -14.232  -2.067  0.00  0.00     0.165 HD
ENDROOT
BRANCH   4   7
ATOM      7  C   UNL d   1      25.532 -16.137  -2.240  0.00  0.00     0.119 C 
BRANCH   7   8
ATOM      8  C   UNL d   1      26.828 -16.044  -1.345  0.00  0.00     0.034 C 
BRANCH   8   9
ATOM      9  C   UNL d   1      26.640 -16.244   0.160  0.00  0.00    -0.021 C 
ATOM     10  C   UNL d   1      27.295 -17.543   0.602  0.00  0.00     0.009 C 
ATOM     11  C   UNL d   1      27.353 -15.195   1.002  0.00  0.00     0.009 C 
ENDBRANCH   8   9
ENDBRANCH   7   8
BRANCH   7  12
ATOM     12  C   UNL d   1      24.446 -16.871  -1.430  0.00  0.00    -0.035 A 
ATOM     13  C   UNL d   1      24.637 -18.204  -1.043  0.00  0.00     0.009 A 
ATOM     14  C   UNL d   1      23.581 -18.942  -0.490  0.00  0.00     0.001 A 
ATOM     15  C   UNL d   1      22.356 -18.336  -0.220  0.00  0.00     0.000 A 
ATOM     16  C   UNL d   1      22.175 -16.992  -0.512  0.00  0.00     0.001 A 
ATOM     17  C   UNL d   1      23.206 -16.274  -1.120  0.00  0.00     0.009 A 
ENDBRANCH   7  12
ENDBRANCH   4   7
BRANCH   1  18
ATOM     18  N   UNL d   1      25.749 -12.289  -5.275  0.00  0.00    -0.264 N 
ATOM     19  C   UNL d   1      25.899 -10.906  -5.233  0.00  0.00     0.259 C 
ATOM     20  O   UNL d   1      25.531 -10.266  -4.237  0.00  0.00    -0.269 OA
ATOM     21  H   UNL d   1      26.131 -12.884  -6.009  0.00  0.00     0.190 HD
BRANCH  19  22
ATOM     22  C   UNL d   1      26.519 -10.222  -6.490  0.00  0.00     0.272 C 
BRANCH  22  23
ATOM     23  O   UNL d   1      26.753 -11.154  -7.555  0.00  0.00    -0.382 OA
BRANCH  23  24
ATOM     24  C   UNL d   1      28.122 -11.529  -7.705  0.00  0.00     0.163 C 
ATOM     25  C   UNL d   1      28.349 -12.888  -7.056  0.00  0.00     0.033 C 
ENDBRANCH  23  24
ENDBRANCH  22  23
ENDBRANCH  19  22
ENDBRANCH   1  18
TORSDOF 8
ENDMDL
MODEL 9
REMARK VINA RESULT:    -5.365      5.180      7.403
REMARK INTER + INTRA:          -9.953
REMARK INTER:                  -7.752
REMARK INTRA:                  -2.201
REMARK CONF_INDEPENDENT:        2.386
REMARK UNBOUND:                -2.201
REMARK  8 active torsions:
REMARK  status: ('A' for Active; 'I' for Inactive)
REMARK    1  A    between atoms: C_2  and  O_3 
REMARK    2  A    between atoms: O_3  and  C_4 
REMARK    3  A    between atoms: C_4  and  C_5 
REMARK       I    between atoms: C_5  and  N_7 
REMARK    4  A    between atoms: N_7  and  N_8 
REMARK       I    between atoms: N_8  and  C_9 
REMARK       I    between atoms: C_9  and  N_11 
REMARK    5  A    between atoms: N_11  and  C_12 
REMARK    6  A    between atoms: C_12  and  C_13 
REMARK    7  A    between atoms: C_12  and  C_17 
REMARK    8  A    between atoms: C_13  and  C_14 
ROOT
ATOM      1  N   UNL d   1      27.395 -16.195   0.895  0.00  0.00    -0.249 N 
ATOM      2  C   UNL d   1      27.632 -14.811   0.975  0.00  0.00     0.335 C 
ATOM      3  O   UNL d   1      26.956 -14.002   0.327  0.00  0.00    -0.246 OA
ATOM      4  N   UNL d   1      28.442 -14.435   2.053  0.00  0.00    -0.333 N 
ATOM      5  H   UNL d   1      28.003 -16.908   1.290  0.00  0.00     0.192 HD
ATOM      6  H   UNL d   1      29.027 -15.138   2.482  0.00  0.00     0.165 HD
ENDROOT
BRANCH   4   7
ATOM      7  C   UNL d   1      28.392 -13.104   2.746  0.00  0.00     0.119 C 
BRANCH   7   8
ATOM      8  C   UNL d   1      27.071 -12.259   2.566  0.00  0.00     0.034 C 
BRANCH   8   9
ATOM      9  C   UNL d   1      27.233 -10.740   2.475  0.00  0.00    -0.021 C 
ATOM     10  C   UNL d   1      27.838 -10.358   1.134  0.00  0.00     0.009 C 
ATOM     11  C   UNL d   1      25.908  -9.990   2.482  0.00  0.00     0.009 C 
ENDBRANCH   8   9
ENDBRANCH   7   8
BRANCH   7  12
ATOM     12  C   UNL d   1      28.621 -13.311   4.256  0.00  0.00    -0.035 A 
ATOM     13  C   UNL d   1      28.899 -14.589   4.758  0.00  0.00     0.009 A 
ATOM     14  C   UNL d   1      28.905 -14.825   6.139  0.00  0.00     0.001 A 
ATOM     15  C   UNL d   1      28.738 -13.774   7.040  0.00  0.00     0.000 A 
ATOM     16  C   UNL d   1      28.551 -12.485   6.564  0.00  0.00     0.001 A 
ATOM     17  C   UNL d   1      28.483 -12.260   5.188  0.00  0.00     0.009 A 
ENDBRANCH   7  12
ENDBRANCH   4   7
BRANCH   1  18
ATOM     18  N   UNL d   1      26.204 -16.704   0.230  0.00  0.00    -0.264 N 
ATOM     19  C   UNL d   1      25.920 -18.064   0.299  0.00  0.00     0.259 C 
ATOM     20  O   UNL d   1      26.639 -18.822   0.966  0.00  0.00    -0.269 OA
ATOM     21  H   UNL d   1      25.593 -16.012  -0.203  0.00  0.00     0.190 HD
BRANCH  19  22
ATOM     22  C   UNL d   1      24.689 -18.572  -0.513  0.00  0.00     0.272 C 
BRANCH  22  23
ATOM     23  O   UNL d   1      23.922 -17.494  -1.068  0.00  0.00    -0.382 OA
BRANCH  23  24
ATOM     24  C   UNL d   1      22.612 -17.371  -0.514  0.00  0.00     0.163 C 
ATOM     25  C   UNL d   1      21.785 -18.592  -0.895  0.00  0.00     0.033 C 
ENDBRANCH  23  24
ENDBRANCH  22  23
ENDBRANCH  19  22
ENDBRANCH   1  18
TORSDOF 8
ENDMDL
