MODEL 1
REMARK VINA RESULT:    -8.511      0.000      0.000
REMARK INTER + INTRA:         -11.732
REMARK INTER:                 -10.897
REMARK INTRA:                  -0.835
REMARK CONF_INDEPENDENT:        2.386
REMARK UNBOUND:                -0.835
REMARK  8 active torsions:
REMARK  status: ('A' for Active; 'I' for Inactive)
REMARK    1  A    between atoms: N_2  and  C_4 
REMARK    2  A    between atoms: C_7  and  N_8 
REMARK       I    between atoms: N_8  and  C_9 
REMARK       I    between atoms: C_9  and  N_11 
REMARK    3  A    between atoms: N_11  and  C_12 
REMARK    4  A    between atoms: C_12  and  C_13 
REMARK    5  A    between atoms: C_17  and  C_18 
REMARK    6  A    between atoms: C_18  and  N_19 
REMARK       I    between atoms: N_19  and  C_20 
REMARK       I    between atoms: C_20  and  N_22 
REMARK    7  A    between atoms: N_22  and  C_23 
REMARK    8  A    between atoms: C_26  and  N_27 
ROOT
ATOM      1  C   UNL d   1      27.733 -14.726   1.334  0.00  0.00    -0.040 A 
ATOM      2  C   UNL d   1      28.837 -15.471   0.924  0.00  0.00     0.009 A 
ATOM      3  C   UNL d   1      28.832 -16.095  -0.323  0.00  0.00     0.001 A 
ATOM      4  C   UNL d   1      27.692 -16.041  -1.134  0.00  0.00     0.009 A 
ATOM      5  C   UNL d   1      26.551 -15.328  -0.725  0.00  0.00    -0.040 A 
ATOM      6  C   UNL d   1      26.597 -14.685   0.519  0.00  0.00     0.017 A 
ENDROOT
BRANCH   1   7
ATOM      7  C   UNL d   1      27.752 -13.933   2.607  0.00  0.00     0.162 C 
BRANCH   7   8
ATOM      8  N   UNL d   1      28.695 -14.453   3.592  0.00  0.00    -0.339 N 
ATOM      9  C   UNL d   1      28.625 -13.927   4.860  0.00  0.00     0.320 C 
ATOM     10  N   UNL d   1      29.523 -14.433   5.784  0.00  0.00    -0.309 N 
ATOM     11  O   UNL d   1      27.785 -13.054   5.075  0.00  0.00    -0.247 OA
ATOM     12  H   UNL d   1      30.133 -15.187   5.502  0.00  0.00     0.170 HD
ATOM     13  H   UNL d   1      29.328 -15.195   3.337  0.00  0.00     0.164 HD
BRANCH  10  14
ATOM     14  C   UNL d   1      29.558 -14.050   7.166  0.00  0.00     0.036 A 
ATOM     15  C   UNL d   1      30.609 -14.441   8.004  0.00  0.00     0.032 A 
ATOM     16  C   UNL d   1      30.567 -14.158   9.393  0.00  0.00     0.031 A 
ATOM     17  C   UNL d   1      29.518 -13.438   9.984  0.00  0.00     0.029 A 
ATOM     18  C   UNL d   1      28.505 -13.020   9.127  0.00  0.00     0.031 A 
ATOM     19  C   UNL d   1      28.536 -13.305   7.756  0.00  0.00     0.032 A 
BRANCH  17  20
ATOM     20  N   UNL d   1      29.492 -13.145  11.337  0.00  0.00    -0.390 N 
ATOM     21  C   UNL d   1      28.302 -12.567  11.945  0.00  0.00     0.149 C 
ATOM     22  C   UNL d   1      30.703 -13.285  12.127  0.00  0.00     0.149 C 
ENDBRANCH  17  20
ENDBRANCH  10  14
ENDBRANCH   7   8
ENDBRANCH   1   7
BRANCH   5  23
ATOM     23  C   UNL d   1      25.353 -15.232  -1.643  0.00  0.00     0.162 C 
BRANCH  23  24
ATOM     24  N   UNL d   1      24.681 -16.493  -1.927  0.00  0.00    -0.339 N 
ATOM     25  C   UNL d   1      23.631 -16.913  -1.166  0.00  0.00     0.320 C 
ATOM     26  O   UNL d   1      23.218 -16.229  -0.226  0.00  0.00    -0.247 OA
ATOM     27  N   UNL d   1      23.129 -18.146  -1.542  0.00  0.00    -0.309 N 
ATOM     28  H   UNL d   1      23.661 -18.739  -2.162  0.00  0.00     0.170 HD
ATOM     29  H   UNL d   1      24.976 -17.086  -2.680  0.00  0.00     0.164 HD
BRANCH  27  30
ATOM     30  C   UNL d   1      21.993 -18.705  -0.919  0.00  0.00     0.036 A 
ATOM     31  C   UNL d   1      20.908 -19.176  -1.646  0.00  0.00     0.032 A 
ATOM     32  C   UNL d   1      19.785 -19.702  -0.970  0.00  0.00     0.031 A 
ATOM     33  C   UNL d   1      19.716 -19.820   0.432  0.00  0.00     0.029 A 
ATOM     34  C   UNL d   1      20.812 -19.277   1.117  0.00  0.00     0.031 A 
ATOM     35  C   UNL d   1      21.924 -18.742   0.464  0.00  0.00     0.032 A 
BRANCH  33  36
ATOM     36  N   UNL d   1      18.651 -20.411   1.099  0.00  0.00    -0.390 N 
ATOM     37  C   UNL d   1      17.932 -21.573   0.575  0.00  0.00     0.149 C 
ATOM     38  C   UNL d   1      18.304 -20.074   2.483  0.00  0.00     0.149 C 
ENDBRANCH  33  36
ENDBRANCH  27  30
ENDBRANCH  23  24
ENDBRANCH   5  23
TORSDOF 8
ENDMDL
MODEL 2
REMARK VINA RESULT:    -8.118      4.483     11.816
REMARK INTER + INTRA:         -11.456
REMARK INTER:                 -10.504
REMARK INTRA:                  -0.952
REMARK CONF_INDEPENDENT:        2.386
REMARK UNBOUND:                -0.952
REMARK  8 active torsions:
REMARK  status: ('A' for Active; 'I' for Inactive)
REMARK    1  A    between atoms: N_2  and  C_4 
REMARK    2  A    between atoms: C_7  and  N_8 
REMARK       I    between atoms: N_8  and  C_9 
REMARK       I    between atoms: C_9  and  N_11 
REMARK    3  A    between atoms: N_11  and  C_12 
REMARK    4  A    between atoms: C_12  and  C_13 
REMARK    5  A    between atoms: C_17  and  C_18 
REMARK    6  A    between atoms: C_18  and  N_19 
REMARK       I    between atoms: N_19  and  C_20 
REMARK       I    between atoms: C_20  and  N_22 
REMARK    7  A    between atoms: N_22  and  C_23 
REMARK    8  A    between atoms: C_26  and  N_27 
ROOT
ATOM      1  C   UNL d   1      25.928 -15.990  -2.382  0.00  0.00    -0.040 A 
ATOM      2  C   UNL d   1      25.321 -17.075  -1.753  0.00  0.00     0.009 A 
ATOM      3  C   UNL d   1      25.522 -17.292  -0.391  0.00  0.00     0.001 A 
ATOM      4  C   UNL d   1      26.392 -16.469   0.334  0.00  0.00     0.009 A 
ATOM      5  C   UNL d   1      27.046 -15.390  -0.287  0.00  0.00    -0.040 A 
ATOM      6  C   UNL d   1      26.801 -15.179  -1.650  0.00  0.00     0.017 A 
ENDROOT
BRANCH   1   7
ATOM      7  C   UNL d   1      25.632 -15.647  -3.812  0.00  0.00     0.162 C 
BRANCH   7   8
ATOM      8  N   UNL d   1      26.380 -14.488  -4.290  0.00  0.00    -0.339 N 
ATOM      9  C   UNL d   1      25.704 -13.294  -4.355  0.00  0.00     0.320 C 
ATOM     10  N   UNL d   1      26.427 -12.204  -4.807  0.00  0.00    -0.309 N 
ATOM     11  O   UNL d   1      24.520 -13.283  -4.017  0.00  0.00    -0.247 OA
ATOM     12  H   UNL d   1      27.410 -12.326  -5.008  0.00  0.00     0.170 HD
ATOM     13  H   UNL d   1      27.358 -14.581  -4.515  0.00  0.00     0.164 HD
BRANCH  10  14
ATOM     14  C   UNL d   1      25.908 -10.868  -4.885  0.00  0.00     0.036 A 
ATOM     15  C   UNL d   1      25.770 -10.073  -3.743  0.00  0.00     0.032 A 
ATOM     16  C   UNL d   1      25.142  -8.804  -3.819  0.00  0.00     0.031 A 
ATOM     17  C   UNL d   1      24.681  -8.263  -5.029  0.00  0.00     0.029 A 
ATOM     18  C   UNL d   1      24.867  -9.050  -6.160  0.00  0.00     0.031 A 
ATOM     19  C   UNL d   1      25.478 -10.308  -6.090  0.00  0.00     0.032 A 
BRANCH  17  20
ATOM     20  N   UNL d   1      24.088  -7.014  -5.102  0.00  0.00    -0.390 N 
ATOM     21  C   UNL d   1      24.790  -5.833  -4.619  0.00  0.00     0.149 C 
ATOM     22  C   UNL d   1      22.706  -6.898  -5.536  0.00  0.00     0.149 C 
ENDBRANCH  17  20
ENDBRANCH  10  14
ENDBRANCH   7   8
ENDBRANCH   1   7
BRANCH   5  23
ATOM     23  C   UNL d   1      27.935 -14.477   0.528  0.00  0.00     0.162 C 
BRANCH  23  24
ATOM     24  N   UNL d   1      28.336 -14.995   1.830  0.00  0.00    -0.339 N 
ATOM     25  C   UNL d   1      28.326 -14.196   2.934  0.00  0.00     0.320 C 
ATOM     26  O   UNL d   1      27.968 -13.018   2.858  0.00  0.00    -0.247 OA
ATOM     27  N   UNL d   1      28.768 -14.828   4.082  0.00  0.00    -0.309 N 
ATOM     28  H   UNL d   1      29.256 -15.709   4.016  0.00  0.00     0.170 HD
ATOM     29  H   UNL d   1      28.634 -15.945   1.946  0.00  0.00     0.164 HD
BRANCH  27  30
ATOM     30  C   UNL d   1      28.754 -14.182   5.336  0.00  0.00     0.036 A 
ATOM     31  C   UNL d   1      27.775 -13.260   5.681  0.00  0.00     0.032 A 
ATOM     32  C   UNL d   1      27.824 -12.622   6.941  0.00  0.00     0.031 A 
ATOM     33  C   UNL d   1      28.807 -12.906   7.910  0.00  0.00     0.029 A 
ATOM     34  C   UNL d   1      29.801 -13.799   7.487  0.00  0.00     0.031 A 
ATOM     35  C   UNL d   1      29.775 -14.427   6.240  0.00  0.00     0.032 A 
BRANCH  33  36
ATOM     36  N   UNL d   1      28.814 -12.345   9.180  0.00  0.00    -0.390 N 
ATOM     37  C   UNL d   1      27.977 -12.841  10.273  0.00  0.00     0.149 C 
ATOM     38  C   UNL d   1      29.820 -11.365   9.602  0.00  0.00     0.149 C 
ENDBRANCH  33  36
ENDBRANCH  27  30
ENDBRANCH  23  24
ENDBRANCH   5  23
TORSDOF 8
ENDMDL
MODEL 3
REMARK VINA RESULT:    -8.070      4.576     12.298
REMARK INTER + INTRA:         -11.369
REMARK INTER:                 -10.456
REMARK INTRA:                  -0.913
REMARK CONF_INDEPENDENT:        2.386
REMARK UNBOUND:                -0.913
REMARK  8 active torsions:
REMARK  status: ('A' for Active; 'I' for Inactive)
REMARK    1  A    between atoms: N_2  and  C_4 
REMARK    2  A    between atoms: C_7  and  N_8 
REMARK       I    between atoms: N_8  and  C_9 
REMARK       I    between atoms: C_9  and  N_11 
REMARK    3  A    between atoms: N_11  and  C_12 
REMARK    4  A    between atoms: C_12  and  C_13 
REMARK    5  A    between atoms: C_17  and  C_18 
REMARK    6  A    between atoms: C_18  and  N_19 
REMARK       I    between atoms: N_19  and  C_20 
REMARK       I    between atoms: C_20  and  N_22 
REMARK    7  A    between atoms: N_22  and  C_23 
REMARK    8  A    between atoms: C_26  and  N_27 
ROOT
ATOM      1  C   UNL d   1      25.494 -15.045  -2.565  0.00  0.00    -0.040 A 
ATOM      2  C   UNL d   1      24.789 -16.140  -2.070  0.00  0.00     0.009 A 
ATOM      3  C   UNL d   1      25.112 -16.668  -0.821  0.00  0.00     0.001 A 
ATOM      4  C   UNL d   1      26.191 -16.153  -0.094  0.00  0.00     0.009 A 
ATOM      5  C   UNL d   1      26.942 -15.072  -0.591  0.00  0.00    -0.040 A 
ATOM      6  C   UNL d   1      26.575 -14.543  -1.835  0.00  0.00     0.017 A 
ENDROOT
BRANCH   1   7
ATOM      7  C   UNL d   1      25.092 -14.366  -3.842  0.00  0.00     0.162 C 
BRANCH   7   8
ATOM      8  N   UNL d   1      26.181 -13.617  -4.459  0.00  0.00    -0.339 N 
ATOM      9  C   UNL d   1      27.181 -14.347  -5.055  0.00  0.00     0.320 C 
ATOM     10  N   UNL d   1      28.206 -13.622  -5.639  0.00  0.00    -0.309 N 
ATOM     11  O   UNL d   1      27.096 -15.575  -5.021  0.00  0.00    -0.247 OA
ATOM     12  H   UNL d   1      28.140 -12.614  -5.648  0.00  0.00     0.170 HD
ATOM     13  H   UNL d   1      26.153 -12.609  -4.470  0.00  0.00     0.164 HD
BRANCH  10  14
ATOM     14  C   UNL d   1      29.300 -14.209  -6.357  0.00  0.00     0.036 A 
ATOM     15  C   UNL d   1      29.558 -15.583  -6.295  0.00  0.00     0.032 A 
ATOM     16  C   UNL d   1      30.714 -16.128  -6.910  0.00  0.00     0.031 A 
ATOM     17  C   UNL d   1      31.617 -15.345  -7.645  0.00  0.00     0.029 A 
ATOM     18  C   UNL d   1      31.319 -13.989  -7.732  0.00  0.00     0.031 A 
ATOM     19  C   UNL d   1      30.185 -13.443  -7.119  0.00  0.00     0.032 A 
BRANCH  17  20
ATOM     20  N   UNL d   1      32.732 -15.885  -8.263  0.00  0.00    -0.390 N 
ATOM     21  C   UNL d   1      33.536 -15.080  -9.171  0.00  0.00     0.149 C 
ATOM     22  C   UNL d   1      33.023 -17.301  -8.113  0.00  0.00     0.149 C 
ENDBRANCH  17  20
ENDBRANCH  10  14
ENDBRANCH   7   8
ENDBRANCH   1   7
BRANCH   5  23
ATOM     23  C   UNL d   1      28.066 -14.491   0.239  0.00  0.00     0.162 C 
BRANCH  23  24
ATOM     24  N   UNL d   1      28.175 -15.013   1.595  0.00  0.00    -0.339 N 
ATOM     25  C   UNL d   1      28.318 -14.172   2.658  0.00  0.00     0.320 C 
ATOM     26  O   UNL d   1      28.348 -12.949   2.498  0.00  0.00    -0.247 OA
ATOM     27  N   UNL d   1      28.444 -14.825   3.871  0.00  0.00    -0.309 N 
ATOM     28  H   UNL d   1      28.641 -15.815   3.892  0.00  0.00     0.170 HD
ATOM     29  H   UNL d   1      28.155 -15.998   1.780  0.00  0.00     0.164 HD
BRANCH  27  30
ATOM     30  C   UNL d   1      28.523 -14.118   5.089  0.00  0.00     0.036 A 
ATOM     31  C   UNL d   1      27.682 -13.052   5.380  0.00  0.00     0.032 A 
ATOM     32  C   UNL d   1      27.821 -12.362   6.605  0.00  0.00     0.031 A 
ATOM     33  C   UNL d   1      28.757 -12.727   7.592  0.00  0.00     0.029 A 
ATOM     34  C   UNL d   1      29.617 -13.770   7.222  0.00  0.00     0.031 A 
ATOM     35  C   UNL d   1      29.501 -14.454   6.010  0.00  0.00     0.032 A 
BRANCH  33  36
ATOM     36  N   UNL d   1      28.845 -12.106   8.831  0.00  0.00    -0.390 N 
ATOM     37  C   UNL d   1      29.427 -10.776   9.014  0.00  0.00     0.149 C 
ATOM     38  C   UNL d   1      28.157 -12.620  10.020  0.00  0.00     0.149 C 
ENDBRANCH  33  36
ENDBRANCH  27  30
ENDBRANCH  23  24
ENDBRANCH   5  23
TORSDOF 8
ENDMDL
MODEL 4
REMARK VINA RESULT:    -8.069      1.538      2.343
REMARK INTER + INTRA:         -11.337
REMARK INTER:                 -10.456
REMARK INTRA:                  -0.881
REMARK CONF_INDEPENDENT:        2.386
REMARK UNBOUND:                -0.881
REMARK  8 active torsions:
REMARK  status: ('A' for Active; 'I' for Inactive)
REMARK    1  A    between atoms: N_2  and  C_4 
REMARK    2  A    between atoms: C_7  and  N_8 
REMARK       I    between atoms: N_8  and  C_9 
REMARK       I    between atoms: C_9  and  N_11 
REMARK    3  A    between atoms: N_11  and  C_12 
REMARK    4  A    between atoms: C_12  and  C_13 
REMARK    5  A    between atoms: C_17  and  C_18 
REMARK    6  A    between atoms: C_18  and  N_19 
REMARK       I    between atoms: N_19  and  C_20 
REMARK       I    between atoms: C_20  and  N_22 
REMARK    7  A    between atoms: N_22  and  C_23 
REMARK    8  A    between atoms: C_26  and  N_27 
ROOT
ATOM      1  C   UNL d   1      28.848 -14.575  -1.149  0.00  0.00    -0.040 A 
ATOM      2  C   UNL d   1      29.381 -14.891  -2.397  0.00  0.00     0.009 A 
ATOM      3  C   UNL d   1      28.536 -15.257  -3.444  0.00  0.00     0.001 A 
ATOM      4  C   UNL d   1      27.159 -15.383  -3.227  0.00  0.00     0.009 A 
ATOM      5  C   UNL d   1      26.601 -15.108  -1.965  0.00  0.00    -0.040 A 
ATOM      6  C   UNL d   1      27.472 -14.712  -0.942  0.00  0.00     0.017 A 
ENDROOT
BRANCH   1   7
ATOM      7  C   UNL d   1      29.710 -14.050  -0.039  0.00  0.00     0.162 C 
BRANCH   7   8
ATOM      8  N   UNL d   1      29.473 -14.721   1.235  0.00  0.00    -0.339 N 
ATOM      9  C   UNL d   1      29.453 -13.932   2.360  0.00  0.00     0.320 C 
ATOM     10  N   UNL d   1      29.225 -14.582   3.561  0.00  0.00    -0.309 N 
ATOM     11  O   UNL d   1      29.642 -12.724   2.220  0.00  0.00    -0.247 OA
ATOM     12  H   UNL d   1      29.032 -15.574   3.545  0.00  0.00     0.170 HD
ATOM     13  H   UNL d   1      29.294 -15.713   1.254  0.00  0.00     0.164 HD
BRANCH  10  14
ATOM     14  C   UNL d   1      29.110 -13.918   4.828  0.00  0.00     0.036 A 
ATOM     15  C   UNL d   1      27.914 -13.309   5.224  0.00  0.00     0.032 A 
ATOM     16  C   UNL d   1      27.854 -12.552   6.422  0.00  0.00     0.031 A 
ATOM     17  C   UNL d   1      28.951 -12.418   7.286  0.00  0.00     0.029 A 
ATOM     18  C   UNL d   1      30.117 -13.068   6.895  0.00  0.00     0.031 A 
ATOM     19  C   UNL d   1      30.187 -13.808   5.709  0.00  0.00     0.032 A 
BRANCH  17  20
ATOM     20  N   UNL d   1      28.881 -11.697   8.465  0.00  0.00    -0.390 N 
ATOM     21  C   UNL d   1      28.644 -12.374   9.732  0.00  0.00     0.149 C 
ATOM     22  C   UNL d   1      28.906 -10.244   8.423  0.00  0.00     0.149 C 
ENDBRANCH  17  20
ENDBRANCH  10  14
ENDBRANCH   7   8
ENDBRANCH   1   7
BRANCH   5  23
ATOM     23  C   UNL d   1      25.104 -15.191  -1.769  0.00  0.00     0.162 C 
BRANCH  23  24
ATOM     24  N   UNL d   1      24.524 -16.517  -1.946  0.00  0.00    -0.339 N 
ATOM     25  C   UNL d   1      23.438 -16.907  -1.221  0.00  0.00     0.320 C 
ATOM     26  O   UNL d   1      22.914 -16.145  -0.405  0.00  0.00    -0.247 OA
ATOM     27  N   UNL d   1      23.033 -18.205  -1.480  0.00  0.00    -0.309 N 
ATOM     28  H   UNL d   1      23.645 -18.833  -1.982  0.00  0.00     0.170 HD
ATOM     29  H   UNL d   1      24.910 -17.174  -2.597  0.00  0.00     0.164 HD
BRANCH  27  30
ATOM     30  C   UNL d   1      21.881 -18.755  -0.882  0.00  0.00     0.036 A 
ATOM     31  C   UNL d   1      20.805 -19.211  -1.631  0.00  0.00     0.032 A 
ATOM     32  C   UNL d   1      19.664 -19.730  -0.979  0.00  0.00     0.031 A 
ATOM     33  C   UNL d   1      19.568 -19.855   0.421  0.00  0.00     0.029 A 
ATOM     34  C   UNL d   1      20.656 -19.326   1.129  0.00  0.00     0.031 A 
ATOM     35  C   UNL d   1      21.786 -18.799   0.500  0.00  0.00     0.032 A 
BRANCH  33  36
ATOM     36  N   UNL d   1      18.485 -20.438   1.065  0.00  0.00    -0.390 N 
ATOM     37  C   UNL d   1      17.693 -21.515   0.470  0.00  0.00     0.149 C 
ATOM     38  C   UNL d   1      18.184 -20.194   2.479  0.00  0.00     0.149 C 
ENDBRANCH  33  36
ENDBRANCH  27  30
ENDBRANCH  23  24
ENDBRANCH   5  23
TORSDOF 8
ENDMDL
MODEL 5
REMARK VINA RESULT:    -8.022      4.489      7.533
REMARK INTER + INTRA:         -11.398
REMARK INTER:                 -10.409
REMARK INTRA:                  -0.990
REMARK CONF_INDEPENDENT:        2.386
REMARK UNBOUND:                -0.990
REMARK  8 active torsions:
REMARK  status: ('A' for Active; 'I' for Inactive)
REMARK    1  A    between atoms: N_2  and  C_4 
REMARK    2  A    between atoms: C_7  and  N_8 
REMARK       I    between atoms: N_8  and  C_9 
REMARK       I    between atoms: C_9  and  N_11 
REMARK    3  A    between atoms: N_11  and  C_12 
REMARK    4  A    between atoms: C_12  and  C_13 
REMARK    5  A    between atoms: C_17  and  C_18 
REMARK    6  A    between atoms: C_18  and  N_19 
REMARK       I    between atoms: N_19  and  C_20 
REMARK       I    between atoms: C_20  and  N_22 
REMARK    7  A    between atoms: N_22  and  C_23 
REMARK    8  A    between atoms: C_26  and  N_27 
ROOT
ATOM      1  C   UNL d   1      26.939 -15.350  -0.366  0.00  0.00    -0.040 A 
ATOM      2  C   UNL d   1      26.287 -16.428   0.230  0.00  0.00     0.009 A 
ATOM      3  C   UNL d   1      25.535 -17.304  -0.550  0.00  0.00     0.001 A 
ATOM      4  C   UNL d   1      25.367 -17.064  -1.919  0.00  0.00     0.009 A 
ATOM      5  C   UNL d   1      25.983 -15.961  -2.536  0.00  0.00    -0.040 A 
ATOM      6  C   UNL d   1      26.758 -15.114  -1.733  0.00  0.00     0.017 A 
ENDROOT
BRANCH   1   7
ATOM      7  C   UNL d   1      27.863 -14.463   0.415  0.00  0.00     0.162 C 
BRANCH   7   8
ATOM      8  N   UNL d   1      28.295 -15.056   1.677  0.00  0.00    -0.339 N 
ATOM      9  C   UNL d   1      28.265 -14.248   2.788  0.00  0.00     0.320 C 
ATOM     10  N   UNL d   1      28.674 -14.825   3.977  0.00  0.00    -0.309 N 
ATOM     11  O   UNL d   1      27.886 -13.086   2.644  0.00  0.00    -0.247 OA
ATOM     12  H   UNL d   1      28.916 -15.806   3.980  0.00  0.00     0.170 HD
ATOM     13  H   UNL d   1      28.559 -16.029   1.709  0.00  0.00     0.164 HD
BRANCH  10  14
ATOM     14  C   UNL d   1      28.653 -14.157   5.247  0.00  0.00     0.036 A 
ATOM     15  C   UNL d   1      27.729 -13.142   5.519  0.00  0.00     0.032 A 
ATOM     16  C   UNL d   1      27.801 -12.408   6.730  0.00  0.00     0.031 A 
ATOM     17  C   UNL d   1      28.749 -12.688   7.726  0.00  0.00     0.029 A 
ATOM     18  C   UNL d   1      29.630 -13.730   7.455  0.00  0.00     0.031 A 
ATOM     19  C   UNL d   1      29.571 -14.451   6.257  0.00  0.00     0.032 A 
BRANCH  17  20
ATOM     20  N   UNL d   1      28.801 -11.984   8.917  0.00  0.00    -0.390 N 
ATOM     21  C   UNL d   1      28.154 -12.505  10.113  0.00  0.00     0.149 C 
ATOM     22  C   UNL d   1      29.386 -10.654   8.942  0.00  0.00     0.149 C 
ENDBRANCH  17  20
ENDBRANCH  10  14
ENDBRANCH   7   8
ENDBRANCH   1   7
BRANCH   5  23
ATOM     23  C   UNL d   1      25.838 -15.754  -4.028  0.00  0.00     0.162 C 
BRANCH  23  24
ATOM     24  N   UNL d   1      26.421 -14.523  -4.547  0.00  0.00    -0.339 N 
ATOM     25  C   UNL d   1      25.726 -13.351  -4.510  0.00  0.00     0.320 C 
ATOM     26  O   UNL d   1      24.592 -13.303  -4.026  0.00  0.00    -0.247 OA
ATOM     27  N   UNL d   1      26.403 -12.284  -5.073  0.00  0.00    -0.309 N 
ATOM     28  H   UNL d   1      27.217 -12.451  -5.647  0.00  0.00     0.170 HD
ATOM     29  H   UNL d   1      27.339 -14.507  -4.948  0.00  0.00     0.164 HD
BRANCH  27  30
ATOM     30  C   UNL d   1      25.874 -10.977  -5.055  0.00  0.00     0.036 A 
ATOM     31  C   UNL d   1      25.530 -10.302  -6.219  0.00  0.00     0.032 A 
ATOM     32  C   UNL d   1      25.028  -8.984  -6.144  0.00  0.00     0.031 A 
ATOM     33  C   UNL d   1      24.809  -8.311  -4.926  0.00  0.00     0.029 A 
ATOM     34  C   UNL d   1      25.227  -9.016  -3.788  0.00  0.00     0.031 A 
ATOM     35  C   UNL d   1      25.737 -10.314  -3.846  0.00  0.00     0.032 A 
BRANCH  33  36
ATOM     36  N   UNL d   1      24.240  -7.047  -4.841  0.00  0.00    -0.390 N 
ATOM     37  C   UNL d   1      24.940  -5.897  -4.271  0.00  0.00     0.149 C 
ATOM     38  C   UNL d   1      22.987  -6.701  -5.521  0.00  0.00     0.149 C 
ENDBRANCH  33  36
ENDBRANCH  27  30
ENDBRANCH  23  24
ENDBRANCH   5  23
TORSDOF 8
ENDMDL
MODEL 6
REMARK VINA RESULT:    -8.012      4.693      8.386
REMARK INTER + INTRA:         -11.257
REMARK INTER:                 -10.398
REMARK INTRA:                  -0.859
REMARK CONF_INDEPENDENT:        2.386
REMARK UNBOUND:                -0.859
REMARK  8 active torsions:
REMARK  status: ('A' for Active; 'I' for Inactive)
REMARK    1  A    between atoms: N_2  and  C_4 
REMARK    2  A    between atoms: C_7  and  N_8 
REMARK       I    between atoms: N_8  and  C_9 
REMARK       I    between atoms: C_9  and  N_11 
REMARK    3  A    between atoms: N_11  and  C_12 
REMARK    4  A    between atoms: C_12  and  C_13 
REMARK    5  A    between atoms: C_17  and  C_18 
REMARK    6  A    between atoms: C_18  and  N_19 
REMARK       I    between atoms: N_19  and  C_20 
REMARK       I    between atoms: C_20  and  N_22 
REMARK    7  A    between atoms: N_22  and  C_23 
REMARK    8  A    between atoms: C_26  and  N_27 
ROOT
ATOM      1  C   UNL d   1      26.891 -14.976  -0.528  0.00  0.00    -0.040 A 
ATOM      2  C   UNL d   1      26.423 -16.244  -0.188  0.00  0.00     0.009 A 
ATOM      3  C   UNL d   1      25.589 -16.937  -1.063  0.00  0.00     0.001 A 
ATOM      4  C   UNL d   1      25.155 -16.335  -2.250  0.00  0.00     0.009 A 
ATOM      5  C   UNL d   1      25.582 -15.040  -2.597  0.00  0.00    -0.040 A 
ATOM      6  C   UNL d   1      26.445 -14.381  -1.713  0.00  0.00     0.017 A 
ENDROOT
BRANCH   1   7
ATOM      7  C   UNL d   1      27.893 -14.255   0.324  0.00  0.00     0.162 C 
BRANCH   7   8
ATOM      8  N   UNL d   1      28.171 -14.938   1.583  0.00  0.00    -0.339 N 
ATOM      9  C   UNL d   1      28.216 -14.162   2.716  0.00  0.00     0.320 C 
ATOM     10  N   UNL d   1      28.478 -14.825   3.903  0.00  0.00    -0.309 N 
ATOM     11  O   UNL d   1      28.029 -12.952   2.592  0.00  0.00    -0.247 OA
ATOM     12  H   UNL d   1      28.565 -15.831   3.886  0.00  0.00     0.170 HD
ATOM     13  H   UNL d   1      28.280 -15.941   1.597  0.00  0.00     0.164 HD
BRANCH  10  14
ATOM     14  C   UNL d   1      28.504 -14.191   5.190  0.00  0.00     0.036 A 
ATOM     15  C   UNL d   1      27.657 -13.119   5.491  0.00  0.00     0.032 A 
ATOM     16  C   UNL d   1      27.780 -12.426   6.722  0.00  0.00     0.031 A 
ATOM     17  C   UNL d   1      28.703 -12.802   7.709  0.00  0.00     0.029 A 
ATOM     18  C   UNL d   1      29.505 -13.898   7.409  0.00  0.00     0.031 A 
ATOM     19  C   UNL d   1      29.395 -14.580   6.192  0.00  0.00     0.032 A 
BRANCH  17  20
ATOM     20  N   UNL d   1      28.804 -12.137   8.919  0.00  0.00    -0.390 N 
ATOM     21  C   UNL d   1      29.668 -10.971   9.052  0.00  0.00     0.149 C 
ATOM     22  C   UNL d   1      28.155 -12.684  10.098  0.00  0.00     0.149 C 
ENDBRANCH  17  20
ENDBRANCH  10  14
ENDBRANCH   7   8
ENDBRANCH   1   7
BRANCH   5  23
ATOM     23  C   UNL d   1      25.150 -14.432  -3.914  0.00  0.00     0.162 C 
BRANCH  23  24
ATOM     24  N   UNL d   1      26.185 -13.700  -4.632  0.00  0.00    -0.339 N 
ATOM     25  C   UNL d   1      27.256 -14.351  -5.170  0.00  0.00     0.320 C 
ATOM     26  O   UNL d   1      27.367 -15.575  -5.070  0.00  0.00    -0.247 OA
ATOM     27  N   UNL d   1      28.165 -13.511  -5.787  0.00  0.00    -0.309 N 
ATOM     28  H   UNL d   1      28.121 -12.515  -5.626  0.00  0.00     0.170 HD
ATOM     29  H   UNL d   1      26.142 -12.705  -4.743  0.00  0.00     0.164 HD
BRANCH  27  30
ATOM     30  C   UNL d   1      29.294 -14.012  -6.467  0.00  0.00     0.036 A 
ATOM     31  C   UNL d   1      29.715 -15.328  -6.331  0.00  0.00     0.032 A 
ATOM     32  C   UNL d   1      30.869 -15.771  -7.015  0.00  0.00     0.031 A 
ATOM     33  C   UNL d   1      31.612 -14.947  -7.884  0.00  0.00     0.029 A 
ATOM     34  C   UNL d   1      31.178 -13.616  -7.939  0.00  0.00     0.031 A 
ATOM     35  C   UNL d   1      30.047 -13.159  -7.258  0.00  0.00     0.032 A 
BRANCH  33  36
ATOM     36  N   UNL d   1      32.698 -15.398  -8.623  0.00  0.00    -0.390 N 
ATOM     37  C   UNL d   1      33.731 -14.503  -9.144  0.00  0.00     0.149 C 
ATOM     38  C   UNL d   1      33.030 -16.821  -8.747  0.00  0.00     0.149 C 
ENDBRANCH  33  36
ENDBRANCH  27  30
ENDBRANCH  23  24
ENDBRANCH   5  23
TORSDOF 8
ENDMDL
MODEL 7
REMARK VINA RESULT:    -7.969      1.623     11.478
REMARK INTER + INTRA:         -11.209
REMARK INTER:                 -10.355
REMARK INTRA:                  -0.854
REMARK CONF_INDEPENDENT:        2.386
REMARK UNBOUND:                -0.854
REMARK  8 active torsions:
REMARK  status: ('A' for Active; 'I' for Inactive)
REMARK    1  A    between atoms: N_2  and  C_4 
REMARK    2  A    between atoms: C_7  and  N_8 
REMARK       I    between atoms: N_8  and  C_9 
REMARK       I    between atoms: C_9  and  N_11 
REMARK    3  A    between atoms: N_11  and  C_12 
REMARK    4  A    between atoms: C_12  and  C_13 
REMARK    5  A    between atoms: C_17  and  C_18 
REMARK    6  A    between atoms: C_18  and  N_19 
REMARK       I    between atoms: N_19  and  C_20 
REMARK       I    between atoms: C_20  and  N_22 
REMARK    7  A    between atoms: N_22  and  C_23 
REMARK    8  A    between atoms: C_26  and  N_27 
ROOT
ATOM      1  C   UNL d   1      27.223 -15.753  -1.128  0.00  0.00    -0.040 A 
ATOM      2  C   UNL d   1      26.838 -14.757  -2.023  0.00  0.00     0.009 A 
ATOM      3  C   UNL d   1      27.587 -13.585  -2.124  0.00  0.00     0.001 A 
ATOM      4  C   UNL d   1      28.680 -13.371  -1.277  0.00  0.00     0.009 A 
ATOM      5  C   UNL d   1      29.064 -14.345  -0.338  0.00  0.00    -0.040 A 
ATOM      6  C   UNL d   1      28.312 -15.526  -0.281  0.00  0.00     0.017 A 
ENDROOT
BRANCH   1   7
ATOM      7  C   UNL d   1      26.523 -17.080  -1.084  0.00  0.00     0.162 C 
BRANCH   7   8
ATOM      8  N   UNL d   1      25.130 -17.007  -1.511  0.00  0.00    -0.339 N 
ATOM      9  C   UNL d   1      24.242 -17.850  -0.887  0.00  0.00     0.320 C 
ATOM     10  N   UNL d   1      22.923 -17.767  -1.301  0.00  0.00    -0.309 N 
ATOM     11  O   UNL d   1      24.680 -18.609  -0.022  0.00  0.00    -0.247 OA
ATOM     12  H   UNL d   1      22.675 -17.067  -1.985  0.00  0.00     0.170 HD
ATOM     13  H   UNL d   1      24.853 -16.330  -2.205  0.00  0.00     0.164 HD
BRANCH  10  14
ATOM     14  C   UNL d   1      21.849 -18.523  -0.723  0.00  0.00     0.036 A 
ATOM     15  C   UNL d   1      20.823 -19.051  -1.515  0.00  0.00     0.032 A 
ATOM     16  C   UNL d   1      19.707 -19.689  -0.916  0.00  0.00     0.031 A 
ATOM     17  C   UNL d   1      19.597 -19.870   0.471  0.00  0.00     0.029 A 
ATOM     18  C   UNL d   1      20.648 -19.378   1.236  0.00  0.00     0.031 A 
ATOM     19  C   UNL d   1      21.748 -18.738   0.652  0.00  0.00     0.032 A 
BRANCH  17  20
ATOM     20  N   UNL d   1      18.516 -20.514   1.049  0.00  0.00    -0.390 N 
ATOM     21  C   UNL d   1      18.280 -20.418   2.483  0.00  0.00     0.149 C 
ATOM     22  C   UNL d   1      17.692 -21.401   0.246  0.00  0.00     0.149 C 
ENDBRANCH  17  20
ENDBRANCH  10  14
ENDBRANCH   7   8
ENDBRANCH   1   7
BRANCH   5  23
ATOM     23  C   UNL d   1      30.285 -14.119   0.526  0.00  0.00     0.162 C 
BRANCH  23  24
ATOM     24  N   UNL d   1      30.214 -14.686   1.867  0.00  0.00    -0.339 N 
ATOM     25  C   UNL d   1      30.049 -13.883   2.956  0.00  0.00     0.320 C 
ATOM     26  O   UNL d   1      29.945 -12.661   2.832  0.00  0.00    -0.247 OA
ATOM     27  N   UNL d   1      30.038 -14.571   4.157  0.00  0.00    -0.309 N 
ATOM     28  H   UNL d   1      30.357 -15.528   4.193  0.00  0.00     0.170 HD
ATOM     29  H   UNL d   1      30.291 -15.672   2.024  0.00  0.00     0.164 HD
BRANCH  27  30
ATOM     30  C   UNL d   1      29.799 -13.916   5.383  0.00  0.00     0.036 A 
ATOM     31  C   UNL d   1      28.910 -14.414   6.326  0.00  0.00     0.032 A 
ATOM     32  C   UNL d   1      28.689 -13.704   7.527  0.00  0.00     0.031 A 
ATOM     33  C   UNL d   1      29.368 -12.513   7.853  0.00  0.00     0.029 A 
ATOM     34  C   UNL d   1      30.208 -12.026   6.843  0.00  0.00     0.031 A 
ATOM     35  C   UNL d   1      30.427 -12.709   5.645  0.00  0.00     0.032 A 
BRANCH  33  36
ATOM     36  N   UNL d   1      29.217 -11.854   9.066  0.00  0.00    -0.390 N 
ATOM     37  C   UNL d   1      28.178 -12.203  10.036  0.00  0.00     0.149 C 
ATOM     38  C   UNL d   1      30.219 -10.915   9.583  0.00  0.00     0.149 C 
ENDBRANCH  33  36
ENDBRANCH  27  30
ENDBRANCH  23  24
ENDBRANCH   5  23
TORSDOF 8
ENDMDL
MODEL 8
REMARK VINA RESULT:    -7.256      6.658     11.822
REMARK INTER + INTRA:         -11.147
REMARK INTER:                  -9.642
REMARK INTRA:                  -1.505
REMARK CONF_INDEPENDENT:        2.386
REMARK UNBOUND:                -1.505
REMARK  8 active torsions:
REMARK  status: ('A' for Active; 'I' for Inactive)
REMARK    1  A    between atoms: N_2  and  C_4 
REMARK    2  A    between atoms: C_7  and  N_8 
REMARK       I    between atoms: N_8  and  C_9 
REMARK       I    between atoms: C_9  and  N_11 
REMARK    3  A    between atoms: N_11  and  C_12 
REMARK    4  A    between atoms: C_12  and  C_13 
REMARK    5  A    between atoms: C_17  and  C_18 
REMARK    6  A    between atoms: C_18  and  N_19 
REMARK       I    between atoms: N_19  and  C_20 
REMARK       I    between atoms: C_20  and  N_22 
REMARK    7  A    between atoms: N_22  and  C_23 
REMARK    8  A    between atoms: C_26  and  N_27 
ROOT
ATOM      1  C   UNL d   1      27.109 -16.853   0.010  0.00  0.00    -0.040 A 
ATOM      2  C   UNL d   1      26.534 -17.998   0.559  0.00  0.00     0.009 A 
ATOM      3  C   UNL d   1      25.226 -18.347   0.230  0.00  0.00     0.001 A 
ATOM      4  C   UNL d   1      24.458 -17.512  -0.590  0.00  0.00     0.009 A 
ATOM      5  C   UNL d   1      25.003 -16.331  -1.125  0.00  0.00    -0.040 A 
ATOM      6  C   UNL d   1      26.330 -16.022  -0.802  0.00  0.00     0.017 A 
ENDROOT
BRANCH   1   7
ATOM      7  C   UNL d   1      28.553 -16.516   0.234  0.00  0.00     0.162 C 
BRANCH   7   8
ATOM      8  N   UNL d   1      29.466 -17.404  -0.478  0.00  0.00    -0.339 N 
ATOM      9  C   UNL d   1      29.526 -17.270  -1.845  0.00  0.00     0.320 C 
ATOM     10  N   UNL d   1      30.398 -18.117  -2.506  0.00  0.00    -0.309 N 
ATOM     11  O   UNL d   1      28.806 -16.422  -2.372  0.00  0.00    -0.247 OA
ATOM     12  H   UNL d   1      30.976 -18.739  -1.959  0.00  0.00     0.170 HD
ATOM     13  H   UNL d   1      30.044 -18.048   0.038  0.00  0.00     0.164 HD
BRANCH  10  14
ATOM     14  C   UNL d   1      30.638 -18.082  -3.920  0.00  0.00     0.036 A 
ATOM     15  C   UNL d   1      30.745 -19.258  -4.670  0.00  0.00     0.032 A 
ATOM     16  C   UNL d   1      31.104 -19.208  -6.041  0.00  0.00     0.031 A 
ATOM     17  C   UNL d   1      31.315 -18.000  -6.722  0.00  0.00     0.029 A 
ATOM     18  C   UNL d   1      31.160 -16.840  -5.970  0.00  0.00     0.031 A 
ATOM     19  C   UNL d   1      30.816 -16.883  -4.613  0.00  0.00     0.032 A 
BRANCH  17  20
ATOM     20  N   UNL d   1      31.643 -17.955  -8.067  0.00  0.00    -0.390 N 
ATOM     21  C   UNL d   1      31.455 -19.125  -8.913  0.00  0.00     0.149 C 
ATOM     22  C   UNL d   1      32.307 -16.781  -8.606  0.00  0.00     0.149 C 
ENDBRANCH  17  20
ENDBRANCH  10  14
ENDBRANCH   7   8
ENDBRANCH   1   7
BRANCH   5  23
ATOM     23  C   UNL d   1      24.175 -15.474  -2.058  0.00  0.00     0.162 C 
BRANCH  23  24
ATOM     24  N   UNL d   1      24.847 -14.291  -2.579  0.00  0.00    -0.339 N 
ATOM     25  C   UNL d   1      25.555 -14.345  -3.743  0.00  0.00     0.320 C 
ATOM     26  O   UNL d   1      25.634 -15.394  -4.387  0.00  0.00    -0.247 OA
ATOM     27  N   UNL d   1      26.162 -13.149  -4.081  0.00  0.00    -0.309 N 
ATOM     28  H   UNL d   1      26.241 -12.412  -3.395  0.00  0.00     0.170 HD
ATOM     29  H   UNL d   1      24.813 -13.414  -2.096  0.00  0.00     0.164 HD
BRANCH  27  30
ATOM     30  C   UNL d   1      26.871 -12.993  -5.290  0.00  0.00     0.036 A 
ATOM     31  C   UNL d   1      27.779 -13.942  -5.743  0.00  0.00     0.032 A 
ATOM     32  C   UNL d   1      28.481 -13.724  -6.948  0.00  0.00     0.031 A 
ATOM     33  C   UNL d   1      28.280 -12.592  -7.762  0.00  0.00     0.029 A 
ATOM     34  C   UNL d   1      27.398 -11.641  -7.230  0.00  0.00     0.031 A 
ATOM     35  C   UNL d   1      26.705 -11.836  -6.033  0.00  0.00     0.032 A 
BRANCH  33  36
ATOM     36  N   UNL d   1      28.906 -12.410  -8.989  0.00  0.00    -0.390 N 
ATOM     37  C   UNL d   1      28.212 -12.568 -10.266  0.00  0.00     0.149 C 
ATOM     38  C   UNL d   1      30.243 -11.819  -9.110  0.00  0.00     0.149 C 
ENDBRANCH  33  36
ENDBRANCH  27  30
ENDBRANCH  23  24
ENDBRANCH   5  23
TORSDOF 8
ENDMDL
MODEL 9
REMARK VINA RESULT:    -7.238      6.600     12.148
REMARK INTER + INTRA:         -11.202
REMARK INTER:                  -9.624
REMARK INTRA:                  -1.578
REMARK CONF_INDEPENDENT:        2.386
REMARK UNBOUND:                -1.578
REMARK  8 active torsions:
REMARK  status: ('A' for Active; 'I' for Inactive)
REMARK    1  A    between atoms: N_2  and  C_4 
REMARK    2  A    between atoms: C_7  and  N_8 
REMARK       I    between atoms: N_8  and  C_9 
REMARK       I    between atoms: C_9  and  N_11 
REMARK    3  A    between atoms: N_11  and  C_12 
REMARK    4  A    between atoms: C_12  and  C_13 
REMARK    5  A    between atoms: C_17  and  C_18 
REMARK    6  A    between atoms: C_18  and  N_19 
REMARK       I    between atoms: N_19  and  C_20 
REMARK       I    between atoms: C_20  and  N_22 
REMARK    7  A    between atoms: N_22  and  C_23 
REMARK    8  A    between atoms: C_26  and  N_27 
ROOT
ATOM      1  C   UNL d   1      24.700 -16.204  -1.504  0.00  0.00    -0.040 A 
ATOM      2  C   UNL d   1      24.032 -17.346  -1.065  0.00  0.00     0.009 A 
ATOM      3  C   UNL d   1      24.640 -18.197  -0.144  0.00  0.00     0.001 A 
ATOM      4  C   UNL d   1      25.949 -17.952   0.287  0.00  0.00     0.009 A 
ATOM      5  C   UNL d   1      26.658 -16.827  -0.172  0.00  0.00    -0.040 A 
ATOM      6  C   UNL d   1      26.010 -15.973  -1.074  0.00  0.00     0.017 A 
ENDROOT
BRANCH   1   7
ATOM      7  C   UNL d   1      24.029 -15.197  -2.391  0.00  0.00     0.162 C 
BRANCH   7   8
ATOM      8  N   UNL d   1      24.896 -14.077  -2.743  0.00  0.00    -0.339 N 
ATOM      9  C   UNL d   1      25.637 -14.200  -3.894  0.00  0.00     0.320 C 
ATOM     10  N   UNL d   1      26.452 -13.129  -4.216  0.00  0.00    -0.309 N 
ATOM     11  O   UNL d   1      25.526 -15.241  -4.541  0.00  0.00    -0.247 OA
ATOM     12  H   UNL d   1      26.420 -12.305  -3.633  0.00  0.00     0.170 HD
ATOM     13  H   UNL d   1      24.900 -13.247  -2.171  0.00  0.00     0.164 HD
BRANCH  10  14
ATOM     14  C   UNL d   1      27.249 -13.053  -5.407  0.00  0.00     0.036 A 
ATOM     15  C   UNL d   1      28.072 -14.113  -5.801  0.00  0.00     0.032 A 
ATOM     16  C   UNL d   1      28.945 -13.975  -6.910  0.00  0.00     0.031 A 
ATOM     17  C   UNL d   1      28.992 -12.810  -7.692  0.00  0.00     0.029 A 
ATOM     18  C   UNL d   1      28.133 -11.785  -7.310  0.00  0.00     0.031 A 
ATOM     19  C   UNL d   1      27.277 -11.911  -6.210  0.00  0.00     0.032 A 
BRANCH  17  20
ATOM     20  N   UNL d   1      29.829 -12.688  -8.788  0.00  0.00    -0.390 N 
ATOM     21  C   UNL d   1      31.261 -12.915  -8.653  0.00  0.00     0.149 C 
ATOM     22  C   UNL d   1      29.298 -12.195 -10.047  0.00  0.00     0.149 C 
ENDBRANCH  17  20
ENDBRANCH  10  14
ENDBRANCH   7   8
ENDBRANCH   1   7
BRANCH   5  23
ATOM     23  C   UNL d   1      28.049 -16.547   0.353  0.00  0.00     0.162 C 
BRANCH  23  24
ATOM     24  N   UNL d   1      29.126 -17.256  -0.327  0.00  0.00    -0.339 N 
ATOM     25  C   UNL d   1      29.250 -17.203  -1.684  0.00  0.00     0.320 C 
ATOM     26  O   UNL d   1      28.461 -16.545  -2.366  0.00  0.00    -0.247 OA
ATOM     27  N   UNL d   1      30.300 -17.957  -2.176  0.00  0.00    -0.309 N 
ATOM     28  H   UNL d   1      30.750 -18.641  -1.585  0.00  0.00     0.170 HD
ATOM     29  H   UNL d   1      29.795 -17.803   0.180  0.00  0.00     0.164 HD
BRANCH  27  30
ATOM     30  C   UNL d   1      30.631 -17.962  -3.547  0.00  0.00     0.036 A 
ATOM     31  C   UNL d   1      31.265 -19.039  -4.151  0.00  0.00     0.032 A 
ATOM     32  C   UNL d   1      31.596 -18.980  -5.523  0.00  0.00     0.031 A 
ATOM     33  C   UNL d   1      31.275 -17.882  -6.346  0.00  0.00     0.029 A 
ATOM     34  C   UNL d   1      30.689 -16.802  -5.673  0.00  0.00     0.031 A 
ATOM     35  C   UNL d   1      30.366 -16.839  -4.315  0.00  0.00     0.032 A 
BRANCH  33  36
ATOM     36  N   UNL d   1      31.524 -17.851  -7.712  0.00  0.00    -0.390 N 
ATOM     37  C   UNL d   1      32.347 -16.821  -8.346  0.00  0.00     0.149 C 
ATOM     38  C   UNL d   1      31.183 -18.968  -8.600  0.00  0.00     0.149 C 
ENDBRANCH  33  36
ENDBRANCH  27  30
ENDBRANCH  23  24
ENDBRANCH   5  23
TORSDOF 8
ENDMDL
