MODEL 1
REMARK VINA RESULT:    -9.086      0.000      0.000
REMARK INTER + INTRA:         -12.310
REMARK INTER:                 -10.577
REMARK INTRA:                  -1.732
REMARK CONF_INDEPENDENT:        1.492
REMARK UNBOUND:                -1.732
REMARK  5 active torsions:
REMARK  status: ('A' for Active; 'I' for Inactive)
REMARK    1  A    between atoms: C_5  and  N_4 
REMARK    2  A    between atoms: C_17  and  N_19 
REMARK    3  A    between atoms: N_19  and  C_20 
REMARK    4  A    between atoms: C_20  and  C_21 
REMARK    5  A    between atoms: C_21  and  C_22 
ROOT
ATOM      1  C   UNL d   1      26.326 -11.470   1.958  0.00  0.00     0.073 C 
ATOM      2  C   UNL d   1      26.813 -12.808   1.503  0.00  0.00     0.069 C 
ATOM      3  N   UNL d   1      26.482 -13.327   0.353  0.00  0.00    -0.171 NA
ATOM      4  N   UNL d   1      27.222 -14.514   0.223  0.00  0.00    -0.200 N 
ATOM      5  C   UNL d   1      28.138 -14.707   1.247  0.00  0.00     0.280 C 
ATOM      6  O   UNL d   1      29.037 -15.534   1.354  0.00  0.00    -0.265 OA
ATOM      7  C   UNL d   1      27.737 -13.683   2.253  0.00  0.00     0.081 C 
ATOM      8  C   UNL d   1      28.038 -13.722   3.569  0.00  0.00     0.019 C 
ATOM      9  C   UNL d   1      27.404 -12.781   4.588  0.00  0.00     0.069 C 
ENDROOT
BRANCH   8  10
ATOM     10  N   UNL d   1      28.906 -14.664   4.129  0.00  0.00    -0.392 N 
ATOM     11  H   UNL d   1      29.251 -15.398   3.503  0.00  0.00     0.159 HD
BRANCH  10  12
ATOM     12  C   UNL d   1      29.090 -14.808   5.549  0.00  0.00     0.124 C 
BRANCH  12  13
ATOM     13  C   UNL d   1      30.030 -13.805   6.177  0.00  0.00     0.057 C 
BRANCH  13  14
ATOM     14  C   UNL d   1      29.396 -13.094   7.343  0.00  0.00    -0.044 A 
ATOM     15  C   UNL d   1      29.076 -13.552   8.562  0.00  0.00    -0.005 A 
ATOM     16  C   UNL d   1      29.195 -14.806   9.231  0.00  0.00     0.014 A 
ATOM     17  C   UNL d   1      28.531 -12.378   9.279  0.00  0.00     0.039 A 
ATOM     18  C   UNL d   1      28.764 -14.931  10.490  0.00  0.00     0.001 A 
ATOM     19  C   UNL d   1      28.211 -13.806  11.211  0.00  0.00     0.002 A 
ATOM     20  C   UNL d   1      28.086 -12.574  10.677  0.00  0.00     0.030 A 
ATOM     21  N   UNL d   1      28.533 -11.324   8.554  0.00  0.00    -0.381 N 
ATOM     22  C   UNL d   1      29.074 -11.629   7.206  0.00  0.00     0.108 A 
ATOM     23  H   UNL d   1      28.184 -10.422   8.874  0.00  0.00     0.160 HD
ATOM     24  C   UNL d   1      30.331 -10.829   6.916  0.00  0.00     0.037 C 
ENDBRANCH  13  14
ENDBRANCH  12  13
ENDBRANCH  10  12
ENDBRANCH   8  10
BRANCH   4  25
ATOM     25  C   UNL d   1      26.993 -15.459  -0.867  0.00  0.00     0.280 C 
ATOM     26  N   UNL d   1      25.622 -15.305  -1.319  0.00  0.00    -0.357 N 
ATOM     27  C   UNL d   1      24.807 -16.365  -0.945  0.00  0.00     0.047 A 
ATOM     28  H   UNL d   1      25.371 -14.639  -2.029  0.00  0.00     0.162 HD
ATOM     29  C   UNL d   1      23.420 -16.326  -0.981  0.00  0.00     0.030 A 
ATOM     30  C   UNL d   1      25.445 -17.460  -0.349  0.00  0.00     0.030 A 
ATOM     31  C   UNL d   1      22.684 -17.398  -0.463  0.00  0.00     0.002 A 
ATOM     32  C   UNL d   1      23.337 -18.512   0.079  0.00  0.00     0.002 A 
ATOM     33  C   UNL d   1      24.731 -18.549   0.138  0.00  0.00     0.021 A 
ATOM     34  S   UNL d   1      27.197 -17.198  -0.294  0.00  0.00    -0.079 SA
ENDBRANCH   4  25
TORSDOF 5
ENDMDL
MODEL 2
REMARK VINA RESULT:    -8.187      2.664      9.767
REMARK INTER + INTRA:         -11.401
REMARK INTER:                  -9.678
REMARK INTRA:                  -1.722
REMARK CONF_INDEPENDENT:        1.492
REMARK UNBOUND:                -1.722
REMARK  5 active torsions:
REMARK  status: ('A' for Active; 'I' for Inactive)
REMARK    1  A    between atoms: C_5  and  N_4 
REMARK    2  A    between atoms: C_17  and  N_19 
REMARK    3  A    between atoms: N_19  and  C_20 
REMARK    4  A    between atoms: C_20  and  C_21 
REMARK    5  A    between atoms: C_21  and  C_22 
ROOT
ATOM      1  C   UNL d   1      27.039 -10.683   3.814  0.00  0.00     0.073 C 
ATOM      2  C   UNL d   1      27.881 -11.779   4.386  0.00  0.00     0.069 C 
ATOM      3  N   UNL d   1      28.587 -11.632   5.474  0.00  0.00    -0.171 NA
ATOM      4  N   UNL d   1      29.133 -12.892   5.767  0.00  0.00    -0.200 N 
ATOM      5  C   UNL d   1      28.677 -13.900   4.928  0.00  0.00     0.280 C 
ATOM      6  O   UNL d   1      28.819 -15.116   5.007  0.00  0.00    -0.265 OA
ATOM      7  C   UNL d   1      27.995 -13.146   3.838  0.00  0.00     0.081 C 
ATOM      8  C   UNL d   1      27.746 -13.620   2.599  0.00  0.00     0.019 C 
ATOM      9  C   UNL d   1      27.266 -12.731   1.457  0.00  0.00     0.069 C 
ENDROOT
BRANCH   8  10
ATOM     10  N   UNL d   1      27.963 -14.950   2.229  0.00  0.00    -0.392 N 
ATOM     11  H   UNL d   1      28.065 -15.626   2.993  0.00  0.00     0.159 HD
BRANCH  10  12
ATOM     12  C   UNL d   1      28.325 -15.340   0.892  0.00  0.00     0.124 C 
BRANCH  12  13
ATOM     13  C   UNL d   1      27.583 -16.542   0.354  0.00  0.00     0.057 C 
BRANCH  13  14
ATOM     14  C   UNL d   1      26.640 -16.168  -0.760  0.00  0.00    -0.044 A 
ATOM     15  C   UNL d   1      26.900 -15.803  -2.023  0.00  0.00    -0.005 A 
ATOM     16  C   UNL d   1      28.084 -15.632  -2.801  0.00  0.00     0.014 A 
ATOM     17  C   UNL d   1      25.571 -15.610  -2.645  0.00  0.00     0.039 A 
ATOM     18  C   UNL d   1      27.991 -15.247  -4.077  0.00  0.00     0.001 A 
ATOM     19  C   UNL d   1      26.707 -15.035  -4.707  0.00  0.00     0.002 A 
ATOM     20  C   UNL d   1      25.532 -15.200  -4.067  0.00  0.00     0.030 A 
ATOM     21  N   UNL d   1      24.616 -15.844  -1.827  0.00  0.00    -0.381 N 
ATOM     22  C   UNL d   1      25.158 -16.222  -0.498  0.00  0.00     0.108 A 
ATOM     23  H   UNL d   1      23.631 -15.750  -2.072  0.00  0.00     0.160 HD
ATOM     24  C   UNL d   1      24.734 -17.624  -0.103  0.00  0.00     0.037 C 
ENDBRANCH  13  14
ENDBRANCH  12  13
ENDBRANCH  10  12
ENDBRANCH   8  10
BRANCH   4  25
ATOM     25  C   UNL d   1      30.121 -13.086   6.825  0.00  0.00     0.280 C 
ATOM     26  N   UNL d   1      29.753 -14.270   7.578  0.00  0.00    -0.357 N 
ATOM     27  C   UNL d   1      29.250 -13.975   8.839  0.00  0.00     0.047 A 
ATOM     28  H   UNL d   1      30.065 -15.186   7.309  0.00  0.00     0.162 HD
ATOM     29  C   UNL d   1      28.553 -14.881   9.626  0.00  0.00     0.030 A 
ATOM     30  C   UNL d   1      29.325 -12.635   9.240  0.00  0.00     0.030 A 
ATOM     31  C   UNL d   1      27.976 -14.453  10.827  0.00  0.00     0.002 A 
ATOM     32  C   UNL d   1      28.107 -13.122  11.243  0.00  0.00     0.002 A 
ATOM     33  C   UNL d   1      28.788 -12.200  10.446  0.00  0.00     0.021 A 
ATOM     34  S   UNL d   1      30.130 -11.663   7.996  0.00  0.00    -0.079 SA
ENDBRANCH   4  25
TORSDOF 5
ENDMDL
MODEL 3
REMARK VINA RESULT:    -8.047      3.203      6.005
REMARK INTER + INTRA:         -11.013
REMARK INTER:                  -9.539
REMARK INTRA:                  -1.474
REMARK CONF_INDEPENDENT:        1.492
REMARK UNBOUND:                -1.474
REMARK  5 active torsions:
REMARK  status: ('A' for Active; 'I' for Inactive)
REMARK    1  A    between atoms: C_5  and  N_4 
REMARK    2  A    between atoms: C_17  and  N_19 
REMARK    3  A    between atoms: N_19  and  C_20 
REMARK    4  A    between atoms: C_20  and  C_21 
REMARK    5  A    between atoms: C_21  and  C_22 
ROOT
ATOM      1  C   UNL d   1      24.120 -18.236  -0.475  0.00  0.00     0.073 C 
ATOM      2  C   UNL d   1      24.792 -17.007  -0.997  0.00  0.00     0.069 C 
ATOM      3  N   UNL d   1      24.298 -16.291  -1.969  0.00  0.00    -0.171 NA
ATOM      4  N   UNL d   1      25.126 -15.163  -2.093  0.00  0.00    -0.200 N 
ATOM      5  C   UNL d   1      26.101 -15.083  -1.108  0.00  0.00     0.280 C 
ATOM      6  O   UNL d   1      26.866 -14.166  -0.829  0.00  0.00    -0.265 OA
ATOM      7  C   UNL d   1      26.048 -16.431  -0.474  0.00  0.00     0.081 C 
ATOM      8  C   UNL d   1      27.042 -16.996   0.243  0.00  0.00     0.019 C 
ATOM      9  C   UNL d   1      27.027 -18.462   0.662  0.00  0.00     0.069 C 
ENDROOT
BRANCH   8  10
ATOM     10  N   UNL d   1      28.204 -16.311   0.614  0.00  0.00    -0.392 N 
ATOM     11  H   UNL d   1      28.266 -16.013   1.592  0.00  0.00     0.159 HD
BRANCH  10  12
ATOM     12  C   UNL d   1      29.135 -15.778  -0.344  0.00  0.00     0.124 C 
BRANCH  12  13
ATOM     13  C   UNL d   1      29.749 -14.449   0.032  0.00  0.00     0.057 C 
BRANCH  13  14
ATOM     14  C   UNL d   1      29.973 -14.334   1.516  0.00  0.00    -0.044 A 
ATOM     15  C   UNL d   1      29.098 -14.108   2.506  0.00  0.00    -0.005 A 
ATOM     16  C   UNL d   1      27.687 -13.904   2.577  0.00  0.00     0.014 A 
ATOM     17  C   UNL d   1      29.903 -14.152   3.746  0.00  0.00     0.039 A 
ATOM     18  C   UNL d   1      27.104 -13.701   3.763  0.00  0.00     0.001 A 
ATOM     19  C   UNL d   1      27.869 -13.721   4.990  0.00  0.00     0.002 A 
ATOM     20  C   UNL d   1      29.199 -13.937   5.030  0.00  0.00     0.030 A 
ATOM     21  N   UNL d   1      31.139 -14.386   3.511  0.00  0.00    -0.381 N 
ATOM     22  C   UNL d   1      31.368 -14.524   2.051  0.00  0.00     0.108 A 
ATOM     23  H   UNL d   1      31.848 -14.440   4.241  0.00  0.00     0.160 HD
ATOM     24  C   UNL d   1      31.894 -15.903   1.698  0.00  0.00     0.037 C 
ENDBRANCH  13  14
ENDBRANCH  12  13
ENDBRANCH  10  12
ENDBRANCH   8  10
BRANCH   4  25
ATOM     25  C   UNL d   1      24.985 -14.211  -3.192  0.00  0.00     0.280 C 
ATOM     26  N   UNL d   1      25.526 -14.821  -4.392  0.00  0.00    -0.357 N 
ATOM     27  C   UNL d   1      26.740 -14.267  -4.779  0.00  0.00     0.047 A 
ATOM     28  H   UNL d   1      24.961 -15.390  -4.997  0.00  0.00     0.162 HD
ATOM     29  C   UNL d   1      27.603 -14.857  -5.692  0.00  0.00     0.030 A 
ATOM     30  C   UNL d   1      27.162 -13.136  -4.070  0.00  0.00     0.030 A 
ATOM     31  C   UNL d   1      28.861 -14.287  -5.922  0.00  0.00     0.002 A 
ATOM     32  C   UNL d   1      29.247 -13.122  -5.247  0.00  0.00     0.002 A 
ATOM     33  C   UNL d   1      28.393 -12.537  -4.311  0.00  0.00     0.021 A 
ATOM     34  S   UNL d   1      25.946 -12.673  -2.867  0.00  0.00    -0.079 SA
ENDBRANCH   4  25
TORSDOF 5
ENDMDL
MODEL 4
REMARK VINA RESULT:    -7.955      6.743      9.860
REMARK INTER + INTRA:         -11.239
REMARK INTER:                  -9.447
REMARK INTRA:                  -1.792
REMARK CONF_INDEPENDENT:        1.492
REMARK UNBOUND:                -1.792
REMARK  5 active torsions:
REMARK  status: ('A' for Active; 'I' for Inactive)
REMARK    1  A    between atoms: C_5  and  N_4 
REMARK    2  A    between atoms: C_17  and  N_19 
REMARK    3  A    between atoms: N_19  and  C_20 
REMARK    4  A    between atoms: C_20  and  C_21 
REMARK    5  A    between atoms: C_21  and  C_22 
ROOT
ATOM      1  C   UNL d   1      28.833 -13.797  -7.176  0.00  0.00     0.073 C 
ATOM      2  C   UNL d   1      29.332 -14.819  -6.205  0.00  0.00     0.069 C 
ATOM      3  N   UNL d   1      30.231 -15.710  -6.518  0.00  0.00    -0.171 NA
ATOM      4  N   UNL d   1      30.537 -16.401  -5.334  0.00  0.00    -0.200 N 
ATOM      5  C   UNL d   1      29.919 -15.870  -4.210  0.00  0.00     0.280 C 
ATOM      6  O   UNL d   1      30.093 -16.120  -3.022  0.00  0.00    -0.265 OA
ATOM      7  C   UNL d   1      28.918 -14.931  -4.791  0.00  0.00     0.081 C 
ATOM      8  C   UNL d   1      27.812 -14.481  -4.161  0.00  0.00     0.019 C 
ATOM      9  C   UNL d   1      26.705 -13.718  -4.881  0.00  0.00     0.069 C 
ENDROOT
BRANCH   8  10
ATOM     10  N   UNL d   1      27.546 -14.725  -2.810  0.00  0.00    -0.392 N 
ATOM     11  H   UNL d   1      28.251 -15.264  -2.296  0.00  0.00     0.159 HD
BRANCH  10  12
ATOM     12  C   UNL d   1      26.252 -14.516  -2.218  0.00  0.00     0.124 C 
BRANCH  12  13
ATOM     13  C   UNL d   1      26.178 -14.776  -0.732  0.00  0.00     0.057 C 
BRANCH  13  14
ATOM     14  C   UNL d   1      25.754 -16.189  -0.428  0.00  0.00    -0.044 A 
ATOM     15  C   UNL d   1      24.548 -16.765  -0.520  0.00  0.00    -0.005 A 
ATOM     16  C   UNL d   1      23.249 -16.329  -0.919  0.00  0.00     0.014 A 
ATOM     17  C   UNL d   1      24.769 -18.177  -0.136  0.00  0.00     0.039 A 
ATOM     18  C   UNL d   1      22.223 -17.186  -0.895  0.00  0.00     0.001 A 
ATOM     19  C   UNL d   1      22.407 -18.567  -0.507  0.00  0.00     0.002 A 
ATOM     20  C   UNL d   1      23.598 -19.082  -0.145  0.00  0.00     0.030 A 
ATOM     21  N   UNL d   1      25.994 -18.413   0.152  0.00  0.00    -0.381 N 
ATOM     22  C   UNL d   1      26.801 -17.175   0.019  0.00  0.00     0.108 A 
ATOM     23  H   UNL d   1      26.333 -19.326   0.451  0.00  0.00     0.160 HD
ATOM     24  C   UNL d   1      27.882 -17.325  -1.035  0.00  0.00     0.037 C 
ENDBRANCH  13  14
ENDBRANCH  12  13
ENDBRANCH  10  12
ENDBRANCH   8  10
BRANCH   4  25
ATOM     25  C   UNL d   1      31.386 -17.590  -5.323  0.00  0.00     0.280 C 
ATOM     26  N   UNL d   1      32.370 -17.454  -6.380  0.00  0.00    -0.357 N 
ATOM     27  C   UNL d   1      32.125 -18.295  -7.458  0.00  0.00     0.047 A 
ATOM     28  H   UNL d   1      33.250 -16.994  -6.227  0.00  0.00     0.162 HD
ATOM     29  C   UNL d   1      32.721 -18.151  -8.703  0.00  0.00     0.030 A 
ATOM     30  C   UNL d   1      31.095 -19.230  -7.296  0.00  0.00     0.030 A 
ATOM     31  C   UNL d   1      32.315 -18.970  -9.763  0.00  0.00     0.002 A 
ATOM     32  C   UNL d   1      31.322 -19.940  -9.571  0.00  0.00     0.002 A 
ATOM     33  C   UNL d   1      30.704 -20.076  -8.327  0.00  0.00     0.021 A 
ATOM     34  S   UNL d   1      30.405 -19.111  -5.668  0.00  0.00    -0.079 SA
ENDBRANCH   4  25
TORSDOF 5
ENDMDL
MODEL 5
REMARK VINA RESULT:    -7.873      6.389     10.139
REMARK INTER + INTRA:         -11.588
REMARK INTER:                  -9.364
REMARK INTRA:                  -2.224
REMARK CONF_INDEPENDENT:        1.492
REMARK UNBOUND:                -2.224
REMARK  5 active torsions:
REMARK  status: ('A' for Active; 'I' for Inactive)
REMARK    1  A    between atoms: C_5  and  N_4 
REMARK    2  A    between atoms: C_17  and  N_19 
REMARK    3  A    between atoms: N_19  and  C_20 
REMARK    4  A    between atoms: C_20  and  C_21 
REMARK    5  A    between atoms: C_21  and  C_22 
ROOT
ATOM      1  C   UNL d   1      27.414 -11.427  -0.511  0.00  0.00     0.073 C 
ATOM      2  C   UNL d   1      27.014 -12.524  -1.445  0.00  0.00     0.069 C 
ATOM      3  N   UNL d   1      27.230 -13.784  -1.188  0.00  0.00    -0.171 NA
ATOM      4  N   UNL d   1      26.611 -14.513  -2.217  0.00  0.00    -0.200 N 
ATOM      5  C   UNL d   1      25.877 -13.721  -3.089  0.00  0.00     0.280 C 
ATOM      6  O   UNL d   1      25.096 -14.042  -3.979  0.00  0.00    -0.265 OA
ATOM      7  C   UNL d   1      26.305 -12.339  -2.729  0.00  0.00     0.081 C 
ATOM      8  C   UNL d   1      26.202 -11.256  -3.528  0.00  0.00     0.019 C 
ATOM      9  C   UNL d   1      26.871  -9.925  -3.204  0.00  0.00     0.069 C 
ENDROOT
BRANCH   8  10
ATOM     10  N   UNL d   1      25.530 -11.270  -4.754  0.00  0.00    -0.392 N 
ATOM     11  H   UNL d   1      24.693 -11.858  -4.810  0.00  0.00     0.159 HD
BRANCH  10  12
ATOM     12  C   UNL d   1      26.105 -10.748  -5.965  0.00  0.00     0.124 C 
BRANCH  12  13
ATOM     13  C   UNL d   1      27.614 -10.670  -5.975  0.00  0.00     0.057 C 
BRANCH  13  14
ATOM     14  C   UNL d   1      28.236 -11.888  -6.607  0.00  0.00    -0.044 A 
ATOM     15  C   UNL d   1      28.564 -13.068  -6.064  0.00  0.00    -0.005 A 
ATOM     16  C   UNL d   1      28.468 -13.640  -4.760  0.00  0.00     0.014 A 
ATOM     17  C   UNL d   1      29.088 -13.874  -7.189  0.00  0.00     0.039 A 
ATOM     18  C   UNL d   1      28.901 -14.887  -4.547  0.00  0.00     0.001 A 
ATOM     19  C   UNL d   1      29.434 -15.691  -5.624  0.00  0.00     0.002 A 
ATOM     20  C   UNL d   1      29.536 -15.253  -6.895  0.00  0.00     0.030 A 
ATOM     21  N   UNL d   1      29.067 -13.230  -8.295  0.00  0.00    -0.381 N 
ATOM     22  C   UNL d   1      28.531 -11.862  -8.084  0.00  0.00     0.108 A 
ATOM     23  H   UNL d   1      29.401 -13.618  -9.176  0.00  0.00     0.160 HD
ATOM     24  C   UNL d   1      27.261 -11.633  -8.881  0.00  0.00     0.037 C 
ENDBRANCH  13  14
ENDBRANCH  12  13
ENDBRANCH  10  12
ENDBRANCH   8  10
BRANCH   4  25
ATOM     25  C   UNL d   1      26.781 -15.956  -2.361  0.00  0.00     0.280 C 
ATOM     26  N   UNL d   1      25.498 -16.530  -2.722  0.00  0.00    -0.357 N 
ATOM     27  C   UNL d   1      24.914 -17.243  -1.683  0.00  0.00     0.047 A 
ATOM     28  H   UNL d   1      25.205 -16.609  -3.679  0.00  0.00     0.162 HD
ATOM     29  C   UNL d   1      23.579 -17.625  -1.660  0.00  0.00     0.030 A 
ATOM     30  C   UNL d   1      25.699 -17.430  -0.538  0.00  0.00     0.030 A 
ATOM     31  C   UNL d   1      23.052 -18.229  -0.512  0.00  0.00     0.002 A 
ATOM     32  C   UNL d   1      23.864 -18.460   0.605  0.00  0.00     0.002 A 
ATOM     33  C   UNL d   1      25.201 -18.060   0.597  0.00  0.00     0.021 A 
ATOM     34  S   UNL d   1      27.308 -16.726  -0.772  0.00  0.00    -0.079 SA
ENDBRANCH   4  25
TORSDOF 5
ENDMDL
MODEL 6
REMARK VINA RESULT:    -7.174      6.494      9.768
REMARK INTER + INTRA:         -11.749
REMARK INTER:                  -8.666
REMARK INTRA:                  -3.083
REMARK CONF_INDEPENDENT:        1.492
REMARK UNBOUND:                -3.083
REMARK  5 active torsions:
REMARK  status: ('A' for Active; 'I' for Inactive)
REMARK    1  A    between atoms: C_5  and  N_4 
REMARK    2  A    between atoms: C_17  and  N_19 
REMARK    3  A    between atoms: N_19  and  C_20 
REMARK    4  A    between atoms: C_20  and  C_21 
REMARK    5  A    between atoms: C_21  and  C_22 
ROOT
ATOM      1  C   UNL d   1      31.120 -18.633  -3.670  0.00  0.00     0.073 C 
ATOM      2  C   UNL d   1      30.379 -17.482  -3.071  0.00  0.00     0.069 C 
ATOM      3  N   UNL d   1      29.916 -17.498  -1.852  0.00  0.00    -0.171 NA
ATOM      4  N   UNL d   1      29.401 -16.214  -1.604  0.00  0.00    -0.200 N 
ATOM      5  C   UNL d   1      29.643 -15.315  -2.633  0.00  0.00     0.280 C 
ATOM      6  O   UNL d   1      29.481 -14.100  -2.673  0.00  0.00    -0.265 OA
ATOM      7  C   UNL d   1      30.111 -16.193  -3.743  0.00  0.00     0.081 C 
ATOM      8  C   UNL d   1      30.086 -15.874  -5.054  0.00  0.00     0.019 C 
ATOM      9  C   UNL d   1      30.350 -16.894  -6.156  0.00  0.00     0.069 C 
ENDROOT
BRANCH   8  10
ATOM     10  N   UNL d   1      29.755 -14.601  -5.527  0.00  0.00    -0.392 N 
ATOM     11  H   UNL d   1      29.348 -13.952  -4.847  0.00  0.00     0.159 HD
BRANCH  10  12
ATOM     12  C   UNL d   1      29.694 -14.280  -6.929  0.00  0.00     0.124 C 
BRANCH  12  13
ATOM     13  C   UNL d   1      28.700 -13.202  -7.295  0.00  0.00     0.057 C 
BRANCH  13  14
ATOM     14  C   UNL d   1      27.781 -12.872  -6.149  0.00  0.00    -0.044 A 
ATOM     15  C   UNL d   1      27.005 -13.676  -5.407  0.00  0.00    -0.005 A 
ATOM     16  C   UNL d   1      26.742 -15.078  -5.378  0.00  0.00     0.014 A 
ATOM     17  C   UNL d   1      26.376 -12.784  -4.409  0.00  0.00     0.039 A 
ATOM     18  C   UNL d   1      25.887 -15.575  -4.480  0.00  0.00     0.001 A 
ATOM     19  C   UNL d   1      25.244 -14.725  -3.503  0.00  0.00     0.002 A 
ATOM     20  C   UNL d   1      25.451 -13.395  -3.428  0.00  0.00     0.030 A 
ATOM     21  N   UNL d   1      26.749 -11.567  -4.544  0.00  0.00    -0.381 N 
ATOM     22  C   UNL d   1      27.691 -11.442  -5.685  0.00  0.00     0.108 A 
ATOM     23  H   UNL d   1      26.411 -10.807  -3.955  0.00  0.00     0.160 HD
ATOM     24  C   UNL d   1      29.049 -10.940  -5.232  0.00  0.00     0.037 C 
ENDBRANCH  13  14
ENDBRANCH  12  13
ENDBRANCH  10  12
ENDBRANCH   8  10
BRANCH   4  25
ATOM     25  C   UNL d   1      28.645 -15.898  -0.395  0.00  0.00     0.280 C 
ATOM     26  N   UNL d   1      28.137 -17.140   0.159  0.00  0.00    -0.357 N 
ATOM     27  C   UNL d   1      26.767 -17.288  -0.014  0.00  0.00     0.047 A 
ATOM     28  H   UNL d   1      28.675 -17.689   0.806  0.00  0.00     0.162 HD
ATOM     29  C   UNL d   1      26.093 -18.492   0.143  0.00  0.00     0.030 A 
ATOM     30  C   UNL d   1      26.082 -16.183  -0.533  0.00  0.00     0.030 A 
ATOM     31  C   UNL d   1      24.732 -18.569  -0.177  0.00  0.00     0.002 A 
ATOM     32  C   UNL d   1      24.047 -17.440  -0.642  0.00  0.00     0.002 A 
ATOM     33  C   UNL d   1      24.723 -16.233  -0.823  0.00  0.00     0.021 A 
ATOM     34  S   UNL d   1      27.196 -14.826  -0.778  0.00  0.00    -0.079 SA
ENDBRANCH   4  25
TORSDOF 5
ENDMDL
MODEL 7
REMARK VINA RESULT:    -7.005      7.085     10.077
REMARK INTER + INTRA:         -10.965
REMARK INTER:                  -8.496
REMARK INTRA:                  -2.469
REMARK CONF_INDEPENDENT:        1.492
REMARK UNBOUND:                -2.469
REMARK  5 active torsions:
REMARK  status: ('A' for Active; 'I' for Inactive)
REMARK    1  A    between atoms: C_5  and  N_4 
REMARK    2  A    between atoms: C_17  and  N_19 
REMARK    3  A    between atoms: N_19  and  C_20 
REMARK    4  A    between atoms: C_20  and  C_21 
REMARK    5  A    between atoms: C_21  and  C_22 
ROOT
ATOM      1  C   UNL d   1      29.573 -11.997  -7.594  0.00  0.00     0.073 C 
ATOM      2  C   UNL d   1      28.739 -12.751  -6.608  0.00  0.00     0.069 C 
ATOM      3  N   UNL d   1      27.844 -12.175  -5.855  0.00  0.00    -0.171 NA
ATOM      4  N   UNL d   1      27.184 -13.204  -5.163  0.00  0.00    -0.200 N 
ATOM      5  C   UNL d   1      27.572 -14.475  -5.564  0.00  0.00     0.280 C 
ATOM      6  O   UNL d   1      27.089 -15.569  -5.292  0.00  0.00    -0.265 OA
ATOM      7  C   UNL d   1      28.786 -14.211  -6.388  0.00  0.00     0.081 C 
ATOM      8  C   UNL d   1      29.752 -15.111  -6.664  0.00  0.00     0.019 C 
ATOM      9  C   UNL d   1      31.081 -14.725  -7.304  0.00  0.00     0.069 C 
ENDROOT
BRANCH   8  10
ATOM     10  N   UNL d   1      29.655 -16.466  -6.334  0.00  0.00    -0.392 N 
ATOM     11  H   UNL d   1      28.903 -16.726  -5.687  0.00  0.00     0.159 HD
BRANCH  10  12
ATOM     12  C   UNL d   1      30.697 -17.416  -6.619  0.00  0.00     0.124 C 
BRANCH  12  13
ATOM     13  C   UNL d   1      30.440 -18.818  -6.117  0.00  0.00     0.057 C 
BRANCH  13  14
ATOM     14  C   UNL d   1      30.826 -18.977  -4.670  0.00  0.00    -0.044 A 
ATOM     15  C   UNL d   1      30.550 -18.200  -3.614  0.00  0.00    -0.005 A 
ATOM     16  C   UNL d   1      29.824 -16.987  -3.416  0.00  0.00     0.014 A 
ATOM     17  C   UNL d   1      31.155 -18.897  -2.458  0.00  0.00     0.039 A 
ATOM     18  C   UNL d   1      29.737 -16.457  -2.192  0.00  0.00     0.001 A 
ATOM     19  C   UNL d   1      30.333 -17.108  -1.046  0.00  0.00     0.002 A 
ATOM     20  C   UNL d   1      31.010 -18.270  -1.125  0.00  0.00     0.030 A 
ATOM     21  N   UNL d   1      31.731 -19.989  -2.799  0.00  0.00    -0.381 N 
ATOM     22  C   UNL d   1      31.616 -20.194  -4.264  0.00  0.00     0.108 A 
ATOM     23  H   UNL d   1      32.213 -20.598  -2.140  0.00  0.00     0.160 HD
ATOM     24  C   UNL d   1      30.852 -21.463  -4.590  0.00  0.00     0.037 C 
ENDBRANCH  13  14
ENDBRANCH  12  13
ENDBRANCH  10  12
ENDBRANCH   8  10
BRANCH   4  25
ATOM     25  C   UNL d   1      26.224 -12.934  -4.095  0.00  0.00     0.280 C 
ATOM     26  N   UNL d   1      26.882 -13.172  -2.824  0.00  0.00    -0.357 N 
ATOM     27  C   UNL d   1      26.442 -14.330  -2.196  0.00  0.00     0.047 A 
ATOM     28  H   UNL d   1      27.399 -12.450  -2.353  0.00  0.00     0.162 HD
ATOM     29  C   UNL d   1      27.109 -14.940  -1.143  0.00  0.00     0.030 A 
ATOM     30  C   UNL d   1      25.353 -14.982  -2.786  0.00  0.00     0.030 A 
ATOM     31  C   UNL d   1      26.656 -16.174  -0.660  0.00  0.00     0.002 A 
ATOM     32  C   UNL d   1      25.530 -16.787  -1.224  0.00  0.00     0.002 A 
ATOM     33  C   UNL d   1      24.868 -16.190  -2.297  0.00  0.00     0.021 A 
ATOM     34  S   UNL d   1      24.779 -14.073  -4.196  0.00  0.00    -0.079 SA
ENDBRANCH   4  25
TORSDOF 5
ENDMDL
MODEL 8
REMARK VINA RESULT:    -6.698      3.894      7.992
REMARK INTER + INTRA:         -11.086
REMARK INTER:                  -8.190
REMARK INTRA:                  -2.896
REMARK CONF_INDEPENDENT:        1.492
REMARK UNBOUND:                -2.896
REMARK  5 active torsions:
REMARK  status: ('A' for Active; 'I' for Inactive)
REMARK    1  A    between atoms: C_5  and  N_4 
REMARK    2  A    between atoms: C_17  and  N_19 
REMARK    3  A    between atoms: N_19  and  C_20 
REMARK    4  A    between atoms: C_20  and  C_21 
REMARK    5  A    between atoms: C_21  and  C_22 
ROOT
ATOM      1  C   UNL d   1      28.038 -13.424   3.303  0.00  0.00     0.073 C 
ATOM      2  C   UNL d   1      27.632 -13.782   1.909  0.00  0.00     0.069 C 
ATOM      3  N   UNL d   1      27.456 -15.015   1.521  0.00  0.00    -0.171 NA
ATOM      4  N   UNL d   1      26.961 -14.952   0.207  0.00  0.00    -0.200 N 
ATOM      5  C   UNL d   1      26.696 -13.659  -0.220  0.00  0.00     0.280 C 
ATOM      6  O   UNL d   1      26.115 -13.265  -1.226  0.00  0.00    -0.265 OA
ATOM      7  C   UNL d   1      27.345 -12.819   0.826  0.00  0.00     0.081 C 
ATOM      8  C   UNL d   1      27.722 -11.533   0.672  0.00  0.00     0.019 C 
ATOM      9  C   UNL d   1      28.593 -10.801   1.687  0.00  0.00     0.069 C 
ENDROOT
BRANCH   8  10
ATOM     10  N   UNL d   1      27.405 -10.771  -0.457  0.00  0.00    -0.392 N 
ATOM     11  H   UNL d   1      26.635 -11.115  -1.039  0.00  0.00     0.159 HD
BRANCH  10  12
ATOM     12  C   UNL d   1      28.266  -9.738  -0.969  0.00  0.00     0.124 C 
BRANCH  12  13
ATOM     13  C   UNL d   1      28.620  -9.868  -2.433  0.00  0.00     0.057 C 
BRANCH  13  14
ATOM     14  C   UNL d   1      27.605 -10.684  -3.187  0.00  0.00    -0.044 A 
ATOM     15  C   UNL d   1      27.556 -12.005  -3.413  0.00  0.00    -0.005 A 
ATOM     16  C   UNL d   1      28.375 -13.119  -3.061  0.00  0.00     0.014 A 
ATOM     17  C   UNL d   1      26.301 -12.217  -4.167  0.00  0.00     0.039 A 
ATOM     18  C   UNL d   1      28.031 -14.348  -3.458  0.00  0.00     0.001 A 
ATOM     19  C   UNL d   1      26.819 -14.584  -4.210  0.00  0.00     0.002 A 
ATOM     20  C   UNL d   1      25.965 -13.603  -4.565  0.00  0.00     0.030 A 
ATOM     21  N   UNL d   1      25.664 -11.124  -4.363  0.00  0.00    -0.381 N 
ATOM     22  C   UNL d   1      26.410  -9.983  -3.777  0.00  0.00     0.108 A 
ATOM     23  H   UNL d   1      24.785 -11.071  -4.875  0.00  0.00     0.160 HD
ATOM     24  C   UNL d   1      25.605  -9.290  -2.693  0.00  0.00     0.037 C 
ENDBRANCH  13  14
ENDBRANCH  12  13
ENDBRANCH  10  12
ENDBRANCH   8  10
BRANCH   4  25
ATOM     25  C   UNL d   1      26.800 -16.144  -0.622  0.00  0.00     0.280 C 
ATOM     26  N   UNL d   1      25.585 -15.992  -1.401  0.00  0.00    -0.357 N 
ATOM     27  C   UNL d   1      24.556 -16.815  -0.961  0.00  0.00     0.047 A 
ATOM     28  H   UNL d   1      25.585 -15.538  -2.297  0.00  0.00     0.162 HD
ATOM     29  C   UNL d   1      23.226 -16.650  -1.324  0.00  0.00     0.030 A 
ATOM     30  C   UNL d   1      24.885 -17.749   0.029  0.00  0.00     0.030 A 
ATOM     31  C   UNL d   1      22.243 -17.450  -0.728  0.00  0.00     0.002 A 
ATOM     32  C   UNL d   1      22.595 -18.420   0.219  0.00  0.00     0.002 A 
ATOM     33  C   UNL d   1      23.927 -18.575   0.604  0.00  0.00     0.021 A 
ATOM     34  S   UNL d   1      26.613 -17.656   0.414  0.00  0.00    -0.079 SA
ENDBRANCH   4  25
TORSDOF 5
ENDMDL
MODEL 9
REMARK VINA RESULT:    -6.575      2.912      8.558
REMARK INTER + INTRA:         -11.147
REMARK INTER:                  -8.067
REMARK INTRA:                  -3.080
REMARK CONF_INDEPENDENT:        1.492
REMARK UNBOUND:                -3.080
REMARK  5 active torsions:
REMARK  status: ('A' for Active; 'I' for Inactive)
REMARK    1  A    between atoms: C_5  and  N_4 
REMARK    2  A    between atoms: C_17  and  N_19 
REMARK    3  A    between atoms: N_19  and  C_20 
REMARK    4  A    between atoms: C_20  and  C_21 
REMARK    5  A    between atoms: C_21  and  C_22 
ROOT
ATOM      1  C   UNL d   1      29.404 -10.660  -1.524  0.00  0.00     0.073 C 
ATOM      2  C   UNL d   1      28.837 -11.897  -0.905  0.00  0.00     0.069 C 
ATOM      3  N   UNL d   1      29.453 -12.564   0.032  0.00  0.00    -0.171 NA
ATOM      4  N   UNL d   1      28.570 -13.574   0.448  0.00  0.00    -0.200 N 
ATOM      5  C   UNL d   1      27.315 -13.486  -0.139  0.00  0.00     0.280 C 
ATOM      6  O   UNL d   1      26.280 -14.092   0.117  0.00  0.00    -0.265 OA
ATOM      7  C   UNL d   1      27.525 -12.493  -1.231  0.00  0.00     0.081 C 
ATOM      8  C   UNL d   1      26.747 -12.362  -2.326  0.00  0.00     0.019 C 
ATOM      9  C   UNL d   1      27.143 -11.498  -3.519  0.00  0.00     0.069 C 
ENDROOT
BRANCH   8  10
ATOM     10  N   UNL d   1      25.543 -13.050  -2.499  0.00  0.00    -0.392 N 
ATOM     11  H   UNL d   1      25.066 -13.357  -1.645  0.00  0.00     0.159 HD
BRANCH  10  12
ATOM     12  C   UNL d   1      25.119 -13.576  -3.770  0.00  0.00     0.124 C 
BRANCH  12  13
ATOM     13  C   UNL d   1      25.740 -14.899  -4.153  0.00  0.00     0.057 C 
BRANCH  13  14
ATOM     14  C   UNL d   1      26.431 -15.555  -2.987  0.00  0.00    -0.044 A 
ATOM     15  C   UNL d   1      25.932 -16.324  -2.009  0.00  0.00    -0.005 A 
ATOM     16  C   UNL d   1      24.635 -16.821  -1.680  0.00  0.00     0.014 A 
ATOM     17  C   UNL d   1      27.102 -16.707  -1.189  0.00  0.00     0.039 A 
ATOM     18  C   UNL d   1      24.473 -17.591  -0.599  0.00  0.00     0.001 A 
ATOM     19  C   UNL d   1      25.596 -17.968   0.230  0.00  0.00     0.002 A 
ATOM     20  C   UNL d   1      26.862 -17.576  -0.015  0.00  0.00     0.030 A 
ATOM     21  N   UNL d   1      28.193 -16.214  -1.643  0.00  0.00    -0.381 N 
ATOM     22  C   UNL d   1      27.923 -15.395  -2.851  0.00  0.00     0.108 A 
ATOM     23  H   UNL d   1      29.100 -16.359  -1.203  0.00  0.00     0.160 HD
ATOM     24  C   UNL d   1      28.635 -15.950  -4.070  0.00  0.00     0.037 C 
ENDBRANCH  13  14
ENDBRANCH  12  13
ENDBRANCH  10  12
ENDBRANCH   8  10
BRANCH   4  25
ATOM     25  C   UNL d   1      28.975 -14.630   1.372  0.00  0.00     0.280 C 
ATOM     26  N   UNL d   1      27.921 -14.800   2.355  0.00  0.00    -0.357 N 
ATOM     27  C   UNL d   1      28.267 -14.311   3.608  0.00  0.00     0.047 A 
ATOM     28  H   UNL d   1      27.148 -15.423   2.200  0.00  0.00     0.162 HD
ATOM     29  C   UNL d   1      27.353 -14.074   4.626  0.00  0.00     0.030 A 
ATOM     30  C   UNL d   1      29.593 -13.890   3.767  0.00  0.00     0.030 A 
ATOM     31  C   UNL d   1      27.780 -13.459   5.809  0.00  0.00     0.002 A 
ATOM     32  C   UNL d   1      29.122 -13.095   5.976  0.00  0.00     0.002 A 
ATOM     33  C   UNL d   1      30.042 -13.311   4.948  0.00  0.00     0.021 A 
ATOM     34  S   UNL d   1      30.512 -14.169   2.278  0.00  0.00    -0.079 SA
ENDBRANCH   4  25
TORSDOF 5
ENDMDL
