MODEL 1
REMARK VINA RESULT:    -8.490      0.000      0.000
REMARK INTER + INTRA:         -10.560
REMARK INTER:                  -9.981
REMARK INTRA:                  -0.578
REMARK CONF_INDEPENDENT:        1.492
REMARK UNBOUND:                -0.578
REMARK  5 active torsions:
REMARK  status: ('A' for Active; 'I' for Inactive)
REMARK    1  A    between atoms: C_2  and  C_3 
REMARK       I    between atoms: C_2  and  N_13 
REMARK    2  A    between atoms: C_3  and  C_4 
REMARK    3  A    between atoms: N_13  and  N_14 
REMARK    4  A    between atoms: C_15  and  C_16 
REMARK    5  A    between atoms: C_17  and  C_18 
ROOT
ATOM      1  O   UNL d   1      28.135 -16.007  -1.952  0.00  0.00    -0.271 OA
ATOM      2  C   UNL d   1      26.935 -16.191  -1.716  0.00  0.00     0.241 C 
ATOM      3  N   UNL d   1      26.567 -16.518  -0.424  0.00  0.00    -0.247 N 
ATOM      4  H   UNL d   1      27.332 -16.575   0.241  0.00  0.00     0.192 HD
ENDROOT
BRANCH   2   5
ATOM      5  C   UNL d   1      25.823 -16.083  -2.755  0.00  0.00     0.145 C 
BRANCH   5   6
ATOM      6  C   UNL d   1      25.798 -14.786  -3.524  0.00  0.00    -0.021 A 
ATOM      7  C   UNL d   1      24.856 -13.775  -3.459  0.00  0.00     0.097 A 
ATOM      8  N   UNL d   1      25.227 -12.770  -4.311  0.00  0.00    -0.365 N 
ATOM      9  C   UNL d   1      26.352 -13.136  -5.013  0.00  0.00     0.042 A 
ATOM     10  H   UNL d   1      24.732 -11.897  -4.429  0.00  0.00     0.165 HD
ATOM     11  C   UNL d   1      27.047 -12.466  -6.030  0.00  0.00     0.030 A 
ATOM     12  C   UNL d   1      26.739 -14.388  -4.532  0.00  0.00    -0.001 A 
ATOM     13  C   UNL d   1      28.157 -13.112  -6.587  0.00  0.00     0.002 A 
ATOM     14  C   UNL d   1      28.572 -14.357  -6.121  0.00  0.00     0.001 A 
ATOM     15  C   UNL d   1      27.881 -14.996  -5.088  0.00  0.00     0.014 A 
ENDBRANCH   5   6
ENDBRANCH   2   5
BRANCH   3  16
ATOM     16  N   UNL d   1      25.280 -16.762  -0.038  0.00  0.00    -0.185 NA
ATOM     17  C   UNL d   1      24.769 -17.890  -0.429  0.00  0.00     0.139 C 
BRANCH  17  18
ATOM     18  C   UNL d   1      23.371 -18.251  -0.072  0.00  0.00     0.024 C 
ATOM     19  C   UNL d   1      22.612 -19.104  -0.781  0.00  0.00     0.039 C 
BRANCH  19  20
ATOM     20  C   UNL d   1      21.262 -19.365  -0.385  0.00  0.00     0.074 A 
ATOM     21  C   UNL d   1      20.689 -19.325   0.883  0.00  0.00     0.039 A 
ATOM     22  C   UNL d   1      19.325 -19.678   0.770  0.00  0.00     0.027 A 
ATOM     23  C   UNL d   1      19.112 -19.908  -0.565  0.00  0.00     0.142 A 
ATOM     24  O   UNL d   1      20.255 -19.700  -1.271  0.00  0.00    -0.323 OA
ENDBRANCH  19  20
ENDBRANCH  17  18
ENDBRANCH   3  16
TORSDOF 5
ENDMDL
MODEL 2
REMARK VINA RESULT:    -7.971      1.542      2.050
REMARK INTER + INTRA:         -10.172
REMARK INTER:                  -9.463
REMARK INTRA:                  -0.709
REMARK CONF_INDEPENDENT:        1.492
REMARK UNBOUND:                -0.709
REMARK  5 active torsions:
REMARK  status: ('A' for Active; 'I' for Inactive)
REMARK    1  A    between atoms: C_2  and  C_3 
REMARK       I    between atoms: C_2  and  N_13 
REMARK    2  A    between atoms: C_3  and  C_4 
REMARK    3  A    between atoms: N_13  and  N_14 
REMARK    4  A    between atoms: C_15  and  C_16 
REMARK    5  A    between atoms: C_17  and  C_18 
ROOT
ATOM      1  O   UNL d   1      28.801 -16.323  -0.327  0.00  0.00    -0.271 OA
ATOM      2  C   UNL d   1      27.623 -16.513  -0.003  0.00  0.00     0.241 C 
ATOM      3  N   UNL d   1      27.217 -17.809   0.251  0.00  0.00    -0.247 N 
ATOM      4  H   UNL d   1      27.940 -18.515   0.152  0.00  0.00     0.192 HD
ENDROOT
BRANCH   2   5
ATOM      5  C   UNL d   1      26.577 -15.411   0.139  0.00  0.00     0.145 C 
BRANCH   5   6
ATOM      6  C   UNL d   1      26.700 -14.288  -0.860  0.00  0.00    -0.021 A 
ATOM      7  C   UNL d   1      26.987 -12.957  -0.615  0.00  0.00     0.097 A 
ATOM      8  N   UNL d   1      27.019 -12.285  -1.808  0.00  0.00    -0.365 N 
ATOM      9  C   UNL d   1      26.666 -13.129  -2.836  0.00  0.00     0.042 A 
ATOM     10  H   UNL d   1      27.243 -11.306  -1.916  0.00  0.00     0.165 HD
ATOM     11  C   UNL d   1      26.500 -12.874  -4.204  0.00  0.00     0.030 A 
ATOM     12  C   UNL d   1      26.473 -14.392  -2.273  0.00  0.00    -0.001 A 
ATOM     13  C   UNL d   1      26.098 -13.942  -5.015  0.00  0.00     0.002 A 
ATOM     14  C   UNL d   1      25.906 -15.215  -4.485  0.00  0.00     0.001 A 
ATOM     15  C   UNL d   1      26.104 -15.453  -3.122  0.00  0.00     0.014 A 
ENDBRANCH   5   6
ENDBRANCH   2   5
BRANCH   3  16
ATOM     16  N   UNL d   1      25.942 -18.154   0.600  0.00  0.00    -0.185 NA
ATOM     17  C   UNL d   1      25.048 -18.068  -0.338  0.00  0.00     0.139 C 
BRANCH  17  18
ATOM     18  C   UNL d   1      23.627 -18.409  -0.062  0.00  0.00     0.024 C 
ATOM     19  C   UNL d   1      22.808 -18.988  -0.955  0.00  0.00     0.039 C 
BRANCH  19  20
ATOM     20  C   UNL d   1      21.442 -19.248  -0.616  0.00  0.00     0.074 A 
ATOM     21  C   UNL d   1      20.841 -19.326   0.638  0.00  0.00     0.039 A 
ATOM     22  C   UNL d   1      19.470 -19.620   0.460  0.00  0.00     0.027 A 
ATOM     23  C   UNL d   1      19.281 -19.698  -0.895  0.00  0.00     0.142 A 
ATOM     24  O   UNL d   1      20.445 -19.452  -1.552  0.00  0.00    -0.323 OA
ENDBRANCH  19  20
ENDBRANCH  17  18
ENDBRANCH   3  16
TORSDOF 5
ENDMDL
MODEL 3
REMARK VINA RESULT:    -7.774      1.590      2.153
REMARK INTER + INTRA:          -9.947
REMARK INTER:                  -9.266
REMARK INTRA:                  -0.681
REMARK CONF_INDEPENDENT:        1.492
REMARK UNBOUND:                -0.681
REMARK  5 active torsions:
REMARK  status: ('A' for Active; 'I' for Inactive)
REMARK    1  A    between atoms: C_2  and  C_3 
REMARK       I    between atoms: C_2  and  N_13 
REMARK    2  A    between atoms: C_3  and  C_4 
REMARK    3  A    between atoms: N_13  and  N_14 
REMARK    4  A    between atoms: C_15  and  C_16 
REMARK    5  A    between atoms: C_17  and  C_18 
ROOT
ATOM      1  O   UNL d   1      28.307 -16.088   0.117  0.00  0.00    -0.271 OA
ATOM      2  C   UNL d   1      27.112 -16.406   0.134  0.00  0.00     0.241 C 
ATOM      3  N   UNL d   1      26.780 -17.676   0.569  0.00  0.00    -0.247 N 
ATOM      4  H   UNL d   1      27.566 -18.254   0.850  0.00  0.00     0.192 HD
ENDROOT
BRANCH   2   5
ATOM      5  C   UNL d   1      25.967 -15.492  -0.292  0.00  0.00     0.145 C 
BRANCH   5   6
ATOM      6  C   UNL d   1      25.833 -15.298  -1.782  0.00  0.00    -0.021 A 
ATOM      7  C   UNL d   1      25.600 -16.259  -2.749  0.00  0.00     0.097 A 
ATOM      8  N   UNL d   1      25.531 -15.648  -3.972  0.00  0.00    -0.365 N 
ATOM      9  C   UNL d   1      25.807 -14.306  -3.847  0.00  0.00     0.042 A 
ATOM     10  H   UNL d   1      25.334 -16.118  -4.845  0.00  0.00     0.165 HD
ATOM     11  C   UNL d   1      25.915 -13.305  -4.822  0.00  0.00     0.030 A 
ATOM     12  C   UNL d   1      25.986 -14.056  -2.485  0.00  0.00    -0.001 A 
ATOM     13  C   UNL d   1      26.243 -12.015  -4.390  0.00  0.00     0.002 A 
ATOM     14  C   UNL d   1      26.420 -11.733  -3.038  0.00  0.00     0.001 A 
ATOM     15  C   UNL d   1      26.281 -12.740  -2.079  0.00  0.00     0.014 A 
ENDBRANCH   5   6
ENDBRANCH   2   5
BRANCH   3  16
ATOM     16  N   UNL d   1      25.502 -18.154   0.620  0.00  0.00    -0.185 NA
ATOM     17  C   UNL d   1      24.953 -18.445  -0.520  0.00  0.00     0.139 C 
BRANCH  17  18
ATOM     18  C   UNL d   1      23.560 -18.963  -0.579  0.00  0.00     0.024 C 
ATOM     19  C   UNL d   1      22.507 -18.349  -0.015  0.00  0.00     0.039 C 
BRANCH  19  20
ATOM     20  C   UNL d   1      21.205 -18.939  -0.089  0.00  0.00     0.074 A 
ATOM     21  C   UNL d   1      20.624 -19.904   0.729  0.00  0.00     0.039 A 
ATOM     22  C   UNL d   1      19.325 -20.178   0.245  0.00  0.00     0.027 A 
ATOM     23  C   UNL d   1      19.155 -19.361  -0.843  0.00  0.00     0.142 A 
ATOM     24  O   UNL d   1      20.262 -18.596  -1.038  0.00  0.00    -0.323 OA
ENDBRANCH  19  20
ENDBRANCH  17  18
ENDBRANCH   3  16
TORSDOF 5
ENDMDL
MODEL 4
REMARK VINA RESULT:    -7.322      3.692      5.333
REMARK INTER + INTRA:          -9.393
REMARK INTER:                  -8.813
REMARK INTRA:                  -0.579
REMARK CONF_INDEPENDENT:        1.492
REMARK UNBOUND:                -0.579
REMARK  5 active torsions:
REMARK  status: ('A' for Active; 'I' for Inactive)
REMARK    1  A    between atoms: C_2  and  C_3 
REMARK       I    between atoms: C_2  and  N_13 
REMARK    2  A    between atoms: C_3  and  C_4 
REMARK    3  A    between atoms: N_13  and  N_14 
REMARK    4  A    between atoms: C_15  and  C_16 
REMARK    5  A    between atoms: C_17  and  C_18 
ROOT
ATOM      1  O   UNL d   1      28.386 -15.030  -1.679  0.00  0.00    -0.271 OA
ATOM      2  C   UNL d   1      27.215 -15.188  -1.315  0.00  0.00     0.241 C 
ATOM      3  N   UNL d   1      26.491 -16.224  -1.876  0.00  0.00    -0.247 N 
ATOM      4  H   UNL d   1      26.997 -16.785  -2.554  0.00  0.00     0.192 HD
ENDROOT
BRANCH   2   5
ATOM      5  C   UNL d   1      26.505 -14.317  -0.283  0.00  0.00     0.145 C 
BRANCH   5   6
ATOM      6  C   UNL d   1      27.206 -14.214   1.050  0.00  0.00    -0.021 A 
ATOM      7  C   UNL d   1      27.841 -15.218   1.758  0.00  0.00     0.097 A 
ATOM      8  N   UNL d   1      28.358 -14.687   2.909  0.00  0.00    -0.365 N 
ATOM      9  C   UNL d   1      27.997 -13.365   3.024  0.00  0.00     0.042 A 
ATOM     10  H   UNL d   1      28.902 -15.198   3.590  0.00  0.00     0.165 HD
ATOM     11  C   UNL d   1      28.237 -12.443   4.052  0.00  0.00     0.030 A 
ATOM     12  C   UNL d   1      27.286 -13.038   1.868  0.00  0.00    -0.001 A 
ATOM     13  C   UNL d   1      27.709 -11.155   3.901  0.00  0.00     0.002 A 
ATOM     14  C   UNL d   1      27.004 -10.798   2.755  0.00  0.00     0.001 A 
ATOM     15  C   UNL d   1      26.799 -11.724   1.729  0.00  0.00     0.014 A 
ENDBRANCH   5   6
ENDBRANCH   2   5
BRANCH   3  16
ATOM     16  N   UNL d   1      25.187 -16.494  -1.572  0.00  0.00    -0.185 NA
ATOM     17  C   UNL d   1      24.973 -17.564  -0.867  0.00  0.00     0.139 C 
BRANCH  17  18
ATOM     18  C   UNL d   1      23.590 -17.957  -0.489  0.00  0.00     0.024 C 
ATOM     19  C   UNL d   1      22.868 -18.883  -1.142  0.00  0.00     0.039 C 
BRANCH  19  20
ATOM     20  C   UNL d   1      21.529 -19.173  -0.732  0.00  0.00     0.074 A 
ATOM     21  C   UNL d   1      21.010 -19.323   0.552  0.00  0.00     0.039 A 
ATOM     22  C   UNL d   1      19.632 -19.620   0.446  0.00  0.00     0.027 A 
ATOM     23  C   UNL d   1      19.357 -19.628  -0.897  0.00  0.00     0.142 A 
ATOM     24  O   UNL d   1      20.476 -19.336  -1.612  0.00  0.00    -0.323 OA
ENDBRANCH  19  20
ENDBRANCH  17  18
ENDBRANCH   3  16
TORSDOF 5
ENDMDL
MODEL 5
REMARK VINA RESULT:    -7.229      4.141      5.799
REMARK INTER + INTRA:          -9.393
REMARK INTER:                  -8.721
REMARK INTRA:                  -0.673
REMARK CONF_INDEPENDENT:        1.492
REMARK UNBOUND:                -0.673
REMARK  5 active torsions:
REMARK  status: ('A' for Active; 'I' for Inactive)
REMARK    1  A    between atoms: C_2  and  C_3 
REMARK       I    between atoms: C_2  and  N_13 
REMARK    2  A    between atoms: C_3  and  C_4 
REMARK    3  A    between atoms: N_13  and  N_14 
REMARK    4  A    between atoms: C_15  and  C_16 
REMARK    5  A    between atoms: C_17  and  C_18 
ROOT
ATOM      1  O   UNL d   1      29.042 -15.454   0.241  0.00  0.00    -0.271 OA
ATOM      2  C   UNL d   1      27.850 -15.736   0.413  0.00  0.00     0.241 C 
ATOM      3  N   UNL d   1      27.498 -17.071   0.470  0.00  0.00    -0.247 N 
ATOM      4  H   UNL d   1      28.267 -17.725   0.368  0.00  0.00     0.192 HD
ENDROOT
BRANCH   2   5
ATOM      5  C   UNL d   1      26.733 -14.710   0.569  0.00  0.00     0.145 C 
BRANCH   5   6
ATOM      6  C   UNL d   1      27.035 -13.583   1.526  0.00  0.00    -0.021 A 
ATOM      7  C   UNL d   1      26.958 -12.222   1.291  0.00  0.00     0.097 A 
ATOM      8  N   UNL d   1      27.302 -11.556   2.437  0.00  0.00    -0.365 N 
ATOM      9  C   UNL d   1      27.697 -12.452   3.404  0.00  0.00     0.042 A 
ATOM     10  H   UNL d   1      27.294 -10.552   2.549  0.00  0.00     0.165 HD
ATOM     11  C   UNL d   1      28.191 -12.233   4.697  0.00  0.00     0.030 A 
ATOM     12  C   UNL d   1      27.528 -13.728   2.865  0.00  0.00    -0.001 A 
ATOM     13  C   UNL d   1      28.547 -13.358   5.451  0.00  0.00     0.002 A 
ATOM     14  C   UNL d   1      28.380 -14.644   4.944  0.00  0.00     0.001 A 
ATOM     15  C   UNL d   1      27.861 -14.841   3.662  0.00  0.00     0.014 A 
ENDBRANCH   5   6
ENDBRANCH   2   5
BRANCH   3  16
ATOM     16  N   UNL d   1      26.217 -17.514   0.639  0.00  0.00    -0.185 NA
ATOM     17  C   UNL d   1      25.652 -18.046  -0.403  0.00  0.00     0.139 C 
BRANCH  17  18
ATOM     18  C   UNL d   1      24.255 -18.551  -0.332  0.00  0.00     0.024 C 
ATOM     19  C   UNL d   1      23.173 -17.805  -0.609  0.00  0.00     0.039 C 
BRANCH  19  20
ATOM     20  C   UNL d   1      21.862 -18.363  -0.478  0.00  0.00     0.074 A 
ATOM     21  C   UNL d   1      21.398 -19.334   0.407  0.00  0.00     0.039 A 
ATOM     22  C   UNL d   1      20.030 -19.567   0.139  0.00  0.00     0.027 A 
ATOM     23  C   UNL d   1      19.705 -18.721  -0.890  0.00  0.00     0.142 A 
ATOM     24  O   UNL d   1      20.784 -17.977  -1.252  0.00  0.00    -0.323 OA
ENDBRANCH  19  20
ENDBRANCH  17  18
ENDBRANCH   3  16
TORSDOF 5
ENDMDL
MODEL 6
REMARK VINA RESULT:    -7.058      1.637      2.506
REMARK INTER + INTRA:          -9.425
REMARK INTER:                  -8.550
REMARK INTRA:                  -0.875
REMARK CONF_INDEPENDENT:        1.492
REMARK UNBOUND:                -0.875
REMARK  5 active torsions:
REMARK  status: ('A' for Active; 'I' for Inactive)
REMARK    1  A    between atoms: C_2  and  C_3 
REMARK       I    between atoms: C_2  and  N_13 
REMARK    2  A    between atoms: C_3  and  C_4 
REMARK    3  A    between atoms: N_13  and  N_14 
REMARK    4  A    between atoms: C_15  and  C_16 
REMARK    5  A    between atoms: C_17  and  C_18 
ROOT
ATOM      1  O   UNL d   1      29.435 -15.926  -0.148  0.00  0.00    -0.271 OA
ATOM      2  C   UNL d   1      28.454 -16.647  -0.367  0.00  0.00     0.241 C 
ATOM      3  N   UNL d   1      27.724 -17.101   0.715  0.00  0.00    -0.247 N 
ATOM      4  H   UNL d   1      28.060 -16.793   1.622  0.00  0.00     0.192 HD
ENDROOT
BRANCH   2   5
ATOM      5  C   UNL d   1      27.987 -17.073  -1.755  0.00  0.00     0.145 C 
BRANCH   5   6
ATOM      6  C   UNL d   1      27.883 -15.954  -2.761  0.00  0.00    -0.021 A 
ATOM      7  C   UNL d   1      28.896 -15.386  -3.513  0.00  0.00     0.097 A 
ATOM      8  N   UNL d   1      28.360 -14.412  -4.312  0.00  0.00    -0.365 N 
ATOM      9  C   UNL d   1      27.021 -14.258  -4.037  0.00  0.00     0.042 A 
ATOM     10  H   UNL d   1      28.878 -13.866  -4.987  0.00  0.00     0.165 HD
ATOM     11  C   UNL d   1      26.087 -13.349  -4.552  0.00  0.00     0.030 A 
ATOM     12  C   UNL d   1      26.692 -15.219  -3.080  0.00  0.00    -0.001 A 
ATOM     13  C   UNL d   1      24.781 -13.411  -4.050  0.00  0.00     0.002 A 
ATOM     14  C   UNL d   1      24.421 -14.364  -3.101  0.00  0.00     0.001 A 
ATOM     15  C   UNL d   1      25.362 -15.279  -2.621  0.00  0.00     0.014 A 
ENDBRANCH   5   6
ENDBRANCH   2   5
BRANCH   3  16
ATOM     16  N   UNL d   1      26.632 -17.915   0.609  0.00  0.00    -0.185 NA
ATOM     17  C   UNL d   1      25.524 -17.344   0.245  0.00  0.00     0.139 C 
BRANCH  17  18
ATOM     18  C   UNL d   1      24.273 -18.135   0.109  0.00  0.00     0.024 C 
ATOM     19  C   UNL d   1      23.132 -17.651  -0.407  0.00  0.00     0.039 C 
BRANCH  19  20
ATOM     20  C   UNL d   1      21.962 -18.474  -0.465  0.00  0.00     0.074 A 
ATOM     21  C   UNL d   1      21.167 -18.956   0.571  0.00  0.00     0.039 A 
ATOM     22  C   UNL d   1      20.132 -19.741   0.015  0.00  0.00     0.027 A 
ATOM     23  C   UNL d   1      20.325 -19.700  -1.342  0.00  0.00     0.142 A 
ATOM     24  O   UNL d   1      21.400 -18.925  -1.645  0.00  0.00    -0.323 OA
ENDBRANCH  19  20
ENDBRANCH  17  18
ENDBRANCH   3  16
TORSDOF 5
ENDMDL
MODEL 7
REMARK VINA RESULT:    -7.033      2.943      8.749
REMARK INTER + INTRA:          -9.225
REMARK INTER:                  -8.525
REMARK INTRA:                  -0.700
REMARK CONF_INDEPENDENT:        1.492
REMARK UNBOUND:                -0.700
REMARK  5 active torsions:
REMARK  status: ('A' for Active; 'I' for Inactive)
REMARK    1  A    between atoms: C_2  and  C_3 
REMARK       I    between atoms: C_2  and  N_13 
REMARK    2  A    between atoms: C_3  and  C_4 
REMARK    3  A    between atoms: N_13  and  N_14 
REMARK    4  A    between atoms: C_15  and  C_16 
REMARK    5  A    between atoms: C_17  and  C_18 
ROOT
ATOM      1  O   UNL d   1      24.385 -14.091  -3.516  0.00  0.00    -0.271 OA
ATOM      2  C   UNL d   1      25.524 -14.510  -3.753  0.00  0.00     0.241 C 
ATOM      3  N   UNL d   1      25.785 -15.011  -5.015  0.00  0.00    -0.247 N 
ATOM      4  H   UNL d   1      25.000 -14.987  -5.659  0.00  0.00     0.192 HD
ENDROOT
BRANCH   2   5
ATOM      5  C   UNL d   1      26.672 -14.514  -2.749  0.00  0.00     0.145 C 
BRANCH   5   6
ATOM      6  C   UNL d   1      26.701 -15.706  -1.824  0.00  0.00    -0.021 A 
ATOM      7  C   UNL d   1      27.807 -16.380  -1.339  0.00  0.00     0.097 A 
ATOM      8  N   UNL d   1      27.383 -17.390  -0.517  0.00  0.00    -0.365 N 
ATOM      9  C   UNL d   1      26.009 -17.458  -0.521  0.00  0.00     0.042 A 
ATOM     10  H   UNL d   1      27.990 -18.013  -0.004  0.00  0.00     0.165 HD
ATOM     11  C   UNL d   1      25.141 -18.360   0.109  0.00  0.00     0.030 A 
ATOM     12  C   UNL d   1      25.555 -16.407  -1.321  0.00  0.00    -0.001 A 
ATOM     13  C   UNL d   1      23.768 -18.195  -0.108  0.00  0.00     0.002 A 
ATOM     14  C   UNL d   1      23.286 -17.151  -0.893  0.00  0.00     0.001 A 
ATOM     15  C   UNL d   1      24.167 -16.246  -1.491  0.00  0.00     0.014 A 
ENDBRANCH   5   6
ENDBRANCH   2   5
BRANCH   3  16
ATOM     16  N   UNL d   1      26.994 -15.517  -5.399  0.00  0.00    -0.185 NA
ATOM     17  C   UNL d   1      27.797 -14.691  -5.998  0.00  0.00     0.139 C 
BRANCH  17  18
ATOM     18  C   UNL d   1      29.134 -15.142  -6.467  0.00  0.00     0.024 C 
ATOM     19  C   UNL d   1      29.682 -16.325  -6.145  0.00  0.00     0.039 C 
BRANCH  19  20
ATOM     20  C   UNL d   1      30.993 -16.662  -6.611  0.00  0.00     0.074 A 
ATOM     21  C   UNL d   1      32.233 -16.218  -6.161  0.00  0.00     0.039 A 
ATOM     22  C   UNL d   1      33.239 -16.823  -6.948  0.00  0.00     0.027 A 
ATOM     23  C   UNL d   1      32.577 -17.624  -7.842  0.00  0.00     0.142 A 
ATOM     24  O   UNL d   1      31.235 -17.558  -7.635  0.00  0.00    -0.323 OA
ENDBRANCH  19  20
ENDBRANCH  17  18
ENDBRANCH   3  16
TORSDOF 5
ENDMDL
MODEL 8
REMARK VINA RESULT:    -6.968      2.241      3.101
REMARK INTER + INTRA:          -9.131
REMARK INTER:                  -8.460
REMARK INTRA:                  -0.671
REMARK CONF_INDEPENDENT:        1.492
REMARK UNBOUND:                -0.671
REMARK  5 active torsions:
REMARK  status: ('A' for Active; 'I' for Inactive)
REMARK    1  A    between atoms: C_2  and  C_3 
REMARK       I    between atoms: C_2  and  N_13 
REMARK    2  A    between atoms: C_3  and  C_4 
REMARK    3  A    between atoms: N_13  and  N_14 
REMARK    4  A    between atoms: C_15  and  C_16 
REMARK    5  A    between atoms: C_17  and  C_18 
ROOT
ATOM      1  O   UNL d   1      28.498 -13.640  -2.590  0.00  0.00    -0.271 OA
ATOM      2  C   UNL d   1      27.444 -14.279  -2.695  0.00  0.00     0.241 C 
ATOM      3  N   UNL d   1      26.743 -14.574  -1.541  0.00  0.00    -0.247 N 
ATOM      4  H   UNL d   1      27.160 -14.228  -0.682  0.00  0.00     0.192 HD
ENDROOT
BRANCH   2   5
ATOM      5  C   UNL d   1      26.857 -14.769  -4.015  0.00  0.00     0.145 C 
BRANCH   5   6
ATOM      6  C   UNL d   1      27.856 -14.920  -5.136  0.00  0.00    -0.021 A 
ATOM      7  C   UNL d   1      27.847 -14.303  -6.374  0.00  0.00     0.097 A 
ATOM      8  N   UNL d   1      28.949 -14.709  -7.077  0.00  0.00    -0.365 N 
ATOM      9  C   UNL d   1      29.643 -15.659  -6.364  0.00  0.00     0.042 A 
ATOM     10  H   UNL d   1      29.202 -14.381  -7.999  0.00  0.00     0.165 HD
ATOM     11  C   UNL d   1      30.783 -16.399  -6.704  0.00  0.00     0.030 A 
ATOM     12  C   UNL d   1      28.988 -15.801  -5.139  0.00  0.00    -0.001 A 
ATOM     13  C   UNL d   1      31.251 -17.331  -5.771  0.00  0.00     0.002 A 
ATOM     14  C   UNL d   1      30.625 -17.489  -4.538  0.00  0.00     0.001 A 
ATOM     15  C   UNL d   1      29.504 -16.722  -4.206  0.00  0.00     0.014 A 
ENDBRANCH   5   6
ENDBRANCH   2   5
BRANCH   3  16
ATOM     16  N   UNL d   1      25.577 -15.285  -1.519  0.00  0.00    -0.185 NA
ATOM     17  C   UNL d   1      25.672 -16.530  -1.160  0.00  0.00     0.139 C 
BRANCH  17  18
ATOM     18  C   UNL d   1      24.465 -17.398  -1.112  0.00  0.00     0.024 C 
ATOM     19  C   UNL d   1      23.238 -16.959  -0.788  0.00  0.00     0.039 C 
BRANCH  19  20
ATOM     20  C   UNL d   1      22.138 -17.873  -0.730  0.00  0.00     0.074 A 
ATOM     21  C   UNL d   1      22.125 -19.219  -0.376  0.00  0.00     0.039 A 
ATOM     22  C   UNL d   1      20.801 -19.700  -0.488  0.00  0.00     0.027 A 
ATOM     23  C   UNL d   1      20.051 -18.626  -0.895  0.00  0.00     0.142 A 
ATOM     24  O   UNL d   1      20.834 -17.521  -1.019  0.00  0.00    -0.323 OA
ENDBRANCH  19  20
ENDBRANCH  17  18
ENDBRANCH   3  16
TORSDOF 5
ENDMDL
MODEL 9
REMARK VINA RESULT:    -6.326      3.664      7.317
REMARK INTER + INTRA:          -9.076
REMARK INTER:                  -7.817
REMARK INTRA:                  -1.259
REMARK CONF_INDEPENDENT:        1.492
REMARK UNBOUND:                -1.259
REMARK  5 active torsions:
REMARK  status: ('A' for Active; 'I' for Inactive)
REMARK    1  A    between atoms: C_2  and  C_3 
REMARK       I    between atoms: C_2  and  N_13 
REMARK    2  A    between atoms: C_3  and  C_4 
REMARK    3  A    between atoms: N_13  and  N_14 
REMARK    4  A    between atoms: C_15  and  C_16 
REMARK    5  A    between atoms: C_17  and  C_18 
ROOT
ATOM      1  O   UNL d   1      25.523 -14.822  -4.500  0.00  0.00    -0.271 OA
ATOM      2  C   UNL d   1      26.280 -14.671  -3.534  0.00  0.00     0.241 C 
ATOM      3  N   UNL d   1      25.992 -13.664  -2.631  0.00  0.00    -0.247 N 
ATOM      4  H   UNL d   1      25.158 -13.123  -2.839  0.00  0.00     0.192 HD
ENDROOT
BRANCH   2   5
ATOM      5  C   UNL d   1      27.518 -15.520  -3.263  0.00  0.00     0.145 C 
BRANCH   5   6
ATOM      6  C   UNL d   1      27.467 -16.328  -1.990  0.00  0.00    -0.021 A 
ATOM      7  C   UNL d   1      28.526 -16.773  -1.221  0.00  0.00     0.097 A 
ATOM      8  N   UNL d   1      28.032 -17.454  -0.140  0.00  0.00    -0.365 N 
ATOM      9  C   UNL d   1      26.662 -17.550  -0.227  0.00  0.00     0.042 A 
ATOM     10  H   UNL d   1      28.592 -17.854   0.599  0.00  0.00     0.165 HD
ATOM     11  C   UNL d   1      25.742 -18.204   0.603  0.00  0.00     0.030 A 
ATOM     12  C   UNL d   1      26.280 -16.842  -1.368  0.00  0.00    -0.001 A 
ATOM     13  C   UNL d   1      24.392 -18.153   0.237  0.00  0.00     0.002 A 
ATOM     14  C   UNL d   1      23.979 -17.447  -0.890  0.00  0.00     0.001 A 
ATOM     15  C   UNL d   1      24.910 -16.779  -1.690  0.00  0.00     0.014 A 
ENDBRANCH   5   6
ENDBRANCH   2   5
BRANCH   3  16
ATOM     16  N   UNL d   1      26.756 -13.383  -1.534  0.00  0.00    -0.185 NA
ATOM     17  C   UNL d   1      26.278 -13.768  -0.389  0.00  0.00     0.139 C 
BRANCH  17  18
ATOM     18  C   UNL d   1      27.024 -13.503   0.869  0.00  0.00     0.024 C 
ATOM     19  C   UNL d   1      27.410 -14.461   1.729  0.00  0.00     0.039 C 
BRANCH  19  20
ATOM     20  C   UNL d   1      28.093 -14.112   2.937  0.00  0.00     0.074 A 
ATOM     21  C   UNL d   1      28.191 -14.819   4.133  0.00  0.00     0.039 A 
ATOM     22  C   UNL d   1      28.959 -14.056   5.042  0.00  0.00     0.027 A 
ATOM     23  C   UNL d   1      29.312 -12.918   4.364  0.00  0.00     0.142 A 
ATOM     24  O   UNL d   1      28.823 -12.949   3.096  0.00  0.00    -0.323 OA
ENDBRANCH  19  20
ENDBRANCH  17  18
ENDBRANCH   3  16
TORSDOF 5
ENDMDL
