MODEL 1
REMARK VINA RESULT:   -11.302      0.000      0.000
REMARK INTER + INTRA:         -14.111
REMARK INTER:                 -12.793
REMARK INTRA:                  -1.318
REMARK CONF_INDEPENDENT:        1.492
REMARK UNBOUND:                -1.318
REMARK  5 active torsions:
REMARK  status: ('A' for Active; 'I' for Inactive)
REMARK       I    between atoms: C_2  and  N_4 
REMARK    1  A    between atoms: N_4  and  C_5 
REMARK    2  A    between atoms: C_8  and  C_9 
REMARK    3  A    between atoms: C_9  and  N_10 
REMARK    4  A    between atoms: C_18  and  C_19 
REMARK    5  A    between atoms: C_21  and  C_22 
ROOT
ATOM      1  N   UNL d   1      26.008 -15.085  -1.308  0.00  0.00    -0.391 N 
ATOM      2  C   UNL d   1      26.539 -15.373   0.049  0.00  0.00     0.177 C 
ATOM      3  C   UNL d   1      27.671 -14.551   0.453  0.00  0.00     0.050 A 
ATOM      4  N   UNL d   1      28.549 -14.782   1.492  0.00  0.00    -0.353 N 
ATOM      5  C   UNL d   1      29.489 -13.836   1.515  0.00  0.00     0.181 A 
ATOM      6  N   UNL d   1      29.258 -13.047   0.458  0.00  0.00    -0.354 N 
ATOM      7  C   UNL d   1      28.165 -13.498  -0.260  0.00  0.00     0.036 A 
ATOM      8  C   UNL d   1      27.620 -12.990  -1.536  0.00  0.00     0.092 C 
ATOM      9  C   UNL d   1      26.622 -14.005  -2.226  0.00  0.00     0.165 C 
ATOM     10  H   UNL d   1      28.506 -15.575   2.133  0.00  0.00     0.166 HD
ATOM     11  H   UNL d   1      29.831 -12.243   0.215  0.00  0.00     0.166 HD
ENDROOT
BRANCH   9  12
ATOM     12  C   UNL d   1      27.219 -14.419  -3.641  0.00  0.00     0.196 C 
ATOM     13  N   UNL d   1      28.455 -14.349  -4.128  0.00  0.00    -0.202 NA
ATOM     14  C   UNL d   1      28.414 -15.128  -5.288  0.00  0.00     0.189 C 
ATOM     15  N   UNL d   1      27.148 -15.403  -5.647  0.00  0.00    -0.105 NA
ATOM     16  O   UNL d   1      26.364 -14.963  -4.563  0.00  0.00    -0.194 OA
BRANCH  14  17
ATOM     17  C   UNL d   1      29.605 -15.522  -6.105  0.00  0.00     0.016 A 
ATOM     18  C   UNL d   1      30.408 -14.613  -6.833  0.00  0.00     0.018 A 
ATOM     19  C   UNL d   1      31.492 -15.029  -7.645  0.00  0.00     0.045 A 
ATOM     20  C   UNL d   1      31.873 -16.359  -7.643  0.00  0.00     0.138 A 
ATOM     21  F   UNL d   1      32.950 -16.732  -8.355  0.00  0.00    -0.204 F 
ATOM     22  C   UNL d   1      31.154 -17.267  -6.877  0.00  0.00     0.073 A 
ATOM     23 CL   UNL d   1      31.628 -18.922  -6.842  0.00  0.00    -0.081 Cl
ATOM     24  C   UNL d   1      30.029 -16.856  -6.128  0.00  0.00     0.042 A 
ENDBRANCH  14  17
ENDBRANCH   9  12
BRANCH   1  25
ATOM     25  C   UNL d   1      25.677 -16.391  -1.911  0.00  0.00     0.156 C 
BRANCH  25  26
ATOM     26  C   UNL d   1      24.499 -17.076  -1.238  0.00  0.00    -0.041 C 
ATOM     27  C   UNL d   1      23.245 -16.487  -1.155  0.00  0.00     0.011 C 
ATOM     28  C   UNL d   1      22.188 -17.175  -0.525  0.00  0.00     0.030 C 
ATOM     29  C   UNL d   1      22.359 -18.482  -0.046  0.00  0.00     0.034 C 
ATOM     30  C   UNL d   1      23.596 -19.065  -0.145  0.00  0.00     0.030 C 
ATOM     31  C   UNL d   1      24.643 -18.328  -0.626  0.00  0.00     0.011 C 
BRANCH  29  32
ATOM     32  N   UNL d   1      21.293 -19.265   0.428  0.00  0.00    -0.328 N 
ATOM     33  C   UNL d   1      20.295 -19.745  -0.420  0.00  0.00     0.218 C 
ATOM     34  C   UNL d   1      19.194 -20.482   0.283  0.00  0.00     0.117 C 
ATOM     35  O   UNL d   1      20.285 -19.644  -1.636  0.00  0.00    -0.274 OA
ATOM     36  H   UNL d   1      21.268 -19.479   1.414  0.00  0.00     0.169 HD
ENDBRANCH  29  32
ENDBRANCH  25  26
ENDBRANCH   1  25
TORSDOF 5
ENDMDL
MODEL 2
REMARK VINA RESULT:   -11.148      1.032      1.323
REMARK INTER + INTRA:         -13.957
REMARK INTER:                 -12.640
REMARK INTRA:                  -1.317
REMARK CONF_INDEPENDENT:        1.492
REMARK UNBOUND:                -1.317
REMARK  5 active torsions:
REMARK  status: ('A' for Active; 'I' for Inactive)
REMARK       I    between atoms: C_2  and  N_4 
REMARK    1  A    between atoms: N_4  and  C_5 
REMARK    2  A    between atoms: C_8  and  C_9 
REMARK    3  A    between atoms: C_9  and  N_10 
REMARK    4  A    between atoms: C_18  and  C_19 
REMARK    5  A    between atoms: C_21  and  C_22 
ROOT
ATOM      1  N   UNL d   1      25.954 -15.098  -1.194  0.00  0.00    -0.391 N 
ATOM      2  C   UNL d   1      26.513 -15.396   0.149  0.00  0.00     0.177 C 
ATOM      3  C   UNL d   1      27.622 -14.545   0.556  0.00  0.00     0.050 A 
ATOM      4  N   UNL d   1      28.521 -14.769   1.578  0.00  0.00    -0.353 N 
ATOM      5  C   UNL d   1      29.430 -13.793   1.609  0.00  0.00     0.181 A 
ATOM      6  N   UNL d   1      29.159 -12.990   0.572  0.00  0.00    -0.354 N 
ATOM      7  C   UNL d   1      28.071 -13.462  -0.141  0.00  0.00     0.036 A 
ATOM      8  C   UNL d   1      27.493 -12.946  -1.399  0.00  0.00     0.092 C 
ATOM      9  C   UNL d   1      26.519 -13.979  -2.097  0.00  0.00     0.165 C 
ATOM     10  H   UNL d   1      28.514 -15.576   2.203  0.00  0.00     0.166 HD
ATOM     11  H   UNL d   1      29.702 -12.163   0.339  0.00  0.00     0.166 HD
ENDROOT
BRANCH   9  12
ATOM     12  C   UNL d   1      27.111 -14.343  -3.528  0.00  0.00     0.196 C 
ATOM     13  N   UNL d   1      28.341 -14.241  -4.023  0.00  0.00    -0.202 NA
ATOM     14  C   UNL d   1      28.302 -14.987  -5.205  0.00  0.00     0.189 C 
ATOM     15  N   UNL d   1      27.037 -15.271  -5.561  0.00  0.00    -0.105 NA
ATOM     16  O   UNL d   1      26.255 -14.874  -4.458  0.00  0.00    -0.194 OA
BRANCH  14  17
ATOM     17  C   UNL d   1      29.492 -15.339  -6.042  0.00  0.00     0.016 A 
ATOM     18  C   UNL d   1      30.027 -16.643  -6.157  0.00  0.00     0.018 A 
ATOM     19  C   UNL d   1      31.192 -16.930  -6.911  0.00  0.00     0.045 A 
ATOM     20  C   UNL d   1      31.773 -15.931  -7.672  0.00  0.00     0.138 A 
ATOM     21  F   UNL d   1      32.830 -16.229  -8.445  0.00  0.00    -0.204 F 
ATOM     22  C   UNL d   1      31.225 -14.654  -7.643  0.00  0.00     0.073 A 
ATOM     23 CL   UNL d   1      31.919 -13.404  -8.602  0.00  0.00    -0.081 Cl
ATOM     24  C   UNL d   1      30.108 -14.361  -6.831  0.00  0.00     0.042 A 
ENDBRANCH  14  17
ENDBRANCH   9  12
BRANCH   1  25
ATOM     25  C   UNL d   1      25.658 -16.402  -1.820  0.00  0.00     0.156 C 
BRANCH  25  26
ATOM     26  C   UNL d   1      24.477 -17.114  -1.182  0.00  0.00    -0.041 C 
ATOM     27  C   UNL d   1      23.215 -16.542  -1.111  0.00  0.00     0.011 C 
ATOM     28  C   UNL d   1      22.155 -17.256  -0.513  0.00  0.00     0.030 C 
ATOM     29  C   UNL d   1      22.335 -18.570  -0.057  0.00  0.00     0.034 C 
ATOM     30  C   UNL d   1      23.580 -19.136  -0.145  0.00  0.00     0.030 C 
ATOM     31  C   UNL d   1      24.625 -18.377  -0.593  0.00  0.00     0.011 C 
BRANCH  29  32
ATOM     32  N   UNL d   1      21.270 -19.375   0.382  0.00  0.00    -0.328 N 
ATOM     33  C   UNL d   1      20.282 -19.832  -0.490  0.00  0.00     0.218 C 
ATOM     34  C   UNL d   1      19.180 -20.599   0.181  0.00  0.00     0.117 C 
ATOM     35  O   UNL d   1      20.280 -19.691  -1.701  0.00  0.00    -0.274 OA
ATOM     36  H   UNL d   1      21.239 -19.622   1.360  0.00  0.00     0.169 HD
ENDBRANCH  29  32
ENDBRANCH  25  26
ENDBRANCH   1  25
TORSDOF 5
ENDMDL
MODEL 3
REMARK VINA RESULT:   -11.018      0.864      1.258
REMARK INTER + INTRA:         -13.852
REMARK INTER:                 -12.510
REMARK INTRA:                  -1.343
REMARK CONF_INDEPENDENT:        1.492
REMARK UNBOUND:                -1.343
REMARK  5 active torsions:
REMARK  status: ('A' for Active; 'I' for Inactive)
REMARK       I    between atoms: C_2  and  N_4 
REMARK    1  A    between atoms: N_4  and  C_5 
REMARK    2  A    between atoms: C_8  and  C_9 
REMARK    3  A    between atoms: C_9  and  N_10 
REMARK    4  A    between atoms: C_18  and  C_19 
REMARK    5  A    between atoms: C_21  and  C_22 
ROOT
ATOM      1  N   UNL d   1      25.692 -14.821  -1.260  0.00  0.00    -0.391 N 
ATOM      2  C   UNL d   1      26.311 -14.572   0.068  0.00  0.00     0.177 C 
ATOM      3  C   UNL d   1      27.043 -13.318   0.178  0.00  0.00     0.050 A 
ATOM      4  N   UNL d   1      27.955 -12.960   1.149  0.00  0.00    -0.353 N 
ATOM      5  C   UNL d   1      28.458 -11.754   0.882  0.00  0.00     0.181 A 
ATOM      6  N   UNL d   1      27.927 -11.373  -0.287  0.00  0.00    -0.354 N 
ATOM      7  C   UNL d   1      27.083 -12.350  -0.783  0.00  0.00     0.036 A 
ATOM      8  C   UNL d   1      26.368 -12.389  -2.076  0.00  0.00     0.092 C 
ATOM      9  C   UNL d   1      25.830 -13.833  -2.438  0.00  0.00     0.165 C 
ATOM     10  H   UNL d   1      28.230 -13.542   1.941  0.00  0.00     0.166 HD
ATOM     11  H   UNL d   1      28.143 -10.492  -0.747  0.00  0.00     0.166 HD
ENDROOT
BRANCH   9  12
ATOM     12  C   UNL d   1      26.523 -14.306  -3.789  0.00  0.00     0.196 C 
ATOM     13  N   UNL d   1      27.715 -14.029  -4.310  0.00  0.00    -0.202 NA
ATOM     14  C   UNL d   1      27.868 -14.962  -5.340  0.00  0.00     0.189 C 
ATOM     15  N   UNL d   1      26.703 -15.571  -5.624  0.00  0.00    -0.105 NA
ATOM     16  O   UNL d   1      25.826 -15.164  -4.599  0.00  0.00    -0.194 OA
BRANCH  14  17
ATOM     17  C   UNL d   1      29.127 -15.192  -6.117  0.00  0.00     0.016 A 
ATOM     18  C   UNL d   1      29.837 -14.177  -6.799  0.00  0.00     0.018 A 
ATOM     19  C   UNL d   1      30.993 -14.441  -7.576  0.00  0.00     0.045 A 
ATOM     20  C   UNL d   1      31.534 -15.714  -7.580  0.00  0.00     0.138 A 
ATOM     21  F   UNL d   1      32.673 -15.938  -8.256  0.00  0.00    -0.204 F 
ATOM     22  C   UNL d   1      30.905 -16.718  -6.856  0.00  0.00     0.073 A 
ATOM     23 CL   UNL d   1      31.577 -18.303  -6.828  0.00  0.00    -0.081 Cl
ATOM     24  C   UNL d   1      29.712 -16.463  -6.144  0.00  0.00     0.042 A 
ENDBRANCH  14  17
ENDBRANCH   9  12
BRANCH   1  25
ATOM     25  C   UNL d   1      25.884 -16.258  -1.543  0.00  0.00     0.156 C 
BRANCH  25  26
ATOM     26  C   UNL d   1      24.715 -17.115  -1.085  0.00  0.00    -0.041 C 
ATOM     27  C   UNL d   1      24.889 -18.389  -0.561  0.00  0.00     0.011 C 
ATOM     28  C   UNL d   1      23.766 -19.134  -0.145  0.00  0.00     0.030 C 
ATOM     29  C   UNL d   1      22.478 -18.580  -0.179  0.00  0.00     0.034 C 
ATOM     30  C   UNL d   1      22.314 -17.316  -0.682  0.00  0.00     0.030 C 
ATOM     31  C   UNL d   1      23.394 -16.667  -1.214  0.00  0.00     0.011 C 
BRANCH  29  32
ATOM     32  N   UNL d   1      21.360 -19.219   0.385  0.00  0.00    -0.328 N 
ATOM     33  C   UNL d   1      20.303 -19.683  -0.396  0.00  0.00     0.218 C 
ATOM     34  C   UNL d   1      19.160 -20.252   0.393  0.00  0.00     0.117 C 
ATOM     35  O   UNL d   1      20.270 -19.695  -1.615  0.00  0.00    -0.274 OA
ATOM     36  H   UNL d   1      21.342 -19.338   1.388  0.00  0.00     0.169 HD
ENDBRANCH  29  32
ENDBRANCH  25  26
ENDBRANCH   1  25
TORSDOF 5
ENDMDL
MODEL 4
REMARK VINA RESULT:   -10.481      2.623      3.121
REMARK INTER + INTRA:         -13.380
REMARK INTER:                 -11.973
REMARK INTRA:                  -1.408
REMARK CONF_INDEPENDENT:        1.492
REMARK UNBOUND:                -1.408
REMARK  5 active torsions:
REMARK  status: ('A' for Active; 'I' for Inactive)
REMARK       I    between atoms: C_2  and  N_4 
REMARK    1  A    between atoms: N_4  and  C_5 
REMARK    2  A    between atoms: C_8  and  C_9 
REMARK    3  A    between atoms: C_9  and  N_10 
REMARK    4  A    between atoms: C_18  and  C_19 
REMARK    5  A    between atoms: C_21  and  C_22 
ROOT
ATOM      1  N   UNL d   1      26.341 -15.479  -0.109  0.00  0.00    -0.391 N 
ATOM      2  C   UNL d   1      27.484 -15.782   0.790  0.00  0.00     0.177 C 
ATOM      3  C   UNL d   1      28.401 -14.673   1.013  0.00  0.00     0.050 A 
ATOM      4  N   UNL d   1      29.679 -14.731   1.529  0.00  0.00    -0.353 N 
ATOM      5  C   UNL d   1      30.227 -13.515   1.529  0.00  0.00     0.181 A 
ATOM      6  N   UNL d   1      29.337 -12.698   0.951  0.00  0.00    -0.354 N 
ATOM      7  C   UNL d   1      28.209 -13.400   0.564  0.00  0.00     0.036 A 
ATOM      8  C   UNL d   1      27.030 -12.918  -0.187  0.00  0.00     0.092 C 
ATOM      9  C   UNL d   1      26.150 -14.097  -0.771  0.00  0.00     0.165 C 
ATOM     10  H   UNL d   1      30.150 -15.581   1.840  0.00  0.00     0.166 HD
ATOM     11  H   UNL d   1      29.493 -11.705   0.802  0.00  0.00     0.166 HD
ENDROOT
BRANCH   9  12
ATOM     12  C   UNL d   1      26.132 -13.976  -2.357  0.00  0.00     0.196 C 
ATOM     13  N   UNL d   1      26.803 -13.181  -3.185  0.00  0.00    -0.202 NA
ATOM     14  C   UNL d   1      26.593 -13.742  -4.449  0.00  0.00     0.189 C 
ATOM     15  N   UNL d   1      25.600 -14.648  -4.421  0.00  0.00    -0.105 NA
ATOM     16  O   UNL d   1      25.311 -14.822  -3.054  0.00  0.00    -0.194 OA
BRANCH  14  17
ATOM     17  C   UNL d   1      27.292 -13.325  -5.705  0.00  0.00     0.016 A 
ATOM     18  C   UNL d   1      28.175 -14.152  -6.438  0.00  0.00     0.018 A 
ATOM     19  C   UNL d   1      28.867 -13.703  -7.590  0.00  0.00     0.045 A 
ATOM     20  C   UNL d   1      28.588 -12.449  -8.106  0.00  0.00     0.138 A 
ATOM     21  F   UNL d   1      29.190 -12.062  -9.242  0.00  0.00    -0.204 F 
ATOM     22  C   UNL d   1      27.666 -11.640  -7.454  0.00  0.00     0.073 A 
ATOM     23 CL   UNL d   1      27.287 -10.087  -8.095  0.00  0.00    -0.081 Cl
ATOM     24  C   UNL d   1      27.036 -12.067  -6.264  0.00  0.00     0.042 A 
ENDBRANCH  14  17
ENDBRANCH   9  12
BRANCH   1  25
ATOM     25  C   UNL d   1      26.147 -16.676  -0.952  0.00  0.00     0.156 C 
BRANCH  25  26
ATOM     26  C   UNL d   1      24.800 -17.345  -0.734  0.00  0.00    -0.041 C 
ATOM     27  C   UNL d   1      24.679 -18.698  -0.450  0.00  0.00     0.011 C 
ATOM     28  C   UNL d   1      23.402 -19.261  -0.250  0.00  0.00     0.030 C 
ATOM     29  C   UNL d   1      22.250 -18.461  -0.256  0.00  0.00     0.034 C 
ATOM     30  C   UNL d   1      22.377 -17.122  -0.521  0.00  0.00     0.030 C 
ATOM     31  C   UNL d   1      23.605 -16.623  -0.856  0.00  0.00     0.011 C 
BRANCH  29  32
ATOM     32  N   UNL d   1      20.984 -18.947   0.110  0.00  0.00    -0.328 N 
ATOM     33  C   UNL d   1      20.106 -19.497  -0.824  0.00  0.00     0.218 C 
ATOM     34  C   UNL d   1      18.768 -19.875  -0.260  0.00  0.00     0.117 C 
ATOM     35  O   UNL d   1      20.361 -19.718  -1.996  0.00  0.00    -0.274 OA
ATOM     36  H   UNL d   1      20.720 -18.890   1.083  0.00  0.00     0.169 HD
ENDBRANCH  29  32
ENDBRANCH  25  26
ENDBRANCH   1  25
TORSDOF 5
ENDMDL
MODEL 5
REMARK VINA RESULT:   -10.422      4.123      6.419
REMARK INTER + INTRA:         -13.284
REMARK INTER:                 -11.914
REMARK INTRA:                  -1.371
REMARK CONF_INDEPENDENT:        1.492
REMARK UNBOUND:                -1.371
REMARK  5 active torsions:
REMARK  status: ('A' for Active; 'I' for Inactive)
REMARK       I    between atoms: C_2  and  N_4 
REMARK    1  A    between atoms: N_4  and  C_5 
REMARK    2  A    between atoms: C_8  and  C_9 
REMARK    3  A    between atoms: C_9  and  N_10 
REMARK    4  A    between atoms: C_18  and  C_19 
REMARK    5  A    between atoms: C_21  and  C_22 
ROOT
ATOM      1  N   UNL d   1      25.796 -15.639  -2.625  0.00  0.00    -0.391 N 
ATOM      2  C   UNL d   1      25.047 -14.580  -3.348  0.00  0.00     0.177 C 
ATOM      3  C   UNL d   1      25.824 -13.845  -4.337  0.00  0.00     0.050 A 
ATOM      4  N   UNL d   1      25.506 -12.640  -4.928  0.00  0.00    -0.353 N 
ATOM      5  C   UNL d   1      26.491 -12.256  -5.741  0.00  0.00     0.181 A 
ATOM      6  N   UNL d   1      27.462 -13.169  -5.618  0.00  0.00    -0.354 N 
ATOM      7  C   UNL d   1      27.102 -14.146  -4.706  0.00  0.00     0.036 A 
ATOM      8  C   UNL d   1      27.902 -15.280  -4.198  0.00  0.00     0.092 C 
ATOM      9  C   UNL d   1      27.289 -15.927  -2.890  0.00  0.00     0.165 C 
ATOM     10  H   UNL d   1      24.657 -12.103  -4.750  0.00  0.00     0.166 HD
ATOM     11  H   UNL d   1      28.347 -13.126  -6.115  0.00  0.00     0.166 HD
ENDROOT
BRANCH   9  12
ATOM     12  C   UNL d   1      28.345 -15.775  -1.709  0.00  0.00     0.196 C 
ATOM     13  N   UNL d   1      28.485 -14.843  -0.771  0.00  0.00    -0.202 NA
ATOM     14  C   UNL d   1      29.383 -15.405   0.142  0.00  0.00     0.189 C 
ATOM     15  N   UNL d   1      29.987 -16.490  -0.372  0.00  0.00    -0.105 NA
ATOM     16  O   UNL d   1      29.297 -16.750  -1.572  0.00  0.00    -0.194 OA
BRANCH  14  17
ATOM     17  C   UNL d   1      29.727 -14.827   1.480  0.00  0.00     0.016 A 
ATOM     18  C   UNL d   1      31.047 -14.579   1.924  0.00  0.00     0.018 A 
ATOM     19  C   UNL d   1      31.339 -14.088   3.221  0.00  0.00     0.045 A 
ATOM     20  C   UNL d   1      30.302 -13.715   4.058  0.00  0.00     0.138 A 
ATOM     21  F   UNL d   1      30.588 -13.178   5.255  0.00  0.00    -0.204 F 
ATOM     22  C   UNL d   1      28.992 -13.873   3.622  0.00  0.00     0.073 A 
ATOM     23 CL   UNL d   1      27.689 -13.392   4.638  0.00  0.00    -0.081 Cl
ATOM     24  C   UNL d   1      28.709 -14.432   2.356  0.00  0.00     0.042 A 
ENDBRANCH  14  17
ENDBRANCH   9  12
BRANCH   1  25
ATOM     25  C   UNL d   1      25.347 -15.578  -1.219  0.00  0.00     0.156 C 
BRANCH  25  26
ATOM     26  C   UNL d   1      24.335 -16.656  -0.870  0.00  0.00    -0.041 C 
ATOM     27  C   UNL d   1      24.714 -17.931  -0.475  0.00  0.00     0.011 C 
ATOM     28  C   UNL d   1      23.729 -18.888  -0.155  0.00  0.00     0.030 C 
ATOM     29  C   UNL d   1      22.367 -18.551  -0.153  0.00  0.00     0.034 C 
ATOM     30  C   UNL d   1      21.999 -17.285  -0.528  0.00  0.00     0.030 C 
ATOM     31  C   UNL d   1      22.958 -16.418  -0.974  0.00  0.00     0.011 C 
BRANCH  29  32
ATOM     32  N   UNL d   1      21.370 -19.417   0.325  0.00  0.00    -0.328 N 
ATOM     33  C   UNL d   1      20.343 -19.885  -0.495  0.00  0.00     0.218 C 
ATOM     34  C   UNL d   1      19.322 -20.723   0.217  0.00  0.00     0.117 C 
ATOM     35  O   UNL d   1      20.253 -19.701  -1.697  0.00  0.00    -0.274 OA
ATOM     36  H   UNL d   1      21.416 -19.700   1.293  0.00  0.00     0.169 HD
ENDBRANCH  29  32
ENDBRANCH  25  26
ENDBRANCH   1  25
TORSDOF 5
ENDMDL
MODEL 6
REMARK VINA RESULT:   -10.374      4.255      7.051
REMARK INTER + INTRA:         -13.096
REMARK INTER:                 -11.866
REMARK INTRA:                  -1.231
REMARK CONF_INDEPENDENT:        1.492
REMARK UNBOUND:                -1.231
REMARK  5 active torsions:
REMARK  status: ('A' for Active; 'I' for Inactive)
REMARK       I    between atoms: C_2  and  N_4 
REMARK    1  A    between atoms: N_4  and  C_5 
REMARK    2  A    between atoms: C_8  and  C_9 
REMARK    3  A    between atoms: C_9  and  N_10 
REMARK    4  A    between atoms: C_18  and  C_19 
REMARK    5  A    between atoms: C_21  and  C_22 
ROOT
ATOM      1  N   UNL d   1      26.419 -16.148  -2.437  0.00  0.00    -0.391 N 
ATOM      2  C   UNL d   1      26.049 -15.565  -3.752  0.00  0.00     0.177 C 
ATOM      3  C   UNL d   1      27.174 -15.215  -4.607  0.00  0.00     0.050 A 
ATOM      4  N   UNL d   1      27.163 -14.398  -5.719  0.00  0.00    -0.353 N 
ATOM      5  C   UNL d   1      28.398 -14.272  -6.207  0.00  0.00     0.181 A 
ATOM      6  N   UNL d   1      29.204 -14.943  -5.374  0.00  0.00    -0.354 N 
ATOM      7  C   UNL d   1      28.480 -15.497  -4.333  0.00  0.00     0.036 A 
ATOM      8  C   UNL d   1      28.974 -16.230  -3.148  0.00  0.00     0.092 C 
ATOM      9  C   UNL d   1      27.887 -16.352  -2.004  0.00  0.00     0.165 C 
ATOM     10  H   UNL d   1      26.338 -13.932  -6.099  0.00  0.00     0.166 HD
ATOM     11  H   UNL d   1      30.212 -15.009  -5.491  0.00  0.00     0.166 HD
ENDROOT
BRANCH   9  12
ATOM     12  C   UNL d   1      28.437 -15.616  -0.705  0.00  0.00     0.196 C 
ATOM     13  N   UNL d   1      27.894 -14.685   0.074  0.00  0.00    -0.202 NA
ATOM     14  C   UNL d   1      28.713 -14.661   1.207  0.00  0.00     0.189 C 
ATOM     15  N   UNL d   1      29.863 -15.324   0.991  0.00  0.00    -0.105 NA
ATOM     16  O   UNL d   1      29.679 -15.970  -0.247  0.00  0.00    -0.194 OA
BRANCH  14  17
ATOM     17  C   UNL d   1      28.421 -13.907   2.467  0.00  0.00     0.016 A 
ATOM     18  C   UNL d   1      27.674 -12.708   2.523  0.00  0.00     0.018 A 
ATOM     19  C   UNL d   1      27.469 -11.988   3.726  0.00  0.00     0.045 A 
ATOM     20  C   UNL d   1      27.903 -12.528   4.924  0.00  0.00     0.138 A 
ATOM     21  F   UNL d   1      27.636 -11.878   6.069  0.00  0.00    -0.204 F 
ATOM     22  C   UNL d   1      28.573 -13.745   4.914  0.00  0.00     0.073 A 
ATOM     23 CL   UNL d   1      29.099 -14.444   6.397  0.00  0.00    -0.081 Cl
ATOM     24  C   UNL d   1      28.838 -14.419   3.701  0.00  0.00     0.042 A 
ENDBRANCH  14  17
ENDBRANCH   9  12
BRANCH   1  25
ATOM     25  C   UNL d   1      25.486 -15.569  -1.450  0.00  0.00     0.156 C 
BRANCH  25  26
ATOM     26  C   UNL d   1      24.434 -16.558  -0.974  0.00  0.00    -0.041 C 
ATOM     27  C   UNL d   1      23.080 -16.254  -0.962  0.00  0.00     0.011 C 
ATOM     28  C   UNL d   1      22.150 -17.216  -0.518  0.00  0.00     0.030 C 
ATOM     29  C   UNL d   1      22.561 -18.508  -0.159  0.00  0.00     0.034 C 
ATOM     30  C   UNL d   1      23.898 -18.808  -0.189  0.00  0.00     0.030 C 
ATOM     31  C   UNL d   1      24.796 -17.819  -0.482  0.00  0.00     0.011 C 
BRANCH  29  32
ATOM     32  N   UNL d   1      21.655 -19.545   0.120  0.00  0.00    -0.328 N 
ATOM     33  C   UNL d   1      20.308 -19.463  -0.232  0.00  0.00     0.218 C 
ATOM     34  C   UNL d   1      19.481 -20.626   0.232  0.00  0.00     0.117 C 
ATOM     35  O   UNL d   1      19.798 -18.574  -0.893  0.00  0.00    -0.274 OA
ATOM     36  H   UNL d   1      22.010 -20.367   0.587  0.00  0.00     0.169 HD
ENDBRANCH  29  32
ENDBRANCH  25  26
ENDBRANCH   1  25
TORSDOF 5
ENDMDL
MODEL 7
REMARK VINA RESULT:   -10.310      1.307      1.741
REMARK INTER + INTRA:         -13.126
REMARK INTER:                 -11.802
REMARK INTRA:                  -1.325
REMARK CONF_INDEPENDENT:        1.492
REMARK UNBOUND:                -1.325
REMARK  5 active torsions:
REMARK  status: ('A' for Active; 'I' for Inactive)
REMARK       I    between atoms: C_2  and  N_4 
REMARK    1  A    between atoms: N_4  and  C_5 
REMARK    2  A    between atoms: C_8  and  C_9 
REMARK    3  A    between atoms: C_9  and  N_10 
REMARK    4  A    between atoms: C_18  and  C_19 
REMARK    5  A    between atoms: C_21  and  C_22 
ROOT
ATOM      1  N   UNL d   1      26.422 -15.247  -1.429  0.00  0.00    -0.391 N 
ATOM      2  C   UNL d   1      26.650 -15.404   0.030  0.00  0.00     0.177 C 
ATOM      3  C   UNL d   1      27.784 -14.658   0.558  0.00  0.00     0.050 A 
ATOM      4  N   UNL d   1      28.417 -14.839   1.770  0.00  0.00    -0.353 N 
ATOM      5  C   UNL d   1      29.451 -14.002   1.875  0.00  0.00     0.181 A 
ATOM      6  N   UNL d   1      29.524 -13.343   0.712  0.00  0.00    -0.354 N 
ATOM      7  C   UNL d   1      28.533 -13.769  -0.155  0.00  0.00     0.036 A 
ATOM      8  C   UNL d   1      28.305 -13.383  -1.563  0.00  0.00     0.092 C 
ATOM      9  C   UNL d   1      27.329 -14.372  -2.321  0.00  0.00     0.165 C 
ATOM     10  H   UNL d   1      28.155 -15.529   2.475  0.00  0.00     0.166 HD
ATOM     11  H   UNL d   1      30.231 -12.644   0.500  0.00  0.00     0.166 HD
ENDROOT
BRANCH   9  12
ATOM     12  C   UNL d   1      28.120 -15.033  -3.532  0.00  0.00     0.196 C 
ATOM     13  N   UNL d   1      29.157 -15.865  -3.555  0.00  0.00    -0.202 NA
ATOM     14  C   UNL d   1      29.205 -16.322  -4.876  0.00  0.00     0.189 C 
ATOM     15  N   UNL d   1      28.427 -15.575  -5.679  0.00  0.00    -0.105 NA
ATOM     16  O   UNL d   1      27.698 -14.746  -4.804  0.00  0.00    -0.194 OA
BRANCH  14  17
ATOM     17  C   UNL d   1      30.084 -17.426  -5.375  0.00  0.00     0.016 A 
ATOM     18  C   UNL d   1      30.405 -18.586  -4.633  0.00  0.00     0.018 A 
ATOM     19  C   UNL d   1      31.291 -19.582  -5.114  0.00  0.00     0.045 A 
ATOM     20  C   UNL d   1      31.775 -19.496  -6.408  0.00  0.00     0.138 A 
ATOM     21  F   UNL d   1      32.551 -20.484  -6.883  0.00  0.00    -0.204 F 
ATOM     22  C   UNL d   1      31.415 -18.407  -7.193  0.00  0.00     0.073 A 
ATOM     23 CL   UNL d   1      31.987 -18.295  -8.813  0.00  0.00    -0.081 Cl
ATOM     24  C   UNL d   1      30.591 -17.381  -6.679  0.00  0.00     0.042 A 
ENDBRANCH  14  17
ENDBRANCH   9  12
BRANCH   1  25
ATOM     25  C   UNL d   1      26.042 -16.581  -1.935  0.00  0.00     0.156 C 
BRANCH  25  26
ATOM     26  C   UNL d   1      24.801 -17.142  -1.261  0.00  0.00    -0.041 C 
ATOM     27  C   UNL d   1      23.588 -16.467  -1.258  0.00  0.00     0.011 C 
ATOM     28  C   UNL d   1      22.468 -17.042  -0.623  0.00  0.00     0.030 C 
ATOM     29  C   UNL d   1      22.535 -18.325  -0.060  0.00  0.00     0.034 C 
ATOM     30  C   UNL d   1      23.731 -18.994  -0.081  0.00  0.00     0.030 C 
ATOM     31  C   UNL d   1      24.839 -18.360  -0.570  0.00  0.00     0.011 C 
BRANCH  29  32
ATOM     32  N   UNL d   1      21.404 -19.004   0.424  0.00  0.00    -0.328 N 
ATOM     33  C   UNL d   1      20.402 -19.469  -0.426  0.00  0.00     0.218 C 
ATOM     34  C   UNL d   1      19.232 -20.085   0.284  0.00  0.00     0.117 C 
ATOM     35  O   UNL d   1      20.435 -19.445  -1.645  0.00  0.00    -0.274 OA
ATOM     36  H   UNL d   1      21.335 -19.153   1.421  0.00  0.00     0.169 HD
ENDBRANCH  29  32
ENDBRANCH  25  26
ENDBRANCH   1  25
TORSDOF 5
ENDMDL
MODEL 8
REMARK VINA RESULT:   -10.181      4.987      7.701
REMARK INTER + INTRA:         -13.308
REMARK INTER:                 -11.672
REMARK INTRA:                  -1.636
REMARK CONF_INDEPENDENT:        1.492
REMARK UNBOUND:                -1.636
REMARK  5 active torsions:
REMARK  status: ('A' for Active; 'I' for Inactive)
REMARK       I    between atoms: C_2  and  N_4 
REMARK    1  A    between atoms: N_4  and  C_5 
REMARK    2  A    between atoms: C_8  and  C_9 
REMARK    3  A    between atoms: C_9  and  N_10 
REMARK    4  A    between atoms: C_18  and  C_19 
REMARK    5  A    between atoms: C_21  and  C_22 
ROOT
ATOM      1  N   UNL d   1      27.897 -15.478  -1.889  0.00  0.00    -0.391 N 
ATOM      2  C   UNL d   1      27.023 -15.748  -3.059  0.00  0.00     0.177 C 
ATOM      3  C   UNL d   1      26.311 -14.588  -3.575  0.00  0.00     0.050 A 
ATOM      4  N   UNL d   1      25.225 -14.579  -4.426  0.00  0.00    -0.353 N 
ATOM      5  C   UNL d   1      24.814 -13.327  -4.630  0.00  0.00     0.181 A 
ATOM      6  N   UNL d   1      25.582 -12.546  -3.859  0.00  0.00    -0.354 N 
ATOM      7  C   UNL d   1      26.490 -13.307  -3.143  0.00  0.00     0.036 A 
ATOM      8  C   UNL d   1      27.455 -12.871  -2.113  0.00  0.00     0.092 C 
ATOM      9  C   UNL d   1      28.026 -14.074  -1.258  0.00  0.00     0.165 C 
ATOM     10  H   UNL d   1      24.781 -15.408  -4.822  0.00  0.00     0.166 HD
ATOM     11  H   UNL d   1      25.485 -11.536  -3.800  0.00  0.00     0.166 HD
ENDROOT
BRANCH   9  12
ATOM     12  C   UNL d   1      27.617 -13.852   0.264  0.00  0.00     0.196 C 
ATOM     13  N   UNL d   1      28.071 -14.403   1.386  0.00  0.00    -0.202 NA
ATOM     14  C   UNL d   1      27.549 -13.599   2.403  0.00  0.00     0.189 C 
ATOM     15  N   UNL d   1      26.583 -12.788   1.936  0.00  0.00    -0.105 NA
ATOM     16  O   UNL d   1      26.639 -12.932   0.536  0.00  0.00    -0.194 OA
BRANCH  14  17
ATOM     17  C   UNL d   1      27.919 -13.689   3.850  0.00  0.00     0.016 A 
ATOM     18  C   UNL d   1      28.240 -14.894   4.517  0.00  0.00     0.018 A 
ATOM     19  C   UNL d   1      28.526 -14.950   5.903  0.00  0.00     0.045 A 
ATOM     20  C   UNL d   1      28.622 -13.774   6.627  0.00  0.00     0.138 A 
ATOM     21  F   UNL d   1      28.972 -13.830   7.922  0.00  0.00    -0.204 F 
ATOM     22  C   UNL d   1      28.391 -12.565   5.984  0.00  0.00     0.073 A 
ATOM     23 CL   UNL d   1      28.530 -11.089   6.861  0.00  0.00    -0.081 Cl
ATOM     24  C   UNL d   1      28.033 -12.524   4.618  0.00  0.00     0.042 A 
ENDBRANCH  14  17
ENDBRANCH   9  12
BRANCH   1  25
ATOM     25  C   UNL d   1      27.738 -16.628  -0.977  0.00  0.00     0.156 C 
BRANCH  25  26
ATOM     26  C   UNL d   1      26.286 -16.930  -0.648  0.00  0.00    -0.041 C 
ATOM     27  C   UNL d   1      25.288 -15.971  -0.741  0.00  0.00     0.011 C 
ATOM     28  C   UNL d   1      23.955 -16.313  -0.430  0.00  0.00     0.030 C 
ATOM     29  C   UNL d   1      23.605 -17.631  -0.102  0.00  0.00     0.034 C 
ATOM     30  C   UNL d   1      24.593 -18.578  -0.027  0.00  0.00     0.030 C 
ATOM     31  C   UNL d   1      25.896 -18.195  -0.189  0.00  0.00     0.011 C 
BRANCH  29  32
ATOM     32  N   UNL d   1      22.272 -18.050   0.044  0.00  0.00    -0.328 N 
ATOM     33  C   UNL d   1      21.636 -18.835  -0.918  0.00  0.00     0.218 C 
ATOM     34  C   UNL d   1      20.188 -19.104  -0.631  0.00  0.00     0.117 C 
ATOM     35  O   UNL d   1      22.166 -19.325  -1.901  0.00  0.00    -0.274 OA
ATOM     36  H   UNL d   1      21.778 -17.768   0.878  0.00  0.00     0.169 HD
ENDBRANCH  29  32
ENDBRANCH  25  26
ENDBRANCH   1  25
TORSDOF 5
ENDMDL
MODEL 9
REMARK VINA RESULT:   -10.075      4.527      7.454
REMARK INTER + INTRA:         -12.984
REMARK INTER:                 -11.566
REMARK INTRA:                  -1.418
REMARK CONF_INDEPENDENT:        1.492
REMARK UNBOUND:                -1.418
REMARK  5 active torsions:
REMARK  status: ('A' for Active; 'I' for Inactive)
REMARK       I    between atoms: C_2  and  N_4 
REMARK    1  A    between atoms: N_4  and  C_5 
REMARK    2  A    between atoms: C_8  and  C_9 
REMARK    3  A    between atoms: C_9  and  N_10 
REMARK    4  A    between atoms: C_18  and  C_19 
REMARK    5  A    between atoms: C_21  and  C_22 
ROOT
ATOM      1  N   UNL d   1      26.399 -15.927  -2.209  0.00  0.00    -0.391 N 
ATOM      2  C   UNL d   1      26.687 -15.382  -3.560  0.00  0.00     0.177 C 
ATOM      3  C   UNL d   1      28.057 -14.933  -3.762  0.00  0.00     0.050 A 
ATOM      4  N   UNL d   1      28.535 -14.122  -4.770  0.00  0.00    -0.353 N 
ATOM      5  C   UNL d   1      29.836 -13.886  -4.589  0.00  0.00     0.181 A 
ATOM      6  N   UNL d   1      30.172 -14.480  -3.437  0.00  0.00    -0.354 N 
ATOM      7  C   UNL d   1      29.072 -15.095  -2.865  0.00  0.00     0.036 A 
ATOM      8  C   UNL d   1      28.968 -15.780  -1.560  0.00  0.00     0.092 C 
ATOM      9  C   UNL d   1      27.470 -15.997  -1.098  0.00  0.00     0.165 C 
ATOM     10  H   UNL d   1      27.975 -13.733  -5.529  0.00  0.00     0.166 HD
ATOM     11  H   UNL d   1      31.106 -14.454  -3.038  0.00  0.00     0.166 HD
ENDROOT
BRANCH   9  12
ATOM     12  C   UNL d   1      27.243 -15.214   0.268  0.00  0.00     0.196 C 
ATOM     13  N   UNL d   1      27.598 -15.503   1.517  0.00  0.00    -0.202 NA
ATOM     14  C   UNL d   1      27.392 -14.312   2.219  0.00  0.00     0.189 C 
ATOM     15  N   UNL d   1      26.663 -13.441   1.500  0.00  0.00    -0.105 NA
ATOM     16  O   UNL d   1      26.583 -14.014   0.215  0.00  0.00    -0.194 OA
BRANCH  14  17
ATOM     17  C   UNL d   1      27.819 -14.058   3.631  0.00  0.00     0.016 A 
ATOM     18  C   UNL d   1      28.164 -15.074   4.554  0.00  0.00     0.018 A 
ATOM     19  C   UNL d   1      28.504 -14.801   5.902  0.00  0.00     0.045 A 
ATOM     20  C   UNL d   1      28.630 -13.487   6.320  0.00  0.00     0.138 A 
ATOM     21  F   UNL d   1      29.029 -13.237   7.577  0.00  0.00    -0.204 F 
ATOM     22  C   UNL d   1      28.374 -12.463   5.416  0.00  0.00     0.073 A 
ATOM     23 CL   UNL d   1      28.549 -10.823   5.910  0.00  0.00    -0.081 Cl
ATOM     24  C   UNL d   1      27.963 -12.745   4.095  0.00  0.00     0.042 A 
ENDBRANCH  14  17
ENDBRANCH   9  12
BRANCH   1  25
ATOM     25  C   UNL d   1      25.058 -15.434  -1.839  0.00  0.00     0.156 C 
BRANCH  25  26
ATOM     26  C   UNL d   1      24.135 -16.535  -1.343  0.00  0.00    -0.041 C 
ATOM     27  C   UNL d   1      24.580 -17.830  -1.113  0.00  0.00     0.011 C 
ATOM     28  C   UNL d   1      23.678 -18.808  -0.644  0.00  0.00     0.030 C 
ATOM     29  C   UNL d   1      22.352 -18.476  -0.330  0.00  0.00     0.034 C 
ATOM     30  C   UNL d   1      21.922 -17.192  -0.543  0.00  0.00     0.030 C 
ATOM     31  C   UNL d   1      22.770 -16.297  -1.135  0.00  0.00     0.011 C 
BRANCH  29  32
ATOM     32  N   UNL d   1      21.473 -19.373   0.301  0.00  0.00    -0.328 N 
ATOM     33  C   UNL d   1      20.345 -19.879  -0.345  0.00  0.00     0.218 C 
ATOM     34  C   UNL d   1      19.480 -20.747   0.521  0.00  0.00     0.117 C 
ATOM     35  O   UNL d   1      20.058 -19.704  -1.517  0.00  0.00    -0.274 OA
ATOM     36  H   UNL d   1      21.682 -19.649   1.250  0.00  0.00     0.169 HD
ENDBRANCH  29  32
ENDBRANCH  25  26
ENDBRANCH   1  25
TORSDOF 5
ENDMDL
