MODEL 1
REMARK VINA RESULT:   -12.000      0.000      0.000
REMARK INTER + INTRA:         -16.364
REMARK INTER:                 -14.685
REMARK INTRA:                  -1.679
REMARK CONF_INDEPENDENT:        2.685
REMARK UNBOUND:                -1.679
REMARK  9 active torsions:
REMARK  status: ('A' for Active; 'I' for Inactive)
REMARK    1  A    between atoms: O_2  and  C_3 
REMARK    2  A    between atoms: C_5  and  C_6 
REMARK    3  A    between atoms: N_7  and  N_8 
REMARK       I    between atoms: N_8  and  C_9 
REMARK    4  A    between atoms: C_9  and  C_11 
REMARK    5  A    between atoms: C_11  and  S_12 
REMARK    6  A    between atoms: S_12  and  C_13 
REMARK    7  A    between atoms: C_24  and  O_25 
REMARK    8  A    between atoms: O_25  and  C_26 
REMARK    9  A    between atoms: C_26  and  C_27 
ROOT
ATOM      1  C   UNL d   1      27.485 -17.311   0.111  0.00  0.00     0.150 C 
ATOM      2  N   UNL d   1      28.331 -16.324  -0.016  0.00  0.00    -0.184 NA
ENDROOT
BRANCH   2   3
ATOM      3  N   UNL d   1      29.683 -16.516   0.237  0.00  0.00    -0.247 N 
ATOM      4  C   UNL d   1      30.537 -15.400   0.129  0.00  0.00     0.247 C 
ATOM      5  O   UNL d   1      30.129 -14.269  -0.129  0.00  0.00    -0.271 OA
ATOM      6  H   UNL d   1      29.981 -17.447   0.504  0.00  0.00     0.192 HD
BRANCH   4   7
ATOM      7  C   UNL d   1      32.075 -15.636   0.355  0.00  0.00     0.182 C 
BRANCH   7   8
ATOM      8  S   UNL d   1      32.392 -15.867   2.293  0.00  0.00    -0.104 SA
BRANCH   8   9
ATOM      9  C   UNL d   1      31.274 -14.758   3.204  0.00  0.00     0.385 C 
ATOM     10  N   UNL d   1      30.693 -15.337   4.466  0.00  0.00     0.139 N 
ATOM     11  C   UNL d   1      29.761 -14.540   4.734  0.00  0.00     0.265 C 
ATOM     12  H   UNL d   1      30.438 -16.308   4.139  0.00  0.00     0.321 HD
ATOM     13  C   UNL d   1      29.822 -13.054   5.160  0.00  0.00     0.024 C 
ATOM     14  C   UNL d   1      28.883 -14.449   3.530  0.00  0.00     0.053 C 
ATOM     15  C   UNL d   1      28.637 -12.437   5.313  0.00  0.00    -0.001 C 
ATOM     16  C   UNL d   1      27.440 -13.189   5.035  0.00  0.00     0.002 C 
ATOM     17  C   UNL d   1      27.488 -14.134   4.059  0.00  0.00     0.028 C 
ATOM     18  N   UNL d   1      29.814 -14.254   2.620  0.00  0.00    -0.353 N 
ATOM     19  H   UNL d   1      29.903 -13.386   2.066  0.00  0.00     0.162 HD
ENDBRANCH   8   9
ENDBRANCH   7   8
ENDBRANCH   4   7
ENDBRANCH   2   3
BRANCH   1  20
ATOM     20  C   UNL d   1      26.007 -17.113  -0.111  0.00  0.00    -0.014 A 
ATOM     21  C   UNL d   1      25.490 -16.097  -0.950  0.00  0.00     0.052 A 
ATOM     22  C   UNL d   1      24.120 -16.070  -1.344  0.00  0.00     0.102 A 
ATOM     23  C   UNL d   1      23.277 -17.094  -0.842  0.00  0.00     0.102 A 
ATOM     24  C   UNL d   1      23.791 -18.036   0.069  0.00  0.00     0.040 A 
ATOM     25  C   UNL d   1      25.131 -18.044   0.440  0.00  0.00     0.016 A 
BRANCH  22  26
ATOM     26  O   UNL d   1      23.880 -15.196  -2.394  0.00  0.00    -0.353 OA
ATOM     27  C   UNL d   1      24.924 -14.505  -3.100  0.00  0.00     0.210 C 
ENDBRANCH  22  26
BRANCH  23  28
ATOM     28  O   UNL d   1      21.970 -17.425  -1.139  0.00  0.00    -0.344 OA
BRANCH  28  29
ATOM     29  C   UNL d   1      21.749 -18.808  -1.058  0.00  0.00     0.214 C 
BRANCH  29  30
ATOM     30  C   UNL d   1      20.614 -19.334  -0.257  0.00  0.00    -0.034 C 
ATOM     31  C   UNL d   1      20.729 -19.325   1.121  0.00  0.00     0.009 C 
ATOM     32  C   UNL d   1      19.748 -19.935   1.873  0.00  0.00     0.001 C 
ATOM     33  C   UNL d   1      18.588 -20.414   1.258  0.00  0.00     0.000 C 
ATOM     34  C   UNL d   1      18.405 -20.293  -0.119  0.00  0.00     0.001 C 
ATOM     35  C   UNL d   1      19.422 -19.747  -0.885  0.00  0.00     0.009 C 
ENDBRANCH  29  30
ENDBRANCH  28  29
ENDBRANCH  23  28
ENDBRANCH   1  20
TORSDOF 9
ENDMDL
MODEL 2
REMARK VINA RESULT:   -10.703      1.898      2.322
REMARK INTER + INTRA:         -14.953
REMARK INTER:                 -13.388
REMARK INTRA:                  -1.565
REMARK CONF_INDEPENDENT:        2.685
REMARK UNBOUND:                -1.565
REMARK  9 active torsions:
REMARK  status: ('A' for Active; 'I' for Inactive)
REMARK    1  A    between atoms: O_2  and  C_3 
REMARK    2  A    between atoms: C_5  and  C_6 
REMARK    3  A    between atoms: N_7  and  N_8 
REMARK       I    between atoms: N_8  and  C_9 
REMARK    4  A    between atoms: C_9  and  C_11 
REMARK    5  A    between atoms: C_11  and  S_12 
REMARK    6  A    between atoms: S_12  and  C_13 
REMARK    7  A    between atoms: C_24  and  O_25 
REMARK    8  A    between atoms: O_25  and  C_26 
REMARK    9  A    between atoms: C_26  and  C_27 
ROOT
ATOM      1  C   UNL d   1      28.129 -16.349   0.323  0.00  0.00     0.150 C 
ATOM      2  N   UNL d   1      28.572 -15.224   0.815  0.00  0.00    -0.184 NA
ENDROOT
BRANCH   2   3
ATOM      3  N   UNL d   1      29.897 -15.100   1.213  0.00  0.00    -0.247 N 
ATOM      4  C   UNL d   1      30.164 -14.389   2.401  0.00  0.00     0.247 C 
ATOM      5  O   UNL d   1      29.276 -13.925   3.116  0.00  0.00    -0.271 OA
ATOM      6  H   UNL d   1      30.602 -15.542   0.635  0.00  0.00     0.192 HD
BRANCH   4   7
ATOM      7  C   UNL d   1      31.669 -14.198   2.813  0.00  0.00     0.182 C 
BRANCH   7   8
ATOM      8  S   UNL d   1      31.877 -12.396   3.598  0.00  0.00    -0.104 SA
BRANCH   8   9
ATOM      9  C   UNL d   1      30.814 -12.272   5.069  0.00  0.00     0.385 C 
ATOM     10  N   UNL d   1      31.548 -12.199   6.380  0.00  0.00     0.139 N 
ATOM     11  C   UNL d   1      30.641 -12.424   7.219  0.00  0.00     0.265 C 
ATOM     12  H   UNL d   1      32.285 -12.941   6.235  0.00  0.00     0.321 HD
ATOM     13  C   UNL d   1      29.404 -11.572   7.590  0.00  0.00     0.024 C 
ATOM     14  C   UNL d   1      29.988 -13.714   6.845  0.00  0.00     0.053 C 
ATOM     15  C   UNL d   1      28.565 -12.113   8.490  0.00  0.00    -0.001 C 
ATOM     16  C   UNL d   1      28.864 -13.432   8.989  0.00  0.00     0.002 C 
ATOM     17  C   UNL d   1      29.477 -14.311   8.152  0.00  0.00     0.028 C 
ATOM     18  N   UNL d   1      29.799 -13.477   5.564  0.00  0.00    -0.353 N 
ATOM     19  H   UNL d   1      28.867 -13.396   5.126  0.00  0.00     0.162 HD
ENDBRANCH   8   9
ENDBRANCH   7   8
ENDBRANCH   4   7
ENDBRANCH   2   3
BRANCH   1  20
ATOM     20  C   UNL d   1      26.684 -16.521  -0.069  0.00  0.00    -0.014 A 
ATOM     21  C   UNL d   1      26.038 -15.671  -0.997  0.00  0.00     0.052 A 
ATOM     22  C   UNL d   1      24.758 -15.984  -1.543  0.00  0.00     0.102 A 
ATOM     23  C   UNL d   1      24.135 -17.179  -1.099  0.00  0.00     0.102 A 
ATOM     24  C   UNL d   1      24.753 -17.958  -0.102  0.00  0.00     0.040 A 
ATOM     25  C   UNL d   1      26.002 -17.634   0.415  0.00  0.00     0.016 A 
BRANCH  22  26
ATOM     26  O   UNL d   1      24.438 -15.205  -2.644  0.00  0.00    -0.353 OA
ATOM     27  C   UNL d   1      25.392 -14.380  -3.331  0.00  0.00     0.210 C 
ENDBRANCH  22  26
BRANCH  23  28
ATOM     28  O   UNL d   1      22.992 -17.823  -1.527  0.00  0.00    -0.344 OA
BRANCH  28  29
ATOM     29  C   UNL d   1      22.712 -18.960  -0.754  0.00  0.00     0.214 C 
BRANCH  29  30
ATOM     30  C   UNL d   1      21.314 -19.252  -0.342  0.00  0.00    -0.034 C 
ATOM     31  C   UNL d   1      21.035 -19.325   1.010  0.00  0.00     0.009 C 
ATOM     32  C   UNL d   1      19.779 -19.731   1.408  0.00  0.00     0.001 C 
ATOM     33  C   UNL d   1      18.769 -19.915   0.461  0.00  0.00     0.000 C 
ATOM     34  C   UNL d   1      19.009 -19.701  -0.895  0.00  0.00     0.001 C 
ATOM     35  C   UNL d   1      20.290 -19.364  -1.304  0.00  0.00     0.009 C 
ENDBRANCH  29  30
ENDBRANCH  28  29
ENDBRANCH  23  28
ENDBRANCH   1  20
TORSDOF 9
ENDMDL
MODEL 3
REMARK VINA RESULT:   -10.515      3.421      5.184
REMARK INTER + INTRA:         -15.029
REMARK INTER:                 -13.200
REMARK INTRA:                  -1.829
REMARK CONF_INDEPENDENT:        2.685
REMARK UNBOUND:                -1.829
REMARK  9 active torsions:
REMARK  status: ('A' for Active; 'I' for Inactive)
REMARK    1  A    between atoms: O_2  and  C_3 
REMARK    2  A    between atoms: C_5  and  C_6 
REMARK    3  A    between atoms: N_7  and  N_8 
REMARK       I    between atoms: N_8  and  C_9 
REMARK    4  A    between atoms: C_9  and  C_11 
REMARK    5  A    between atoms: C_11  and  S_12 
REMARK    6  A    between atoms: S_12  and  C_13 
REMARK    7  A    between atoms: C_24  and  O_25 
REMARK    8  A    between atoms: O_25  and  C_26 
REMARK    9  A    between atoms: C_26  and  C_27 
ROOT
ATOM      1  C   UNL d   1      28.287 -17.193   0.096  0.00  0.00     0.150 C 
ATOM      2  N   UNL d   1      29.070 -16.161   0.254  0.00  0.00    -0.184 NA
ENDROOT
BRANCH   2   3
ATOM      3  N   UNL d   1      30.404 -16.332   0.601  0.00  0.00    -0.247 N 
ATOM      4  C   UNL d   1      31.148 -17.300  -0.105  0.00  0.00     0.247 C 
ATOM      5  O   UNL d   1      30.681 -17.954  -1.036  0.00  0.00    -0.271 OA
ATOM      6  H   UNL d   1      30.778 -15.739   1.333  0.00  0.00     0.192 HD
BRANCH   4   7
ATOM      7  C   UNL d   1      32.640 -17.533   0.334  0.00  0.00     0.182 C 
BRANCH   7   8
ATOM      8  S   UNL d   1      32.651 -18.775   1.871  0.00  0.00    -0.104 SA
BRANCH   8   9
ATOM      9  C   UNL d   1      32.221 -20.442   1.281  0.00  0.00     0.385 C 
ATOM     10  N   UNL d   1      31.396 -20.478   0.024  0.00  0.00     0.139 N 
ATOM     11  C   UNL d   1      30.986 -21.664  -0.005  0.00  0.00     0.265 C 
ATOM     12  H   UNL d   1      30.695 -19.715   0.226  0.00  0.00     0.321 HD
ATOM     13  C   UNL d   1      31.777 -22.980  -0.201  0.00  0.00     0.024 C 
ATOM     14  C   UNL d   1      30.305 -21.940   1.294  0.00  0.00     0.053 C 
ATOM     15  C   UNL d   1      31.061 -24.114  -0.116  0.00  0.00    -0.001 C 
ATOM     16  C   UNL d   1      29.656 -24.009   0.184  0.00  0.00     0.002 C 
ATOM     17  C   UNL d   1      29.246 -22.994   0.990  0.00  0.00     0.028 C 
ATOM     18  N   UNL d   1      31.230 -21.473   2.106  0.00  0.00    -0.353 N 
ATOM     19  H   UNL d   1      31.759 -22.060   2.771  0.00  0.00     0.162 HD
ENDBRANCH   8   9
ENDBRANCH   7   8
ENDBRANCH   4   7
ENDBRANCH   2   3
BRANCH   1  20
ATOM     20  C   UNL d   1      26.825 -17.028  -0.230  0.00  0.00    -0.014 A 
ATOM     21  C   UNL d   1      26.362 -16.151  -1.240  0.00  0.00     0.052 A 
ATOM     22  C   UNL d   1      25.015 -16.181  -1.706  0.00  0.00     0.102 A 
ATOM     23  C   UNL d   1      24.136 -17.115  -1.098  0.00  0.00     0.102 A 
ATOM     24  C   UNL d   1      24.593 -17.908  -0.029  0.00  0.00     0.040 A 
ATOM     25  C   UNL d   1      25.912 -17.863   0.409  0.00  0.00     0.016 A 
BRANCH  22  26
ATOM     26  O   UNL d   1      24.839 -15.477  -2.887  0.00  0.00    -0.353 OA
ATOM     27  C   UNL d   1      25.775 -14.500  -3.370  0.00  0.00     0.210 C 
ENDBRANCH  22  26
BRANCH  23  28
ATOM     28  O   UNL d   1      22.844 -17.485  -1.410  0.00  0.00    -0.344 OA
BRANCH  28  29
ATOM     29  C   UNL d   1      22.588 -18.823  -1.080  0.00  0.00     0.214 C 
BRANCH  29  30
ATOM     30  C   UNL d   1      21.323 -19.192  -0.393  0.00  0.00    -0.034 C 
ATOM     31  C   UNL d   1      21.224 -18.955   0.965  0.00  0.00     0.009 C 
ATOM     32  C   UNL d   1      20.115 -19.416   1.641  0.00  0.00     0.001 C 
ATOM     33  C   UNL d   1      19.046 -19.974   0.937  0.00  0.00     0.000 C 
ATOM     34  C   UNL d   1      19.081 -20.082  -0.453  0.00  0.00     0.001 C 
ATOM     35  C   UNL d   1      20.225 -19.687  -1.127  0.00  0.00     0.009 C 
ENDBRANCH  29  30
ENDBRANCH  28  29
ENDBRANCH  23  28
ENDBRANCH   1  20
TORSDOF 9
ENDMDL
MODEL 4
REMARK VINA RESULT:   -10.063      7.981     11.286
REMARK INTER + INTRA:         -14.516
REMARK INTER:                 -12.748
REMARK INTRA:                  -1.768
REMARK CONF_INDEPENDENT:        2.685
REMARK UNBOUND:                -1.768
REMARK  9 active torsions:
REMARK  status: ('A' for Active; 'I' for Inactive)
REMARK    1  A    between atoms: O_2  and  C_3 
REMARK    2  A    between atoms: C_5  and  C_6 
REMARK    3  A    between atoms: N_7  and  N_8 
REMARK       I    between atoms: N_8  and  C_9 
REMARK    4  A    between atoms: C_9  and  C_11 
REMARK    5  A    between atoms: C_11  and  S_12 
REMARK    6  A    between atoms: S_12  and  C_13 
REMARK    7  A    between atoms: C_24  and  O_25 
REMARK    8  A    between atoms: O_25  and  C_26 
REMARK    9  A    between atoms: C_26  and  C_27 
ROOT
ATOM      1  C   UNL d   1      26.128 -10.718  -4.798  0.00  0.00     0.150 C 
ATOM      2  N   UNL d   1      25.219  -9.842  -4.467  0.00  0.00    -0.184 NA
ENDROOT
BRANCH   2   3
ATOM      3  N   UNL d   1      25.404  -8.493  -4.743  0.00  0.00    -0.247 N 
ATOM      4  C   UNL d   1      24.294  -7.759  -5.211  0.00  0.00     0.247 C 
ATOM      5  O   UNL d   1      23.173  -8.250  -5.334  0.00  0.00    -0.271 OA
ATOM      6  H   UNL d   1      26.324  -8.104  -4.578  0.00  0.00     0.192 HD
BRANCH   4   7
ATOM      7  C   UNL d   1      24.525  -6.249  -5.581  0.00  0.00     0.182 C 
BRANCH   7   8
ATOM      8  S   UNL d   1      24.176  -6.021  -7.513  0.00  0.00    -0.104 SA
BRANCH   8   9
ATOM      9  C   UNL d   1      22.410  -5.649  -7.749  0.00  0.00     0.385 C 
ATOM     10  N   UNL d   1      21.477  -6.374  -6.818  0.00  0.00     0.139 N 
ATOM     11  C   UNL d   1      20.357  -6.199  -7.356  0.00  0.00     0.265 C 
ATOM     12  H   UNL d   1      21.893  -7.344  -6.839  0.00  0.00     0.321 HD
ATOM     13  C   UNL d   1      19.541  -4.898  -7.544  0.00  0.00     0.024 C 
ATOM     14  C   UNL d   1      20.454  -6.673  -8.768  0.00  0.00     0.053 C 
ATOM     15  C   UNL d   1      18.390  -5.018  -8.228  0.00  0.00    -0.001 C 
ATOM     16  C   UNL d   1      18.043  -6.316  -8.749  0.00  0.00     0.002 C 
ATOM     17  C   UNL d   1      19.051  -7.139  -9.145  0.00  0.00     0.028 C 
ATOM     18  N   UNL d   1      21.566  -6.057  -9.108  0.00  0.00    -0.353 N 
ATOM     19  H   UNL d   1      21.616  -5.316  -9.826  0.00  0.00     0.162 HD
ENDBRANCH   8   9
ENDBRANCH   7   8
ENDBRANCH   4   7
ENDBRANCH   2   3
BRANCH   1  20
ATOM     20  C   UNL d   1      25.972 -12.179  -4.463  0.00  0.00    -0.014 A 
ATOM     21  C   UNL d   1      26.428 -13.211  -5.317  0.00  0.00     0.052 A 
ATOM     22  C   UNL d   1      26.497 -14.570  -4.889  0.00  0.00     0.102 A 
ATOM     23  C   UNL d   1      26.066 -14.859  -3.568  0.00  0.00     0.102 A 
ATOM     24  C   UNL d   1      25.525 -13.833  -2.771  0.00  0.00     0.040 A 
ATOM     25  C   UNL d   1      25.467 -12.514  -3.210  0.00  0.00     0.016 A 
BRANCH  22  26
ATOM     26  O   UNL d   1      27.245 -15.365  -5.743  0.00  0.00    -0.353 OA
ATOM     27  C   UNL d   1      28.617 -15.096  -6.073  0.00  0.00     0.210 C 
ENDBRANCH  22  26
BRANCH  23  28
ATOM     28  O   UNL d   1      26.137 -16.017  -2.820  0.00  0.00    -0.344 OA
BRANCH  28  29
ATOM     29  C   UNL d   1      25.623 -15.837  -1.528  0.00  0.00     0.214 C 
BRANCH  29  30
ATOM     30  C   UNL d   1      24.581 -16.760  -1.008  0.00  0.00    -0.034 C 
ATOM     31  C   UNL d   1      24.986 -17.983  -0.504  0.00  0.00     0.009 C 
ATOM     32  C   UNL d   1      24.025 -18.905  -0.147  0.00  0.00     0.001 C 
ATOM     33  C   UNL d   1      22.675 -18.548  -0.151  0.00  0.00     0.000 C 
ATOM     34  C   UNL d   1      22.273 -17.265  -0.520  0.00  0.00     0.001 C 
ATOM     35  C   UNL d   1      23.230 -16.361  -0.950  0.00  0.00     0.009 C 
ENDBRANCH  29  30
ENDBRANCH  28  29
ENDBRANCH  23  28
ENDBRANCH   1  20
TORSDOF 9
ENDMDL
MODEL 5
REMARK VINA RESULT:    -9.984      1.271      1.633
REMARK INTER + INTRA:         -14.840
REMARK INTER:                 -12.669
REMARK INTRA:                  -2.171
REMARK CONF_INDEPENDENT:        2.685
REMARK UNBOUND:                -2.171
REMARK  9 active torsions:
REMARK  status: ('A' for Active; 'I' for Inactive)
REMARK    1  A    between atoms: O_2  and  C_3 
REMARK    2  A    between atoms: C_5  and  C_6 
REMARK    3  A    between atoms: N_7  and  N_8 
REMARK       I    between atoms: N_8  and  C_9 
REMARK    4  A    between atoms: C_9  and  C_11 
REMARK    5  A    between atoms: C_11  and  S_12 
REMARK    6  A    between atoms: S_12  and  C_13 
REMARK    7  A    between atoms: C_24  and  O_25 
REMARK    8  A    between atoms: O_25  and  C_26 
REMARK    9  A    between atoms: C_26  and  C_27 
ROOT
ATOM      1  C   UNL d   1      28.337 -15.780   0.106  0.00  0.00     0.150 C 
ATOM      2  N   UNL d   1      29.405 -16.259  -0.471  0.00  0.00    -0.184 NA
ENDROOT
BRANCH   2   3
ATOM      3  N   UNL d   1      30.632 -15.626  -0.324  0.00  0.00    -0.247 N 
ATOM      4  C   UNL d   1      31.575 -16.212   0.545  0.00  0.00     0.247 C 
ATOM      5  O   UNL d   1      31.373 -17.275   1.131  0.00  0.00    -0.271 OA
ATOM      6  H   UNL d   1      30.792 -14.783  -0.864  0.00  0.00     0.192 HD
BRANCH   4   7
ATOM      7  C   UNL d   1      32.939 -15.458   0.755  0.00  0.00     0.182 C 
BRANCH   7   8
ATOM      8  S   UNL d   1      32.545 -13.605   1.320  0.00  0.00    -0.104 SA
BRANCH   8   9
ATOM      9  C   UNL d   1      31.472 -13.657   2.789  0.00  0.00     0.385 C 
ATOM     10  N   UNL d   1      31.134 -15.037   3.281  0.00  0.00     0.139 N 
ATOM     11  C   UNL d   1      30.181 -14.825   4.070  0.00  0.00     0.265 C 
ATOM     12  H   UNL d   1      30.925 -15.526   2.370  0.00  0.00     0.321 HD
ATOM     13  C   UNL d   1      30.165 -14.078   5.425  0.00  0.00     0.024 C 
ATOM     14  C   UNL d   1      29.135 -14.066   3.322  0.00  0.00     0.053 C 
ATOM     15  C   UNL d   1      28.964 -13.953   6.015  0.00  0.00    -0.001 C 
ATOM     16  C   UNL d   1      27.813 -14.481   5.327  0.00  0.00     0.002 C 
ATOM     17  C   UNL d   1      27.807 -14.449   3.967  0.00  0.00     0.028 C 
ATOM     18  N   UNL d   1      29.904 -13.140   2.790  0.00  0.00    -0.353 N 
ATOM     19  H   UNL d   1      29.834 -12.135   3.017  0.00  0.00     0.162 HD
ENDBRANCH   8   9
ENDBRANCH   7   8
ENDBRANCH   4   7
ENDBRANCH   2   3
BRANCH   1  20
ATOM     20  C   UNL d   1      26.986 -16.421  -0.081  0.00  0.00    -0.014 A 
ATOM     21  C   UNL d   1      25.909 -15.761  -0.718  0.00  0.00     0.052 A 
ATOM     22  C   UNL d   1      24.724 -16.453  -1.107  0.00  0.00     0.102 A 
ATOM     23  C   UNL d   1      24.650 -17.838  -0.807  0.00  0.00     0.102 A 
ATOM     24  C   UNL d   1      25.691 -18.451  -0.086  0.00  0.00     0.040 A 
ATOM     25  C   UNL d   1      26.839 -17.757   0.283  0.00  0.00     0.016 A 
BRANCH  22  26
ATOM     26  O   UNL d   1      23.933 -15.718  -1.976  0.00  0.00    -0.353 OA
ATOM     27  C   UNL d   1      24.435 -14.634  -2.775  0.00  0.00     0.210 C 
ENDBRANCH  22  26
BRANCH  23  28
ATOM     28  O   UNL d   1      23.727 -18.799  -1.166  0.00  0.00    -0.344 OA
BRANCH  28  29
ATOM     29  C   UNL d   1      22.433 -18.269  -1.272  0.00  0.00     0.214 C 
BRANCH  29  30
ATOM     30  C   UNL d   1      21.314 -18.879  -0.508  0.00  0.00    -0.034 C 
ATOM     31  C   UNL d   1      20.275 -19.451  -1.218  0.00  0.00     0.009 C 
ATOM     32  C   UNL d   1      19.166 -19.896  -0.531  0.00  0.00     0.001 C 
ATOM     33  C   UNL d   1      19.165 -19.908   0.866  0.00  0.00     0.000 C 
ATOM     34  C   UNL d   1      20.273 -19.466   1.588  0.00  0.00     0.001 C 
ATOM     35  C   UNL d   1      21.359 -18.949   0.899  0.00  0.00     0.009 C 
ENDBRANCH  29  30
ENDBRANCH  28  29
ENDBRANCH  23  28
ENDBRANCH   1  20
TORSDOF 9
ENDMDL
MODEL 6
REMARK VINA RESULT:    -9.910      4.396      6.803
REMARK INTER + INTRA:         -14.247
REMARK INTER:                 -12.595
REMARK INTRA:                  -1.652
REMARK CONF_INDEPENDENT:        2.685
REMARK UNBOUND:                -1.652
REMARK  9 active torsions:
REMARK  status: ('A' for Active; 'I' for Inactive)
REMARK    1  A    between atoms: O_2  and  C_3 
REMARK    2  A    between atoms: C_5  and  C_6 
REMARK    3  A    between atoms: N_7  and  N_8 
REMARK       I    between atoms: N_8  and  C_9 
REMARK    4  A    between atoms: C_9  and  C_11 
REMARK    5  A    between atoms: C_11  and  S_12 
REMARK    6  A    between atoms: S_12  and  C_13 
REMARK    7  A    between atoms: C_24  and  O_25 
REMARK    8  A    between atoms: O_25  and  C_26 
REMARK    9  A    between atoms: C_26  and  C_27 
ROOT
ATOM      1  C   UNL d   1      27.665 -17.772   0.137  0.00  0.00     0.150 C 
ATOM      2  N   UNL d   1      28.550 -17.497  -0.783  0.00  0.00    -0.184 NA
ENDROOT
BRANCH   2   3
ATOM      3  N   UNL d   1      29.886 -17.829  -0.599  0.00  0.00    -0.247 N 
ATOM      4  C   UNL d   1      30.751 -17.714  -1.707  0.00  0.00     0.247 C 
ATOM      5  O   UNL d   1      30.382 -17.288  -2.801  0.00  0.00    -0.271 OA
ATOM      6  H   UNL d   1      30.172 -18.122   0.328  0.00  0.00     0.192 HD
BRANCH   4   7
ATOM      7  C   UNL d   1      32.248 -18.151  -1.509  0.00  0.00     0.182 C 
BRANCH   7   8
ATOM      8  S   UNL d   1      32.566 -19.785  -2.575  0.00  0.00    -0.104 SA
BRANCH   8   9
ATOM      9  C   UNL d   1      32.443 -19.365  -4.341  0.00  0.00     0.385 C 
ATOM     10  N   UNL d   1      31.263 -18.507  -4.710  0.00  0.00     0.139 N 
ATOM     11  C   UNL d   1      31.226 -18.609  -5.961  0.00  0.00     0.265 C 
ATOM     12  H   UNL d   1      30.498 -18.972  -4.151  0.00  0.00     0.321 HD
ATOM     13  C   UNL d   1      32.230 -18.106  -7.026  0.00  0.00     0.024 C 
ATOM     14  C   UNL d   1      31.173 -20.064  -6.294  0.00  0.00     0.053 C 
ATOM     15  C   UNL d   1      31.948 -18.429  -8.299  0.00  0.00    -0.001 C 
ATOM     16  C   UNL d   1      30.780 -19.235  -8.552  0.00  0.00     0.002 C 
ATOM     17  C   UNL d   1      30.422 -20.156  -7.618  0.00  0.00     0.028 C 
ATOM     18  N   UNL d   1      32.156 -20.480  -5.525  0.00  0.00    -0.353 N 
ATOM     19  H   UNL d   1      33.035 -20.887  -5.886  0.00  0.00     0.162 HD
ENDBRANCH   8   9
ENDBRANCH   7   8
ENDBRANCH   4   7
ENDBRANCH   2   3
BRANCH   1  20
ATOM     20  C   UNL d   1      26.219 -17.375  -0.020  0.00  0.00    -0.014 A 
ATOM     21  C   UNL d   1      25.810 -16.275  -0.810  0.00  0.00     0.052 A 
ATOM     22  C   UNL d   1      24.442 -16.056  -1.149  0.00  0.00     0.102 A 
ATOM     23  C   UNL d   1      23.490 -16.976  -0.640  0.00  0.00     0.102 A 
ATOM     24  C   UNL d   1      23.908 -18.005   0.225  0.00  0.00     0.040 A 
ATOM     25  C   UNL d   1      25.248 -18.201   0.541  0.00  0.00     0.016 A 
BRANCH  22  26
ATOM     26  O   UNL d   1      24.282 -15.126  -2.164  0.00  0.00    -0.353 OA
ATOM     27  C   UNL d   1      25.192 -15.000  -3.269  0.00  0.00     0.210 C 
ENDBRANCH  22  26
BRANCH  23  28
ATOM     28  O   UNL d   1      22.141 -17.124  -0.892  0.00  0.00    -0.344 OA
BRANCH  28  29
ATOM     29  C   UNL d   1      21.804 -18.456  -1.172  0.00  0.00     0.214 C 
BRANCH  29  30
ATOM     30  C   UNL d   1      20.778 -19.152  -0.353  0.00  0.00    -0.034 C 
ATOM     31  C   UNL d   1      19.683 -19.693  -1.002  0.00  0.00     0.009 C 
ATOM     32  C   UNL d   1      18.656 -20.217  -0.246  0.00  0.00     0.001 C 
ATOM     33  C   UNL d   1      18.794 -20.336   1.139  0.00  0.00     0.000 C 
ATOM     34  C   UNL d   1      19.961 -19.923   1.781  0.00  0.00     0.001 C 
ATOM     35  C   UNL d   1      20.964 -19.328   1.033  0.00  0.00     0.009 C 
ENDBRANCH  29  30
ENDBRANCH  28  29
ENDBRANCH  23  28
ENDBRANCH   1  20
TORSDOF 9
ENDMDL
MODEL 7
REMARK VINA RESULT:    -9.507      3.324      4.827
REMARK INTER + INTRA:         -14.667
REMARK INTER:                 -12.192
REMARK INTRA:                  -2.475
REMARK CONF_INDEPENDENT:        2.685
REMARK UNBOUND:                -2.475
REMARK  9 active torsions:
REMARK  status: ('A' for Active; 'I' for Inactive)
REMARK    1  A    between atoms: O_2  and  C_3 
REMARK    2  A    between atoms: C_5  and  C_6 
REMARK    3  A    between atoms: N_7  and  N_8 
REMARK       I    between atoms: N_8  and  C_9 
REMARK    4  A    between atoms: C_9  and  C_11 
REMARK    5  A    between atoms: C_11  and  S_12 
REMARK    6  A    between atoms: S_12  and  C_13 
REMARK    7  A    between atoms: C_24  and  O_25 
REMARK    8  A    between atoms: O_25  and  C_26 
REMARK    9  A    between atoms: C_26  and  C_27 
ROOT
ATOM      1  C   UNL d   1      27.260 -17.812  -0.028  0.00  0.00     0.150 C 
ATOM      2  N   UNL d   1      28.130 -17.407  -0.912  0.00  0.00    -0.184 NA
ENDROOT
BRANCH   2   3
ATOM      3  N   UNL d   1      29.480 -17.692  -0.758  0.00  0.00    -0.247 N 
ATOM      4  C   UNL d   1      30.381 -16.609  -0.712  0.00  0.00     0.247 C 
ATOM      5  O   UNL d   1      30.017 -15.435  -0.753  0.00  0.00    -0.271 OA
ATOM      6  H   UNL d   1      29.745 -18.667  -0.669  0.00  0.00     0.192 HD
BRANCH   4   7
ATOM      7  C   UNL d   1      31.914 -16.942  -0.600  0.00  0.00     0.182 C 
BRANCH   7   8
ATOM      8  S   UNL d   1      32.760 -16.578  -2.349  0.00  0.00    -0.104 SA
BRANCH   8   9
ATOM      9  C   UNL d   1      31.467 -16.102  -3.537  0.00  0.00     0.385 C 
ATOM     10  N   UNL d   1      30.882 -14.733  -3.326  0.00  0.00     0.139 N 
ATOM     11  C   UNL d   1      29.849 -14.759  -4.039  0.00  0.00     0.265 C 
ATOM     12  H   UNL d   1      30.762 -14.729  -2.277  0.00  0.00     0.321 HD
ATOM     13  C   UNL d   1      29.710 -14.843  -5.578  0.00  0.00     0.024 C 
ATOM     14  C   UNL d   1      29.042 -15.944  -3.622  0.00  0.00     0.053 C 
ATOM     15  C   UNL d   1      28.455 -14.923  -6.052  0.00  0.00    -0.001 C 
ATOM     16  C   UNL d   1      27.372 -14.963  -5.102  0.00  0.00     0.002 C 
ATOM     17  C   UNL d   1      27.589 -15.575  -3.907  0.00  0.00     0.028 C 
ATOM     18  N   UNL d   1      29.997 -16.849  -3.632  0.00  0.00    -0.353 N 
ATOM     19  H   UNL d   1      30.019 -17.654  -4.279  0.00  0.00     0.162 HD
ENDBRANCH   8   9
ENDBRANCH   7   8
ENDBRANCH   4   7
ENDBRANCH   2   3
BRANCH   1  20
ATOM     20  C   UNL d   1      25.797 -17.471  -0.149  0.00  0.00    -0.014 A 
ATOM     21  C   UNL d   1      25.325 -16.414  -0.964  0.00  0.00     0.052 A 
ATOM     22  C   UNL d   1      23.940 -16.253  -1.264  0.00  0.00     0.102 A 
ATOM     23  C   UNL d   1      23.037 -17.186  -0.692  0.00  0.00     0.102 A 
ATOM     24  C   UNL d   1      23.518 -18.169   0.193  0.00  0.00     0.040 A 
ATOM     25  C   UNL d   1      24.874 -18.308   0.472  0.00  0.00     0.016 A 
BRANCH  22  26
ATOM     26  O   UNL d   1      23.715 -15.366  -2.305  0.00  0.00    -0.353 OA
ATOM     27  C   UNL d   1      24.699 -14.429  -2.770  0.00  0.00     0.210 C 
ENDBRANCH  22  26
BRANCH  23  28
ATOM     28  O   UNL d   1      21.687 -17.388  -0.894  0.00  0.00    -0.344 OA
BRANCH  28  29
ATOM     29  C   UNL d   1      21.377 -18.748  -1.037  0.00  0.00     0.214 C 
BRANCH  29  30
ATOM     30  C   UNL d   1      20.427 -19.398  -0.097  0.00  0.00    -0.034 C 
ATOM     31  C   UNL d   1      20.698 -19.325   1.257  0.00  0.00     0.009 C 
ATOM     32  C   UNL d   1      19.907 -20.038   2.132  0.00  0.00     0.001 C 
ATOM     33  C   UNL d   1      18.763 -20.694   1.669  0.00  0.00     0.000 C 
ATOM     34  C   UNL d   1      18.407 -20.648   0.322  0.00  0.00     0.001 C 
ATOM     35  C   UNL d   1      19.241 -19.994  -0.571  0.00  0.00     0.009 C 
ENDBRANCH  29  30
ENDBRANCH  28  29
ENDBRANCH  23  28
ENDBRANCH   1  20
TORSDOF 9
ENDMDL
MODEL 8
REMARK VINA RESULT:    -9.359      1.522      2.191
REMARK INTER + INTRA:         -14.589
REMARK INTER:                 -12.044
REMARK INTRA:                  -2.545
REMARK CONF_INDEPENDENT:        2.685
REMARK UNBOUND:                -2.545
REMARK  9 active torsions:
REMARK  status: ('A' for Active; 'I' for Inactive)
REMARK    1  A    between atoms: O_2  and  C_3 
REMARK    2  A    between atoms: C_5  and  C_6 
REMARK    3  A    between atoms: N_7  and  N_8 
REMARK       I    between atoms: N_8  and  C_9 
REMARK    4  A    between atoms: C_9  and  C_11 
REMARK    5  A    between atoms: C_11  and  S_12 
REMARK    6  A    between atoms: S_12  and  C_13 
REMARK    7  A    between atoms: C_24  and  O_25 
REMARK    8  A    between atoms: O_25  and  C_26 
REMARK    9  A    between atoms: C_26  and  C_27 
ROOT
ATOM      1  C   UNL d   1      28.209 -14.796  -1.321  0.00  0.00     0.150 C 
ATOM      2  N   UNL d   1      29.141 -15.091  -0.457  0.00  0.00    -0.184 NA
ENDROOT
BRANCH   2   3
ATOM      3  N   UNL d   1      30.322 -14.362  -0.415  0.00  0.00    -0.247 N 
ATOM      4  C   UNL d   1      31.426 -14.934   0.250  0.00  0.00     0.247 C 
ATOM      5  O   UNL d   1      31.399 -16.061   0.743  0.00  0.00    -0.271 OA
ATOM      6  H   UNL d   1      30.333 -13.461  -0.879  0.00  0.00     0.192 HD
BRANCH   4   7
ATOM      7  C   UNL d   1      32.741 -14.077   0.348  0.00  0.00     0.182 C 
BRANCH   7   8
ATOM      8  S   UNL d   1      33.091 -13.690   2.255  0.00  0.00    -0.104 SA
BRANCH   8   9
ATOM      9  C   UNL d   1      31.499 -13.527   3.121  0.00  0.00     0.385 C 
ATOM     10  N   UNL d   1      30.789 -14.825   3.396  0.00  0.00     0.139 N 
ATOM     11  C   UNL d   1      29.632 -14.448   3.704  0.00  0.00     0.265 C 
ATOM     12  H   UNL d   1      30.921 -15.321   2.473  0.00  0.00     0.321 HD
ATOM     13  C   UNL d   1      29.148 -13.645   4.936  0.00  0.00     0.024 C 
ATOM     14  C   UNL d   1      29.126 -13.587   2.595  0.00  0.00     0.053 C 
ATOM     15  C   UNL d   1      27.842 -13.330   4.956  0.00  0.00    -0.001 C 
ATOM     16  C   UNL d   1      27.031 -13.725   3.832  0.00  0.00     0.002 C 
ATOM     17  C   UNL d   1      27.610 -13.754   2.602  0.00  0.00     0.028 C 
ATOM     18  N   UNL d   1      30.172 -12.800   2.460  0.00  0.00    -0.353 N 
ATOM     19  H   UNL d   1      30.157 -11.786   2.654  0.00  0.00     0.162 HD
ENDBRANCH   8   9
ENDBRANCH   7   8
ENDBRANCH   4   7
ENDBRANCH   2   3
BRANCH   1  20
ATOM     20  C   UNL d   1      26.941 -15.605  -1.418  0.00  0.00    -0.014 A 
ATOM     21  C   UNL d   1      26.779 -16.850  -0.765  0.00  0.00     0.052 A 
ATOM     22  C   UNL d   1      25.507 -17.487  -0.661  0.00  0.00     0.102 A 
ATOM     23  C   UNL d   1      24.400 -16.834  -1.261  0.00  0.00     0.102 A 
ATOM     24  C   UNL d   1      24.603 -15.646  -1.989  0.00  0.00     0.040 A 
ATOM     25  C   UNL d   1      25.852 -15.042  -2.078  0.00  0.00     0.016 A 
BRANCH  22  26
ATOM     26  O   UNL d   1      25.498 -18.521   0.263  0.00  0.00    -0.353 OA
ATOM     27  C   UNL d   1      26.375 -18.571   1.400  0.00  0.00     0.210 C 
ENDBRANCH  22  26
BRANCH  23  28
ATOM     28  O   UNL d   1      23.048 -17.107  -1.217  0.00  0.00    -0.344 OA
BRANCH  28  29
ATOM     29  C   UNL d   1      22.796 -18.476  -1.049  0.00  0.00     0.214 C 
BRANCH  29  30
ATOM     30  C   UNL d   1      21.513 -18.928  -0.449  0.00  0.00    -0.034 C 
ATOM     31  C   UNL d   1      21.411 -18.950   0.930  0.00  0.00     0.009 C 
ATOM     32  C   UNL d   1      20.282 -19.497   1.503  0.00  0.00     0.001 C 
ATOM     33  C   UNL d   1      19.202 -19.876   0.701  0.00  0.00     0.000 C 
ATOM     34  C   UNL d   1      19.246 -19.718  -0.683  0.00  0.00     0.001 C 
ATOM     35  C   UNL d   1      20.408 -19.239  -1.267  0.00  0.00     0.009 C 
ENDBRANCH  29  30
ENDBRANCH  28  29
ENDBRANCH  23  28
ENDBRANCH   1  20
TORSDOF 9
ENDMDL
MODEL 9
REMARK VINA RESULT:    -9.180      2.403      3.800
REMARK INTER + INTRA:         -13.805
REMARK INTER:                 -11.864
REMARK INTRA:                  -1.941
REMARK CONF_INDEPENDENT:        2.685
REMARK UNBOUND:                -1.941
REMARK  9 active torsions:
REMARK  status: ('A' for Active; 'I' for Inactive)
REMARK    1  A    between atoms: O_2  and  C_3 
REMARK    2  A    between atoms: C_5  and  C_6 
REMARK    3  A    between atoms: N_7  and  N_8 
REMARK       I    between atoms: N_8  and  C_9 
REMARK    4  A    between atoms: C_9  and  C_11 
REMARK    5  A    between atoms: C_11  and  S_12 
REMARK    6  A    between atoms: S_12  and  C_13 
REMARK    7  A    between atoms: C_24  and  O_25 
REMARK    8  A    between atoms: O_25  and  C_26 
REMARK    9  A    between atoms: C_26  and  C_27 
ROOT
ATOM      1  C   UNL d   1      30.158 -14.332  -0.941  0.00  0.00     0.150 C 
ATOM      2  N   UNL d   1      31.311 -14.654  -1.459  0.00  0.00    -0.184 NA
ENDROOT
BRANCH   2   3
ATOM      3  N   UNL d   1      32.475 -14.564  -0.706  0.00  0.00    -0.247 N 
ATOM      4  C   UNL d   1      32.504 -15.222   0.541  0.00  0.00     0.247 C 
ATOM      5  O   UNL d   1      31.569 -15.904   0.958  0.00  0.00    -0.271 OA
ATOM      6  H   UNL d   1      33.249 -14.043  -1.101  0.00  0.00     0.192 HD
BRANCH   4   7
ATOM      7  C   UNL d   1      33.800 -15.064   1.417  0.00  0.00     0.182 C 
BRANCH   7   8
ATOM      8  S   UNL d   1      33.427 -13.759   2.854  0.00  0.00    -0.104 SA
BRANCH   8   9
ATOM      9  C   UNL d   1      31.630 -13.692   3.131  0.00  0.00     0.385 C 
ATOM     10  N   UNL d   1      31.205 -12.943   4.365  0.00  0.00     0.139 N 
ATOM     11  C   UNL d   1      30.004 -13.287   4.497  0.00  0.00     0.265 C 
ATOM     12  H   UNL d   1      31.905 -13.305   5.066  0.00  0.00     0.321 HD
ATOM     13  C   UNL d   1      28.782 -12.980   3.599  0.00  0.00     0.024 C 
ATOM     14  C   UNL d   1      29.961 -14.779   4.526  0.00  0.00     0.053 C 
ATOM     15  C   UNL d   1      27.622 -13.549   3.969  0.00  0.00    -0.001 C 
ATOM     16  C   UNL d   1      27.627 -14.410   5.125  0.00  0.00     0.002 C 
ATOM     17  C   UNL d   1      28.747 -15.140   5.377  0.00  0.00     0.028 C 
ATOM     18  N   UNL d   1      30.710 -15.019   3.471  0.00  0.00    -0.353 N 
ATOM     19  H   UNL d   1      30.361 -15.473   2.611  0.00  0.00     0.162 HD
ENDBRANCH   8   9
ENDBRANCH   7   8
ENDBRANCH   4   7
ENDBRANCH   2   3
BRANCH   1  20
ATOM     20  C   UNL d   1      28.890 -14.373  -1.755  0.00  0.00    -0.014 A 
ATOM     21  C   UNL d   1      28.877 -14.705  -3.131  0.00  0.00     0.052 A 
ATOM     22  C   UNL d   1      27.665 -14.979  -3.830  0.00  0.00     0.102 A 
ATOM     23  C   UNL d   1      26.455 -14.885  -3.096  0.00  0.00     0.102 A 
ATOM     24  C   UNL d   1      26.484 -14.459  -1.755  0.00  0.00     0.040 A 
ATOM     25  C   UNL d   1      27.679 -14.196  -1.093  0.00  0.00     0.016 A 
BRANCH  22  26
ATOM     26  O   UNL d   1      27.878 -15.574  -5.064  0.00  0.00    -0.353 OA
ATOM     27  C   UNL d   1      28.162 -14.831  -6.260  0.00  0.00     0.210 C 
ENDBRANCH  22  26
BRANCH  23  28
ATOM     28  O   UNL d   1      25.158 -15.218  -3.432  0.00  0.00    -0.344 OA
BRANCH  28  29
ATOM     29  C   UNL d   1      24.291 -15.119  -2.333  0.00  0.00     0.214 C 
BRANCH  29  30
ATOM     30  C   UNL d   1      24.042 -16.306  -1.474  0.00  0.00    -0.034 C 
ATOM     31  C   UNL d   1      25.108 -17.139  -1.188  0.00  0.00     0.009 C 
ATOM     32  C   UNL d   1      24.868 -18.316  -0.511  0.00  0.00     0.001 C 
ATOM     33  C   UNL d   1      23.598 -18.579   0.009  0.00  0.00     0.000 C 
ATOM     34  C   UNL d   1      22.555 -17.669  -0.152  0.00  0.00     0.001 C 
ATOM     35  C   UNL d   1      22.775 -16.521  -0.896  0.00  0.00     0.009 C 
ENDBRANCH  29  30
ENDBRANCH  28  29
ENDBRANCH  23  28
ENDBRANCH   1  20
TORSDOF 9
ENDMDL
