MODEL 1
REMARK VINA RESULT:    -9.207      0.000      0.000
REMARK INTER + INTRA:         -14.423
REMARK INTER:                 -12.488
REMARK INTRA:                  -1.935
REMARK CONF_INDEPENDENT:        3.281
REMARK UNBOUND:                -1.935
REMARK  11 active torsions:
REMARK  status: ('A' for Active; 'I' for Inactive)
REMARK    1  A    between atoms: C_2  and  C_3 
REMARK    2  A    between atoms: C_3  and  C_5 
REMARK    3  A    between atoms: C_8  and  O_9 
REMARK    4  A    between atoms: O_9  and  C_10 
REMARK    5  A    between atoms: C_10  and  C_11 
REMARK       I    between atoms: C_11  and  N_13 
REMARK    6  A    between atoms: N_13  and  N_14 
REMARK    7  A    between atoms: N_14  and  C_15 
REMARK    8  A    between atoms: C_15  and  N_17 
REMARK       I    between atoms: N_17  and  C_18 
REMARK    9  A    between atoms: C_18  and  C_20 
REMARK   10  A    between atoms: C_24  and  C_25 
REMARK   11  A    between atoms: C_25  and  O_27 
ROOT
ATOM      1  N   UNL d   1      25.673 -12.907  -4.586  0.00  0.00    -0.273 N 
ATOM      2  H   UNL d   1      24.705 -12.633  -4.414  0.00  0.00     0.189 HD
ENDROOT
BRANCH   1   3
ATOM      3  N   UNL d   1      26.119 -14.059  -3.806  0.00  0.00    -0.266 N 
ATOM      4  C   UNL d   1      25.234 -14.776  -3.008  0.00  0.00     0.260 C 
ATOM      5  O   UNL d   1      24.049 -14.450  -2.931  0.00  0.00    -0.269 OA
ATOM      6  H   UNL d   1      27.109 -14.290  -3.898  0.00  0.00     0.190 HD
BRANCH   4   7
ATOM      7  C   UNL d   1      25.843 -15.990  -2.241  0.00  0.00     0.280 C 
BRANCH   7   8
ATOM      8  O   UNL d   1      25.259 -16.119  -0.939  0.00  0.00    -0.342 OA
BRANCH   8   9
ATOM      9  C   UNL d   1      24.152 -16.913  -0.794  0.00  0.00     0.069 A 
ATOM     10  C   UNL d   1      24.408 -18.262  -0.538  0.00  0.00     0.037 A 
ATOM     11  C   UNL d   1      23.362 -19.187  -0.452  0.00  0.00     0.010 A 
ATOM     12  C   UNL d   1      22.027 -18.768  -0.509  0.00  0.00    -0.054 A 
ATOM     13  C   UNL d   1      21.780 -17.411  -0.763  0.00  0.00     0.010 A 
ATOM     14  C   UNL d   1      22.829 -16.493  -0.895  0.00  0.00     0.037 A 
BRANCH  12  15
ATOM     15  C   UNL d   1      20.851 -19.700  -0.226  0.00  0.00     0.014 C 
ATOM     16  C   UNL d   1      19.695 -19.362  -1.185  0.00  0.00     0.015 C 
BRANCH  15  17
ATOM     17  C   UNL d   1      20.366 -19.621   1.237  0.00  0.00     0.004 C 
ATOM     18  C   UNL d   1      19.077 -20.378   1.490  0.00  0.00     0.006 C 
ENDBRANCH  15  17
ENDBRANCH  12  15
ENDBRANCH   8   9
ENDBRANCH   7   8
ENDBRANCH   4   7
ENDBRANCH   1   3
BRANCH   1  19
ATOM     19  C   UNL d   1      26.563 -12.303  -5.492  0.00  0.00     0.193 C 
ATOM     20  S   UNL d   1      26.120 -10.854  -6.239  0.00  0.00    -0.039 SA
BRANCH  19  21
ATOM     21  N   UNL d   1      27.784 -12.991  -5.707  0.00  0.00    -0.298 N 
ATOM     22  C   UNL d   1      27.934 -14.386  -5.903  0.00  0.00     0.257 C 
ATOM     23  O   UNL d   1      27.014 -15.200  -5.902  0.00  0.00    -0.267 OA
ATOM     24  H   UNL d   1      28.626 -12.436  -5.777  0.00  0.00     0.171 HD
BRANCH  22  25
ATOM     25  C   UNL d   1      29.283 -14.997  -6.116  0.00  0.00     0.033 A 
ATOM     26  C   UNL d   1      30.213 -14.280  -6.903  0.00  0.00     0.017 A 
ATOM     27  C   UNL d   1      31.389 -14.883  -7.361  0.00  0.00     0.002 A 
ATOM     28  C   UNL d   1      31.676 -16.195  -6.994  0.00  0.00     0.017 A 
ATOM     29  C   UNL d   1      30.759 -16.930  -6.221  0.00  0.00     0.040 A 
ATOM     30  C   UNL d   1      29.558 -16.327  -5.788  0.00  0.00     0.034 A 
BRANCH  29  31
ATOM     31  C   UNL d   1      31.084 -18.359  -5.940  0.00  0.00     0.292 C 
ATOM     32  O   UNL d   1      31.549 -18.747  -4.872  0.00  0.00    -0.259 OA
BRANCH  31  33
ATOM     33  O   UNL d   1      30.803 -19.144  -7.007  0.00  0.00    -0.323 OA
ATOM     34  C   UNL d   1      31.650 -20.293  -7.133  0.00  0.00     0.213 C 
ENDBRANCH  31  33
ENDBRANCH  29  31
ENDBRANCH  22  25
ENDBRANCH  19  21
ENDBRANCH   1  19
TORSDOF 11
ENDMDL
MODEL 2
REMARK VINA RESULT:    -8.736      7.358      9.906
REMARK INTER + INTRA:         -13.732
REMARK INTER:                 -12.017
REMARK INTRA:                  -1.715
REMARK CONF_INDEPENDENT:        3.281
REMARK UNBOUND:                -1.715
REMARK  11 active torsions:
REMARK  status: ('A' for Active; 'I' for Inactive)
REMARK    1  A    between atoms: C_2  and  C_3 
REMARK    2  A    between atoms: C_3  and  C_5 
REMARK    3  A    between atoms: C_8  and  O_9 
REMARK    4  A    between atoms: O_9  and  C_10 
REMARK    5  A    between atoms: C_10  and  C_11 
REMARK       I    between atoms: C_11  and  N_13 
REMARK    6  A    between atoms: N_13  and  N_14 
REMARK    7  A    between atoms: N_14  and  C_15 
REMARK    8  A    between atoms: C_15  and  N_17 
REMARK       I    between atoms: N_17  and  C_18 
REMARK    9  A    between atoms: C_18  and  C_20 
REMARK   10  A    between atoms: C_24  and  C_25 
REMARK   11  A    between atoms: C_25  and  O_27 
ROOT
ATOM      1  N   UNL d   1      29.289 -14.217   1.886  0.00  0.00    -0.273 N 
ATOM      2  H   UNL d   1      28.892 -13.312   1.631  0.00  0.00     0.189 HD
ENDROOT
BRANCH   1   3
ATOM      3  N   UNL d   1      28.712 -15.351   1.168  0.00  0.00    -0.266 N 
ATOM      4  C   UNL d   1      27.505 -15.234   0.487  0.00  0.00     0.260 C 
ATOM      5  O   UNL d   1      26.886 -14.170   0.479  0.00  0.00    -0.269 OA
ATOM      6  H   UNL d   1      29.257 -16.213   1.205  0.00  0.00     0.190 HD
BRANCH   4   7
ATOM      7  C   UNL d   1      27.012 -16.520  -0.246  0.00  0.00     0.280 C 
BRANCH   7   8
ATOM      8  O   UNL d   1      25.806 -16.265  -0.974  0.00  0.00    -0.342 OA
BRANCH   8   9
ATOM      9  C   UNL d   1      24.717 -17.062  -0.736  0.00  0.00     0.069 A 
ATOM     10  C   UNL d   1      23.476 -16.428  -0.827  0.00  0.00     0.037 A 
ATOM     11  C   UNL d   1      22.295 -17.115  -0.526  0.00  0.00     0.010 A 
ATOM     12  C   UNL d   1      22.317 -18.484  -0.234  0.00  0.00    -0.054 A 
ATOM     13  C   UNL d   1      23.567 -19.113  -0.149  0.00  0.00     0.010 A 
ATOM     14  C   UNL d   1      24.752 -18.414  -0.406  0.00  0.00     0.037 A 
BRANCH  12  15
ATOM     15  C   UNL d   1      21.048 -19.323  -0.092  0.00  0.00     0.014 C 
ATOM     16  C   UNL d   1      19.912 -18.661  -0.895  0.00  0.00     0.015 C 
BRANCH  15  17
ATOM     17  C   UNL d   1      20.618 -19.510   1.378  0.00  0.00     0.004 C 
ATOM     18  C   UNL d   1      19.259 -20.165   1.533  0.00  0.00     0.006 C 
ENDBRANCH  15  17
ENDBRANCH  12  15
ENDBRANCH   8   9
ENDBRANCH   7   8
ENDBRANCH   4   7
ENDBRANCH   1   3
BRANCH   1  19
ATOM     19  C   UNL d   1      30.319 -14.444   2.817  0.00  0.00     0.193 C 
ATOM     20  S   UNL d   1      31.771 -15.124   2.287  0.00  0.00    -0.039 SA
BRANCH  19  21
ATOM     21  N   UNL d   1      30.031 -14.076   4.156  0.00  0.00    -0.298 N 
ATOM     22  C   UNL d   1      28.871 -13.397   4.605  0.00  0.00     0.257 C 
ATOM     23  O   UNL d   1      27.951 -13.021   3.883  0.00  0.00    -0.267 OA
ATOM     24  H   UNL d   1      30.686 -14.364   4.869  0.00  0.00     0.171 HD
BRANCH  22  25
ATOM     25  C   UNL d   1      28.683 -13.059   6.050  0.00  0.00     0.033 A 
ATOM     26  C   UNL d   1      28.478 -11.702   6.388  0.00  0.00     0.017 A 
ATOM     27  C   UNL d   1      28.549 -11.268   7.715  0.00  0.00     0.002 A 
ATOM     28  C   UNL d   1      28.772 -12.196   8.730  0.00  0.00     0.017 A 
ATOM     29  C   UNL d   1      28.989 -13.550   8.416  0.00  0.00     0.040 A 
ATOM     30  C   UNL d   1      28.949 -13.977   7.071  0.00  0.00     0.034 A 
BRANCH  29  31
ATOM     31  C   UNL d   1      29.313 -14.475   9.540  0.00  0.00     0.292 C 
ATOM     32  O   UNL d   1      28.481 -15.200  10.078  0.00  0.00    -0.259 OA
BRANCH  31  33
ATOM     33  O   UNL d   1      30.623 -14.398   9.874  0.00  0.00    -0.323 OA
ATOM     34  C   UNL d   1      31.521 -14.496   8.762  0.00  0.00     0.213 C 
ENDBRANCH  31  33
ENDBRANCH  29  31
ENDBRANCH  22  25
ENDBRANCH  19  21
ENDBRANCH   1  19
TORSDOF 11
ENDMDL
MODEL 3
REMARK VINA RESULT:    -8.270      1.852      2.731
REMARK INTER + INTRA:         -13.639
REMARK INTER:                 -11.552
REMARK INTRA:                  -2.088
REMARK CONF_INDEPENDENT:        3.281
REMARK UNBOUND:                -2.088
REMARK  11 active torsions:
REMARK  status: ('A' for Active; 'I' for Inactive)
REMARK    1  A    between atoms: C_2  and  C_3 
REMARK    2  A    between atoms: C_3  and  C_5 
REMARK    3  A    between atoms: C_8  and  O_9 
REMARK    4  A    between atoms: O_9  and  C_10 
REMARK    5  A    between atoms: C_10  and  C_11 
REMARK       I    between atoms: C_11  and  N_13 
REMARK    6  A    between atoms: N_13  and  N_14 
REMARK    7  A    between atoms: N_14  and  C_15 
REMARK    8  A    between atoms: C_15  and  N_17 
REMARK       I    between atoms: N_17  and  C_18 
REMARK    9  A    between atoms: C_18  and  C_20 
REMARK   10  A    between atoms: C_24  and  C_25 
REMARK   11  A    between atoms: C_25  and  O_27 
ROOT
ATOM      1  N   UNL d   1      25.204 -12.805  -4.138  0.00  0.00    -0.273 N 
ATOM      2  H   UNL d   1      24.225 -12.533  -4.043  0.00  0.00     0.189 HD
ENDROOT
BRANCH   1   3
ATOM      3  N   UNL d   1      25.659 -13.768  -3.138  0.00  0.00    -0.266 N 
ATOM      4  C   UNL d   1      25.812 -15.115  -3.451  0.00  0.00     0.260 C 
ATOM      5  O   UNL d   1      25.558 -15.532  -4.581  0.00  0.00    -0.269 OA
ATOM      6  H   UNL d   1      25.854 -13.378  -2.214  0.00  0.00     0.190 HD
BRANCH   4   7
ATOM      7  C   UNL d   1      26.317 -16.028  -2.291  0.00  0.00     0.280 C 
BRANCH   7   8
ATOM      8  O   UNL d   1      25.514 -15.856  -1.117  0.00  0.00    -0.342 OA
BRANCH   8   9
ATOM      9  C   UNL d   1      24.543 -16.784  -0.847  0.00  0.00     0.069 A 
ATOM     10  C   UNL d   1      23.229 -16.313  -0.899  0.00  0.00     0.037 A 
ATOM     11  C   UNL d   1      22.155 -17.143  -0.564  0.00  0.00     0.010 A 
ATOM     12  C   UNL d   1      22.359 -18.499  -0.274  0.00  0.00    -0.054 A 
ATOM     13  C   UNL d   1      23.681 -18.963  -0.228  0.00  0.00     0.010 A 
ATOM     14  C   UNL d   1      24.759 -18.119  -0.519  0.00  0.00     0.037 A 
BRANCH  12  15
ATOM     15  C   UNL d   1      21.212 -19.491  -0.095  0.00  0.00     0.014 C 
ATOM     16  C   UNL d   1      20.214 -19.325  -1.257  0.00  0.00     0.015 C 
BRANCH  15  17
ATOM     17  C   UNL d   1      20.485 -19.325   1.255  0.00  0.00     0.004 C 
ATOM     18  C   UNL d   1      19.137 -20.018   1.307  0.00  0.00     0.006 C 
ENDBRANCH  15  17
ENDBRANCH  12  15
ENDBRANCH   8   9
ENDBRANCH   7   8
ENDBRANCH   4   7
ENDBRANCH   1   3
BRANCH   1  19
ATOM     19  C   UNL d   1      26.101 -12.363  -5.127  0.00  0.00     0.193 C 
ATOM     20  S   UNL d   1      25.903 -10.821  -5.787  0.00  0.00    -0.039 SA
BRANCH  19  21
ATOM     21  N   UNL d   1      27.116 -13.284  -5.494  0.00  0.00    -0.298 N 
ATOM     22  C   UNL d   1      28.094 -13.091  -6.499  0.00  0.00     0.257 C 
ATOM     23  O   UNL d   1      28.191 -12.091  -7.206  0.00  0.00    -0.267 OA
ATOM     24  H   UNL d   1      27.184 -14.139  -4.959  0.00  0.00     0.171 HD
BRANCH  22  25
ATOM     25  C   UNL d   1      29.114 -14.144  -6.798  0.00  0.00     0.033 A 
ATOM     26  C   UNL d   1      29.027 -15.365  -6.091  0.00  0.00     0.017 A 
ATOM     27  C   UNL d   1      30.072 -16.294  -6.118  0.00  0.00     0.002 A 
ATOM     28  C   UNL d   1      31.198 -16.037  -6.897  0.00  0.00     0.017 A 
ATOM     29  C   UNL d   1      31.311 -14.824  -7.599  0.00  0.00     0.040 A 
ATOM     30  C   UNL d   1      30.267 -13.876  -7.542  0.00  0.00     0.034 A 
BRANCH  29  31
ATOM     31  C   UNL d   1      32.581 -14.572  -8.339  0.00  0.00     0.292 C 
ATOM     32  O   UNL d   1      33.556 -15.317  -8.280  0.00  0.00    -0.259 OA
BRANCH  31  33
ATOM     33  O   UNL d   1      32.507 -13.430  -9.064  0.00  0.00    -0.323 OA
ATOM     34  C   UNL d   1      33.726 -12.677  -9.103  0.00  0.00     0.213 C 
ENDBRANCH  31  33
ENDBRANCH  29  31
ENDBRANCH  22  25
ENDBRANCH  19  21
ENDBRANCH   1  19
TORSDOF 11
ENDMDL
MODEL 4
REMARK VINA RESULT:    -7.979      2.043      9.611
REMARK INTER + INTRA:         -13.451
REMARK INTER:                 -11.260
REMARK INTRA:                  -2.190
REMARK CONF_INDEPENDENT:        3.281
REMARK UNBOUND:                -2.190
REMARK  11 active torsions:
REMARK  status: ('A' for Active; 'I' for Inactive)
REMARK    1  A    between atoms: C_2  and  C_3 
REMARK    2  A    between atoms: C_3  and  C_5 
REMARK    3  A    between atoms: C_8  and  O_9 
REMARK    4  A    between atoms: O_9  and  C_10 
REMARK    5  A    between atoms: C_10  and  C_11 
REMARK       I    between atoms: C_11  and  N_13 
REMARK    6  A    between atoms: N_13  and  N_14 
REMARK    7  A    between atoms: N_14  and  C_15 
REMARK    8  A    between atoms: C_15  and  N_17 
REMARK       I    between atoms: N_17  and  C_18 
REMARK    9  A    between atoms: C_18  and  C_20 
REMARK   10  A    between atoms: C_24  and  C_25 
REMARK   11  A    between atoms: C_25  and  O_27 
ROOT
ATOM      1  N   UNL d   1      26.382 -14.076  -4.723  0.00  0.00    -0.273 N 
ATOM      2  H   UNL d   1      26.108 -14.105  -5.706  0.00  0.00     0.189 HD
ENDROOT
BRANCH   1   3
ATOM      3  N   UNL d   1      27.701 -14.643  -4.451  0.00  0.00    -0.266 N 
ATOM      4  C   UNL d   1      28.477 -15.186  -5.469  0.00  0.00     0.260 C 
ATOM      5  O   UNL d   1      28.066 -15.211  -6.630  0.00  0.00    -0.269 OA
ATOM      6  H   UNL d   1      27.998 -14.604  -3.475  0.00  0.00     0.190 HD
BRANCH   4   7
ATOM      7  C   UNL d   1      29.868 -15.745  -5.038  0.00  0.00     0.280 C 
BRANCH   7   8
ATOM      8  O   UNL d   1      29.821 -17.167  -4.874  0.00  0.00    -0.342 OA
BRANCH   8   9
ATOM      9  C   UNL d   1      30.362 -17.957  -5.854  0.00  0.00     0.069 A 
ATOM     10  C   UNL d   1      30.881 -17.276  -6.957  0.00  0.00     0.037 A 
ATOM     11  C   UNL d   1      31.386 -17.974  -8.059  0.00  0.00     0.010 A 
ATOM     12  C   UNL d   1      31.486 -19.371  -8.038  0.00  0.00    -0.054 A 
ATOM     13  C   UNL d   1      30.966 -20.046  -6.925  0.00  0.00     0.010 A 
ATOM     14  C   UNL d   1      30.418 -19.347  -5.842  0.00  0.00     0.037 A 
BRANCH  12  15
ATOM     15  C   UNL d   1      32.206 -20.168  -9.125  0.00  0.00     0.014 C 
ATOM     16  C   UNL d   1      31.216 -20.477 -10.264  0.00  0.00     0.015 C 
BRANCH  15  17
ATOM     17  C   UNL d   1      32.827 -21.476  -8.593  0.00  0.00     0.004 C 
ATOM     18  C   UNL d   1      32.476 -22.695  -9.424  0.00  0.00     0.006 C 
ENDBRANCH  15  17
ENDBRANCH  12  15
ENDBRANCH   8   9
ENDBRANCH   7   8
ENDBRANCH   4   7
ENDBRANCH   1   3
BRANCH   1  19
ATOM     19  C   UNL d   1      25.633 -13.536  -3.662  0.00  0.00     0.193 C 
ATOM     20  S   UNL d   1      25.481 -11.858  -3.534  0.00  0.00    -0.039 SA
BRANCH  19  21
ATOM     21  N   UNL d   1      25.063 -14.477  -2.768  0.00  0.00    -0.298 N 
ATOM     22  C   UNL d   1      25.754 -15.517  -2.098  0.00  0.00     0.257 C 
ATOM     23  O   UNL d   1      26.955 -15.752  -2.212  0.00  0.00    -0.267 OA
ATOM     24  H   UNL d   1      24.083 -14.374  -2.545  0.00  0.00     0.171 HD
BRANCH  22  25
ATOM     25  C   UNL d   1      25.038 -16.454  -1.178  0.00  0.00     0.033 A 
ATOM     26  C   UNL d   1      25.821 -17.298  -0.358  0.00  0.00     0.017 A 
ATOM     27  C   UNL d   1      25.247 -18.369   0.335  0.00  0.00     0.002 A 
ATOM     28  C   UNL d   1      23.872 -18.578   0.259  0.00  0.00     0.017 A 
ATOM     29  C   UNL d   1      23.076 -17.757  -0.559  0.00  0.00     0.040 A 
ATOM     30  C   UNL d   1      23.665 -16.697  -1.282  0.00  0.00     0.034 A 
BRANCH  29  31
ATOM     31  C   UNL d   1      21.626 -18.091  -0.668  0.00  0.00     0.292 C 
ATOM     32  O   UNL d   1      20.816 -17.391  -1.270  0.00  0.00    -0.259 OA
BRANCH  31  33
ATOM     33  O   UNL d   1      21.340 -19.245  -0.019  0.00  0.00    -0.323 OA
ATOM     34  C   UNL d   1      20.024 -19.752  -0.273  0.00  0.00     0.213 C 
ENDBRANCH  31  33
ENDBRANCH  29  31
ENDBRANCH  22  25
ENDBRANCH  19  21
ENDBRANCH   1  19
TORSDOF 11
ENDMDL
MODEL 5
REMARK VINA RESULT:    -7.764      5.547      8.216
REMARK INTER + INTRA:         -13.669
REMARK INTER:                 -11.046
REMARK INTRA:                  -2.623
REMARK CONF_INDEPENDENT:        3.281
REMARK UNBOUND:                -2.623
REMARK  11 active torsions:
REMARK  status: ('A' for Active; 'I' for Inactive)
REMARK    1  A    between atoms: C_2  and  C_3 
REMARK    2  A    between atoms: C_3  and  C_5 
REMARK    3  A    between atoms: C_8  and  O_9 
REMARK    4  A    between atoms: O_9  and  C_10 
REMARK    5  A    between atoms: C_10  and  C_11 
REMARK       I    between atoms: C_11  and  N_13 
REMARK    6  A    between atoms: N_13  and  N_14 
REMARK    7  A    between atoms: N_14  and  C_15 
REMARK    8  A    between atoms: C_15  and  N_17 
REMARK       I    between atoms: N_17  and  C_18 
REMARK    9  A    between atoms: C_18  and  C_20 
REMARK   10  A    between atoms: C_24  and  C_25 
REMARK   11  A    between atoms: C_25  and  O_27 
ROOT
ATOM      1  N   UNL d   1      28.292 -15.196   1.742  0.00  0.00    -0.273 N 
ATOM      2  H   UNL d   1      29.105 -15.799   1.612  0.00  0.00     0.189 HD
ENDROOT
BRANCH   1   3
ATOM      3  N   UNL d   1      27.202 -15.445   0.803  0.00  0.00    -0.266 N 
ATOM      4  C   UNL d   1      27.308 -16.419  -0.184  0.00  0.00     0.260 C 
ATOM      5  O   UNL d   1      28.334 -17.092  -0.297  0.00  0.00    -0.269 OA
ATOM      6  H   UNL d   1      26.374 -14.861   0.932  0.00  0.00     0.190 HD
BRANCH   4   7
ATOM      7  C   UNL d   1      26.064 -16.586  -1.110  0.00  0.00     0.280 C 
BRANCH   7   8
ATOM      8  O   UNL d   1      24.864 -16.202  -0.429  0.00  0.00    -0.342 OA
BRANCH   8   9
ATOM      9  C   UNL d   1      23.788 -17.049  -0.472  0.00  0.00     0.069 A 
ATOM     10  C   UNL d   1      24.047 -18.371  -0.103  0.00  0.00     0.037 A 
ATOM     11  C   UNL d   1      23.049 -19.348  -0.184  0.00  0.00     0.010 A 
ATOM     12  C   UNL d   1      21.736 -19.005  -0.531  0.00  0.00    -0.054 A 
ATOM     13  C   UNL d   1      21.485 -17.675  -0.896  0.00  0.00     0.010 A 
ATOM     14  C   UNL d   1      22.495 -16.707  -0.858  0.00  0.00     0.037 A 
BRANCH  12  15
ATOM     15  C   UNL d   1      20.572 -19.989  -0.445  0.00  0.00     0.014 C 
ATOM     16  C   UNL d   1      19.311 -19.333  -1.039  0.00  0.00     0.015 C 
BRANCH  15  17
ATOM     17  C   UNL d   1      20.294 -20.460   0.998  0.00  0.00     0.004 C 
ATOM     18  C   UNL d   1      20.196 -19.325   1.998  0.00  0.00     0.006 C 
ENDBRANCH  15  17
ENDBRANCH  12  15
ENDBRANCH   8   9
ENDBRANCH   7   8
ENDBRANCH   4   7
ENDBRANCH   1   3
BRANCH   1  19
ATOM     19  C   UNL d   1      28.139 -14.204   2.728  0.00  0.00     0.193 C 
ATOM     20  S   UNL d   1      28.059 -14.663   4.352  0.00  0.00    -0.039 SA
BRANCH  19  21
ATOM     21  N   UNL d   1      28.055 -12.870   2.253  0.00  0.00    -0.298 N 
ATOM     22  C   UNL d   1      27.134 -12.382   1.294  0.00  0.00     0.257 C 
ATOM     23  O   UNL d   1      26.278 -13.060   0.729  0.00  0.00    -0.267 OA
ATOM     24  H   UNL d   1      28.674 -12.188   2.667  0.00  0.00     0.171 HD
BRANCH  22  25
ATOM     25  C   UNL d   1      27.147 -10.948   0.868  0.00  0.00     0.033 A 
ATOM     26  C   UNL d   1      28.032 -10.578  -0.171  0.00  0.00     0.017 A 
ATOM     27  C   UNL d   1      28.293  -9.234  -0.454  0.00  0.00     0.002 A 
ATOM     28  C   UNL d   1      27.632  -8.240   0.264  0.00  0.00     0.017 A 
ATOM     29  C   UNL d   1      26.756  -8.585   1.308  0.00  0.00     0.040 A 
ATOM     30  C   UNL d   1      26.520  -9.944   1.611  0.00  0.00     0.034 A 
BRANCH  29  31
ATOM     31  C   UNL d   1      26.151  -7.473   2.097  0.00  0.00     0.292 C 
ATOM     32  O   UNL d   1      25.247  -6.758   1.671  0.00  0.00    -0.259 OA
BRANCH  31  33
ATOM     33  O   UNL d   1      26.731  -7.366   3.316  0.00  0.00    -0.323 OA
ATOM     34  C   UNL d   1      28.158  -7.244   3.281  0.00  0.00     0.213 C 
ENDBRANCH  31  33
ENDBRANCH  29  31
ENDBRANCH  22  25
ENDBRANCH  19  21
ENDBRANCH   1  19
TORSDOF 11
ENDMDL
MODEL 6
REMARK VINA RESULT:    -7.688      6.829      9.506
REMARK INTER + INTRA:         -13.822
REMARK INTER:                 -10.969
REMARK INTRA:                  -2.853
REMARK CONF_INDEPENDENT:        3.281
REMARK UNBOUND:                -2.853
REMARK  11 active torsions:
REMARK  status: ('A' for Active; 'I' for Inactive)
REMARK    1  A    between atoms: C_2  and  C_3 
REMARK    2  A    between atoms: C_3  and  C_5 
REMARK    3  A    between atoms: C_8  and  O_9 
REMARK    4  A    between atoms: O_9  and  C_10 
REMARK    5  A    between atoms: C_10  and  C_11 
REMARK       I    between atoms: C_11  and  N_13 
REMARK    6  A    between atoms: N_13  and  N_14 
REMARK    7  A    between atoms: N_14  and  C_15 
REMARK    8  A    between atoms: C_15  and  N_17 
REMARK       I    between atoms: N_17  and  C_18 
REMARK    9  A    between atoms: C_18  and  C_20 
REMARK   10  A    between atoms: C_24  and  C_25 
REMARK   11  A    between atoms: C_25  and  O_27 
ROOT
ATOM      1  N   UNL d   1      32.556 -16.281   1.519  0.00  0.00    -0.273 N 
ATOM      2  H   UNL d   1      33.267 -16.998   1.377  0.00  0.00     0.189 HD
ENDROOT
BRANCH   1   3
ATOM      3  N   UNL d   1      31.265 -16.584   0.905  0.00  0.00    -0.266 N 
ATOM      4  C   UNL d   1      31.180 -17.342  -0.258  0.00  0.00     0.260 C 
ATOM      5  O   UNL d   1      32.196 -17.769  -0.807  0.00  0.00    -0.269 OA
ATOM      6  H   UNL d   1      30.451 -16.206   1.393  0.00  0.00     0.190 HD
BRANCH   4   7
ATOM      7  C   UNL d   1      29.739 -17.599  -0.797  0.00  0.00     0.280 C 
BRANCH   7   8
ATOM      8  O   UNL d   1      28.766 -16.906  -0.007  0.00  0.00    -0.342 OA
BRANCH   8   9
ATOM      9  C   UNL d   1      27.441 -17.050  -0.326  0.00  0.00     0.069 A 
ATOM     10  C   UNL d   1      26.714 -17.909   0.501  0.00  0.00     0.037 A 
ATOM     11  C   UNL d   1      25.373 -18.202   0.230  0.00  0.00     0.010 A 
ATOM     12  C   UNL d   1      24.694 -17.558  -0.811  0.00  0.00    -0.054 A 
ATOM     13  C   UNL d   1      25.432 -16.694  -1.634  0.00  0.00     0.010 A 
ATOM     14  C   UNL d   1      26.786 -16.437  -1.389  0.00  0.00     0.037 A 
BRANCH  12  15
ATOM     15  C   UNL d   1      23.189 -17.691  -1.028  0.00  0.00     0.014 C 
ATOM     16  C   UNL d   1      22.490 -16.415  -0.520  0.00  0.00     0.015 C 
BRANCH  15  17
ATOM     17  C   UNL d   1      22.593 -18.933  -0.333  0.00  0.00     0.004 C 
ATOM     18  C   UNL d   1      21.093 -19.066  -0.512  0.00  0.00     0.006 C 
ENDBRANCH  15  17
ENDBRANCH  12  15
ENDBRANCH   8   9
ENDBRANCH   7   8
ENDBRANCH   4   7
ENDBRANCH   1   3
BRANCH   1  19
ATOM     19  C   UNL d   1      32.707 -15.088   2.250  0.00  0.00     0.193 C 
ATOM     20  S   UNL d   1      34.038 -14.096   1.937  0.00  0.00    -0.039 SA
BRANCH  19  21
ATOM     21  N   UNL d   1      31.702 -14.825   3.214  0.00  0.00    -0.298 N 
ATOM     22  C   UNL d   1      30.363 -14.450   2.944  0.00  0.00     0.257 C 
ATOM     23  O   UNL d   1      29.889 -14.289   1.822  0.00  0.00    -0.267 OA
ATOM     24  H   UNL d   1      31.941 -14.963   4.186  0.00  0.00     0.171 HD
BRANCH  22  25
ATOM     25  C   UNL d   1      29.392 -14.194   4.053  0.00  0.00     0.033 A 
ATOM     26  C   UNL d   1      28.022 -14.430   3.797  0.00  0.00     0.017 A 
ATOM     27  C   UNL d   1      27.033 -13.980   4.678  0.00  0.00     0.002 A 
ATOM     28  C   UNL d   1      27.405 -13.336   5.855  0.00  0.00     0.017 A 
ATOM     29  C   UNL d   1      28.761 -13.081   6.126  0.00  0.00     0.040 A 
ATOM     30  C   UNL d   1      29.754 -13.509   5.217  0.00  0.00     0.034 A 
BRANCH  29  31
ATOM     31  C   UNL d   1      29.085 -12.306   7.358  0.00  0.00     0.292 C 
ATOM     32  O   UNL d   1      28.494 -11.281   7.684  0.00  0.00    -0.259 OA
BRANCH  31  33
ATOM     33  O   UNL d   1      30.102 -12.880   8.044  0.00  0.00    -0.323 OA
ATOM     34  C   UNL d   1      29.735 -14.071   8.753  0.00  0.00     0.213 C 
ENDBRANCH  31  33
ENDBRANCH  29  31
ENDBRANCH  22  25
ENDBRANCH  19  21
ENDBRANCH   1  19
TORSDOF 11
ENDMDL
MODEL 7
REMARK VINA RESULT:    -7.443      2.462      7.725
REMARK INTER + INTRA:         -14.175
REMARK INTER:                 -10.725
REMARK INTRA:                  -3.450
REMARK CONF_INDEPENDENT:        3.281
REMARK UNBOUND:                -3.450
REMARK  11 active torsions:
REMARK  status: ('A' for Active; 'I' for Inactive)
REMARK    1  A    between atoms: C_2  and  C_3 
REMARK    2  A    between atoms: C_3  and  C_5 
REMARK    3  A    between atoms: C_8  and  O_9 
REMARK    4  A    between atoms: O_9  and  C_10 
REMARK    5  A    between atoms: C_10  and  C_11 
REMARK       I    between atoms: C_11  and  N_13 
REMARK    6  A    between atoms: N_13  and  N_14 
REMARK    7  A    between atoms: N_14  and  C_15 
REMARK    8  A    between atoms: C_15  and  N_17 
REMARK       I    between atoms: N_17  and  C_18 
REMARK    9  A    between atoms: C_18  and  C_20 
REMARK   10  A    between atoms: C_24  and  C_25 
REMARK   11  A    between atoms: C_25  and  O_27 
ROOT
ATOM      1  N   UNL d   1      25.746 -12.280  -4.712  0.00  0.00    -0.273 N 
ATOM      2  H   UNL d   1      25.047 -11.876  -5.335  0.00  0.00     0.189 HD
ENDROOT
BRANCH   1   3
ATOM      3  N   UNL d   1      26.650 -13.229  -5.357  0.00  0.00    -0.266 N 
ATOM      4  C   UNL d   1      27.599 -12.807  -6.281  0.00  0.00     0.260 C 
ATOM      5  O   UNL d   1      27.696 -11.617  -6.586  0.00  0.00    -0.269 OA
ATOM      6  H   UNL d   1      26.530 -14.204  -5.076  0.00  0.00     0.190 HD
BRANCH   4   7
ATOM      7  C   UNL d   1      28.505 -13.925  -6.882  0.00  0.00     0.280 C 
BRANCH   7   8
ATOM      8  O   UNL d   1      28.116 -15.215  -6.398  0.00  0.00    -0.342 OA
BRANCH   8   9
ATOM      9  C   UNL d   1      28.818 -15.762  -5.357  0.00  0.00     0.069 A 
ATOM     10  C   UNL d   1      28.262 -15.572  -4.090  0.00  0.00     0.037 A 
ATOM     11  C   UNL d   1      28.926 -16.012  -2.940  0.00  0.00     0.010 A 
ATOM     12  C   UNL d   1      30.111 -16.753  -3.036  0.00  0.00    -0.054 A 
ATOM     13  C   UNL d   1      30.660 -16.942  -4.312  0.00  0.00     0.010 A 
ATOM     14  C   UNL d   1      30.018 -16.461  -5.459  0.00  0.00     0.037 A 
BRANCH  12  15
ATOM     15  C   UNL d   1      30.770 -17.423  -1.832  0.00  0.00     0.014 C 
ATOM     16  C   UNL d   1      31.155 -18.867  -2.206  0.00  0.00     0.015 C 
BRANCH  15  17
ATOM     17  C   UNL d   1      29.868 -17.422  -0.581  0.00  0.00     0.004 C 
ATOM     18  C   UNL d   1      29.947 -16.139   0.223  0.00  0.00     0.006 C 
ENDBRANCH  15  17
ENDBRANCH  12  15
ENDBRANCH   8   9
ENDBRANCH   7   8
ENDBRANCH   4   7
ENDBRANCH   1   3
BRANCH   1  19
ATOM     19  C   UNL d   1      25.914 -11.989  -3.345  0.00  0.00     0.193 C 
ATOM     20  S   UNL d   1      26.219 -10.396  -2.876  0.00  0.00    -0.039 SA
BRANCH  19  21
ATOM     21  N   UNL d   1      25.816 -13.095  -2.464  0.00  0.00    -0.298 N 
ATOM     22  C   UNL d   1      25.268 -14.364  -2.773  0.00  0.00     0.257 C 
ATOM     23  O   UNL d   1      24.786 -14.678  -3.858  0.00  0.00    -0.267 OA
ATOM     24  H   UNL d   1      26.218 -12.993  -1.542  0.00  0.00     0.171 HD
BRANCH  22  25
ATOM     25  C   UNL d   1      25.217 -15.455  -1.750  0.00  0.00     0.033 A 
ATOM     26  C   UNL d   1      26.397 -15.731  -1.023  0.00  0.00     0.017 A 
ATOM     27  C   UNL d   1      26.512 -16.886  -0.242  0.00  0.00     0.002 A 
ATOM     28  C   UNL d   1      25.428 -17.753  -0.136  0.00  0.00     0.017 A 
ATOM     29  C   UNL d   1      24.248 -17.504  -0.859  0.00  0.00     0.040 A 
ATOM     30  C   UNL d   1      24.149 -16.354  -1.672  0.00  0.00     0.034 A 
BRANCH  29  31
ATOM     31  C   UNL d   1      23.159 -18.520  -0.774  0.00  0.00     0.292 C 
ATOM     32  O   UNL d   1      23.360 -19.705  -0.524  0.00  0.00    -0.259 OA
BRANCH  31  33
ATOM     33  O   UNL d   1      21.948 -17.960  -1.009  0.00  0.00    -0.323 OA
ATOM     34  C   UNL d   1      20.848 -18.872  -0.906  0.00  0.00     0.213 C 
ENDBRANCH  31  33
ENDBRANCH  29  31
ENDBRANCH  22  25
ENDBRANCH  19  21
ENDBRANCH   1  19
TORSDOF 11
ENDMDL
MODEL 8
REMARK VINA RESULT:    -6.930      3.109      8.067
REMARK INTER + INTRA:         -13.728
REMARK INTER:                 -10.211
REMARK INTRA:                  -3.517
REMARK CONF_INDEPENDENT:        3.281
REMARK UNBOUND:                -3.517
REMARK  11 active torsions:
REMARK  status: ('A' for Active; 'I' for Inactive)
REMARK    1  A    between atoms: C_2  and  C_3 
REMARK    2  A    between atoms: C_3  and  C_5 
REMARK    3  A    between atoms: C_8  and  O_9 
REMARK    4  A    between atoms: O_9  and  C_10 
REMARK    5  A    between atoms: C_10  and  C_11 
REMARK       I    between atoms: C_11  and  N_13 
REMARK    6  A    between atoms: N_13  and  N_14 
REMARK    7  A    between atoms: N_14  and  C_15 
REMARK    8  A    between atoms: C_15  and  N_17 
REMARK       I    between atoms: N_17  and  C_18 
REMARK    9  A    between atoms: C_18  and  C_20 
REMARK   10  A    between atoms: C_24  and  C_25 
REMARK   11  A    between atoms: C_25  and  O_27 
ROOT
ATOM      1  N   UNL d   1      26.262 -14.789  -5.195  0.00  0.00    -0.273 N 
ATOM      2  H   UNL d   1      25.906 -14.902  -6.144  0.00  0.00     0.189 HD
ENDROOT
BRANCH   1   3
ATOM      3  N   UNL d   1      27.573 -15.393  -4.968  0.00  0.00    -0.266 N 
ATOM      4  C   UNL d   1      28.619 -15.203  -5.864  0.00  0.00     0.260 C 
ATOM      5  O   UNL d   1      28.463 -14.525  -6.880  0.00  0.00    -0.269 OA
ATOM      6  H   UNL d   1      27.654 -15.949  -4.115  0.00  0.00     0.190 HD
BRANCH   4   7
ATOM      7  C   UNL d   1      29.966 -15.895  -5.491  0.00  0.00     0.280 C 
BRANCH   7   8
ATOM      8  O   UNL d   1      29.820 -16.701  -4.315  0.00  0.00    -0.342 OA
BRANCH   8   9
ATOM      9  C   UNL d   1      29.688 -16.073  -3.105  0.00  0.00     0.069 A 
ATOM     10  C   UNL d   1      29.596 -16.917  -1.996  0.00  0.00     0.037 A 
ATOM     11  C   UNL d   1      29.376 -16.399  -0.716  0.00  0.00     0.010 A 
ATOM     12  C   UNL d   1      29.354 -15.016  -0.495  0.00  0.00    -0.054 A 
ATOM     13  C   UNL d   1      29.451 -14.177  -1.614  0.00  0.00     0.010 A 
ATOM     14  C   UNL d   1      29.624 -14.697  -2.902  0.00  0.00     0.037 A 
BRANCH  12  15
ATOM     15  C   UNL d   1      29.315 -14.399   0.901  0.00  0.00     0.014 C 
ATOM     16  C   UNL d   1      30.597 -14.787   1.661  0.00  0.00     0.015 C 
BRANCH  15  17
ATOM     17  C   UNL d   1      28.071 -14.825   1.707  0.00  0.00     0.004 C 
ATOM     18  C   UNL d   1      28.027 -14.242   3.107  0.00  0.00     0.006 C 
ENDBRANCH  15  17
ENDBRANCH  12  15
ENDBRANCH   8   9
ENDBRANCH   7   8
ENDBRANCH   4   7
ENDBRANCH   1   3
BRANCH   1  19
ATOM     19  C   UNL d   1      25.627 -14.106  -4.141  0.00  0.00     0.193 C 
ATOM     20  S   UNL d   1      25.669 -12.417  -4.113  0.00  0.00    -0.039 SA
BRANCH  19  21
ATOM     21  N   UNL d   1      24.998 -14.923  -3.168  0.00  0.00    -0.298 N 
ATOM     22  C   UNL d   1      25.652 -15.774  -2.243  0.00  0.00     0.257 C 
ATOM     23  O   UNL d   1      26.869 -15.930  -2.167  0.00  0.00    -0.267 OA
ATOM     24  H   UNL d   1      23.993 -14.861  -3.086  0.00  0.00     0.171 HD
BRANCH  22  25
ATOM     25  C   UNL d   1      24.875 -16.594  -1.263  0.00  0.00     0.033 A 
ATOM     26  C   UNL d   1      25.589 -17.221  -0.216  0.00  0.00     0.017 A 
ATOM     27  C   UNL d   1      24.990 -18.200   0.583  0.00  0.00     0.002 A 
ATOM     28  C   UNL d   1      23.651 -18.526   0.381  0.00  0.00     0.017 A 
ATOM     29  C   UNL d   1      22.925 -17.922  -0.661  0.00  0.00     0.040 A 
ATOM     30  C   UNL d   1      23.544 -16.958  -1.486  0.00  0.00     0.034 A 
BRANCH  29  31
ATOM     31  C   UNL d   1      21.523 -18.383  -0.881  0.00  0.00     0.292 C 
ATOM     32  O   UNL d   1      20.623 -17.644  -1.270  0.00  0.00    -0.259 OA
BRANCH  31  33
ATOM     33  O   UNL d   1      21.390 -19.700  -0.595  0.00  0.00    -0.323 OA
ATOM     34  C   UNL d   1      20.392 -19.990   0.391  0.00  0.00     0.213 C 
ENDBRANCH  31  33
ENDBRANCH  29  31
ENDBRANCH  22  25
ENDBRANCH  19  21
ENDBRANCH   1  19
TORSDOF 11
ENDMDL
