MODEL 1
REMARK VINA RESULT:    -8.724      0.000      0.000
REMARK INTER + INTRA:         -13.901
REMARK INTER:                 -11.409
REMARK INTRA:                  -2.492
REMARK CONF_INDEPENDENT:        2.685
REMARK UNBOUND:                -2.492
REMARK  9 active torsions:
REMARK  status: ('A' for Active; 'I' for Inactive)
REMARK    1  A    between atoms: C_2  and  O_3 
REMARK    2  A    between atoms: O_3  and  C_4 
REMARK    3  A    between atoms: C_8  and  C_9 
REMARK       I    between atoms: C_9  and  N_11 
REMARK    4  A    between atoms: N_11  and  C_12 
REMARK    5  A    between atoms: C_12  and  N_14 
REMARK    6  A    between atoms: N_14  and  C_15 
REMARK    7  A    between atoms: C_20  and  C_21 
REMARK       I    between atoms: C_21  and  N_23 
REMARK    8  A    between atoms: N_23  and  C_24 
REMARK    9  A    between atoms: C_24  and  C_25 
ROOT
ATOM      1  N   UNL d   1      25.845 -12.206  -5.019  0.00  0.00    -0.332 N 
ATOM      2  H   UNL d   1      24.891 -12.010  -5.312  0.00  0.00     0.168 HD
ENDROOT
BRANCH   1   3
ATOM      3  C   UNL d   1      26.279 -12.120  -3.616  0.00  0.00     0.179 C 
ATOM      4  S   UNL d   1      26.653 -10.689  -2.835  0.00  0.00    -0.040 SA
BRANCH   3   5
ATOM      5  N   UNL d   1      26.416 -13.429  -2.995  0.00  0.00    -0.299 N 
ATOM      6  C   UNL d   1      25.563 -14.717  -3.116  0.00  0.00     0.257 C 
ATOM      7  O   UNL d   1      24.780 -14.825  -4.067  0.00  0.00    -0.267 OA
ATOM      8  H   UNL d   1      26.733 -13.207  -2.078  0.00  0.00     0.171 HD
BRANCH   6   9
ATOM      9  C   UNL d   1      25.426 -15.950  -1.927  0.00  0.00     0.035 C 
ATOM     10  C   UNL d   1      26.623 -16.478  -1.402  0.00  0.00     0.017 C 
ATOM     11  C   UNL d   1      26.584 -17.439  -0.352  0.00  0.00     0.004 C 
ATOM     12  C   UNL d   1      25.393 -18.096   0.036  0.00  0.00     0.037 C 
ATOM     13  C   UNL d   1      24.211 -17.799  -0.616  0.00  0.00     0.069 C 
ATOM     14  C   UNL d   1      24.237 -16.676  -1.467  0.00  0.00     0.053 C 
BRANCH  13  15
ATOM     15  O   UNL d   1      23.051 -18.463  -0.272  0.00  0.00    -0.351 OA
BRANCH  15  16
ATOM     16  C   UNL d   1      21.780 -18.042  -0.831  0.00  0.00     0.171 C 
ATOM     17  C   UNL d   1      20.824 -19.239  -0.896  0.00  0.00     0.034 C 
ENDBRANCH  15  16
ENDBRANCH  13  15
ENDBRANCH   6   9
ENDBRANCH   3   5
ENDBRANCH   1   3
BRANCH   1  18
ATOM     18  C   UNL d   1      26.783 -12.104  -6.122  0.00  0.00     0.050 A 
ATOM     19  C   UNL d   1      26.773 -10.914  -6.894  0.00  0.00     0.030 A 
ATOM     20  C   UNL d   1      27.797 -10.643  -7.817  0.00  0.00     0.002 A 
ATOM     21  C   UNL d   1      28.847 -11.542  -7.959  0.00  0.00     0.001 A 
ATOM     22  C   UNL d   1      28.822 -12.758  -7.263  0.00  0.00     0.019 A 
ATOM     23  C   UNL d   1      27.772 -13.080  -6.374  0.00  0.00     0.058 A 
BRANCH  23  24
ATOM     24  C   UNL d   1      27.830 -14.466  -5.739  0.00  0.00     0.254 C 
ATOM     25  O   UNL d   1      26.881 -15.200  -5.770  0.00  0.00    -0.268 OA
ATOM     26  N   UNL d   1      29.027 -14.814  -5.112  0.00  0.00    -0.354 N 
ATOM     27  H   UNL d   1      29.825 -14.245  -5.343  0.00  0.00     0.162 HD
BRANCH  26  28
ATOM     28  C   UNL d   1      29.399 -16.213  -4.833  0.00  0.00     0.155 C 
BRANCH  28  29
ATOM     29  C   UNL d   1      30.030 -16.853  -6.087  0.00  0.00     0.139 C 
ATOM     30  C   UNL d   1      31.381 -17.546  -5.998  0.00  0.00     0.035 C 
ATOM     31  C   UNL d   1      31.996 -17.364  -7.373  0.00  0.00     0.029 C 
ATOM     32  C   UNL d   1      31.687 -15.937  -7.450  0.00  0.00     0.168 C 
ATOM     33  O   UNL d   1      30.447 -15.720  -6.828  0.00  0.00    -0.384 OA
ENDBRANCH  28  29
ENDBRANCH  26  28
ENDBRANCH  23  24
ENDBRANCH   1  18
TORSDOF 9
ENDMDL
MODEL 2
REMARK VINA RESULT:    -8.653      1.834      2.817
REMARK INTER + INTRA:         -14.869
REMARK INTER:                 -11.337
REMARK INTRA:                  -3.532
REMARK CONF_INDEPENDENT:        2.685
REMARK UNBOUND:                -3.532
REMARK  9 active torsions:
REMARK  status: ('A' for Active; 'I' for Inactive)
REMARK    1  A    between atoms: C_2  and  O_3 
REMARK    2  A    between atoms: O_3  and  C_4 
REMARK    3  A    between atoms: C_8  and  C_9 
REMARK       I    between atoms: C_9  and  N_11 
REMARK    4  A    between atoms: N_11  and  C_12 
REMARK    5  A    between atoms: C_12  and  N_14 
REMARK    6  A    between atoms: N_14  and  C_15 
REMARK    7  A    between atoms: C_20  and  C_21 
REMARK       I    between atoms: C_21  and  N_23 
REMARK    8  A    between atoms: N_23  and  C_24 
REMARK    9  A    between atoms: C_24  and  C_25 
ROOT
ATOM      1  N   UNL d   1      25.799 -12.145  -4.466  0.00  0.00    -0.332 N 
ATOM      2  H   UNL d   1      24.908 -11.686  -4.636  0.00  0.00     0.168 HD
ENDROOT
BRANCH   1   3
ATOM      3  C   UNL d   1      26.337 -12.360  -3.114  0.00  0.00     0.179 C 
ATOM      4  S   UNL d   1      27.147 -11.193  -2.230  0.00  0.00    -0.040 SA
BRANCH   3   5
ATOM      5  N   UNL d   1      26.148 -13.726  -2.649  0.00  0.00    -0.299 N 
ATOM      6  C   UNL d   1      24.943 -14.692  -2.766  0.00  0.00     0.257 C 
ATOM      7  O   UNL d   1      24.060 -14.445  -3.596  0.00  0.00    -0.267 OA
ATOM      8  H   UNL d   1      26.620 -13.729  -1.773  0.00  0.00     0.171 HD
BRANCH   6   9
ATOM      9  C   UNL d   1      24.583 -15.987  -1.696  0.00  0.00     0.035 C 
ATOM     10  C   UNL d   1      25.642 -16.847  -1.340  0.00  0.00     0.017 C 
ATOM     11  C   UNL d   1      25.435 -17.887  -0.390  0.00  0.00     0.004 C 
ATOM     12  C   UNL d   1      24.147 -18.278   0.043  0.00  0.00     0.037 C 
ATOM     13  C   UNL d   1      23.035 -17.630  -0.462  0.00  0.00     0.069 C 
ATOM     14  C   UNL d   1      23.284 -16.455  -1.199  0.00  0.00     0.053 C 
BRANCH  13  15
ATOM     15  O   UNL d   1      21.772 -18.030  -0.076  0.00  0.00    -0.351 OA
BRANCH  15  16
ATOM     16  C   UNL d   1      21.020 -18.955  -0.903  0.00  0.00     0.171 C 
ATOM     17  C   UNL d   1      19.773 -19.426  -0.145  0.00  0.00     0.034 C 
ENDBRANCH  15  16
ENDBRANCH  13  15
ENDBRANCH   6   9
ENDBRANCH   3   5
ENDBRANCH   1   3
BRANCH   1  18
ATOM     18  C   UNL d   1      26.652 -12.124  -5.639  0.00  0.00     0.050 A 
ATOM     19  C   UNL d   1      26.654 -10.952  -6.438  0.00  0.00     0.030 A 
ATOM     20  C   UNL d   1      27.618 -10.764  -7.443  0.00  0.00     0.002 A 
ATOM     21  C   UNL d   1      28.598 -11.728  -7.642  0.00  0.00     0.001 A 
ATOM     22  C   UNL d   1      28.554 -12.926  -6.915  0.00  0.00     0.019 A 
ATOM     23  C   UNL d   1      27.558 -13.164  -5.941  0.00  0.00     0.058 A 
BRANCH  23  24
ATOM     24  C   UNL d   1      27.583 -14.537  -5.277  0.00  0.00     0.254 C 
ATOM     25  O   UNL d   1      27.007 -15.470  -5.766  0.00  0.00    -0.268 OA
ATOM     26  N   UNL d   1      28.286 -14.637  -4.077  0.00  0.00    -0.354 N 
ATOM     27  H   UNL d   1      28.921 -13.882  -3.876  0.00  0.00     0.162 HD
BRANCH  26  28
ATOM     28  C   UNL d   1      28.760 -15.925  -3.539  0.00  0.00     0.155 C 
BRANCH  28  29
ATOM     29  C   UNL d   1      29.268 -15.739  -2.093  0.00  0.00     0.139 C 
ATOM     30  C   UNL d   1      28.718 -16.603  -0.969  0.00  0.00     0.035 C 
ATOM     31  C   UNL d   1      28.812 -15.728   0.266  0.00  0.00     0.029 C 
ATOM     32  C   UNL d   1      28.223 -14.555  -0.377  0.00  0.00     0.168 C 
ATOM     33  O   UNL d   1      28.657 -14.520  -1.711  0.00  0.00    -0.384 OA
ENDBRANCH  28  29
ENDBRANCH  26  28
ENDBRANCH  23  24
ENDBRANCH   1  18
TORSDOF 9
ENDMDL
MODEL 3
REMARK VINA RESULT:    -8.498      2.312      9.461
REMARK INTER + INTRA:         -13.727
REMARK INTER:                 -11.183
REMARK INTRA:                  -2.544
REMARK CONF_INDEPENDENT:        2.685
REMARK UNBOUND:                -2.544
REMARK  9 active torsions:
REMARK  status: ('A' for Active; 'I' for Inactive)
REMARK    1  A    between atoms: C_2  and  O_3 
REMARK    2  A    between atoms: O_3  and  C_4 
REMARK    3  A    between atoms: C_8  and  C_9 
REMARK       I    between atoms: C_9  and  N_11 
REMARK    4  A    between atoms: N_11  and  C_12 
REMARK    5  A    between atoms: C_12  and  N_14 
REMARK    6  A    between atoms: N_14  and  C_15 
REMARK    7  A    between atoms: C_20  and  C_21 
REMARK       I    between atoms: C_21  and  N_23 
REMARK    8  A    between atoms: N_23  and  C_24 
REMARK    9  A    between atoms: C_24  and  C_25 
ROOT
ATOM      1  N   UNL d   1      25.436 -15.307  -1.763  0.00  0.00    -0.332 N 
ATOM      2  H   UNL d   1      24.897 -15.501  -2.602  0.00  0.00     0.168 HD
ENDROOT
BRANCH   1   3
ATOM      3  C   UNL d   1      26.266 -14.102  -1.611  0.00  0.00     0.179 C 
ATOM      4  S   UNL d   1      26.653 -13.408  -0.139  0.00  0.00    -0.040 SA
BRANCH   3   5
ATOM      5  N   UNL d   1      26.663 -13.534  -2.890  0.00  0.00    -0.299 N 
ATOM      6  C   UNL d   1      26.394 -13.994  -4.345  0.00  0.00     0.257 C 
ATOM      7  O   UNL d   1      25.489 -14.810  -4.554  0.00  0.00    -0.267 OA
ATOM      8  H   UNL d   1      27.581 -13.197  -2.708  0.00  0.00     0.171 HD
BRANCH   6   9
ATOM      9  C   UNL d   1      27.378 -13.646  -5.709  0.00  0.00     0.035 C 
ATOM     10  C   UNL d   1      28.424 -14.546  -6.000  0.00  0.00     0.017 C 
ATOM     11  C   UNL d   1      29.223 -14.367  -7.165  0.00  0.00     0.004 C 
ATOM     12  C   UNL d   1      29.196 -13.181  -7.933  0.00  0.00     0.037 C 
ATOM     13  C   UNL d   1      28.360 -12.146  -7.554  0.00  0.00     0.069 C 
ATOM     14  C   UNL d   1      27.412 -12.449  -6.557  0.00  0.00     0.053 C 
BRANCH  13  15
ATOM     15  O   UNL d   1      28.355 -10.969  -8.274  0.00  0.00    -0.351 OA
BRANCH  15  16
ATOM     16  C   UNL d   1      27.125 -10.493  -8.879  0.00  0.00     0.171 C 
ATOM     17  C   UNL d   1      26.687 -11.459  -9.985  0.00  0.00     0.034 C 
ENDBRANCH  15  16
ENDBRANCH  13  15
ENDBRANCH   6   9
ENDBRANCH   3   5
ENDBRANCH   1   3
BRANCH   1  18
ATOM     18  C   UNL d   1      25.672 -16.507  -0.981  0.00  0.00     0.050 A 
ATOM     19  C   UNL d   1      27.016 -16.852  -0.684  0.00  0.00     0.030 A 
ATOM     20  C   UNL d   1      27.314 -17.852   0.257  0.00  0.00     0.002 A 
ATOM     21  C   UNL d   1      26.279 -18.498   0.923  0.00  0.00     0.001 A 
ATOM     22  C   UNL d   1      24.949 -18.223   0.575  0.00  0.00     0.019 A 
ATOM     23  C   UNL d   1      24.625 -17.264  -0.411  0.00  0.00     0.058 A 
BRANCH  23  24
ATOM     24  C   UNL d   1      23.144 -17.117  -0.744  0.00  0.00     0.254 C 
ATOM     25  O   UNL d   1      22.724 -16.121  -1.268  0.00  0.00    -0.268 OA
ATOM     26  N   UNL d   1      22.316 -18.183  -0.391  0.00  0.00    -0.354 N 
ATOM     27  H   UNL d   1      22.783 -19.051  -0.183  0.00  0.00     0.162 HD
BRANCH  26  28
ATOM     28  C   UNL d   1      20.988 -18.392  -0.997  0.00  0.00     0.155 C 
BRANCH  28  29
ATOM     29  C   UNL d   1      20.373 -19.709  -0.479  0.00  0.00     0.139 C 
ATOM     30  C   UNL d   1      18.895 -19.782  -0.132  0.00  0.00     0.035 C 
ATOM     31  C   UNL d   1      18.809 -20.826   0.965  0.00  0.00     0.029 C 
ATOM     32  C   UNL d   1      19.919 -20.273   1.738  0.00  0.00     0.168 C 
ATOM     33  O   UNL d   1      20.881 -19.783   0.842  0.00  0.00    -0.384 OA
ENDBRANCH  28  29
ENDBRANCH  26  28
ENDBRANCH  23  24
ENDBRANCH   1  18
TORSDOF 9
ENDMDL
MODEL 4
REMARK VINA RESULT:    -8.139      4.660      7.106
REMARK INTER + INTRA:         -13.931
REMARK INTER:                 -10.823
REMARK INTRA:                  -3.108
REMARK CONF_INDEPENDENT:        2.685
REMARK UNBOUND:                -3.108
REMARK  9 active torsions:
REMARK  status: ('A' for Active; 'I' for Inactive)
REMARK    1  A    between atoms: C_2  and  O_3 
REMARK    2  A    between atoms: O_3  and  C_4 
REMARK    3  A    between atoms: C_8  and  C_9 
REMARK       I    between atoms: C_9  and  N_11 
REMARK    4  A    between atoms: N_11  and  C_12 
REMARK    5  A    between atoms: C_12  and  N_14 
REMARK    6  A    between atoms: N_14  and  C_15 
REMARK    7  A    between atoms: C_20  and  C_21 
REMARK       I    between atoms: C_21  and  N_23 
REMARK    8  A    between atoms: N_23  and  C_24 
REMARK    9  A    between atoms: C_24  and  C_25 
ROOT
ATOM      1  N   UNL d   1      27.670 -16.489  -1.664  0.00  0.00    -0.332 N 
ATOM      2  H   UNL d   1      27.803 -16.415  -2.669  0.00  0.00     0.168 HD
ENDROOT
BRANCH   1   3
ATOM      3  C   UNL d   1      28.791 -16.625  -0.721  0.00  0.00     0.179 C 
ATOM      4  S   UNL d   1      30.274 -17.291  -1.116  0.00  0.00    -0.040 SA
BRANCH   3   5
ATOM      5  N   UNL d   1      28.448 -16.176   0.620  0.00  0.00    -0.299 N 
ATOM      6  C   UNL d   1      27.614 -14.968   1.116  0.00  0.00     0.257 C 
ATOM      7  O   UNL d   1      26.863 -14.395   0.318  0.00  0.00    -0.267 OA
ATOM      8  H   UNL d   1      29.277 -16.368   1.136  0.00  0.00     0.171 HD
BRANCH   6   9
ATOM      9  C   UNL d   1      27.780 -14.186   2.637  0.00  0.00     0.035 C 
ATOM     10  C   UNL d   1      27.737 -12.778   2.649  0.00  0.00     0.017 C 
ATOM     11  C   UNL d   1      27.780 -12.068   3.883  0.00  0.00     0.004 C 
ATOM     12  C   UNL d   1      28.121 -12.688   5.107  0.00  0.00     0.037 C 
ATOM     13  C   UNL d   1      28.420 -14.037   5.124  0.00  0.00     0.069 C 
ATOM     14  C   UNL d   1      28.127 -14.753   3.946  0.00  0.00     0.053 C 
BRANCH  13  15
ATOM     15  O   UNL d   1      28.793 -14.643   6.306  0.00  0.00    -0.351 OA
BRANCH  15  16
ATOM     16  C   UNL d   1      29.859 -14.075   7.109  0.00  0.00     0.171 C 
ATOM     17  C   UNL d   1      29.275 -13.480   8.396  0.00  0.00     0.034 C 
ENDBRANCH  15  16
ENDBRANCH  13  15
ENDBRANCH   6   9
ENDBRANCH   3   5
ENDBRANCH   1   3
BRANCH   1  18
ATOM     18  C   UNL d   1      26.324 -16.914  -1.325  0.00  0.00     0.050 A 
ATOM     19  C   UNL d   1      26.174 -17.900  -0.317  0.00  0.00     0.030 A 
ATOM     20  C   UNL d   1      24.911 -18.188   0.229  0.00  0.00     0.002 A 
ATOM     21  C   UNL d   1      23.798 -17.482  -0.208  0.00  0.00     0.001 A 
ATOM     22  C   UNL d   1      23.924 -16.566  -1.262  0.00  0.00     0.019 A 
ATOM     23  C   UNL d   1      25.172 -16.303  -1.868  0.00  0.00     0.058 A 
BRANCH  23  24
ATOM     24  C   UNL d   1      25.155 -15.341  -3.052  0.00  0.00     0.254 C 
ATOM     25  O   UNL d   1      24.354 -14.449  -3.112  0.00  0.00    -0.268 OA
ATOM     26  N   UNL d   1      26.099 -15.568  -4.054  0.00  0.00    -0.354 N 
ATOM     27  H   UNL d   1      26.865 -16.174  -3.806  0.00  0.00     0.162 HD
BRANCH  26  28
ATOM     28  C   UNL d   1      26.497 -14.529  -5.021  0.00  0.00     0.155 C 
BRANCH  28  29
ATOM     29  C   UNL d   1      28.033 -14.511  -5.175  0.00  0.00     0.139 C 
ATOM     30  C   UNL d   1      28.672 -14.818  -6.520  0.00  0.00     0.035 C 
ATOM     31  C   UNL d   1      30.014 -15.434  -6.174  0.00  0.00     0.029 C 
ATOM     32  C   UNL d   1      29.467 -16.350  -5.176  0.00  0.00     0.168 C 
ATOM     33  O   UNL d   1      28.418 -15.699  -4.507  0.00  0.00    -0.384 OA
ENDBRANCH  28  29
ENDBRANCH  26  28
ENDBRANCH  23  24
ENDBRANCH   1  18
TORSDOF 9
ENDMDL
MODEL 5
REMARK VINA RESULT:    -7.996      2.097      2.852
REMARK INTER + INTRA:         -13.756
REMARK INTER:                 -10.680
REMARK INTRA:                  -3.075
REMARK CONF_INDEPENDENT:        2.685
REMARK UNBOUND:                -3.075
REMARK  9 active torsions:
REMARK  status: ('A' for Active; 'I' for Inactive)
REMARK    1  A    between atoms: C_2  and  O_3 
REMARK    2  A    between atoms: O_3  and  C_4 
REMARK    3  A    between atoms: C_8  and  C_9 
REMARK       I    between atoms: C_9  and  N_11 
REMARK    4  A    between atoms: N_11  and  C_12 
REMARK    5  A    between atoms: C_12  and  N_14 
REMARK    6  A    between atoms: N_14  and  C_15 
REMARK    7  A    between atoms: C_20  and  C_21 
REMARK       I    between atoms: C_21  and  N_23 
REMARK    8  A    between atoms: N_23  and  C_24 
REMARK    9  A    between atoms: C_24  and  C_25 
ROOT
ATOM      1  N   UNL d   1      27.509 -14.332  -3.740  0.00  0.00    -0.332 N 
ATOM      2  H   UNL d   1      27.883 -14.873  -2.964  0.00  0.00     0.168 HD
ENDROOT
BRANCH   1   3
ATOM      3  C   UNL d   1      26.143 -13.784  -3.742  0.00  0.00     0.179 C 
ATOM      4  S   UNL d   1      25.673 -12.440  -4.620  0.00  0.00    -0.040 SA
BRANCH   3   5
ATOM      5  N   UNL d   1      25.254 -14.501  -2.840  0.00  0.00    -0.299 N 
ATOM      6  C   UNL d   1      25.544 -15.478  -1.673  0.00  0.00     0.257 C 
ATOM      7  O   UNL d   1      26.682 -15.506  -1.190  0.00  0.00    -0.267 OA
ATOM      8  H   UNL d   1      24.493 -14.749  -3.431  0.00  0.00     0.171 HD
BRANCH   6   9
ATOM      9  C   UNL d   1      24.489 -16.708  -1.104  0.00  0.00     0.035 C 
ATOM     10  C   UNL d   1      25.074 -17.922  -0.689  0.00  0.00     0.017 C 
ATOM     11  C   UNL d   1      24.268 -18.951  -0.124  0.00  0.00     0.004 C 
ATOM     12  C   UNL d   1      22.856 -18.931  -0.182  0.00  0.00     0.037 C 
ATOM     13  C   UNL d   1      22.216 -17.874  -0.803  0.00  0.00     0.069 C 
ATOM     14  C   UNL d   1      23.023 -16.764  -1.125  0.00  0.00     0.053 C 
BRANCH  13  15
ATOM     15  O   UNL d   1      20.840 -17.865  -0.900  0.00  0.00    -0.351 OA
BRANCH  15  16
ATOM     16  C   UNL d   1      20.105 -19.116  -0.914  0.00  0.00     0.171 C 
ATOM     17  C   UNL d   1      19.627 -19.449   0.504  0.00  0.00     0.034 C 
ENDBRANCH  15  16
ENDBRANCH  13  15
ENDBRANCH   6   9
ENDBRANCH   3   5
ENDBRANCH   1   3
BRANCH   1  18
ATOM     18  C   UNL d   1      28.247 -14.562  -4.968  0.00  0.00     0.050 A 
ATOM     19  C   UNL d   1      27.936 -13.754  -6.090  0.00  0.00     0.030 A 
ATOM     20  C   UNL d   1      28.758 -13.753  -7.230  0.00  0.00     0.002 A 
ATOM     21  C   UNL d   1      29.905 -14.536  -7.249  0.00  0.00     0.001 A 
ATOM     22  C   UNL d   1      30.175 -15.400  -6.178  0.00  0.00     0.019 A 
ATOM     23  C   UNL d   1      29.331 -15.464  -5.048  0.00  0.00     0.058 A 
BRANCH  23  24
ATOM     24  C   UNL d   1      29.701 -16.499  -3.990  0.00  0.00     0.254 C 
ATOM     25  O   UNL d   1      29.007 -16.673  -3.026  0.00  0.00    -0.268 OA
ATOM     26  N   UNL d   1      30.885 -17.207  -4.198  0.00  0.00    -0.354 N 
ATOM     27  H   UNL d   1      31.263 -17.166  -5.131  0.00  0.00     0.162 HD
BRANCH  26  28
ATOM     28  C   UNL d   1      31.169 -18.493  -3.534  0.00  0.00     0.155 C 
BRANCH  28  29
ATOM     29  C   UNL d   1      30.815 -19.663  -4.476  0.00  0.00     0.139 C 
ATOM     30  C   UNL d   1      31.908 -20.383  -5.249  0.00  0.00     0.035 C 
ATOM     31  C   UNL d   1      31.228 -20.863  -6.517  0.00  0.00     0.029 C 
ATOM     32  C   UNL d   1      30.584 -19.580  -6.796  0.00  0.00     0.168 C 
ATOM     33  O   UNL d   1      30.213 -18.998  -5.573  0.00  0.00    -0.384 OA
ENDBRANCH  28  29
ENDBRANCH  26  28
ENDBRANCH  23  24
ENDBRANCH   1  18
TORSDOF 9
ENDMDL
MODEL 6
REMARK VINA RESULT:    -7.341      4.635      7.122
REMARK INTER + INTRA:         -14.304
REMARK INTER:                 -10.026
REMARK INTRA:                  -4.278
REMARK CONF_INDEPENDENT:        2.685
REMARK UNBOUND:                -4.278
REMARK  9 active torsions:
REMARK  status: ('A' for Active; 'I' for Inactive)
REMARK    1  A    between atoms: C_2  and  O_3 
REMARK    2  A    between atoms: O_3  and  C_4 
REMARK    3  A    between atoms: C_8  and  C_9 
REMARK       I    between atoms: C_9  and  N_11 
REMARK    4  A    between atoms: N_11  and  C_12 
REMARK    5  A    between atoms: C_12  and  N_14 
REMARK    6  A    between atoms: N_14  and  C_15 
REMARK    7  A    between atoms: C_20  and  C_21 
REMARK       I    between atoms: C_21  and  N_23 
REMARK    8  A    between atoms: N_23  and  C_24 
REMARK    9  A    between atoms: C_24  and  C_25 
ROOT
ATOM      1  N   UNL d   1      28.128 -16.505  -1.832  0.00  0.00    -0.332 N 
ATOM      2  H   UNL d   1      27.133 -16.418  -1.645  0.00  0.00     0.168 HD
ENDROOT
BRANCH   1   3
ATOM      3  C   UNL d   1      29.099 -16.904  -0.800  0.00  0.00     0.179 C 
ATOM      4  S   UNL d   1      30.421 -17.888  -1.087  0.00  0.00    -0.040 SA
BRANCH   3   5
ATOM      5  N   UNL d   1      28.747 -16.403   0.519  0.00  0.00    -0.299 N 
ATOM      6  C   UNL d   1      27.695 -15.361   0.975  0.00  0.00     0.257 C 
ATOM      7  O   UNL d   1      26.788 -15.051   0.195  0.00  0.00    -0.267 OA
ATOM      8  H   UNL d   1      29.628 -16.356   0.980  0.00  0.00     0.171 HD
BRANCH   6   9
ATOM      9  C   UNL d   1      27.774 -14.408   2.403  0.00  0.00     0.035 C 
ATOM     10  C   UNL d   1      27.782 -13.008   2.247  0.00  0.00     0.017 C 
ATOM     11  C   UNL d   1      27.758 -12.157   3.389  0.00  0.00     0.004 C 
ATOM     12  C   UNL d   1      27.982 -12.636   4.700  0.00  0.00     0.037 C 
ATOM     13  C   UNL d   1      28.229 -13.982   4.898  0.00  0.00     0.069 C 
ATOM     14  C   UNL d   1      28.000 -14.824   3.792  0.00  0.00     0.053 C 
BRANCH  13  15
ATOM     15  O   UNL d   1      28.488 -14.452   6.169  0.00  0.00    -0.351 OA
BRANCH  15  16
ATOM     16  C   UNL d   1      29.473 -13.788   7.002  0.00  0.00     0.171 C 
ATOM     17  C   UNL d   1      28.763 -12.908   8.038  0.00  0.00     0.034 C 
ENDBRANCH  15  16
ENDBRANCH  13  15
ENDBRANCH   6   9
ENDBRANCH   3   5
ENDBRANCH   1   3
BRANCH   1  18
ATOM     18  C   UNL d   1      28.525 -15.765  -3.016  0.00  0.00     0.050 A 
ATOM     19  C   UNL d   1      29.911 -15.640  -3.287  0.00  0.00     0.030 A 
ATOM     20  C   UNL d   1      30.364 -15.151  -4.523  0.00  0.00     0.002 A 
ATOM     21  C   UNL d   1      29.442 -14.806  -5.504  0.00  0.00     0.001 A 
ATOM     22  C   UNL d   1      28.071 -14.846  -5.215  0.00  0.00     0.019 A 
ATOM     23  C   UNL d   1      27.592 -15.277  -3.958  0.00  0.00     0.058 A 
BRANCH  23  24
ATOM     24  C   UNL d   1      26.083 -15.202  -3.752  0.00  0.00     0.254 C 
ATOM     25  O   UNL d   1      25.329 -15.248  -4.684  0.00  0.00    -0.268 OA
ATOM     26  N   UNL d   1      25.640 -15.058  -2.437  0.00  0.00    -0.354 N 
ATOM     27  H   UNL d   1      26.316 -15.268  -1.720  0.00  0.00     0.162 HD
BRANCH  26  28
ATOM     28  C   UNL d   1      24.264 -15.388  -2.022  0.00  0.00     0.155 C 
BRANCH  28  29
ATOM     29  C   UNL d   1      24.169 -16.882  -1.645  0.00  0.00     0.139 C 
ATOM     30  C   UNL d   1      23.348 -17.319  -0.442  0.00  0.00     0.035 C 
ATOM     31  C   UNL d   1      24.039 -18.573   0.058  0.00  0.00     0.029 C 
ATOM     32  C   UNL d   1      25.380 -17.994   0.009  0.00  0.00     0.168 C 
ATOM     33  O   UNL d   1      25.452 -17.140  -1.103  0.00  0.00    -0.384 OA
ENDBRANCH  28  29
ENDBRANCH  26  28
ENDBRANCH  23  24
ENDBRANCH   1  18
TORSDOF 9
ENDMDL
MODEL 7
REMARK VINA RESULT:    -7.337      2.511      4.609
REMARK INTER + INTRA:         -14.183
REMARK INTER:                 -10.022
REMARK INTRA:                  -4.161
REMARK CONF_INDEPENDENT:        2.685
REMARK UNBOUND:                -4.161
REMARK  9 active torsions:
REMARK  status: ('A' for Active; 'I' for Inactive)
REMARK    1  A    between atoms: C_2  and  O_3 
REMARK    2  A    between atoms: O_3  and  C_4 
REMARK    3  A    between atoms: C_8  and  C_9 
REMARK       I    between atoms: C_9  and  N_11 
REMARK    4  A    between atoms: N_11  and  C_12 
REMARK    5  A    between atoms: C_12  and  N_14 
REMARK    6  A    between atoms: N_14  and  C_15 
REMARK    7  A    between atoms: C_20  and  C_21 
REMARK       I    between atoms: C_21  and  N_23 
REMARK    8  A    between atoms: N_23  and  C_24 
REMARK    9  A    between atoms: C_24  and  C_25 
ROOT
ATOM      1  N   UNL d   1      28.813 -14.660  -3.837  0.00  0.00    -0.332 N 
ATOM      2  H   UNL d   1      29.347 -14.498  -2.987  0.00  0.00     0.168 HD
ENDROOT
BRANCH   1   3
ATOM      3  C   UNL d   1      27.370 -14.388  -3.933  0.00  0.00     0.179 C 
ATOM      4  S   UNL d   1      26.720 -12.985  -4.572  0.00  0.00    -0.040 SA
BRANCH   3   5
ATOM      5  N   UNL d   1      26.563 -15.448  -3.349  0.00  0.00    -0.299 N 
ATOM      6  C   UNL d   1      25.125 -15.445  -2.774  0.00  0.00     0.257 C 
ATOM      7  O   UNL d   1      24.373 -14.504  -3.055  0.00  0.00    -0.267 OA
ATOM      8  H   UNL d   1      27.231 -15.977  -2.835  0.00  0.00     0.171 HD
BRANCH   6   9
ATOM      9  C   UNL d   1      24.513 -16.526  -1.586  0.00  0.00     0.035 C 
ATOM     10  C   UNL d   1      25.445 -17.327  -0.898  0.00  0.00     0.017 C 
ATOM     11  C   UNL d   1      25.017 -18.181   0.159  0.00  0.00     0.004 C 
ATOM     12  C   UNL d   1      23.654 -18.467   0.403  0.00  0.00     0.037 C 
ATOM     13  C   UNL d   1      22.687 -17.899  -0.405  0.00  0.00     0.069 C 
ATOM     14  C   UNL d   1      23.123 -16.876  -1.270  0.00  0.00     0.053 C 
BRANCH  13  15
ATOM     15  O   UNL d   1      21.356 -18.204  -0.201  0.00  0.00    -0.351 OA
BRANCH  15  16
ATOM     16  C   UNL d   1      20.920 -19.588  -0.203  0.00  0.00     0.171 C 
ATOM     17  C   UNL d   1      19.494 -19.679   0.353  0.00  0.00     0.034 C 
ENDBRANCH  15  16
ENDBRANCH  13  15
ENDBRANCH   6   9
ENDBRANCH   3   5
ENDBRANCH   1   3
BRANCH   1  18
ATOM     18  C   UNL d   1      29.482 -15.588  -4.730  0.00  0.00     0.050 A 
ATOM     19  C   UNL d   1      29.463 -15.303  -6.119  0.00  0.00     0.030 A 
ATOM     20  C   UNL d   1      30.280 -16.015  -7.013  0.00  0.00     0.002 A 
ATOM     21  C   UNL d   1      31.136 -16.996  -6.528  0.00  0.00     0.001 A 
ATOM     22  C   UNL d   1      31.100 -17.342  -5.170  0.00  0.00     0.019 A 
ATOM     23  C   UNL d   1      30.243 -16.681  -4.261  0.00  0.00     0.058 A 
BRANCH  23  24
ATOM     24  C   UNL d   1      30.250 -17.206  -2.828  0.00  0.00     0.254 C 
ATOM     25  O   UNL d   1      31.231 -17.719  -2.363  0.00  0.00    -0.268 OA
ATOM     26  N   UNL d   1      29.062 -17.073  -2.110  0.00  0.00    -0.354 N 
ATOM     27  H   UNL d   1      28.388 -16.428  -2.491  0.00  0.00     0.162 HD
BRANCH  26  28
ATOM     28  C   UNL d   1      29.014 -17.127  -0.637  0.00  0.00     0.155 C 
BRANCH  28  29
ATOM     29  C   UNL d   1      28.823 -15.708  -0.062  0.00  0.00     0.139 C 
ATOM     30  C   UNL d   1      27.724 -15.432   0.952  0.00  0.00     0.035 C 
ATOM     31  C   UNL d   1      27.343 -13.983   0.719  0.00  0.00     0.029 C 
ATOM     32  C   UNL d   1      27.255 -14.118  -0.733  0.00  0.00     0.168 C 
ATOM     33  O   UNL d   1      28.251 -15.012  -1.155  0.00  0.00    -0.384 OA
ENDBRANCH  28  29
ENDBRANCH  26  28
ENDBRANCH  23  24
ENDBRANCH   1  18
TORSDOF 9
ENDMDL
MODEL 8
REMARK VINA RESULT:    -6.910      4.278      6.926
REMARK INTER + INTRA:         -13.919
REMARK INTER:                  -9.595
REMARK INTRA:                  -4.324
REMARK CONF_INDEPENDENT:        2.685
REMARK UNBOUND:                -4.324
REMARK  9 active torsions:
REMARK  status: ('A' for Active; 'I' for Inactive)
REMARK    1  A    between atoms: C_2  and  O_3 
REMARK    2  A    between atoms: O_3  and  C_4 
REMARK    3  A    between atoms: C_8  and  C_9 
REMARK       I    between atoms: C_9  and  N_11 
REMARK    4  A    between atoms: N_11  and  C_12 
REMARK    5  A    between atoms: C_12  and  N_14 
REMARK    6  A    between atoms: N_14  and  C_15 
REMARK    7  A    between atoms: C_20  and  C_21 
REMARK       I    between atoms: C_21  and  N_23 
REMARK    8  A    between atoms: N_23  and  C_24 
REMARK    9  A    between atoms: C_24  and  C_25 
ROOT
ATOM      1  N   UNL d   1      28.171 -16.627  -1.847  0.00  0.00    -0.332 N 
ATOM      2  H   UNL d   1      27.169 -16.533  -1.702  0.00  0.00     0.168 HD
ENDROOT
BRANCH   1   3
ATOM      3  C   UNL d   1      29.103 -16.980  -0.764  0.00  0.00     0.179 C 
ATOM      4  S   UNL d   1      30.403 -18.017  -0.945  0.00  0.00    -0.040 SA
BRANCH   3   5
ATOM      5  N   UNL d   1      28.731 -16.380   0.508  0.00  0.00    -0.299 N 
ATOM      6  C   UNL d   1      27.708 -15.271   0.860  0.00  0.00     0.257 C 
ATOM      7  O   UNL d   1      26.838 -14.979   0.031  0.00  0.00    -0.267 OA
ATOM      8  H   UNL d   1      29.598 -16.335   0.994  0.00  0.00     0.171 HD
BRANCH   6   9
ATOM      9  C   UNL d   1      27.781 -14.229   2.224  0.00  0.00     0.035 C 
ATOM     10  C   UNL d   1      27.988 -14.825   3.484  0.00  0.00     0.017 C 
ATOM     11  C   UNL d   1      28.147 -14.015   4.645  0.00  0.00     0.004 C 
ATOM     12  C   UNL d   1      27.856 -12.632   4.654  0.00  0.00     0.037 C 
ATOM     13  C   UNL d   1      27.406 -12.025   3.497  0.00  0.00     0.069 C 
ATOM     14  C   UNL d   1      27.499 -12.792   2.318  0.00  0.00     0.053 C 
BRANCH  13  15
ATOM     15  O   UNL d   1      27.081 -10.684   3.505  0.00  0.00    -0.351 OA
BRANCH  15  16
ATOM     16  C   UNL d   1      27.001  -9.948   2.258  0.00  0.00     0.171 C 
ATOM     17  C   UNL d   1      25.877  -8.909   2.343  0.00  0.00     0.034 C 
ENDBRANCH  15  16
ENDBRANCH  13  15
ENDBRANCH   6   9
ENDBRANCH   3   5
ENDBRANCH   1   3
BRANCH   1  18
ATOM     18  C   UNL d   1      28.612 -15.938  -3.046  0.00  0.00     0.050 A 
ATOM     19  C   UNL d   1      30.002 -15.921  -3.328  0.00  0.00     0.030 A 
ATOM     20  C   UNL d   1      30.480 -15.487  -4.576  0.00  0.00     0.002 A 
ATOM     21  C   UNL d   1      29.578 -15.092  -5.557  0.00  0.00     0.001 A 
ATOM     22  C   UNL d   1      28.210 -15.026  -5.258  0.00  0.00     0.019 A 
ATOM     23  C   UNL d   1      27.711 -15.400  -3.991  0.00  0.00     0.058 A 
BRANCH  23  24
ATOM     24  C   UNL d   1      26.213 -15.210  -3.776  0.00  0.00     0.254 C 
ATOM     25  O   UNL d   1      25.451 -15.206  -4.704  0.00  0.00    -0.268 OA
ATOM     26  N   UNL d   1      25.790 -15.025  -2.460  0.00  0.00    -0.354 N 
ATOM     27  H   UNL d   1      26.453 -15.279  -1.746  0.00  0.00     0.162 HD
BRANCH  26  28
ATOM     28  C   UNL d   1      24.396 -15.247  -2.034  0.00  0.00     0.155 C 
BRANCH  28  29
ATOM     29  C   UNL d   1      24.192 -16.726  -1.644  0.00  0.00     0.139 C 
ATOM     30  C   UNL d   1      23.495 -17.087  -0.341  0.00  0.00     0.035 C 
ATOM     31  C   UNL d   1      24.108 -18.413   0.066  0.00  0.00     0.029 C 
ATOM     32  C   UNL d   1      25.485 -17.980  -0.161  0.00  0.00     0.168 C 
ATOM     33  O   UNL d   1      25.501 -17.125  -1.275  0.00  0.00    -0.384 OA
ENDBRANCH  28  29
ENDBRANCH  26  28
ENDBRANCH  23  24
ENDBRANCH   1  18
TORSDOF 9
ENDMDL
MODEL 9
REMARK VINA RESULT:    -6.893      3.187      4.813
REMARK INTER + INTRA:         -13.913
REMARK INTER:                  -9.578
REMARK INTRA:                  -4.336
REMARK CONF_INDEPENDENT:        2.685
REMARK UNBOUND:                -4.336
REMARK  9 active torsions:
REMARK  status: ('A' for Active; 'I' for Inactive)
REMARK    1  A    between atoms: C_2  and  O_3 
REMARK    2  A    between atoms: O_3  and  C_4 
REMARK    3  A    between atoms: C_8  and  C_9 
REMARK       I    between atoms: C_9  and  N_11 
REMARK    4  A    between atoms: N_11  and  C_12 
REMARK    5  A    between atoms: C_12  and  N_14 
REMARK    6  A    between atoms: N_14  and  C_15 
REMARK    7  A    between atoms: C_20  and  C_21 
REMARK       I    between atoms: C_21  and  N_23 
REMARK    8  A    between atoms: N_23  and  C_24 
REMARK    9  A    between atoms: C_24  and  C_25 
ROOT
ATOM      1  N   UNL d   1      27.885 -12.368  -1.858  0.00  0.00    -0.332 N 
ATOM      2  H   UNL d   1      28.786 -12.080  -2.231  0.00  0.00     0.168 HD
ENDROOT
BRANCH   1   3
ATOM      3  C   UNL d   1      26.787 -12.848  -2.712  0.00  0.00     0.179 C 
ATOM      4  S   UNL d   1      26.052 -11.929  -3.901  0.00  0.00    -0.040 SA
BRANCH   3   5
ATOM      5  N   UNL d   1      26.360 -14.195  -2.366  0.00  0.00    -0.299 N 
ATOM      6  C   UNL d   1      25.003 -14.921  -2.548  0.00  0.00     0.257 C 
ATOM      7  O   UNL d   1      24.178 -14.450  -3.339  0.00  0.00    -0.267 OA
ATOM      8  H   UNL d   1      26.823 -14.359  -1.501  0.00  0.00     0.171 HD
BRANCH   6   9
ATOM      9  C   UNL d   1      24.420 -16.222  -1.589  0.00  0.00     0.035 C 
ATOM     10  C   UNL d   1      25.360 -17.177  -1.153  0.00  0.00     0.017 C 
ATOM     11  C   UNL d   1      24.962 -18.232  -0.283  0.00  0.00     0.004 C 
ATOM     12  C   UNL d   1      23.606 -18.534  -0.022  0.00  0.00     0.037 C 
ATOM     13  C   UNL d   1      22.615 -17.779  -0.623  0.00  0.00     0.069 C 
ATOM     14  C   UNL d   1      23.039 -16.601  -1.270  0.00  0.00     0.053 C 
BRANCH  13  15
ATOM     15  O   UNL d   1      21.289 -18.091  -0.407  0.00  0.00    -0.351 OA
BRANCH  15  16
ATOM     16  C   UNL d   1      20.923 -19.402   0.094  0.00  0.00     0.171 C 
ATOM     17  C   UNL d   1      19.578 -19.827  -0.507  0.00  0.00     0.034 C 
ENDBRANCH  15  16
ENDBRANCH  13  15
ENDBRANCH   6   9
ENDBRANCH   3   5
ENDBRANCH   1   3
BRANCH   1  18
ATOM     18  C   UNL d   1      27.647 -11.824  -0.534  0.00  0.00     0.050 A 
ATOM     19  C   UNL d   1      27.803 -10.426  -0.353  0.00  0.00     0.030 A 
ATOM     20  C   UNL d   1      27.365  -9.797   0.825  0.00  0.00     0.002 A 
ATOM     21  C   UNL d   1      26.750 -10.551   1.817  0.00  0.00     0.001 A 
ATOM     22  C   UNL d   1      26.668 -11.943   1.683  0.00  0.00     0.019 A 
ATOM     23  C   UNL d   1      27.155 -12.606   0.534  0.00  0.00     0.058 A 
BRANCH  23  24
ATOM     24  C   UNL d   1      27.070 -14.129   0.550  0.00  0.00     0.254 C 
ATOM     25  O   UNL d   1      26.009 -14.689   0.516  0.00  0.00    -0.268 OA
ATOM     26  N   UNL d   1      28.279 -14.820   0.626  0.00  0.00    -0.354 N 
ATOM     27  H   UNL d   1      29.105 -14.285   0.412  0.00  0.00     0.162 HD
BRANCH  26  28
ATOM     28  C   UNL d   1      28.411 -16.236   0.234  0.00  0.00     0.155 C 
BRANCH  28  29
ATOM     29  C   UNL d   1      28.515 -16.351  -1.302  0.00  0.00     0.139 C 
ATOM     30  C   UNL d   1      29.691 -17.074  -1.939  0.00  0.00     0.035 C 
ATOM     31  C   UNL d   1      29.883 -16.387  -3.277  0.00  0.00     0.029 C 
ATOM     32  C   UNL d   1      29.812 -15.035  -2.725  0.00  0.00     0.168 C 
ATOM     33  O   UNL d   1      28.874 -15.034  -1.681  0.00  0.00    -0.384 OA
ENDBRANCH  28  29
ENDBRANCH  26  28
ENDBRANCH  23  24
ENDBRANCH   1  18
TORSDOF 9
ENDMDL
