MODEL 1
REMARK VINA RESULT:    -8.424      0.000      0.000
REMARK INTER + INTRA:         -12.666
REMARK INTER:                 -10.512
REMARK INTRA:                  -2.155
REMARK CONF_INDEPENDENT:        2.088
REMARK UNBOUND:                -2.155
REMARK  7 active torsions:
REMARK  status: ('A' for Active; 'I' for Inactive)
REMARK    1  A    between atoms: O_2  and  C_3 
REMARK    2  A    between atoms: C_6  and  N_7 
REMARK       I    between atoms: N_7  and  C_8 
REMARK    3  A    between atoms: C_8  and  C_10 
REMARK    4  A    between atoms: C_10  and  S_11 
REMARK    5  A    between atoms: S_11  and  C_12 
REMARK    6  A    between atoms: C_15  and  C_16 
REMARK    7  A    between atoms: C_29  and  O_30 
ROOT
ATOM      1  C   UNL d   1      27.065 -14.439  -1.816  0.00  0.00     0.172 A 
ATOM      2  N   UNL d   1      26.056 -15.240  -1.581  0.00  0.00    -0.221 NA
ATOM      3  C   UNL d   1      26.332 -16.334  -0.760  0.00  0.00     0.104 A 
ATOM      4  C   UNL d   1      25.484 -17.367  -0.283  0.00  0.00     0.021 A 
ATOM      5  C   UNL d   1      26.292 -18.197   0.486  0.00  0.00     0.103 A 
ATOM      6  N   UNL d   1      27.563 -17.679   0.498  0.00  0.00    -0.359 N 
ATOM      7  C   UNL d   1      27.582 -16.543  -0.257  0.00  0.00     0.131 A 
ATOM      8  C   UNL d   1      28.677 -15.690  -0.511  0.00  0.00     0.278 A 
ATOM      9  O   UNL d   1      29.800 -15.902  -0.037  0.00  0.00    -0.265 OA
ATOM     10  N   UNL d   1      28.365 -14.613  -1.328  0.00  0.00    -0.296 N 
ATOM     11  C   UNL d   1      29.476 -13.754  -1.635  0.00  0.00     0.162 C 
ATOM     12  H   UNL d   1      28.366 -18.066   0.978  0.00  0.00     0.165 HD
ENDROOT
BRANCH   1  13
ATOM     13  S   UNL d   1      26.664 -13.110  -2.889  0.00  0.00    -0.082 SA
BRANCH  13  14
ATOM     14  C   UNL d   1      25.964 -13.637  -4.511  0.00  0.00     0.185 C 
BRANCH  14  15
ATOM     15  C   UNL d   1      26.832 -14.718  -5.114  0.00  0.00     0.232 C 
ATOM     16  N   UNL d   1      28.227 -14.589  -4.943  0.00  0.00    -0.324 N 
ATOM     17  H   UNL d   1      28.597 -13.718  -4.577  0.00  0.00     0.169 HD
ATOM     18  O   UNL d   1      26.242 -15.575  -5.763  0.00  0.00    -0.272 OA
BRANCH  16  19
ATOM     19  C   UNL d   1      29.208 -15.520  -5.455  0.00  0.00     0.068 C 
ATOM     20  C   UNL d   1      29.818 -15.301  -6.708  0.00  0.00     0.035 C 
ATOM     21  C   UNL d   1      30.681 -16.276  -7.270  0.00  0.00     0.039 C 
ATOM     22  C   UNL d   1      30.974 -17.452  -6.580  0.00  0.00     0.070 C 
ATOM     23  C   UNL d   1      30.433 -17.630  -5.323  0.00  0.00     0.075 C 
ATOM     24  C   UNL d   1      29.609 -16.671  -4.752  0.00  0.00     0.097 C 
BRANCH  22  25
ATOM     25  O   UNL d   1      31.885 -18.326  -7.108  0.00  0.00    -0.356 OA
ATOM     26  C   UNL d   1      31.340 -19.587  -7.511  0.00  0.00     0.210 C 
ENDBRANCH  22  25
BRANCH  24  27
ATOM     27  O   UNL d   1      29.346 -16.736  -3.423  0.00  0.00    -0.354 OA
ATOM     28  C   UNL d   1      30.178 -17.470  -2.547  0.00  0.00     0.210 C 
ENDBRANCH  24  27
ENDBRANCH  16  19
ENDBRANCH  14  15
ENDBRANCH  13  14
ENDBRANCH   1  13
BRANCH   4  29
ATOM     29  C   UNL d   1      24.091 -17.694  -0.527  0.00  0.00    -0.022 A 
ATOM     30  C   UNL d   1      23.152 -16.688  -0.803  0.00  0.00     0.012 A 
ATOM     31  C   UNL d   1      21.791 -16.996  -0.895  0.00  0.00     0.001 A 
ATOM     32  C   UNL d   1      21.367 -18.318  -0.781  0.00  0.00     0.000 A 
ATOM     33  C   UNL d   1      22.296 -19.325  -0.520  0.00  0.00     0.001 A 
ATOM     34  C   UNL d   1      23.651 -19.012  -0.383  0.00  0.00     0.012 A 
ENDBRANCH   4  29
TORSDOF 7
ENDMDL
MODEL 2
REMARK VINA RESULT:    -8.277      1.156      2.046
REMARK INTER + INTRA:         -12.661
REMARK INTER:                 -10.365
REMARK INTRA:                  -2.296
REMARK CONF_INDEPENDENT:        2.088
REMARK UNBOUND:                -2.296
REMARK  7 active torsions:
REMARK  status: ('A' for Active; 'I' for Inactive)
REMARK    1  A    between atoms: O_2  and  C_3 
REMARK    2  A    between atoms: C_6  and  N_7 
REMARK       I    between atoms: N_7  and  C_8 
REMARK    3  A    between atoms: C_8  and  C_10 
REMARK    4  A    between atoms: C_10  and  S_11 
REMARK    5  A    between atoms: S_11  and  C_12 
REMARK    6  A    between atoms: C_15  and  C_16 
REMARK    7  A    between atoms: C_29  and  O_30 
ROOT
ATOM      1  C   UNL d   1      26.663 -13.701  -1.651  0.00  0.00     0.172 A 
ATOM      2  N   UNL d   1      25.844 -14.686  -1.380  0.00  0.00    -0.221 NA
ATOM      3  C   UNL d   1      26.369 -15.708  -0.587  0.00  0.00     0.104 A 
ATOM      4  C   UNL d   1      25.765 -16.890  -0.086  0.00  0.00     0.021 A 
ATOM      5  C   UNL d   1      26.757 -17.548   0.633  0.00  0.00     0.103 A 
ATOM      6  N   UNL d   1      27.900 -16.789   0.593  0.00  0.00    -0.359 N 
ATOM      7  C   UNL d   1      27.659 -15.669  -0.146  0.00  0.00     0.131 A 
ATOM      8  C   UNL d   1      28.551 -14.615  -0.440  0.00  0.00     0.278 A 
ATOM      9  O   UNL d   1      29.714 -14.603  -0.021  0.00  0.00    -0.265 OA
ATOM     10  N   UNL d   1      27.994 -13.618  -1.227  0.00  0.00    -0.296 N 
ATOM     11  C   UNL d   1      28.898 -12.555  -1.573  0.00  0.00     0.162 C 
ATOM     12  H   UNL d   1      28.786 -17.012   1.030  0.00  0.00     0.165 HD
ENDROOT
BRANCH   1  13
ATOM     13  S   UNL d   1      25.956 -12.473  -2.686  0.00  0.00    -0.082 SA
BRANCH  13  14
ATOM     14  C   UNL d   1      25.511 -13.074  -4.371  0.00  0.00     0.185 C 
BRANCH  14  15
ATOM     15  C   UNL d   1      26.291 -14.330  -4.687  0.00  0.00     0.232 C 
ATOM     16  N   UNL d   1      27.651 -14.352  -4.309  0.00  0.00    -0.324 N 
ATOM     17  H   UNL d   1      28.086 -13.490  -3.999  0.00  0.00     0.169 HD
ATOM     18  O   UNL d   1      25.682 -15.192  -5.312  0.00  0.00    -0.272 OA
BRANCH  16  19
ATOM     19  C   UNL d   1      28.549 -15.461  -4.537  0.00  0.00     0.068 C 
ATOM     20  C   UNL d   1      28.906 -16.324  -3.480  0.00  0.00     0.035 C 
ATOM     21  C   UNL d   1      29.885 -17.332  -3.669  0.00  0.00     0.039 C 
ATOM     22  C   UNL d   1      30.487 -17.516  -4.913  0.00  0.00     0.070 C 
ATOM     23  C   UNL d   1      30.084 -16.719  -5.965  0.00  0.00     0.075 C 
ATOM     24  C   UNL d   1      29.107 -15.747  -5.797  0.00  0.00     0.097 C 
BRANCH  22  25
ATOM     25  O   UNL d   1      31.356 -18.559  -5.087  0.00  0.00    -0.356 OA
ATOM     26  C   UNL d   1      30.765 -19.747  -5.626  0.00  0.00     0.210 C 
ENDBRANCH  22  25
BRANCH  24  27
ATOM     27  O   UNL d   1      28.528 -15.200  -6.895  0.00  0.00    -0.354 OA
ATOM     28  C   UNL d   1      28.784 -13.860  -7.265  0.00  0.00     0.210 C 
ENDBRANCH  24  27
ENDBRANCH  16  19
ENDBRANCH  14  15
ENDBRANCH  13  14
ENDBRANCH   1  13
BRANCH   4  29
ATOM     29  C   UNL d   1      24.453 -17.485  -0.269  0.00  0.00    -0.022 A 
ATOM     30  C   UNL d   1      24.276 -18.875  -0.202  0.00  0.00     0.012 A 
ATOM     31  C   UNL d   1      23.040 -19.446  -0.520  0.00  0.00     0.001 A 
ATOM     32  C   UNL d   1      21.957 -18.630  -0.839  0.00  0.00     0.000 A 
ATOM     33  C   UNL d   1      22.122 -17.247  -0.895  0.00  0.00     0.001 A 
ATOM     34  C   UNL d   1      23.368 -16.677  -0.621  0.00  0.00     0.012 A 
ENDBRANCH   4  29
TORSDOF 7
ENDMDL
MODEL 3
REMARK VINA RESULT:    -7.660      2.366      7.027
REMARK INTER + INTRA:         -12.736
REMARK INTER:                  -9.749
REMARK INTRA:                  -2.988
REMARK CONF_INDEPENDENT:        2.088
REMARK UNBOUND:                -2.988
REMARK  7 active torsions:
REMARK  status: ('A' for Active; 'I' for Inactive)
REMARK    1  A    between atoms: O_2  and  C_3 
REMARK    2  A    between atoms: C_6  and  N_7 
REMARK       I    between atoms: N_7  and  C_8 
REMARK    3  A    between atoms: C_8  and  C_10 
REMARK    4  A    between atoms: C_10  and  S_11 
REMARK    5  A    between atoms: S_11  and  C_12 
REMARK    6  A    between atoms: C_15  and  C_16 
REMARK    7  A    between atoms: C_29  and  O_30 
ROOT
ATOM      1  C   UNL d   1      30.165 -17.286  -3.233  0.00  0.00     0.172 A 
ATOM      2  N   UNL d   1      29.229 -16.386  -3.405  0.00  0.00    -0.221 NA
ATOM      3  C   UNL d   1      29.096 -15.893  -4.704  0.00  0.00     0.104 A 
ATOM      4  C   UNL d   1      28.184 -14.949  -5.245  0.00  0.00     0.021 A 
ATOM      5  C   UNL d   1      28.516 -14.827  -6.589  0.00  0.00     0.103 A 
ATOM      6  N   UNL d   1      29.560 -15.675  -6.858  0.00  0.00    -0.359 N 
ATOM      7  C   UNL d   1      29.907 -16.326  -5.711  0.00  0.00     0.131 A 
ATOM      8  C   UNL d   1      30.923 -17.289  -5.533  0.00  0.00     0.278 A 
ATOM      9  O   UNL d   1      31.642 -17.667  -6.466  0.00  0.00    -0.265 OA
ATOM     10  N   UNL d   1      31.024 -17.757  -4.231  0.00  0.00    -0.296 N 
ATOM     11  C   UNL d   1      32.081 -18.709  -4.019  0.00  0.00     0.162 C 
ATOM     12  H   UNL d   1      30.015 -15.805  -7.754  0.00  0.00     0.165 HD
ENDROOT
BRANCH   1  13
ATOM     13  S   UNL d   1      30.309 -17.832  -1.572  0.00  0.00    -0.082 SA
BRANCH  13  14
ATOM     14  C   UNL d   1      29.953 -16.527  -0.319  0.00  0.00     0.185 C 
BRANCH  14  15
ATOM     15  C   UNL d   1      28.475 -16.511  -0.004  0.00  0.00     0.232 C 
ATOM     16  N   UNL d   1      27.613 -17.109  -0.948  0.00  0.00    -0.324 N 
ATOM     17  H   UNL d   1      27.985 -17.373  -1.853  0.00  0.00     0.169 HD
ATOM     18  O   UNL d   1      28.154 -15.910   1.017  0.00  0.00    -0.272 OA
BRANCH  16  19
ATOM     19  C   UNL d   1      26.174 -17.180  -0.817  0.00  0.00     0.068 C 
ATOM     20  C   UNL d   1      25.563 -18.302  -0.220  0.00  0.00     0.035 C 
ATOM     21  C   UNL d   1      24.151 -18.433  -0.207  0.00  0.00     0.039 C 
ATOM     22  C   UNL d   1      23.338 -17.440  -0.751  0.00  0.00     0.070 C 
ATOM     23  C   UNL d   1      23.936 -16.309  -1.270  0.00  0.00     0.075 C 
ATOM     24  C   UNL d   1      25.315 -16.158  -1.262  0.00  0.00     0.097 C 
BRANCH  22  25
ATOM     25  O   UNL d   1      21.979 -17.553  -0.636  0.00  0.00    -0.356 OA
ATOM     26  C   UNL d   1      21.478 -18.889  -0.750  0.00  0.00     0.210 C 
ENDBRANCH  22  25
BRANCH  24  27
ATOM     27  O   UNL d   1      25.844 -14.931  -1.497  0.00  0.00    -0.354 OA
ATOM     28  C   UNL d   1      26.282 -14.108  -0.435  0.00  0.00     0.210 C 
ENDBRANCH  24  27
ENDBRANCH  16  19
ENDBRANCH  14  15
ENDBRANCH  13  14
ENDBRANCH   1  13
BRANCH   4  29
ATOM     29  C   UNL d   1      27.146 -14.126  -4.651  0.00  0.00    -0.022 A 
ATOM     30  C   UNL d   1      27.464 -12.932  -3.987  0.00  0.00     0.012 A 
ATOM     31  C   UNL d   1      26.477 -12.221  -3.297  0.00  0.00     0.001 A 
ATOM     32  C   UNL d   1      25.155 -12.661  -3.325  0.00  0.00     0.000 A 
ATOM     33  C   UNL d   1      24.829 -13.840  -3.994  0.00  0.00     0.001 A 
ATOM     34  C   UNL d   1      25.822 -14.575  -4.646  0.00  0.00     0.012 A 
ENDBRANCH   4  29
TORSDOF 7
ENDMDL
MODEL 4
REMARK VINA RESULT:    -7.324      2.742      5.615
REMARK INTER + INTRA:         -11.991
REMARK INTER:                  -9.412
REMARK INTRA:                  -2.579
REMARK CONF_INDEPENDENT:        2.088
REMARK UNBOUND:                -2.579
REMARK  7 active torsions:
REMARK  status: ('A' for Active; 'I' for Inactive)
REMARK    1  A    between atoms: O_2  and  C_3 
REMARK    2  A    between atoms: C_6  and  N_7 
REMARK       I    between atoms: N_7  and  C_8 
REMARK    3  A    between atoms: C_8  and  C_10 
REMARK    4  A    between atoms: C_10  and  S_11 
REMARK    5  A    between atoms: S_11  and  C_12 
REMARK    6  A    between atoms: C_15  and  C_16 
REMARK    7  A    between atoms: C_29  and  O_30 
ROOT
ATOM      1  C   UNL d   1      27.934 -15.568  -3.488  0.00  0.00     0.172 A 
ATOM      2  N   UNL d   1      26.908 -15.993  -2.795  0.00  0.00    -0.221 NA
ATOM      3  C   UNL d   1      27.216 -16.725  -1.647  0.00  0.00     0.104 A 
ATOM      4  C   UNL d   1      26.369 -17.301  -0.665  0.00  0.00     0.021 A 
ATOM      5  C   UNL d   1      27.213 -17.924   0.246  0.00  0.00     0.103 A 
ATOM      6  N   UNL d   1      28.511 -17.713  -0.147  0.00  0.00    -0.359 N 
ATOM      7  C   UNL d   1      28.509 -16.980  -1.297  0.00  0.00     0.131 A 
ATOM      8  C   UNL d   1      29.620 -16.532  -2.042  0.00  0.00     0.278 A 
ATOM      9  O   UNL d   1      30.783 -16.774  -1.697  0.00  0.00    -0.265 OA
ATOM     10  N   UNL d   1      29.276 -15.807  -3.173  0.00  0.00    -0.296 N 
ATOM     11  C   UNL d   1      30.393 -15.377  -3.970  0.00  0.00     0.162 C 
ATOM     12  H   UNL d   1      29.344 -18.046   0.323  0.00  0.00     0.165 HD
ENDROOT
BRANCH   1  13
ATOM     13  S   UNL d   1      27.480 -14.693  -4.940  0.00  0.00    -0.082 SA
BRANCH  13  14
ATOM     14  C   UNL d   1      26.573 -13.121  -4.617  0.00  0.00     0.185 C 
BRANCH  14  15
ATOM     15  C   UNL d   1      26.326 -12.969  -3.133  0.00  0.00     0.232 C 
ATOM     16  N   UNL d   1      27.460 -12.977  -2.292  0.00  0.00    -0.324 N 
ATOM     17  H   UNL d   1      28.357 -13.241  -2.682  0.00  0.00     0.169 HD
ATOM     18  O   UNL d   1      25.149 -12.927  -2.791  0.00  0.00    -0.272 OA
BRANCH  16  19
ATOM     19  C   UNL d   1      27.415 -12.851  -0.852  0.00  0.00     0.068 C 
ATOM     20  C   UNL d   1      27.315 -13.996  -0.035  0.00  0.00     0.035 C 
ATOM     21  C   UNL d   1      27.141 -13.870   1.366  0.00  0.00     0.039 C 
ATOM     22  C   UNL d   1      27.102 -12.614   1.969  0.00  0.00     0.070 C 
ATOM     23  C   UNL d   1      27.273 -11.496   1.177  0.00  0.00     0.075 C 
ATOM     24  C   UNL d   1      27.472 -11.610  -0.191  0.00  0.00     0.097 C 
BRANCH  22  25
ATOM     25  O   UNL d   1      27.030 -12.530   3.334  0.00  0.00    -0.356 OA
ATOM     26  C   UNL d   1      27.597 -13.644   4.032  0.00  0.00     0.210 C 
ENDBRANCH  22  25
BRANCH  24  27
ATOM     27  O   UNL d   1      27.930 -10.535  -0.881  0.00  0.00    -0.354 OA
ATOM     28  C   UNL d   1      27.068  -9.473  -1.237  0.00  0.00     0.210 C 
ENDBRANCH  24  27
ENDBRANCH  16  19
ENDBRANCH  14  15
ENDBRANCH  13  14
ENDBRANCH   1  13
BRANCH   4  29
ATOM     29  C   UNL d   1      24.926 -17.402  -0.541  0.00  0.00    -0.022 A 
ATOM     30  C   UNL d   1      24.318 -18.603  -0.145  0.00  0.00     0.012 A 
ATOM     31  C   UNL d   1      22.926 -18.733  -0.166  0.00  0.00     0.001 A 
ATOM     32  C   UNL d   1      22.131 -17.643  -0.514  0.00  0.00     0.000 A 
ATOM     33  C   UNL d   1      22.727 -16.441  -0.894  0.00  0.00     0.001 A 
ATOM     34  C   UNL d   1      24.119 -16.325  -0.918  0.00  0.00     0.012 A 
ENDBRANCH   4  29
TORSDOF 7
ENDMDL
MODEL 5
REMARK VINA RESULT:    -7.296      2.924      6.024
REMARK INTER + INTRA:         -12.309
REMARK INTER:                  -9.384
REMARK INTRA:                  -2.926
REMARK CONF_INDEPENDENT:        2.088
REMARK UNBOUND:                -2.926
REMARK  7 active torsions:
REMARK  status: ('A' for Active; 'I' for Inactive)
REMARK    1  A    between atoms: O_2  and  C_3 
REMARK    2  A    between atoms: C_6  and  N_7 
REMARK       I    between atoms: N_7  and  C_8 
REMARK    3  A    between atoms: C_8  and  C_10 
REMARK    4  A    between atoms: C_10  and  S_11 
REMARK    5  A    between atoms: S_11  and  C_12 
REMARK    6  A    between atoms: C_15  and  C_16 
REMARK    7  A    between atoms: C_29  and  O_30 
ROOT
ATOM      1  C   UNL d   1      27.618 -15.013  -2.616  0.00  0.00     0.172 A 
ATOM      2  N   UNL d   1      26.583 -15.635  -2.107  0.00  0.00    -0.221 NA
ATOM      3  C   UNL d   1      26.877 -16.701  -1.256  0.00  0.00     0.104 A 
ATOM      4  C   UNL d   1      26.019 -17.560  -0.522  0.00  0.00     0.021 A 
ATOM      5  C   UNL d   1      26.853 -18.448   0.147  0.00  0.00     0.103 A 
ATOM      6  N   UNL d   1      28.155 -18.128  -0.145  0.00  0.00    -0.359 N 
ATOM      7  C   UNL d   1      28.166 -17.061  -0.994  0.00  0.00     0.131 A 
ATOM      8  C   UNL d   1      29.287 -16.402  -1.543  0.00  0.00     0.278 A 
ATOM      9  O   UNL d   1      30.445 -16.748  -1.285  0.00  0.00    -0.265 OA
ATOM     10  N   UNL d   1      28.956 -15.348  -2.382  0.00  0.00    -0.296 N 
ATOM     11  C   UNL d   1      30.082 -14.688  -2.986  0.00  0.00     0.162 C 
ATOM     12  H   UNL d   1      28.982 -18.599   0.200  0.00  0.00     0.165 HD
ENDROOT
BRANCH   1  13
ATOM     13  S   UNL d   1      27.180 -13.713  -3.710  0.00  0.00    -0.082 SA
BRANCH  13  14
ATOM     14  C   UNL d   1      26.761 -12.128  -2.866  0.00  0.00     0.185 C 
BRANCH  14  15
ATOM     15  C   UNL d   1      27.252 -12.167  -1.436  0.00  0.00     0.232 C 
ATOM     16  N   UNL d   1      26.808 -13.240  -0.636  0.00  0.00    -0.324 N 
ATOM     17  H   UNL d   1      26.068 -13.839  -0.986  0.00  0.00     0.169 HD
ATOM     18  O   UNL d   1      27.937 -11.213  -1.083  0.00  0.00    -0.272 OA
BRANCH  16  19
ATOM     19  C   UNL d   1      27.167 -13.435   0.751  0.00  0.00     0.068 C 
ATOM     20  C   UNL d   1      27.912 -14.565   1.147  0.00  0.00     0.035 C 
ATOM     21  C   UNL d   1      28.155 -14.825   2.520  0.00  0.00     0.039 C 
ATOM     22  C   UNL d   1      27.695 -13.949   3.503  0.00  0.00     0.070 C 
ATOM     23  C   UNL d   1      27.030 -12.806   3.109  0.00  0.00     0.075 C 
ATOM     24  C   UNL d   1      26.811 -12.528   1.767  0.00  0.00     0.097 C 
BRANCH  22  25
ATOM     25  O   UNL d   1      28.030 -14.179   4.810  0.00  0.00    -0.356 OA
ATOM     26  C   UNL d   1      29.399 -13.913   5.133  0.00  0.00     0.210 C 
ENDBRANCH  22  25
BRANCH  24  27
ATOM     27  O   UNL d   1      26.432 -11.277   1.408  0.00  0.00    -0.354 OA
ATOM     28  C   UNL d   1      27.213 -10.149   1.750  0.00  0.00     0.210 C 
ENDBRANCH  24  27
ENDBRANCH  16  19
ENDBRANCH  14  15
ENDBRANCH  13  14
ENDBRANCH   1  13
BRANCH   4  29
ATOM     29  C   UNL d   1      24.575 -17.688  -0.451  0.00  0.00    -0.022 A 
ATOM     30  C   UNL d   1      23.963 -18.951  -0.429  0.00  0.00     0.012 A 
ATOM     31  C   UNL d   1      22.572 -19.065  -0.505  0.00  0.00     0.001 A 
ATOM     32  C   UNL d   1      21.780 -17.919  -0.532  0.00  0.00     0.000 A 
ATOM     33  C   UNL d   1      22.380 -16.660  -0.539  0.00  0.00     0.001 A 
ATOM     34  C   UNL d   1      23.772 -16.546  -0.510  0.00  0.00     0.012 A 
ENDBRANCH   4  29
TORSDOF 7
ENDMDL
MODEL 6
REMARK VINA RESULT:    -7.094      2.465      6.179
REMARK INTER + INTRA:         -12.656
REMARK INTER:                  -9.182
REMARK INTRA:                  -3.474
REMARK CONF_INDEPENDENT:        2.088
REMARK UNBOUND:                -3.474
REMARK  7 active torsions:
REMARK  status: ('A' for Active; 'I' for Inactive)
REMARK    1  A    between atoms: O_2  and  C_3 
REMARK    2  A    between atoms: C_6  and  N_7 
REMARK       I    between atoms: N_7  and  C_8 
REMARK    3  A    between atoms: C_8  and  C_10 
REMARK    4  A    between atoms: C_10  and  S_11 
REMARK    5  A    between atoms: S_11  and  C_12 
REMARK    6  A    between atoms: C_15  and  C_16 
REMARK    7  A    between atoms: C_29  and  O_30 
ROOT
ATOM      1  C   UNL d   1      28.841 -15.286  -3.796  0.00  0.00     0.172 A 
ATOM      2  N   UNL d   1      28.641 -14.963  -2.543  0.00  0.00    -0.221 NA
ATOM      3  C   UNL d   1      29.405 -15.662  -1.609  0.00  0.00     0.104 A 
ATOM      4  C   UNL d   1      29.465 -15.550  -0.195  0.00  0.00     0.021 A 
ATOM      5  C   UNL d   1      30.389 -16.501   0.222  0.00  0.00     0.103 A 
ATOM      6  N   UNL d   1      30.886 -17.141  -0.885  0.00  0.00    -0.359 N 
ATOM      7  C   UNL d   1      30.289 -16.625  -1.997  0.00  0.00     0.131 A 
ATOM      8  C   UNL d   1      30.507 -16.985  -3.344  0.00  0.00     0.278 A 
ATOM      9  O   UNL d   1      31.319 -17.859  -3.668  0.00  0.00    -0.265 OA
ATOM     10  N   UNL d   1      29.732 -16.268  -4.244  0.00  0.00    -0.296 N 
ATOM     11  C   UNL d   1      29.907 -16.649  -5.619  0.00  0.00     0.162 C 
ATOM     12  H   UNL d   1      31.578 -17.880  -0.892  0.00  0.00     0.165 HD
ENDROOT
BRANCH   1  13
ATOM     13  S   UNL d   1      27.819 -14.403  -4.916  0.00  0.00    -0.082 SA
BRANCH  13  14
ATOM     14  C   UNL d   1      26.502 -13.401  -4.102  0.00  0.00     0.185 C 
BRANCH  14  15
ATOM     15  C   UNL d   1      25.493 -14.319  -3.450  0.00  0.00     0.232 C 
ATOM     16  N   UNL d   1      25.940 -15.087  -2.354  0.00  0.00    -0.324 N 
ATOM     17  H   UNL d   1      26.934 -15.120  -2.152  0.00  0.00     0.169 HD
ATOM     18  O   UNL d   1      24.390 -14.364  -3.985  0.00  0.00    -0.272 OA
BRANCH  16  19
ATOM     19  C   UNL d   1      25.119 -16.020  -1.615  0.00  0.00     0.068 C 
ATOM     20  C   UNL d   1      23.713 -15.955  -1.692  0.00  0.00     0.035 C 
ATOM     21  C   UNL d   1      22.905 -16.782  -0.871  0.00  0.00     0.039 C 
ATOM     22  C   UNL d   1      23.484 -17.702   0.002  0.00  0.00     0.070 C 
ATOM     23  C   UNL d   1      24.860 -17.815   0.024  0.00  0.00     0.075 C 
ATOM     24  C   UNL d   1      25.658 -17.030  -0.796  0.00  0.00     0.097 C 
BRANCH  22  25
ATOM     25  O   UNL d   1      22.676 -18.551   0.710  0.00  0.00    -0.356 OA
ATOM     26  C   UNL d   1      21.589 -19.104  -0.039  0.00  0.00     0.210 C 
ENDBRANCH  22  25
BRANCH  24  27
ATOM     27  O   UNL d   1      26.959 -17.371  -0.968  0.00  0.00    -0.354 OA
ATOM     28  C   UNL d   1      27.615 -18.237  -0.064  0.00  0.00     0.210 C 
ENDBRANCH  24  27
ENDBRANCH  16  19
ENDBRANCH  14  15
ENDBRANCH  13  14
ENDBRANCH   1  13
BRANCH   4  29
ATOM     29  C   UNL d   1      28.725 -14.750   0.765  0.00  0.00    -0.022 A 
ATOM     30  C   UNL d   1      27.415 -14.328   0.494  0.00  0.00     0.012 A 
ATOM     31  C   UNL d   1      26.764 -13.442   1.358  0.00  0.00     0.001 A 
ATOM     32  C   UNL d   1      27.390 -13.028   2.532  0.00  0.00     0.000 A 
ATOM     33  C   UNL d   1      28.687 -13.455   2.815  0.00  0.00     0.001 A 
ATOM     34  C   UNL d   1      29.356 -14.304   1.929  0.00  0.00     0.012 A 
ENDBRANCH   4  29
TORSDOF 7
ENDMDL
MODEL 7
REMARK VINA RESULT:    -6.915      2.699      5.447
REMARK INTER + INTRA:         -12.132
REMARK INTER:                  -9.003
REMARK INTRA:                  -3.129
REMARK CONF_INDEPENDENT:        2.088
REMARK UNBOUND:                -3.129
REMARK  7 active torsions:
REMARK  status: ('A' for Active; 'I' for Inactive)
REMARK    1  A    between atoms: O_2  and  C_3 
REMARK    2  A    between atoms: C_6  and  N_7 
REMARK       I    between atoms: N_7  and  C_8 
REMARK    3  A    between atoms: C_8  and  C_10 
REMARK    4  A    between atoms: C_10  and  S_11 
REMARK    5  A    between atoms: S_11  and  C_12 
REMARK    6  A    between atoms: C_15  and  C_16 
REMARK    7  A    between atoms: C_29  and  O_30 
ROOT
ATOM      1  C   UNL d   1      27.391 -15.570  -3.392  0.00  0.00     0.172 A 
ATOM      2  N   UNL d   1      26.397 -16.088  -2.714  0.00  0.00    -0.221 NA
ATOM      3  C   UNL d   1      26.750 -16.756  -1.541  0.00  0.00     0.104 A 
ATOM      4  C   UNL d   1      25.943 -17.399  -0.567  0.00  0.00     0.021 A 
ATOM      5  C   UNL d   1      26.823 -17.906   0.382  0.00  0.00     0.103 A 
ATOM      6  N   UNL d   1      28.101 -17.565   0.016  0.00  0.00    -0.359 N 
ATOM      7  C   UNL d   1      28.052 -16.861  -1.151  0.00  0.00     0.131 A 
ATOM      8  C   UNL d   1      29.130 -16.313  -1.879  0.00  0.00     0.278 A 
ATOM      9  O   UNL d   1      30.302 -16.419  -1.499  0.00  0.00    -0.265 OA
ATOM     10  N   UNL d   1      28.741 -15.655  -3.036  0.00  0.00    -0.296 N 
ATOM     11  C   UNL d   1      29.828 -15.124  -3.815  0.00  0.00     0.162 C 
ATOM     12  H   UNL d   1      28.952 -17.795   0.516  0.00  0.00     0.165 HD
ENDROOT
BRANCH   1  13
ATOM     13  S   UNL d   1      26.886 -14.782  -4.876  0.00  0.00    -0.082 SA
BRANCH  13  14
ATOM     14  C   UNL d   1      25.574 -13.508  -4.642  0.00  0.00     0.185 C 
BRANCH  14  15
ATOM     15  C   UNL d   1      26.022 -12.498  -3.610  0.00  0.00     0.232 C 
ATOM     16  N   UNL d   1      26.548 -13.007  -2.403  0.00  0.00    -0.324 N 
ATOM     17  H   UNL d   1      26.458 -13.998  -2.209  0.00  0.00     0.169 HD
ATOM     18  O   UNL d   1      25.816 -11.322  -3.891  0.00  0.00    -0.272 OA
BRANCH  16  19
ATOM     19  C   UNL d   1      27.017 -12.193  -1.304  0.00  0.00     0.068 C 
ATOM     20  C   UNL d   1      27.188 -10.802  -1.464  0.00  0.00     0.035 C 
ATOM     21  C   UNL d   1      27.769 -10.023  -0.431  0.00  0.00     0.039 C 
ATOM     22  C   UNL d   1      28.149 -10.609   0.776  0.00  0.00     0.070 C 
ATOM     23  C   UNL d   1      27.914 -11.957   0.957  0.00  0.00     0.075 C 
ATOM     24  C   UNL d   1      27.321 -12.723  -0.036  0.00  0.00     0.097 C 
BRANCH  22  25
ATOM     25  O   UNL d   1      28.618  -9.813   1.786  0.00  0.00    -0.356 OA
ATOM     26  C   UNL d   1      27.758  -9.728   2.928  0.00  0.00     0.210 C 
ENDBRANCH  22  25
BRANCH  24  27
ATOM     27  O   UNL d   1      26.837 -13.950   0.280  0.00  0.00    -0.354 OA
ATOM     28  C   UNL d   1      27.406 -14.714   1.324  0.00  0.00     0.210 C 
ENDBRANCH  24  27
ENDBRANCH  16  19
ENDBRANCH  14  15
ENDBRANCH  13  14
ENDBRANCH   1  13
BRANCH   4  29
ATOM     29  C   UNL d   1      24.516 -17.653  -0.476  0.00  0.00    -0.022 A 
ATOM     30  C   UNL d   1      24.027 -18.950  -0.257  0.00  0.00     0.012 A 
ATOM     31  C   UNL d   1      22.653 -19.207  -0.314  0.00  0.00     0.001 A 
ATOM     32  C   UNL d   1      21.757 -18.160  -0.521  0.00  0.00     0.000 A 
ATOM     33  C   UNL d   1      22.235 -16.867  -0.726  0.00  0.00     0.001 A 
ATOM     34  C   UNL d   1      23.610 -16.616  -0.714  0.00  0.00     0.012 A 
ENDBRANCH   4  29
TORSDOF 7
ENDMDL
MODEL 8
REMARK VINA RESULT:    -6.641      2.672      3.957
REMARK INTER + INTRA:         -12.567
REMARK INTER:                  -8.729
REMARK INTRA:                  -3.839
REMARK CONF_INDEPENDENT:        2.088
REMARK UNBOUND:                -3.839
REMARK  7 active torsions:
REMARK  status: ('A' for Active; 'I' for Inactive)
REMARK    1  A    between atoms: O_2  and  C_3 
REMARK    2  A    between atoms: C_6  and  N_7 
REMARK       I    between atoms: N_7  and  C_8 
REMARK    3  A    between atoms: C_8  and  C_10 
REMARK    4  A    between atoms: C_10  and  S_11 
REMARK    5  A    between atoms: S_11  and  C_12 
REMARK    6  A    between atoms: C_15  and  C_16 
REMARK    7  A    between atoms: C_29  and  O_30 
ROOT
ATOM      1  C   UNL d   1      27.968 -13.836   1.615  0.00  0.00     0.172 A 
ATOM      2  N   UNL d   1      27.054 -14.639   1.130  0.00  0.00    -0.221 NA
ATOM      3  C   UNL d   1      27.530 -15.809   0.537  0.00  0.00     0.104 A 
ATOM      4  C   UNL d   1      26.832 -16.895  -0.053  0.00  0.00     0.021 A 
ATOM      5  C   UNL d   1      27.810 -17.780  -0.493  0.00  0.00     0.103 A 
ATOM      6  N   UNL d   1      29.040 -17.269  -0.164  0.00  0.00    -0.359 N 
ATOM      7  C   UNL d   1      28.866 -16.073   0.467  0.00  0.00     0.131 A 
ATOM      8  C   UNL d   1      29.858 -15.211   0.980  0.00  0.00     0.278 A 
ATOM      9  O   UNL d   1      31.063 -15.478   0.907  0.00  0.00    -0.265 OA
ATOM     10  N   UNL d   1      29.348 -14.060   1.564  0.00  0.00    -0.296 N 
ATOM     11  C   UNL d   1      30.344 -13.147   2.055  0.00  0.00     0.162 C 
ATOM     12  H   UNL d   1      29.939 -17.695  -0.355  0.00  0.00     0.165 HD
ENDROOT
BRANCH   1  13
ATOM     13  S   UNL d   1      27.307 -12.365   2.307  0.00  0.00    -0.082 SA
BRANCH  13  14
ATOM     14  C   UNL d   1      27.079 -10.999   1.090  0.00  0.00     0.185 C 
BRANCH  14  15
ATOM     15  C   UNL d   1      27.380 -11.502  -0.304  0.00  0.00     0.232 C 
ATOM     16  N   UNL d   1      26.654 -12.628  -0.749  0.00  0.00    -0.324 N 
ATOM     17  H   UNL d   1      26.094 -13.145  -0.080  0.00  0.00     0.169 HD
ATOM     18  O   UNL d   1      28.286 -10.923  -0.895  0.00  0.00    -0.272 OA
BRANCH  16  19
ATOM     19  C   UNL d   1      26.814 -13.248  -2.045  0.00  0.00     0.068 C 
ATOM     20  C   UNL d   1      25.776 -13.193  -2.999  0.00  0.00     0.035 C 
ATOM     21  C   UNL d   1      25.878 -13.908  -4.219  0.00  0.00     0.039 C 
ATOM     22  C   UNL d   1      27.021 -14.650  -4.517  0.00  0.00     0.070 C 
ATOM     23  C   UNL d   1      28.065 -14.644  -3.614  0.00  0.00     0.075 C 
ATOM     24  C   UNL d   1      27.986 -13.925  -2.430  0.00  0.00     0.097 C 
BRANCH  22  25
ATOM     25  O   UNL d   1      27.127 -15.250  -5.743  0.00  0.00    -0.356 OA
ATOM     26  C   UNL d   1      28.251 -14.825  -6.521  0.00  0.00     0.210 C 
ENDBRANCH  22  25
BRANCH  24  27
ATOM     27  O   UNL d   1      29.120 -13.698  -1.721  0.00  0.00    -0.354 OA
ATOM     28  C   UNL d   1      30.374 -14.167  -2.177  0.00  0.00     0.210 C 
ENDBRANCH  24  27
ENDBRANCH  16  19
ENDBRANCH  14  15
ENDBRANCH  13  14
ENDBRANCH   1  13
BRANCH   4  29
ATOM     29  C   UNL d   1      25.425 -17.141  -0.313  0.00  0.00    -0.022 A 
ATOM     30  C   UNL d   1      24.590 -16.119  -0.787  0.00  0.00     0.012 A 
ATOM     31  C   UNL d   1      23.211 -16.325  -0.898  0.00  0.00     0.001 A 
ATOM     32  C   UNL d   1      22.669 -17.574  -0.603  0.00  0.00     0.000 A 
ATOM     33  C   UNL d   1      23.495 -18.600  -0.145  0.00  0.00     0.001 A 
ATOM     34  C   UNL d   1      24.866 -18.381   0.010  0.00  0.00     0.012 A 
ENDBRANCH   4  29
TORSDOF 7
ENDMDL
MODEL 9
REMARK VINA RESULT:    -6.544      2.631      5.946
REMARK INTER + INTRA:         -12.666
REMARK INTER:                  -8.632
REMARK INTRA:                  -4.035
REMARK CONF_INDEPENDENT:        2.088
REMARK UNBOUND:                -4.035
REMARK  7 active torsions:
REMARK  status: ('A' for Active; 'I' for Inactive)
REMARK    1  A    between atoms: O_2  and  C_3 
REMARK    2  A    between atoms: C_6  and  N_7 
REMARK       I    between atoms: N_7  and  C_8 
REMARK    3  A    between atoms: C_8  and  C_10 
REMARK    4  A    between atoms: C_10  and  S_11 
REMARK    5  A    between atoms: S_11  and  C_12 
REMARK    6  A    between atoms: C_15  and  C_16 
REMARK    7  A    between atoms: C_29  and  O_30 
ROOT
ATOM      1  C   UNL d   1      28.228 -15.192  -4.995  0.00  0.00     0.172 A 
ATOM      2  N   UNL d   1      27.481 -15.701  -4.047  0.00  0.00    -0.221 NA
ATOM      3  C   UNL d   1      26.327 -14.981  -3.733  0.00  0.00     0.104 A 
ATOM      4  C   UNL d   1      25.296 -15.251  -2.797  0.00  0.00     0.021 A 
ATOM      5  C   UNL d   1      24.404 -14.190  -2.898  0.00  0.00     0.103 A 
ATOM      6  N   UNL d   1      24.856 -13.331  -3.868  0.00  0.00    -0.359 N 
ATOM      7  C   UNL d   1      26.024 -13.817  -4.377  0.00  0.00     0.131 A 
ATOM      8  C   UNL d   1      26.827 -13.257  -5.394  0.00  0.00     0.278 A 
ATOM      9  O   UNL d   1      26.524 -12.202  -5.964  0.00  0.00    -0.265 OA
ATOM     10  N   UNL d   1      27.962 -14.001  -5.679  0.00  0.00    -0.296 N 
ATOM     11  C   UNL d   1      28.816 -13.426  -6.683  0.00  0.00     0.162 C 
ATOM     12  H   UNL d   1      24.412 -12.470  -4.164  0.00  0.00     0.165 HD
ENDROOT
BRANCH   1  13
ATOM     13  S   UNL d   1      29.683 -16.121  -5.310  0.00  0.00    -0.082 SA
BRANCH  13  14
ATOM     14  C   UNL d   1      31.041 -15.823  -4.100  0.00  0.00     0.185 C 
BRANCH  14  15
ATOM     15  C   UNL d   1      30.508 -15.052  -2.914  0.00  0.00     0.232 C 
ATOM     16  N   UNL d   1      29.420 -15.619  -2.217  0.00  0.00    -0.324 N 
ATOM     17  H   UNL d   1      28.941 -16.416  -2.622  0.00  0.00     0.169 HD
ATOM     18  O   UNL d   1      31.030 -13.960  -2.711  0.00  0.00    -0.272 OA
BRANCH  16  19
ATOM     19  C   UNL d   1      28.778 -15.021  -1.068  0.00  0.00     0.068 C 
ATOM     20  C   UNL d   1      28.882 -15.621   0.204  0.00  0.00     0.035 C 
ATOM     21  C   UNL d   1      28.150 -15.110   1.306  0.00  0.00     0.039 C 
ATOM     22  C   UNL d   1      27.341 -13.982   1.163  0.00  0.00     0.070 C 
ATOM     23  C   UNL d   1      27.298 -13.354  -0.065  0.00  0.00     0.075 C 
ATOM     24  C   UNL d   1      28.033 -13.829  -1.142  0.00  0.00     0.097 C 
BRANCH  22  25
ATOM     25  O   UNL d   1      26.725 -13.459   2.267  0.00  0.00    -0.356 OA
ATOM     26  C   UNL d   1      27.405 -13.700   3.503  0.00  0.00     0.210 C 
ENDBRANCH  22  25
BRANCH  24  27
ATOM     27  O   UNL d   1      28.203 -13.032  -2.226  0.00  0.00    -0.354 OA
ATOM     28  C   UNL d   1      27.694 -11.714  -2.252  0.00  0.00     0.210 C 
ENDBRANCH  24  27
ENDBRANCH  16  19
ENDBRANCH  14  15
ENDBRANCH  13  14
ENDBRANCH   1  13
BRANCH   4  29
ATOM     29  C   UNL d   1      25.109 -16.297  -1.807  0.00  0.00    -0.022 A 
ATOM     30  C   UNL d   1      23.838 -16.570  -1.279  0.00  0.00     0.012 A 
ATOM     31  C   UNL d   1      23.690 -17.478  -0.226  0.00  0.00     0.001 A 
ATOM     32  C   UNL d   1      24.799 -18.169   0.259  0.00  0.00     0.000 A 
ATOM     33  C   UNL d   1      26.063 -17.913  -0.270  0.00  0.00     0.001 A 
ATOM     34  C   UNL d   1      26.219 -16.972  -1.292  0.00  0.00     0.012 A 
ENDBRANCH   4  29
TORSDOF 7
ENDMDL
