MODEL 1
REMARK VINA RESULT:    -9.639      0.000      0.000
REMARK INTER + INTRA:         -14.089
REMARK INTER:                 -12.324
REMARK INTRA:                  -1.765
REMARK CONF_INDEPENDENT:        2.685
REMARK UNBOUND:                -1.765
REMARK  9 active torsions:
REMARK  status: ('A' for Active; 'I' for Inactive)
REMARK    1  A    between atoms: C_2  and  C_3 
REMARK       I    between atoms: C_2  and  N_21 
REMARK    2  A    between atoms: C_3  and  N_4 
REMARK    3  A    between atoms: N_4  and  C_5 
REMARK    4  A    between atoms: C_10  and  C_11 
REMARK       I    between atoms: C_11  and  N_13 
REMARK    5  A    between atoms: N_13  and  C_14 
REMARK    6  A    between atoms: N_21  and  C_22 
REMARK    7  A    between atoms: C_26  and  C_27 
REMARK       I    between atoms: C_27  and  N_29 
REMARK    8  A    between atoms: N_29  and  C_30 
REMARK    9  A    between atoms: C_30  and  C_31 
ROOT
ATOM      1  O   UNL d   1      27.765 -14.050  -2.795  0.00  0.00    -0.271 OA
ATOM      2  C   UNL d   1      27.257 -14.731  -1.900  0.00  0.00     0.239 C 
ATOM      3  N   UNL d   1      26.700 -15.961  -2.218  0.00  0.00    -0.326 N 
ATOM      4  H   UNL d   1      26.878 -16.262  -3.171  0.00  0.00     0.169 HD
ENDROOT
BRANCH   2   5
ATOM      5  C   UNL d   1      27.297 -14.299  -0.417  0.00  0.00     0.223 C 
BRANCH   5   6
ATOM      6  N   UNL d   1      28.162 -13.142  -0.168  0.00  0.00    -0.381 N 
ATOM      7  H   UNL d   1      28.696 -12.802  -0.963  0.00  0.00     0.160 HD
BRANCH   6   8
ATOM      8  C   UNL d   1      27.929 -12.326   0.932  0.00  0.00     0.029 A 
ATOM      9  C   UNL d   1      27.732 -10.956   0.758  0.00  0.00     0.031 A 
ATOM     10  C   UNL d   1      27.476 -10.118   1.839  0.00  0.00     0.027 A 
ATOM     11  C   UNL d   1      27.447 -10.616   3.143  0.00  0.00     0.049 A 
ATOM     12 CL   UNL d   1      27.144  -9.417   4.355  0.00  0.00    -0.083 Cl
ATOM     13  C   UNL d   1      27.667 -11.984   3.377  0.00  0.00     0.055 A 
ATOM     14  C   UNL d   1      27.918 -12.821   2.250  0.00  0.00     0.048 A 
BRANCH  13  15
ATOM     15  C   UNL d   1      27.645 -12.636   4.740  0.00  0.00     0.253 C 
ATOM     16  O   UNL d   1      27.227 -13.783   4.861  0.00  0.00    -0.268 OA
ATOM     17  N   UNL d   1      28.109 -11.908   5.817  0.00  0.00    -0.352 N 
ATOM     18  H   UNL d   1      28.532 -11.005   5.642  0.00  0.00     0.163 HD
BRANCH  17  19
ATOM     19  C   UNL d   1      28.239 -12.420   7.178  0.00  0.00     0.084 C 
ATOM     20  C   UNL d   1      29.048 -13.722   7.183  0.00  0.00     0.025 C 
ATOM     21  C   UNL d   1      29.300 -14.237   8.596  0.00  0.00     0.002 C 
ATOM     22  C   UNL d   1      29.977 -13.184   9.466  0.00  0.00     0.000 C 
ATOM     23  C   UNL d   1      29.160 -11.897   9.491  0.00  0.00     0.002 C 
ATOM     24  C   UNL d   1      28.913 -11.368   8.079  0.00  0.00     0.025 C 
ENDBRANCH  17  19
ENDBRANCH  13  15
ENDBRANCH   6   8
ENDBRANCH   5   6
ENDBRANCH   2   5
BRANCH   3  25
ATOM     25  C   UNL d   1      25.964 -16.824  -1.383  0.00  0.00     0.035 A 
ATOM     26  C   UNL d   1      26.610 -17.696  -0.514  0.00  0.00     0.029 A 
ATOM     27  C   UNL d   1      25.855 -18.576   0.274  0.00  0.00     0.003 A 
ATOM     28  C   UNL d   1      24.455 -18.554   0.231  0.00  0.00     0.017 A 
ATOM     29  C   UNL d   1      23.798 -17.714  -0.662  0.00  0.00     0.034 A 
ATOM     30  C   UNL d   1      24.575 -16.885  -1.482  0.00  0.00     0.046 A 
BRANCH  29  31
ATOM     31  C   UNL d   1      22.297 -17.756  -0.746  0.00  0.00     0.251 C 
ATOM     32  O   UNL d   1      21.643 -16.727  -0.898  0.00  0.00    -0.268 OA
ATOM     33  N   UNL d   1      21.726 -18.995  -0.633  0.00  0.00    -0.354 N 
ATOM     34  H   UNL d   1      22.320 -19.744  -0.350  0.00  0.00     0.162 HD
BRANCH  33  35
ATOM     35  C   UNL d   1      20.299 -19.277  -0.656  0.00  0.00     0.155 C 
BRANCH  35  36
ATOM     36  C   UNL d   1      19.870 -20.436   0.281  0.00  0.00     0.139 C 
ATOM     37  C   UNL d   1      18.394 -20.826   0.232  0.00  0.00     0.035 C 
ATOM     38  C   UNL d   1      18.091 -21.307   1.618  0.00  0.00     0.029 C 
ATOM     39  C   UNL d   1      19.005 -20.449   2.461  0.00  0.00     0.168 C 
ATOM     40  O   UNL d   1      20.140 -20.103   1.657  0.00  0.00    -0.384 OA
ENDBRANCH  35  36
ENDBRANCH  33  35
ENDBRANCH  29  31
ENDBRANCH   3  25
TORSDOF 9
ENDMDL
MODEL 2
REMARK VINA RESULT:    -9.358      2.437      3.594
REMARK INTER + INTRA:         -14.518
REMARK INTER:                 -12.043
REMARK INTRA:                  -2.475
REMARK CONF_INDEPENDENT:        2.685
REMARK UNBOUND:                -2.475
REMARK  9 active torsions:
REMARK  status: ('A' for Active; 'I' for Inactive)
REMARK    1  A    between atoms: C_2  and  C_3 
REMARK       I    between atoms: C_2  and  N_21 
REMARK    2  A    between atoms: C_3  and  N_4 
REMARK    3  A    between atoms: N_4  and  C_5 
REMARK    4  A    between atoms: C_10  and  C_11 
REMARK       I    between atoms: C_11  and  N_13 
REMARK    5  A    between atoms: N_13  and  C_14 
REMARK    6  A    between atoms: N_21  and  C_22 
REMARK    7  A    between atoms: C_26  and  C_27 
REMARK       I    between atoms: C_27  and  N_29 
REMARK    8  A    between atoms: N_29  and  C_30 
REMARK    9  A    between atoms: C_30  and  C_31 
ROOT
ATOM      1  O   UNL d   1      27.063 -14.858  -5.746  0.00  0.00    -0.271 OA
ATOM      2  C   UNL d   1      26.718 -14.970  -4.567  0.00  0.00     0.239 C 
ATOM      3  N   UNL d   1      27.562 -15.611  -3.673  0.00  0.00    -0.326 N 
ATOM      4  H   UNL d   1      28.479 -15.829  -4.051  0.00  0.00     0.169 HD
ENDROOT
BRANCH   2   5
ATOM      5  C   UNL d   1      25.413 -14.340  -4.030  0.00  0.00     0.223 C 
BRANCH   5   6
ATOM      6  N   UNL d   1      25.494 -12.886  -3.856  0.00  0.00    -0.381 N 
ATOM      7  H   UNL d   1      24.754 -12.341  -4.290  0.00  0.00     0.160 HD
BRANCH   6   8
ATOM      8  C   UNL d   1      26.259 -12.353  -2.826  0.00  0.00     0.029 A 
ATOM      9  C   UNL d   1      27.053 -11.229  -3.054  0.00  0.00     0.031 A 
ATOM     10  C   UNL d   1      27.813 -10.660  -2.037  0.00  0.00     0.027 A 
ATOM     11  C   UNL d   1      27.837 -11.222  -0.759  0.00  0.00     0.049 A 
ATOM     12 CL   UNL d   1      28.863 -10.392   0.363  0.00  0.00    -0.083 Cl
ATOM     13  C   UNL d   1      27.078 -12.371  -0.483  0.00  0.00     0.055 A 
ATOM     14  C   UNL d   1      26.301 -12.927  -1.542  0.00  0.00     0.048 A 
BRANCH  13  15
ATOM     15  C   UNL d   1      27.015 -13.056   0.863  0.00  0.00     0.253 C 
ATOM     16  O   UNL d   1      25.929 -13.394   1.326  0.00  0.00    -0.268 OA
ATOM     17  N   UNL d   1      28.200 -13.285   1.533  0.00  0.00    -0.352 N 
ATOM     18  H   UNL d   1      29.069 -13.073   1.059  0.00  0.00     0.163 HD
BRANCH  17  19
ATOM     19  C   UNL d   1      28.320 -14.011   2.794  0.00  0.00     0.084 C 
ATOM     20  C   UNL d   1      29.768 -13.972   3.295  0.00  0.00     0.025 C 
ATOM     21  C   UNL d   1      29.920 -14.627   4.664  0.00  0.00     0.002 C 
ATOM     22  C   UNL d   1      28.981 -14.005   5.692  0.00  0.00     0.000 C 
ATOM     23  C   UNL d   1      27.536 -14.070   5.213  0.00  0.00     0.002 C 
ATOM     24  C   UNL d   1      27.373 -13.406   3.847  0.00  0.00     0.025 C 
ENDBRANCH  17  19
ENDBRANCH  13  15
ENDBRANCH   6   8
ENDBRANCH   5   6
ENDBRANCH   2   5
BRANCH   3  25
ATOM     25  C   UNL d   1      27.307 -15.956  -2.331  0.00  0.00     0.035 A 
ATOM     26  C   UNL d   1      28.133 -15.501  -1.309  0.00  0.00     0.029 A 
ATOM     27  C   UNL d   1      27.882 -15.896   0.012  0.00  0.00     0.003 A 
ATOM     28  C   UNL d   1      26.781 -16.705   0.322  0.00  0.00     0.017 A 
ATOM     29  C   UNL d   1      25.970 -17.198  -0.695  0.00  0.00     0.034 A 
ATOM     30  C   UNL d   1      26.275 -16.838  -2.015  0.00  0.00     0.046 A 
BRANCH  29  31
ATOM     31  C   UNL d   1      24.836 -18.124  -0.350  0.00  0.00     0.251 C 
ATOM     32  O   UNL d   1      24.709 -18.571   0.787  0.00  0.00    -0.268 OA
ATOM     33  N   UNL d   1      23.984 -18.432  -1.375  0.00  0.00    -0.354 N 
ATOM     34  H   UNL d   1      24.259 -18.157  -2.293  0.00  0.00     0.162 HD
BRANCH  33  35
ATOM     35  C   UNL d   1      22.838 -19.325  -1.286  0.00  0.00     0.155 C 
BRANCH  35  36
ATOM     36  C   UNL d   1      21.670 -18.770  -0.429  0.00  0.00     0.139 C 
ATOM     37  C   UNL d   1      21.010 -19.762   0.526  0.00  0.00     0.035 C 
ATOM     38  C   UNL d   1      19.586 -19.307   0.608  0.00  0.00     0.029 C 
ATOM     39  C   UNL d   1      19.351 -18.741  -0.773  0.00  0.00     0.168 C 
ATOM     40  O   UNL d   1      20.612 -18.276  -1.272  0.00  0.00    -0.384 OA
ENDBRANCH  35  36
ENDBRANCH  33  35
ENDBRANCH  29  31
ENDBRANCH   3  25
TORSDOF 9
ENDMDL
MODEL 3
REMARK VINA RESULT:    -7.744      4.708      8.896
REMARK INTER + INTRA:         -14.881
REMARK INTER:                 -10.429
REMARK INTRA:                  -4.452
REMARK CONF_INDEPENDENT:        2.685
REMARK UNBOUND:                -4.452
REMARK  9 active torsions:
REMARK  status: ('A' for Active; 'I' for Inactive)
REMARK    1  A    between atoms: C_2  and  C_3 
REMARK       I    between atoms: C_2  and  N_21 
REMARK    2  A    between atoms: C_3  and  N_4 
REMARK    3  A    between atoms: N_4  and  C_5 
REMARK    4  A    between atoms: C_10  and  C_11 
REMARK       I    between atoms: C_11  and  N_13 
REMARK    5  A    between atoms: N_13  and  C_14 
REMARK    6  A    between atoms: N_21  and  C_22 
REMARK    7  A    between atoms: C_26  and  C_27 
REMARK       I    between atoms: C_27  and  N_29 
REMARK    8  A    between atoms: N_29  and  C_30 
REMARK    9  A    between atoms: C_30  and  C_31 
ROOT
ATOM      1  O   UNL d   1      30.947 -17.610  -7.982  0.00  0.00    -0.271 OA
ATOM      2  C   UNL d   1      30.978 -17.408  -6.765  0.00  0.00     0.239 C 
ATOM      3  N   UNL d   1      31.276 -18.459  -5.910  0.00  0.00    -0.326 N 
ATOM      4  H   UNL d   1      31.577 -19.305  -6.383  0.00  0.00     0.169 HD
ENDROOT
BRANCH   2   5
ATOM      5  C   UNL d   1      30.784 -15.998  -6.163  0.00  0.00     0.223 C 
BRANCH   5   6
ATOM      6  N   UNL d   1      29.770 -15.199  -6.859  0.00  0.00    -0.381 N 
ATOM      7  H   UNL d   1      29.612 -15.430  -7.836  0.00  0.00     0.160 HD
BRANCH   6   8
ATOM      8  C   UNL d   1      28.815 -14.503  -6.129  0.00  0.00     0.029 A 
ATOM      9  C   UNL d   1      28.740 -13.113  -6.220  0.00  0.00     0.031 A 
ATOM     10  C   UNL d   1      27.780 -12.392  -5.517  0.00  0.00     0.027 A 
ATOM     11  C   UNL d   1      26.883 -13.034  -4.663  0.00  0.00     0.049 A 
ATOM     12 CL   UNL d   1      25.785 -11.967  -3.854  0.00  0.00    -0.083 Cl
ATOM     13  C   UNL d   1      26.932 -14.430  -4.513  0.00  0.00     0.055 A 
ATOM     14  C   UNL d   1      27.920 -15.145  -5.252  0.00  0.00     0.048 A 
BRANCH  13  15
ATOM     15  C   UNL d   1      26.004 -15.232  -3.630  0.00  0.00     0.253 C 
ATOM     16  O   UNL d   1      25.155 -15.959  -4.138  0.00  0.00    -0.268 OA
ATOM     17  N   UNL d   1      26.149 -15.121  -2.262  0.00  0.00    -0.352 N 
ATOM     18  H   UNL d   1      26.928 -14.584  -1.903  0.00  0.00     0.163 HD
BRANCH  17  19
ATOM     19  C   UNL d   1      25.397 -15.892  -1.277  0.00  0.00     0.084 C 
ATOM     20  C   UNL d   1      23.908 -15.918  -1.644  0.00  0.00     0.025 C 
ATOM     21  C   UNL d   1      23.099 -16.802  -0.701  0.00  0.00     0.002 C 
ATOM     22  C   UNL d   1      23.660 -18.219  -0.639  0.00  0.00     0.000 C 
ATOM     23  C   UNL d   1      25.132 -18.201  -0.242  0.00  0.00     0.002 C 
ATOM     24  C   UNL d   1      25.951 -17.326  -1.190  0.00  0.00     0.025 C 
ENDBRANCH  17  19
ENDBRANCH  13  15
ENDBRANCH   6   8
ENDBRANCH   5   6
ENDBRANCH   2   5
BRANCH   3  25
ATOM     25  C   UNL d   1      31.235 -18.472  -4.503  0.00  0.00     0.035 A 
ATOM     26  C   UNL d   1      32.059 -19.324  -3.775  0.00  0.00     0.029 A 
ATOM     27  C   UNL d   1      31.967 -19.349  -2.376  0.00  0.00     0.003 A 
ATOM     28  C   UNL d   1      31.089 -18.492  -1.700  0.00  0.00     0.017 A 
ATOM     29  C   UNL d   1      30.232 -17.664  -2.418  0.00  0.00     0.034 A 
ATOM     30  C   UNL d   1      30.301 -17.698  -3.817  0.00  0.00     0.046 A 
BRANCH  29  31
ATOM     31  C   UNL d   1      29.245 -16.804  -1.677  0.00  0.00     0.251 C 
ATOM     32  O   UNL d   1      28.587 -15.948  -2.264  0.00  0.00    -0.268 OA
ATOM     33  N   UNL d   1      29.145 -17.032  -0.332  0.00  0.00    -0.354 N 
ATOM     34  H   UNL d   1      29.831 -17.627   0.080  0.00  0.00     0.162 HD
BRANCH  33  35
ATOM     35  C   UNL d   1      28.283 -16.307   0.590  0.00  0.00     0.155 C 
BRANCH  35  36
ATOM     36  C   UNL d   1      28.561 -14.782   0.646  0.00  0.00     0.139 C 
ATOM     37  C   UNL d   1      28.067 -14.058   1.897  0.00  0.00     0.035 C 
ATOM     38  C   UNL d   1      27.736 -12.677   1.420  0.00  0.00     0.029 C 
ATOM     39  C   UNL d   1      27.272 -12.931   0.005  0.00  0.00     0.168 C 
ATOM     40  O   UNL d   1      27.937 -14.112  -0.466  0.00  0.00    -0.384 OA
ENDBRANCH  35  36
ENDBRANCH  33  35
ENDBRANCH  29  31
ENDBRANCH   3  25
TORSDOF 9
ENDMDL
MODEL 4
REMARK VINA RESULT:    -7.296      3.934      8.723
REMARK INTER + INTRA:         -14.193
REMARK INTER:                  -9.981
REMARK INTRA:                  -4.211
REMARK CONF_INDEPENDENT:        2.685
REMARK UNBOUND:                -4.211
REMARK  9 active torsions:
REMARK  status: ('A' for Active; 'I' for Inactive)
REMARK    1  A    between atoms: C_2  and  C_3 
REMARK       I    between atoms: C_2  and  N_21 
REMARK    2  A    between atoms: C_3  and  N_4 
REMARK    3  A    between atoms: N_4  and  C_5 
REMARK    4  A    between atoms: C_10  and  C_11 
REMARK       I    between atoms: C_11  and  N_13 
REMARK    5  A    between atoms: N_13  and  C_14 
REMARK    6  A    between atoms: N_21  and  C_22 
REMARK    7  A    between atoms: C_26  and  C_27 
REMARK       I    between atoms: C_27  and  N_29 
REMARK    8  A    between atoms: N_29  and  C_30 
REMARK    9  A    between atoms: C_30  and  C_31 
ROOT
ATOM      1  O   UNL d   1      32.235 -14.103  -6.743  0.00  0.00    -0.271 OA
ATOM      2  C   UNL d   1      31.415 -14.679  -6.023  0.00  0.00     0.239 C 
ATOM      3  N   UNL d   1      31.442 -14.458  -4.654  0.00  0.00    -0.326 N 
ATOM      4  H   UNL d   1      32.075 -13.718  -4.366  0.00  0.00     0.169 HD
ENDROOT
BRANCH   2   5
ATOM      5  C   UNL d   1      30.297 -15.573  -6.605  0.00  0.00     0.223 C 
BRANCH   5   6
ATOM      6  N   UNL d   1      29.125 -14.820  -7.064  0.00  0.00    -0.381 N 
ATOM      7  H   UNL d   1      28.815 -15.009  -8.013  0.00  0.00     0.160 HD
BRANCH   6   8
ATOM      8  C   UNL d   1      28.268 -14.241  -6.137  0.00  0.00     0.029 A 
ATOM      9  C   UNL d   1      28.149 -12.852  -6.066  0.00  0.00     0.031 A 
ATOM     10  C   UNL d   1      27.282 -12.245  -5.162  0.00  0.00     0.027 A 
ATOM     11  C   UNL d   1      26.530 -13.007  -4.266  0.00  0.00     0.049 A 
ATOM     12 CL   UNL d   1      25.533 -12.073  -3.202  0.00  0.00    -0.083 Cl
ATOM     13  C   UNL d   1      26.633 -14.408  -4.277  0.00  0.00     0.055 A 
ATOM     14  C   UNL d   1      27.522 -15.004  -5.219  0.00  0.00     0.048 A 
BRANCH  13  15
ATOM     15  C   UNL d   1      25.858 -15.333  -3.366  0.00  0.00     0.253 C 
ATOM     16  O   UNL d   1      25.304 -16.325  -3.831  0.00  0.00    -0.268 OA
ATOM     17  N   UNL d   1      25.805 -15.027  -2.021  0.00  0.00    -0.352 N 
ATOM     18  H   UNL d   1      26.362 -14.253  -1.681  0.00  0.00     0.163 HD
BRANCH  17  19
ATOM     19  C   UNL d   1      25.178 -15.861  -0.999  0.00  0.00     0.084 C 
ATOM     20  C   UNL d   1      23.723 -16.161  -1.376  0.00  0.00     0.025 C 
ATOM     21  C   UNL d   1      23.059 -17.118  -0.390  0.00  0.00     0.002 C 
ATOM     22  C   UNL d   1      23.852 -18.412  -0.243  0.00  0.00     0.000 C 
ATOM     23  C   UNL d   1      25.292 -18.121   0.163  0.00  0.00     0.002 C 
ATOM     24  C   UNL d   1      25.967 -17.172  -0.826  0.00  0.00     0.025 C 
ENDBRANCH  17  19
ENDBRANCH  13  15
ENDBRANCH   6   8
ENDBRANCH   5   6
ENDBRANCH   2   5
BRANCH   3  25
ATOM     25  C   UNL d   1      30.691 -15.105  -3.654  0.00  0.00     0.035 A 
ATOM     26  C   UNL d   1      30.643 -16.493  -3.586  0.00  0.00     0.029 A 
ATOM     27  C   UNL d   1      29.852 -17.112  -2.608  0.00  0.00     0.003 A 
ATOM     28  C   UNL d   1      29.146 -16.350  -1.669  0.00  0.00     0.017 A 
ATOM     29  C   UNL d   1      29.154 -14.961  -1.750  0.00  0.00     0.034 A 
ATOM     30  C   UNL d   1      29.906 -14.365  -2.772  0.00  0.00     0.046 A 
BRANCH  29  31
ATOM     31  C   UNL d   1      28.332 -14.160  -0.778  0.00  0.00     0.251 C 
ATOM     32  O   UNL d   1      27.926 -13.037  -1.069  0.00  0.00    -0.268 OA
ATOM     33  N   UNL d   1      28.085 -14.756   0.428  0.00  0.00    -0.354 N 
ATOM     34  H   UNL d   1      28.589 -15.591   0.634  0.00  0.00     0.162 HD
BRANCH  33  35
ATOM     35  C   UNL d   1      27.341 -14.164   1.530  0.00  0.00     0.155 C 
BRANCH  35  36
ATOM     36  C   UNL d   1      28.223 -13.751   2.737  0.00  0.00     0.139 C 
ATOM     37  C   UNL d   1      29.591 -14.424   2.828  0.00  0.00     0.035 C 
ATOM     38  C   UNL d   1      29.869 -14.504   4.298  0.00  0.00     0.029 C 
ATOM     39  C   UNL d   1      28.484 -14.678   4.875  0.00  0.00     0.168 C 
ATOM     40  O   UNL d   1      27.557 -14.052   3.979  0.00  0.00    -0.384 OA
ENDBRANCH  35  36
ENDBRANCH  33  35
ENDBRANCH  29  31
ENDBRANCH   3  25
TORSDOF 9
ENDMDL
MODEL 5
REMARK VINA RESULT:    -7.205      5.699      9.529
REMARK INTER + INTRA:         -13.975
REMARK INTER:                  -9.889
REMARK INTRA:                  -4.085
REMARK CONF_INDEPENDENT:        2.685
REMARK UNBOUND:                -4.085
REMARK  9 active torsions:
REMARK  status: ('A' for Active; 'I' for Inactive)
REMARK    1  A    between atoms: C_2  and  C_3 
REMARK       I    between atoms: C_2  and  N_21 
REMARK    2  A    between atoms: C_3  and  N_4 
REMARK    3  A    between atoms: N_4  and  C_5 
REMARK    4  A    between atoms: C_10  and  C_11 
REMARK       I    between atoms: C_11  and  N_13 
REMARK    5  A    between atoms: N_13  and  C_14 
REMARK    6  A    between atoms: N_21  and  C_22 
REMARK    7  A    between atoms: C_26  and  C_27 
REMARK       I    between atoms: C_27  and  N_29 
REMARK    8  A    between atoms: N_29  and  C_30 
REMARK    9  A    between atoms: C_30  and  C_31 
ROOT
ATOM      1  O   UNL d   1      24.578  -7.314  -4.748  0.00  0.00    -0.271 OA
ATOM      2  C   UNL d   1      25.355  -8.094  -4.190  0.00  0.00     0.239 C 
ATOM      3  N   UNL d   1      25.405  -8.124  -2.804  0.00  0.00    -0.326 N 
ATOM      4  H   UNL d   1      24.682  -7.574  -2.351  0.00  0.00     0.169 HD
ENDROOT
BRANCH   2   5
ATOM      5  C   UNL d   1      26.215  -9.104  -4.983  0.00  0.00     0.223 C 
BRANCH   5   6
ATOM      6  N   UNL d   1      25.538 -10.381  -5.229  0.00  0.00    -0.381 N 
ATOM      7  H   UNL d   1      24.606 -10.324  -5.632  0.00  0.00     0.160 HD
BRANCH   6   8
ATOM      8  C   UNL d   1      26.278 -11.553  -5.314  0.00  0.00     0.029 A 
ATOM      9  C   UNL d   1      27.534 -11.545  -5.922  0.00  0.00     0.031 A 
ATOM     10  C   UNL d   1      28.307 -12.699  -6.003  0.00  0.00     0.027 A 
ATOM     11  C   UNL d   1      27.833 -13.917  -5.513  0.00  0.00     0.049 A 
ATOM     12 CL   UNL d   1      28.924 -15.244  -5.731  0.00  0.00    -0.083 Cl
ATOM     13  C   UNL d   1      26.563 -13.987  -4.917  0.00  0.00     0.055 A 
ATOM     14  C   UNL d   1      25.796 -12.787  -4.839  0.00  0.00     0.048 A 
BRANCH  13  15
ATOM     15  C   UNL d   1      25.953 -15.244  -4.340  0.00  0.00     0.253 C 
ATOM     16  O   UNL d   1      25.532 -16.119  -5.091  0.00  0.00    -0.268 OA
ATOM     17  N   UNL d   1      25.896 -15.368  -2.966  0.00  0.00    -0.352 N 
ATOM     18  H   UNL d   1      26.347 -14.661  -2.400  0.00  0.00     0.163 HD
BRANCH  17  19
ATOM     19  C   UNL d   1      25.423 -16.551  -2.253  0.00  0.00     0.084 C 
ATOM     20  C   UNL d   1      26.418 -16.945  -1.155  0.00  0.00     0.025 C 
ATOM     21  C   UNL d   1      25.913 -18.112  -0.313  0.00  0.00     0.002 C 
ATOM     22  C   UNL d   1      24.542 -17.821   0.286  0.00  0.00     0.000 C 
ATOM     23  C   UNL d   1      23.540 -17.460  -0.805  0.00  0.00     0.002 C 
ATOM     24  C   UNL d   1      24.033 -16.284  -1.645  0.00  0.00     0.025 C 
ENDBRANCH  17  19
ENDBRANCH  13  15
ENDBRANCH   6   8
ENDBRANCH   5   6
ENDBRANCH   2   5
BRANCH   3  25
ATOM     25  C   UNL d   1      26.300  -8.836  -1.982  0.00  0.00     0.035 A 
ATOM     26  C   UNL d   1      26.950  -8.207  -0.926  0.00  0.00     0.029 A 
ATOM     27  C   UNL d   1      27.870  -8.927  -0.151  0.00  0.00     0.003 A 
ATOM     28  C   UNL d   1      28.108 -10.285  -0.399  0.00  0.00     0.017 A 
ATOM     29  C   UNL d   1      27.495 -10.915  -1.476  0.00  0.00     0.034 A 
ATOM     30  C   UNL d   1      26.623 -10.160  -2.273  0.00  0.00     0.046 A 
BRANCH  29  31
ATOM     31  C   UNL d   1      27.818 -12.354  -1.771  0.00  0.00     0.251 C 
ATOM     32  O   UNL d   1      27.018 -13.249  -1.505  0.00  0.00    -0.268 OA
ATOM     33  N   UNL d   1      29.042 -12.589  -2.334  0.00  0.00    -0.354 N 
ATOM     34  H   UNL d   1      29.683 -11.826  -2.362  0.00  0.00     0.162 HD
BRANCH  33  35
ATOM     35  C   UNL d   1      29.581 -13.896  -2.679  0.00  0.00     0.155 C 
BRANCH  35  36
ATOM     36  C   UNL d   1      29.011 -15.059  -1.825  0.00  0.00     0.139 C 
ATOM     37  C   UNL d   1      29.618 -15.228  -0.434  0.00  0.00     0.035 C 
ATOM     38  C   UNL d   1      29.533 -16.699  -0.168  0.00  0.00     0.029 C 
ATOM     39  C   UNL d   1      29.698 -17.284  -1.551  0.00  0.00     0.168 C 
ATOM     40  O   UNL d   1      29.205 -16.321  -2.492  0.00  0.00    -0.384 OA
ENDBRANCH  35  36
ENDBRANCH  33  35
ENDBRANCH  29  31
ENDBRANCH   3  25
TORSDOF 9
ENDMDL
MODEL 6
REMARK VINA RESULT:    -7.159      4.078      6.068
REMARK INTER + INTRA:         -14.002
REMARK INTER:                  -9.844
REMARK INTRA:                  -4.159
REMARK CONF_INDEPENDENT:        2.685
REMARK UNBOUND:                -4.159
REMARK  9 active torsions:
REMARK  status: ('A' for Active; 'I' for Inactive)
REMARK    1  A    between atoms: C_2  and  C_3 
REMARK       I    between atoms: C_2  and  N_21 
REMARK    2  A    between atoms: C_3  and  N_4 
REMARK    3  A    between atoms: N_4  and  C_5 
REMARK    4  A    between atoms: C_10  and  C_11 
REMARK       I    between atoms: C_11  and  N_13 
REMARK    5  A    between atoms: N_13  and  C_14 
REMARK    6  A    between atoms: N_21  and  C_22 
REMARK    7  A    between atoms: C_26  and  C_27 
REMARK       I    between atoms: C_27  and  N_29 
REMARK    8  A    between atoms: N_29  and  C_30 
REMARK    9  A    between atoms: C_30  and  C_31 
ROOT
ATOM      1  O   UNL d   1      30.700 -16.136  -7.030  0.00  0.00    -0.271 OA
ATOM      2  C   UNL d   1      29.806 -15.632  -6.346  0.00  0.00     0.239 C 
ATOM      3  N   UNL d   1      28.955 -14.700  -6.923  0.00  0.00    -0.326 N 
ATOM      4  H   UNL d   1      29.065 -14.605  -7.928  0.00  0.00     0.169 HD
ENDROOT
BRANCH   2   5
ATOM      5  C   UNL d   1      29.543 -16.067  -4.886  0.00  0.00     0.223 C 
BRANCH   5   6
ATOM      6  N   UNL d   1      30.291 -15.283  -3.898  0.00  0.00    -0.381 N 
ATOM      7  H   UNL d   1      31.304 -15.360  -3.939  0.00  0.00     0.160 HD
BRANCH   6   8
ATOM      8  C   UNL d   1      29.686 -14.204  -3.268  0.00  0.00     0.029 A 
ATOM      9  C   UNL d   1      29.738 -12.935  -3.847  0.00  0.00     0.031 A 
ATOM     10  C   UNL d   1      29.123 -11.840  -3.249  0.00  0.00     0.027 A 
ATOM     11  C   UNL d   1      28.465 -11.966  -2.025  0.00  0.00     0.049 A 
ATOM     12 CL   UNL d   1      27.789 -10.488  -1.426  0.00  0.00    -0.083 Cl
ATOM     13  C   UNL d   1      28.407 -13.215  -1.384  0.00  0.00     0.055 A 
ATOM     14  C   UNL d   1      29.038 -14.322  -2.024  0.00  0.00     0.048 A 
BRANCH  13  15
ATOM     15  C   UNL d   1      27.711 -13.473  -0.067  0.00  0.00     0.253 C 
ATOM     16  O   UNL d   1      26.639 -14.071  -0.050  0.00  0.00    -0.268 OA
ATOM     17  N   UNL d   1      28.318 -13.024   1.088  0.00  0.00    -0.352 N 
ATOM     18  H   UNL d   1      29.246 -12.625   1.021  0.00  0.00     0.163 HD
BRANCH  17  19
ATOM     19  C   UNL d   1      27.825 -13.270   2.440  0.00  0.00     0.084 C 
ATOM     20  C   UNL d   1      28.413 -14.574   2.993  0.00  0.00     0.025 C 
ATOM     21  C   UNL d   1      28.010 -14.817   4.444  0.00  0.00     0.002 C 
ATOM     22  C   UNL d   1      28.387 -13.639   5.336  0.00  0.00     0.000 C 
ATOM     23  C   UNL d   1      27.779 -12.345   4.809  0.00  0.00     0.002 C 
ATOM     24  C   UNL d   1      28.187 -12.088   3.360  0.00  0.00     0.025 C 
ENDBRANCH  17  19
ENDBRANCH  13  15
ENDBRANCH   6   8
ENDBRANCH   5   6
ENDBRANCH   2   5
BRANCH   3  25
ATOM     25  C   UNL d   1      27.966 -13.919  -6.293  0.00  0.00     0.035 A 
ATOM     26  C   UNL d   1      27.901 -12.546  -6.506  0.00  0.00     0.029 A 
ATOM     27  C   UNL d   1      26.935 -11.786  -5.833  0.00  0.00     0.003 A 
ATOM     28  C   UNL d   1      26.004 -12.398  -4.984  0.00  0.00     0.017 A 
ATOM     29  C   UNL d   1      26.084 -13.764  -4.732  0.00  0.00     0.034 A 
ATOM     30  C   UNL d   1      27.094 -14.495  -5.371  0.00  0.00     0.046 A 
BRANCH  29  31
ATOM     31  C   UNL d   1      25.122 -14.392  -3.761  0.00  0.00     0.251 C 
ATOM     32  O   UNL d   1      23.935 -14.072  -3.751  0.00  0.00    -0.268 OA
ATOM     33  N   UNL d   1      25.655 -15.316  -2.905  0.00  0.00    -0.354 N 
ATOM     34  H   UNL d   1      26.649 -15.389  -2.876  0.00  0.00     0.162 HD
BRANCH  33  35
ATOM     35  C   UNL d   1      24.927 -16.030  -1.866  0.00  0.00     0.155 C 
BRANCH  35  36
ATOM     36  C   UNL d   1      25.699 -17.235  -1.269  0.00  0.00     0.139 C 
ATOM     37  C   UNL d   1      25.510 -17.476   0.227  0.00  0.00     0.035 C 
ATOM     38  C   UNL d   1      26.811 -18.069   0.675  0.00  0.00     0.029 C 
ATOM     39  C   UNL d   1      27.802 -17.395  -0.244  0.00  0.00     0.168 C 
ATOM     40  O   UNL d   1      27.118 -17.075  -1.463  0.00  0.00    -0.384 OA
ENDBRANCH  35  36
ENDBRANCH  33  35
ENDBRANCH  29  31
ENDBRANCH   3  25
TORSDOF 9
ENDMDL
MODEL 7
REMARK VINA RESULT:    -7.082      4.232      9.218
REMARK INTER + INTRA:         -14.135
REMARK INTER:                  -9.767
REMARK INTRA:                  -4.368
REMARK CONF_INDEPENDENT:        2.685
REMARK UNBOUND:                -4.368
REMARK  9 active torsions:
REMARK  status: ('A' for Active; 'I' for Inactive)
REMARK    1  A    between atoms: C_2  and  C_3 
REMARK       I    between atoms: C_2  and  N_21 
REMARK    2  A    between atoms: C_3  and  N_4 
REMARK    3  A    between atoms: N_4  and  C_5 
REMARK    4  A    between atoms: C_10  and  C_11 
REMARK       I    between atoms: C_11  and  N_13 
REMARK    5  A    between atoms: N_13  and  C_14 
REMARK    6  A    between atoms: N_21  and  C_22 
REMARK    7  A    between atoms: C_26  and  C_27 
REMARK       I    between atoms: C_27  and  N_29 
REMARK    8  A    between atoms: N_29  and  C_30 
REMARK    9  A    between atoms: C_30  and  C_31 
ROOT
ATOM      1  O   UNL d   1      32.640 -17.524  -0.693  0.00  0.00    -0.271 OA
ATOM      2  C   UNL d   1      31.645 -16.831  -0.921  0.00  0.00     0.239 C 
ATOM      3  N   UNL d   1      31.738 -15.452  -0.801  0.00  0.00    -0.326 N 
ATOM      4  H   UNL d   1      32.683 -15.111  -0.655  0.00  0.00     0.169 HD
ENDROOT
BRANCH   2   5
ATOM      5  C   UNL d   1      30.317 -17.442  -1.423  0.00  0.00     0.223 C 
BRANCH   5   6
ATOM      6  N   UNL d   1      29.358 -17.718  -0.349  0.00  0.00    -0.381 N 
ATOM      7  H   UNL d   1      29.749 -17.830   0.583  0.00  0.00     0.160 HD
BRANCH   6   8
ATOM      8  C   UNL d   1      28.015 -17.413  -0.524  0.00  0.00     0.029 A 
ATOM      9  C   UNL d   1      27.045 -18.051   0.250  0.00  0.00     0.031 A 
ATOM     10  C   UNL d   1      25.693 -17.750   0.111  0.00  0.00     0.027 A 
ATOM     11  C   UNL d   1      25.258 -16.825  -0.840  0.00  0.00     0.049 A 
ATOM     12 CL   UNL d   1      23.541 -16.606  -0.884  0.00  0.00    -0.083 Cl
ATOM     13  C   UNL d   1      26.190 -16.174  -1.665  0.00  0.00     0.055 A 
ATOM     14  C   UNL d   1      27.569 -16.495  -1.494  0.00  0.00     0.048 A 
BRANCH  13  15
ATOM     15  C   UNL d   1      25.837 -15.147  -2.716  0.00  0.00     0.253 C 
ATOM     16  O   UNL d   1      25.374 -15.509  -3.793  0.00  0.00    -0.268 OA
ATOM     17  N   UNL d   1      26.047 -13.815  -2.419  0.00  0.00    -0.352 N 
ATOM     18  H   UNL d   1      26.339 -13.571  -1.481  0.00  0.00     0.163 HD
BRANCH  17  19
ATOM     19  C   UNL d   1      25.678 -12.698  -3.285  0.00  0.00     0.084 C 
ATOM     20  C   UNL d   1      26.221 -11.382  -2.717  0.00  0.00     0.025 C 
ATOM     21  C   UNL d   1      25.951 -10.201  -3.644  0.00  0.00     0.002 C 
ATOM     22  C   UNL d   1      26.502 -10.449  -5.044  0.00  0.00     0.000 C 
ATOM     23  C   UNL d   1      25.939 -11.740  -5.626  0.00  0.00     0.002 C 
ATOM     24  C   UNL d   1      26.216 -12.930  -4.709  0.00  0.00     0.025 C 
ENDBRANCH  17  19
ENDBRANCH  13  15
ENDBRANCH   6   8
ENDBRANCH   5   6
ENDBRANCH   2   5
BRANCH   3  25
ATOM     25  C   UNL d   1      30.702 -14.501  -0.888  0.00  0.00     0.035 A 
ATOM     26  C   UNL d   1      30.719 -13.518  -1.871  0.00  0.00     0.029 A 
ATOM     27  C   UNL d   1      29.699 -12.557  -1.907  0.00  0.00     0.003 A 
ATOM     28  C   UNL d   1      28.638 -12.603  -0.994  0.00  0.00     0.017 A 
ATOM     29  C   UNL d   1      28.630 -13.557   0.018  0.00  0.00     0.034 A 
ATOM     30  C   UNL d   1      29.690 -14.472   0.071  0.00  0.00     0.046 A 
BRANCH  29  31
ATOM     31  C   UNL d   1      27.521 -13.547   1.034  0.00  0.00     0.251 C 
ATOM     32  O   UNL d   1      26.353 -13.375   0.692  0.00  0.00    -0.268 OA
ATOM     33  N   UNL d   1      27.900 -13.728   2.336  0.00  0.00    -0.354 N 
ATOM     34  H   UNL d   1      28.877 -13.694   2.533  0.00  0.00     0.162 HD
BRANCH  33  35
ATOM     35  C   UNL d   1      27.010 -13.726   3.487  0.00  0.00     0.155 C 
BRANCH  35  36
ATOM     36  C   UNL d   1      27.671 -14.233   4.796  0.00  0.00     0.139 C 
ATOM     37  C   UNL d   1      27.938 -13.174   5.863  0.00  0.00     0.035 C 
ATOM     38  C   UNL d   1      29.163 -13.664   6.573  0.00  0.00     0.029 C 
ATOM     39  C   UNL d   1      29.913 -14.368   5.467  0.00  0.00     0.168 C 
ATOM     40  O   UNL d   1      28.948 -14.839   4.517  0.00  0.00    -0.384 OA
ENDBRANCH  35  36
ENDBRANCH  33  35
ENDBRANCH  29  31
ENDBRANCH   3  25
TORSDOF 9
ENDMDL
MODEL 8
REMARK VINA RESULT:    -6.757      4.947      9.255
REMARK INTER + INTRA:         -14.637
REMARK INTER:                  -9.442
REMARK INTRA:                  -5.195
REMARK CONF_INDEPENDENT:        2.685
REMARK UNBOUND:                -5.195
REMARK  9 active torsions:
REMARK  status: ('A' for Active; 'I' for Inactive)
REMARK    1  A    between atoms: C_2  and  C_3 
REMARK       I    between atoms: C_2  and  N_21 
REMARK    2  A    between atoms: C_3  and  N_4 
REMARK    3  A    between atoms: N_4  and  C_5 
REMARK    4  A    between atoms: C_10  and  C_11 
REMARK       I    between atoms: C_11  and  N_13 
REMARK    5  A    between atoms: N_13  and  C_14 
REMARK    6  A    between atoms: N_21  and  C_22 
REMARK    7  A    between atoms: C_26  and  C_27 
REMARK       I    between atoms: C_27  and  N_29 
REMARK    8  A    between atoms: N_29  and  C_30 
REMARK    9  A    between atoms: C_30  and  C_31 
ROOT
ATOM      1  O   UNL d   1      31.651 -18.762  -1.932  0.00  0.00    -0.271 OA
ATOM      2  C   UNL d   1      30.932 -17.811  -2.252  0.00  0.00     0.239 C 
ATOM      3  N   UNL d   1      30.775 -17.503  -3.595  0.00  0.00    -0.326 N 
ATOM      4  H   UNL d   1      31.178 -18.188  -4.228  0.00  0.00     0.169 HD
ENDROOT
BRANCH   2   5
ATOM      5  C   UNL d   1      30.127 -17.003  -1.210  0.00  0.00     0.223 C 
BRANCH   5   6
ATOM      6  N   UNL d   1      29.073 -17.783  -0.553  0.00  0.00    -0.381 N 
ATOM      7  H   UNL d   1      29.369 -18.378   0.216  0.00  0.00     0.160 HD
BRANCH   6   8
ATOM      8  C   UNL d   1      27.744 -17.402  -0.686  0.00  0.00     0.029 A 
ATOM      9  C   UNL d   1      26.770 -17.956   0.145  0.00  0.00     0.031 A 
ATOM     10  C   UNL d   1      25.434 -17.578   0.049  0.00  0.00     0.027 A 
ATOM     11  C   UNL d   1      25.017 -16.657  -0.913  0.00  0.00     0.049 A 
ATOM     12 CL   UNL d   1      23.315 -16.336  -0.897  0.00  0.00    -0.083 Cl
ATOM     13  C   UNL d   1      25.952 -16.089  -1.794  0.00  0.00     0.055 A 
ATOM     14  C   UNL d   1      27.315 -16.488  -1.667  0.00  0.00     0.048 A 
BRANCH  13  15
ATOM     15  C   UNL d   1      25.618 -15.073  -2.863  0.00  0.00     0.253 C 
ATOM     16  O   UNL d   1      25.162 -15.447  -3.939  0.00  0.00    -0.268 OA
ATOM     17  N   UNL d   1      25.838 -13.740  -2.583  0.00  0.00    -0.352 N 
ATOM     18  H   UNL d   1      26.122 -13.485  -1.646  0.00  0.00     0.163 HD
BRANCH  17  19
ATOM     19  C   UNL d   1      25.486 -12.632  -3.468  0.00  0.00     0.084 C 
ATOM     20  C   UNL d   1      25.907 -11.297  -2.843  0.00  0.00     0.025 C 
ATOM     21  C   UNL d   1      25.657 -10.119  -3.779  0.00  0.00     0.002 C 
ATOM     22  C   UNL d   1      26.341 -10.319  -5.127  0.00  0.00     0.000 C 
ATOM     23  C   UNL d   1      25.902 -11.630  -5.768  0.00  0.00     0.002 C 
ATOM     24  C   UNL d   1      26.160 -12.816  -4.841  0.00  0.00     0.025 C 
ENDBRANCH  17  19
ENDBRANCH  13  15
ENDBRANCH   6   8
ENDBRANCH   5   6
ENDBRANCH   2   5
BRANCH   3  25
ATOM     25  C   UNL d   1      30.114 -16.396  -4.161  0.00  0.00     0.035 A 
ATOM     26  C   UNL d   1      29.707 -16.413  -5.491  0.00  0.00     0.029 A 
ATOM     27  C   UNL d   1      29.091 -15.280  -6.042  0.00  0.00     0.003 A 
ATOM     28  C   UNL d   1      28.838 -14.149  -5.256  0.00  0.00     0.017 A 
ATOM     29  C   UNL d   1      29.276 -14.104  -3.936  0.00  0.00     0.034 A 
ATOM     30  C   UNL d   1      29.942 -15.226  -3.424  0.00  0.00     0.046 A 
BRANCH  29  31
ATOM     31  C   UNL d   1      29.060 -12.853  -3.129  0.00  0.00     0.251 C 
ATOM     32  O   UNL d   1      29.365 -11.751  -3.579  0.00  0.00    -0.268 OA
ATOM     33  N   UNL d   1      28.521 -13.030  -1.885  0.00  0.00    -0.354 N 
ATOM     34  H   UNL d   1      28.460 -13.965  -1.545  0.00  0.00     0.162 HD
BRANCH  33  35
ATOM     35  C   UNL d   1      28.251 -11.975  -0.919  0.00  0.00     0.155 C 
BRANCH  35  36
ATOM     36  C   UNL d   1      27.553 -12.468   0.375  0.00  0.00     0.139 C 
ATOM     37  C   UNL d   1      28.430 -12.535   1.624  0.00  0.00     0.035 C 
ATOM     38  C   UNL d   1      27.859 -13.669   2.418  0.00  0.00     0.029 C 
ATOM     39  C   UNL d   1      27.362 -14.599   1.336  0.00  0.00     0.168 C 
ATOM     40  O   UNL d   1      27.030 -13.798   0.194  0.00  0.00    -0.384 OA
ENDBRANCH  35  36
ENDBRANCH  33  35
ENDBRANCH  29  31
ENDBRANCH   3  25
TORSDOF 9
ENDMDL
