MODEL 1
REMARK VINA RESULT:   -13.871      0.000      0.000
REMARK INTER + INTRA:         -18.607
REMARK INTER:                 -16.854
REMARK INTRA:                  -1.752
REMARK CONF_INDEPENDENT:        2.983
REMARK UNBOUND:                -1.752
REMARK  10 active torsions:
REMARK  status: ('A' for Active; 'I' for Inactive)
REMARK    1  A    between atoms: C_2  and  C_3 
REMARK    2  A    between atoms: C_3  and  S_4 
REMARK    3  A    between atoms: S_4  and  C_5 
REMARK    4  A    between atoms: C_8  and  C_9 
REMARK       I    between atoms: C_9  and  N_11 
REMARK    5  A    between atoms: N_11  and  C_12 
REMARK    6  A    between atoms: C_12  and  C_13 
REMARK    7  A    between atoms: C_13  and  C_14 
REMARK    8  A    between atoms: C_13  and  N_24 
REMARK    9  A    between atoms: C_16  and  O_17 
REMARK   10  A    between atoms: C_21  and  O_22 
ROOT
ATOM      1  C   UNL d   1      25.736 -15.417  -2.442  0.00  0.00     0.241 C 
ENDROOT
BRANCH   1   2
ATOM      2  C   UNL d   1      24.487 -15.192  -1.506  0.00  0.00     0.161 C 
BRANCH   2   3
ATOM      3  N   UNL d   1      23.358 -16.096  -1.577  0.00  0.00    -0.354 N 
ATOM      4  C   UNL d   1      23.483 -17.307  -0.869  0.00  0.00     0.256 C 
ATOM      5  O   UNL d   1      24.543 -17.690  -0.425  0.00  0.00    -0.268 OA
ATOM      6  H   UNL d   1      22.434 -15.682  -1.531  0.00  0.00     0.162 HD
BRANCH   4   7
ATOM      7  C   UNL d   1      22.254 -18.109  -0.661  0.00  0.00     0.090 A 
ATOM      8  C   UNL d   1      22.353 -19.384  -0.141  0.00  0.00     0.139 A 
ATOM      9  N   UNL d   1      21.307 -20.244  -0.071  0.00  0.00    -0.234 NA
ATOM     10  C   UNL d   1      20.122 -19.795  -0.515  0.00  0.00     0.189 A 
ATOM     11  N   UNL d   1      19.904 -18.556  -0.956  0.00  0.00    -0.210 NA
ATOM     12  C   UNL d   1      20.973 -17.748  -1.011  0.00  0.00     0.146 A 
ATOM     13 CL   UNL d   1      20.506 -16.187  -1.583  0.00  0.00    -0.061 Cl
BRANCH  10  14
ATOM     14  S   UNL d   1      18.719 -20.866  -0.476  0.00  0.00    -0.090 SA
BRANCH  14  15
ATOM     15  C   UNL d   1      18.708 -21.320   1.290  0.00  0.00     0.082 C 
BRANCH  15  16
ATOM     16  C   UNL d   1      18.983 -20.063   2.116  0.00  0.00     0.006 C 
ATOM     17  C   UNL d   1      20.273 -20.179   2.914  0.00  0.00     0.006 C 
ENDBRANCH  15  16
ENDBRANCH  14  15
ENDBRANCH  10  14
ENDBRANCH   4   7
ENDBRANCH   2   3
ENDBRANCH   1   2
BRANCH   1  18
ATOM     18  C   UNL d   1      26.275 -14.066  -2.995  0.00  0.00     0.010 C 
ATOM     19  C   UNL d   1      25.747 -13.592  -4.244  0.00  0.00     0.049 C 
ATOM     20  C   UNL d   1      26.273 -12.454  -4.896  0.00  0.00     0.069 C 
ATOM     21  C   UNL d   1      27.297 -11.743  -4.292  0.00  0.00     0.039 C 
ATOM     22  C   UNL d   1      27.788 -12.150  -3.073  0.00  0.00     0.040 C 
ATOM     23  C   UNL d   1      27.219 -13.209  -2.366  0.00  0.00     0.076 C 
BRANCH  20  24
ATOM     24  O   UNL d   1      25.773 -12.126  -6.131  0.00  0.00    -0.356 OA
ATOM     25  C   UNL d   1      26.119 -10.807  -6.588  0.00  0.00     0.210 C 
ENDBRANCH  20  24
BRANCH  23  26
ATOM     26  O   UNL d   1      27.676 -13.075  -1.074  0.00  0.00    -0.355 OA
ATOM     27  C   UNL d   1      28.849 -12.397  -0.783  0.00  0.00     0.210 C 
ENDBRANCH  23  26
ENDBRANCH   1  18
BRANCH   1  28
ATOM     28  N   UNL d   1      26.926 -16.454  -1.763  0.00  0.00    -0.061 N 
ATOM     29  C   UNL d   1      28.256 -16.662  -2.482  0.00  0.00     0.236 C 
ATOM     30  C   UNL d   1      29.389 -17.427  -1.871  0.00  0.00     0.028 C 
ATOM     31  C   UNL d   1      29.637 -16.784  -0.542  0.00  0.00     0.003 C 
ATOM     32  C   UNL d   1      28.341 -16.960   0.243  0.00  0.00     0.028 C 
ATOM     33  C   UNL d   1      27.193 -16.104  -0.317  0.00  0.00     0.236 C 
ATOM     34  H   UNL d   1      26.454 -17.369  -1.798  0.00  0.00     0.280 HD
ENDBRANCH   1  28
TORSDOF 10
ENDMDL
