MODEL 1
REMARK VINA RESULT:    -8.982      0.000      0.000
REMARK INTER + INTRA:         -10.789
REMARK INTER:                 -10.175
REMARK INTRA:                  -0.614
REMARK CONF_INDEPENDENT:        1.193
REMARK UNBOUND:                -0.614
REMARK  4 active torsions:
REMARK  status: ('A' for Active; 'I' for Inactive)
REMARK       I    between atoms: C_2  and  N_3 
REMARK    1  A    between atoms: C_2  and  C_18 
REMARK    2  A    between atoms: N_3  and  C_4 
REMARK    3  A    between atoms: C_4  and  C_5 
REMARK    4  A    between atoms: C_21  and  N_22 
ROOT
ATOM      1  C   UNL d   1      27.533 -14.258   0.837  0.00  0.00    -0.040 C 
ATOM      2  C   UNL d   1      26.812 -12.993   0.602  0.00  0.00     0.011 C 
ATOM      3  C   UNL d   1      26.662 -12.020   1.545  0.00  0.00     0.030 C 
ATOM      4  C   UNL d   1      27.269 -12.247   2.895  0.00  0.00     0.039 C 
ATOM      5  C   UNL d   1      27.756 -13.605   3.131  0.00  0.00    -0.005 C 
ATOM      6  C   UNL d   1      27.956 -14.545   2.071  0.00  0.00     0.023 C 
ATOM      7  C   UNL d   1      27.995 -13.678   4.413  0.00  0.00    -0.045 C 
ATOM      8  C   UNL d   1      28.602 -14.785   5.164  0.00  0.00     0.037 C 
ATOM      9  C   UNL d   1      28.721 -14.448   6.672  0.00  0.00     0.004 C 
ATOM     10  C   UNL d   1      30.025 -13.737   6.596  0.00  0.00     0.003 C 
ATOM     11  C   UNL d   1      29.485 -12.276   5.765  0.00  0.00     0.029 C 
ATOM     12  C   UNL d   1      27.949 -12.378   5.127  0.00  0.00     0.112 C 
ATOM     13  N   UNL d   1      27.416 -11.530   3.966  0.00  0.00    -0.381 N 
ATOM     14  H   UNL d   1      26.908 -10.646   4.066  0.00  0.00     0.160 HD
ENDROOT
BRANCH   1  15
ATOM     15  C   UNL d   1      27.702 -15.294  -0.257  0.00  0.00     0.161 C 
BRANCH  15  16
ATOM     16  N   UNL d   1      26.416 -15.817  -0.683  0.00  0.00    -0.353 N 
ATOM     17  C   UNL d   1      25.916 -16.962  -0.085  0.00  0.00     0.251 C 
ATOM     18  O   UNL d   1      26.531 -17.572   0.783  0.00  0.00    -0.268 OA
ATOM     19  H   UNL d   1      25.863 -15.312  -1.359  0.00  0.00     0.163 HD
BRANCH  17  20
ATOM     20  C   UNL d   1      24.579 -17.473  -0.520  0.00  0.00     0.032 A 
ATOM     21  C   UNL d   1      23.560 -16.540  -0.777  0.00  0.00     0.019 A 
ATOM     22  C   UNL d   1      22.223 -16.950  -0.896  0.00  0.00     0.037 A 
ATOM     23  C   UNL d   1      21.916 -18.313  -0.859  0.00  0.00     0.102 A 
ATOM     24  C   UNL d   1      22.945 -19.262  -0.751  0.00  0.00     0.037 A 
ATOM     25  C   UNL d   1      24.269 -18.838  -0.525  0.00  0.00     0.019 A 
BRANCH  23  26
ATOM     26  N   UNL d   1      20.508 -18.750  -0.874  0.00  0.00    -0.116 N 
ATOM     27  O   UNL d   1      20.282 -19.968  -0.884  0.00  0.00    -0.532 OA
ATOM     28  O   UNL d   1      19.635 -17.871  -0.895  0.00  0.00    -0.532 OA
ENDBRANCH  23  26
ENDBRANCH  17  20
ENDBRANCH  15  16
ENDBRANCH   1  15
TORSDOF 4
ENDMDL
MODEL 2
REMARK VINA RESULT:    -8.508      1.392      1.842
REMARK INTER + INTRA:         -10.163
REMARK INTER:                  -9.702
REMARK INTRA:                  -0.461
REMARK CONF_INDEPENDENT:        1.193
REMARK UNBOUND:                -0.461
REMARK  4 active torsions:
REMARK  status: ('A' for Active; 'I' for Inactive)
REMARK       I    between atoms: C_2  and  N_3 
REMARK    1  A    between atoms: C_2  and  C_18 
REMARK    2  A    between atoms: N_3  and  C_4 
REMARK    3  A    between atoms: C_4  and  C_5 
REMARK    4  A    between atoms: C_21  and  N_22 
ROOT
ATOM      1  C   UNL d   1      28.295 -13.760   2.533  0.00  0.00    -0.040 C 
ATOM      2  C   UNL d   1      27.604 -12.487   2.255  0.00  0.00     0.011 C 
ATOM      3  C   UNL d   1      27.364 -11.534   3.199  0.00  0.00     0.030 C 
ATOM      4  C   UNL d   1      27.834 -11.792   4.597  0.00  0.00     0.039 C 
ATOM      5  C   UNL d   1      28.291 -13.157   4.851  0.00  0.00    -0.005 C 
ATOM      6  C   UNL d   1      28.593 -14.075   3.795  0.00  0.00     0.023 C 
ATOM      7  C   UNL d   1      28.402 -13.258   6.148  0.00  0.00    -0.045 C 
ATOM      8  C   UNL d   1      28.930 -14.384   6.931  0.00  0.00     0.037 C 
ATOM      9  C   UNL d   1      28.900 -14.079   8.450  0.00  0.00     0.004 C 
ATOM     10  C   UNL d   1      30.206 -13.374   8.519  0.00  0.00     0.003 C 
ATOM     11  C   UNL d   1      29.755 -11.893   7.671  0.00  0.00     0.029 C 
ATOM     12  C   UNL d   1      28.289 -11.974   6.882  0.00  0.00     0.112 C 
ATOM     13  N   UNL d   1      27.875 -11.099   5.693  0.00  0.00    -0.381 N 
ATOM     14  H   UNL d   1      27.362 -10.215   5.761  0.00  0.00     0.160 HD
ENDROOT
BRANCH   1  15
ATOM     15  C   UNL d   1      28.569 -14.773   1.439  0.00  0.00     0.161 C 
BRANCH  15  16
ATOM     16  N   UNL d   1      27.334 -15.372   0.961  0.00  0.00    -0.353 N 
ATOM     17  C   UNL d   1      27.392 -16.430   0.070  0.00  0.00     0.251 C 
ATOM     18  O   UNL d   1      28.453 -16.874  -0.354  0.00  0.00    -0.268 OA
ATOM     19  H   UNL d   1      26.447 -15.062   1.329  0.00  0.00     0.163 HD
BRANCH  17  20
ATOM     20  C   UNL d   1      26.111 -17.048  -0.393  0.00  0.00     0.032 A 
ATOM     21  C   UNL d   1      25.365 -16.378  -1.377  0.00  0.00     0.019 A 
ATOM     22  C   UNL d   1      24.033 -16.737  -1.639  0.00  0.00     0.037 A 
ATOM     23  C   UNL d   1      23.477 -17.839  -0.983  0.00  0.00     0.102 A 
ATOM     24  C   UNL d   1      24.262 -18.605  -0.107  0.00  0.00     0.037 A 
ATOM     25  C   UNL d   1      25.560 -18.175   0.229  0.00  0.00     0.019 A 
BRANCH  23  26
ATOM     26  N   UNL d   1      22.050 -18.161  -1.167  0.00  0.00    -0.116 N 
ATOM     27  O   UNL d   1      21.763 -19.285  -1.599  0.00  0.00    -0.532 OA
ATOM     28  O   UNL d   1      21.224 -17.278  -0.895  0.00  0.00    -0.532 OA
ENDBRANCH  23  26
ENDBRANCH  17  20
ENDBRANCH  15  16
ENDBRANCH   1  15
TORSDOF 4
ENDMDL
MODEL 3
REMARK VINA RESULT:    -8.356      4.421      8.440
REMARK INTER + INTRA:         -10.161
REMARK INTER:                  -9.549
REMARK INTRA:                  -0.611
REMARK CONF_INDEPENDENT:        1.193
REMARK UNBOUND:                -0.611
REMARK  4 active torsions:
REMARK  status: ('A' for Active; 'I' for Inactive)
REMARK       I    between atoms: C_2  and  N_3 
REMARK    1  A    between atoms: C_2  and  C_18 
REMARK    2  A    between atoms: N_3  and  C_4 
REMARK    3  A    between atoms: C_4  and  C_5 
REMARK    4  A    between atoms: C_21  and  N_22 
ROOT
ATOM      1  C   UNL d   1      27.454 -15.224  -1.611  0.00  0.00    -0.040 C 
ATOM      2  C   UNL d   1      28.462 -16.004  -0.869  0.00  0.00     0.011 C 
ATOM      3  C   UNL d   1      28.177 -17.136  -0.165  0.00  0.00     0.030 C 
ATOM      4  C   UNL d   1      26.760 -17.618  -0.150  0.00  0.00     0.039 C 
ATOM      5  C   UNL d   1      25.783 -16.679  -0.700  0.00  0.00    -0.005 C 
ATOM      6  C   UNL d   1      26.165 -15.551  -1.494  0.00  0.00     0.023 C 
ATOM      7  C   UNL d   1      24.612 -17.149  -0.364  0.00  0.00    -0.045 C 
ATOM      8  C   UNL d   1      23.286 -16.651  -0.754  0.00  0.00     0.037 C 
ATOM      9  C   UNL d   1      22.155 -17.517  -0.146  0.00  0.00     0.004 C 
ATOM     10  C   UNL d   1      22.122 -18.548  -1.216  0.00  0.00     0.003 C 
ATOM     11  C   UNL d   1      23.655 -19.350  -0.862  0.00  0.00     0.029 C 
ATOM     12  C   UNL d   1      24.633 -18.520   0.201  0.00  0.00     0.112 C 
ATOM     13  N   UNL d   1      26.155 -18.672   0.305  0.00  0.00    -0.381 N 
ATOM     14  H   UNL d   1      26.642 -19.308   0.943  0.00  0.00     0.160 HD
ENDROOT
BRANCH   1  15
ATOM     15  C   UNL d   1      27.830 -13.990  -2.408  0.00  0.00     0.161 C 
BRANCH  15  16
ATOM     16  N   UNL d   1      27.518 -12.779  -1.670  0.00  0.00    -0.353 N 
ATOM     17  C   UNL d   1      28.143 -12.542  -0.456  0.00  0.00     0.251 C 
ATOM     18  O   UNL d   1      28.941 -13.332   0.036  0.00  0.00    -0.268 OA
ATOM     19  H   UNL d   1      26.904 -12.086  -2.071  0.00  0.00     0.163 HD
BRANCH  17  20
ATOM     20  C   UNL d   1      27.827 -11.279   0.279  0.00  0.00     0.032 A 
ATOM     21  C   UNL d   1      27.141 -11.372   1.502  0.00  0.00     0.019 A 
ATOM     22  C   UNL d   1      26.558 -10.238   2.088  0.00  0.00     0.037 A 
ATOM     23  C   UNL d   1      26.749  -8.985   1.499  0.00  0.00     0.102 A 
ATOM     24  C   UNL d   1      27.556  -8.861   0.357  0.00  0.00     0.037 A 
ATOM     25  C   UNL d   1      28.048 -10.015  -0.283  0.00  0.00     0.019 A 
BRANCH  23  26
ATOM     26  N   UNL d   1      26.054  -7.804   2.043  0.00  0.00    -0.116 N 
ATOM     27  O   UNL d   1      26.397  -7.396   3.161  0.00  0.00    -0.532 OA
ATOM     28  O   UNL d   1      25.155  -7.301   1.354  0.00  0.00    -0.532 OA
ENDBRANCH  23  26
ENDBRANCH  17  20
ENDBRANCH  15  16
ENDBRANCH   1  15
TORSDOF 4
ENDMDL
MODEL 4
REMARK VINA RESULT:    -8.155      4.594      7.102
REMARK INTER + INTRA:          -9.863
REMARK INTER:                  -9.348
REMARK INTRA:                  -0.514
REMARK CONF_INDEPENDENT:        1.193
REMARK UNBOUND:                -0.514
REMARK  4 active torsions:
REMARK  status: ('A' for Active; 'I' for Inactive)
REMARK       I    between atoms: C_2  and  N_3 
REMARK    1  A    between atoms: C_2  and  C_18 
REMARK    2  A    between atoms: N_3  and  C_4 
REMARK    3  A    between atoms: C_4  and  C_5 
REMARK    4  A    between atoms: C_21  and  N_22 
ROOT
ATOM      1  C   UNL d   1      27.185 -14.733  -3.218  0.00  0.00    -0.040 C 
ATOM      2  C   UNL d   1      26.653 -14.054  -4.414  0.00  0.00     0.011 C 
ATOM      3  C   UNL d   1      27.176 -14.200  -5.664  0.00  0.00     0.030 C 
ATOM      4  C   UNL d   1      28.356 -15.108  -5.833  0.00  0.00     0.039 C 
ATOM      5  C   UNL d   1      28.972 -15.555  -4.585  0.00  0.00    -0.005 C 
ATOM      6  C   UNL d   1      28.319 -15.430  -3.318  0.00  0.00     0.023 C 
ATOM      7  C   UNL d   1      30.109 -16.099  -4.927  0.00  0.00    -0.045 C 
ATOM      8  C   UNL d   1      31.072 -16.806  -4.072  0.00  0.00     0.037 C 
ATOM      9  C   UNL d   1      32.287 -17.314  -4.890  0.00  0.00     0.004 C 
ATOM     10  C   UNL d   1      31.683 -18.599  -5.331  0.00  0.00     0.003 C 
ATOM     11  C   UNL d   1      30.501 -17.959  -6.476  0.00  0.00     0.029 C 
ATOM     12  C   UNL d   1      30.282 -16.310  -6.385  0.00  0.00     0.112 C 
ATOM     13  N   UNL d   1      29.028 -15.558  -6.847  0.00  0.00    -0.381 N 
ATOM     14  H   UNL d   1      28.896 -15.144  -7.775  0.00  0.00     0.160 HD
ENDROOT
BRANCH   1  15
ATOM     15  C   UNL d   1      26.544 -14.564  -1.855  0.00  0.00     0.161 C 
BRANCH  15  16
ATOM     16  N   UNL d   1      25.334 -15.361  -1.745  0.00  0.00    -0.353 N 
ATOM     17  C   UNL d   1      25.236 -16.311  -0.742  0.00  0.00     0.251 C 
ATOM     18  O   UNL d   1      26.145 -16.525   0.052  0.00  0.00    -0.268 OA
ATOM     19  H   UNL d   1      24.549 -15.175  -2.351  0.00  0.00     0.163 HD
BRANCH  17  20
ATOM     20  C   UNL d   1      23.974 -17.106  -0.630  0.00  0.00     0.032 A 
ATOM     21  C   UNL d   1      24.074 -18.502  -0.496  0.00  0.00     0.019 A 
ATOM     22  C   UNL d   1      22.954 -19.325  -0.684  0.00  0.00     0.037 A 
ATOM     23  C   UNL d   1      21.702 -18.743  -0.906  0.00  0.00     0.102 A 
ATOM     24  C   UNL d   1      21.566 -17.346  -0.895  0.00  0.00     0.037 A 
ATOM     25  C   UNL d   1      22.711 -16.530  -0.813  0.00  0.00     0.019 A 
BRANCH  23  26
ATOM     26  N   UNL d   1      20.539 -19.595  -1.211  0.00  0.00    -0.116 N 
ATOM     27  O   UNL d   1      20.337 -19.894  -2.396  0.00  0.00    -0.532 OA
ATOM     28  O   UNL d   1      19.821 -19.946  -0.263  0.00  0.00    -0.532 OA
ENDBRANCH  23  26
ENDBRANCH  17  20
ENDBRANCH  15  16
ENDBRANCH   1  15
TORSDOF 4
ENDMDL
MODEL 5
REMARK VINA RESULT:    -8.056      4.076      7.001
REMARK INTER + INTRA:          -9.821
REMARK INTER:                  -9.249
REMARK INTRA:                  -0.572
REMARK CONF_INDEPENDENT:        1.193
REMARK UNBOUND:                -0.572
REMARK  4 active torsions:
REMARK  status: ('A' for Active; 'I' for Inactive)
REMARK       I    between atoms: C_2  and  N_3 
REMARK    1  A    between atoms: C_2  and  C_18 
REMARK    2  A    between atoms: N_3  and  C_4 
REMARK    3  A    between atoms: C_4  and  C_5 
REMARK    4  A    between atoms: C_21  and  N_22 
ROOT
ATOM      1  C   UNL d   1      28.000 -15.148  -2.382  0.00  0.00    -0.040 C 
ATOM      2  C   UNL d   1      28.892 -16.055  -3.129  0.00  0.00     0.011 C 
ATOM      3  C   UNL d   1      29.275 -15.847  -4.420  0.00  0.00     0.030 C 
ATOM      4  C   UNL d   1      28.766 -14.623  -5.118  0.00  0.00     0.039 C 
ATOM      5  C   UNL d   1      27.710 -13.904  -4.408  0.00  0.00    -0.005 C 
ATOM      6  C   UNL d   1      27.420 -14.133  -3.026  0.00  0.00     0.023 C 
ATOM      7  C   UNL d   1      27.223 -13.051  -5.269  0.00  0.00    -0.045 C 
ATOM      8  C   UNL d   1      26.215 -12.006  -5.043  0.00  0.00     0.037 C 
ATOM      9  C   UNL d   1      25.937 -11.199  -6.336  0.00  0.00     0.004 C 
ATOM     10  C   UNL d   1      27.042 -10.217  -6.178  0.00  0.00     0.003 C 
ATOM     11  C   UNL d   1      28.403 -11.293  -6.504  0.00  0.00     0.029 C 
ATOM     12  C   UNL d   1      28.011 -12.912  -6.518  0.00  0.00     0.112 C 
ATOM     13  N   UNL d   1      28.992 -14.062  -6.265  0.00  0.00    -0.381 N 
ATOM     14  H   UNL d   1      29.508 -14.568  -6.992  0.00  0.00     0.160 HD
ENDROOT
BRANCH   1  15
ATOM     15  C   UNL d   1      27.632 -15.407  -0.935  0.00  0.00     0.161 C 
BRANCH  15  16
ATOM     16  N   UNL d   1      26.237 -15.796  -0.814  0.00  0.00    -0.353 N 
ATOM     17  C   UNL d   1      25.915 -17.133  -0.651  0.00  0.00     0.251 C 
ATOM     18  O   UNL d   1      26.767 -18.015  -0.626  0.00  0.00    -0.268 OA
ATOM     19  H   UNL d   1      25.516 -15.090  -0.781  0.00  0.00     0.163 HD
BRANCH  17  20
ATOM     20  C   UNL d   1      24.476 -17.511  -0.505  0.00  0.00     0.032 A 
ATOM     21  C   UNL d   1      24.154 -18.873  -0.370  0.00  0.00     0.019 A 
ATOM     22  C   UNL d   1      22.833 -19.319  -0.528  0.00  0.00     0.037 A 
ATOM     23  C   UNL d   1      21.810 -18.386  -0.719  0.00  0.00     0.102 A 
ATOM     24  C   UNL d   1      22.102 -17.012  -0.707  0.00  0.00     0.037 A 
ATOM     25  C   UNL d   1      23.441 -16.580  -0.656  0.00  0.00     0.019 A 
BRANCH  23  26
ATOM     26  N   UNL d   1      20.437 -18.845  -0.993  0.00  0.00    -0.116 N 
ATOM     27  O   UNL d   1      19.520 -18.018  -0.895  0.00  0.00    -0.532 OA
ATOM     28  O   UNL d   1      20.280 -20.039  -1.287  0.00  0.00    -0.532 OA
ENDBRANCH  23  26
ENDBRANCH  17  20
ENDBRANCH  15  16
ENDBRANCH   1  15
TORSDOF 4
ENDMDL
MODEL 6
REMARK VINA RESULT:    -8.011      5.918      8.853
REMARK INTER + INTRA:          -9.804
REMARK INTER:                  -9.204
REMARK INTRA:                  -0.599
REMARK CONF_INDEPENDENT:        1.193
REMARK UNBOUND:                -0.599
REMARK  4 active torsions:
REMARK  status: ('A' for Active; 'I' for Inactive)
REMARK       I    between atoms: C_2  and  N_3 
REMARK    1  A    between atoms: C_2  and  C_18 
REMARK    2  A    between atoms: N_3  and  C_4 
REMARK    3  A    between atoms: C_4  and  C_5 
REMARK    4  A    between atoms: C_21  and  N_22 
ROOT
ATOM      1  C   UNL d   1      28.038 -16.123  -2.339  0.00  0.00    -0.040 C 
ATOM      2  C   UNL d   1      28.915 -16.718  -1.314  0.00  0.00     0.011 C 
ATOM      3  C   UNL d   1      28.460 -17.471  -0.273  0.00  0.00     0.030 C 
ATOM      4  C   UNL d   1      26.986 -17.712  -0.167  0.00  0.00     0.039 C 
ATOM      5  C   UNL d   1      26.164 -16.905  -1.068  0.00  0.00    -0.005 C 
ATOM      6  C   UNL d   1      26.714 -16.201  -2.186  0.00  0.00     0.023 C 
ATOM      7  C   UNL d   1      24.935 -17.053  -0.653  0.00  0.00    -0.045 C 
ATOM      8  C   UNL d   1      23.700 -16.548  -1.268  0.00  0.00     0.037 C 
ATOM      9  C   UNL d   1      22.450 -16.971  -0.457  0.00  0.00     0.004 C 
ATOM     10  C   UNL d   1      22.263 -18.301  -1.094  0.00  0.00     0.003 C 
ATOM     11  C   UNL d   1      23.657 -19.129  -0.393  0.00  0.00     0.029 C 
ATOM     12  C   UNL d   1      24.747 -18.120   0.361  0.00  0.00     0.112 C 
ATOM     13  N   UNL d   1      26.228 -18.436   0.596  0.00  0.00    -0.381 N 
ATOM     14  H   UNL d   1      26.612 -18.863   1.445  0.00  0.00     0.160 HD
ENDROOT
BRANCH   1  15
ATOM     15  C   UNL d   1      28.597 -15.322  -3.499  0.00  0.00     0.161 C 
BRANCH  15  16
ATOM     16  N   UNL d   1      29.002 -16.194  -4.588  0.00  0.00    -0.353 N 
ATOM     17  C   UNL d   1      30.228 -16.835  -4.525  0.00  0.00     0.251 C 
ATOM     18  O   UNL d   1      31.004 -16.679  -3.589  0.00  0.00    -0.268 OA
ATOM     19  H   UNL d   1      28.365 -16.383  -5.348  0.00  0.00     0.163 HD
BRANCH  17  20
ATOM     20  C   UNL d   1      30.618 -17.747  -5.644  0.00  0.00     0.032 A 
ATOM     21  C   UNL d   1      31.062 -17.174  -6.849  0.00  0.00     0.019 A 
ATOM     22  C   UNL d   1      31.157 -17.942  -8.019  0.00  0.00     0.037 A 
ATOM     23  C   UNL d   1      30.904 -19.316  -7.963  0.00  0.00     0.102 A 
ATOM     24  C   UNL d   1      30.603 -19.924  -6.734  0.00  0.00     0.037 A 
ATOM     25  C   UNL d   1      30.405 -19.130  -5.588  0.00  0.00     0.019 A 
BRANCH  23  26
ATOM     26  N   UNL d   1      30.895 -20.113  -9.202  0.00  0.00    -0.116 N 
ATOM     27  O   UNL d   1      30.212 -19.700 -10.150  0.00  0.00    -0.532 OA
ATOM     28  O   UNL d   1      31.558 -21.160  -9.215  0.00  0.00    -0.532 OA
ENDBRANCH  23  26
ENDBRANCH  17  20
ENDBRANCH  15  16
ENDBRANCH   1  15
TORSDOF 4
ENDMDL
MODEL 7
REMARK VINA RESULT:    -7.973      1.625      2.421
REMARK INTER + INTRA:          -9.659
REMARK INTER:                  -9.166
REMARK INTRA:                  -0.493
REMARK CONF_INDEPENDENT:        1.193
REMARK UNBOUND:                -0.493
REMARK  4 active torsions:
REMARK  status: ('A' for Active; 'I' for Inactive)
REMARK       I    between atoms: C_2  and  N_3 
REMARK    1  A    between atoms: C_2  and  C_18 
REMARK    2  A    between atoms: N_3  and  C_4 
REMARK    3  A    between atoms: C_4  and  C_5 
REMARK    4  A    between atoms: C_21  and  N_22 
ROOT
ATOM      1  C   UNL d   1      28.414 -14.409   0.431  0.00  0.00    -0.040 C 
ATOM      2  C   UNL d   1      29.768 -14.983   0.312  0.00  0.00     0.011 C 
ATOM      3  C   UNL d   1      30.668 -15.021   1.335  0.00  0.00     0.030 C 
ATOM      4  C   UNL d   1      30.256 -14.451   2.657  0.00  0.00     0.039 C 
ATOM      5  C   UNL d   1      29.006 -13.693   2.639  0.00  0.00    -0.005 C 
ATOM      6  C   UNL d   1      28.078 -13.768   1.552  0.00  0.00     0.023 C 
ATOM      7  C   UNL d   1      28.954 -13.069   3.785  0.00  0.00    -0.045 C 
ATOM      8  C   UNL d   1      27.858 -12.255   4.329  0.00  0.00     0.037 C 
ATOM      9  C   UNL d   1      28.204 -11.710   5.737  0.00  0.00     0.004 C 
ATOM     10  C   UNL d   1      27.750 -12.898   6.507  0.00  0.00     0.003 C 
ATOM     11  C   UNL d   1      29.030 -14.022   6.042  0.00  0.00     0.029 C 
ATOM     12  C   UNL d   1      29.974 -13.500   4.772  0.00  0.00     0.112 C 
ATOM     13  N   UNL d   1      30.784 -14.408   3.841  0.00  0.00    -0.381 N 
ATOM     14  H   UNL d   1      31.768 -14.662   3.974  0.00  0.00     0.160 HD
ENDROOT
BRANCH   1  15
ATOM     15  C   UNL d   1      27.438 -14.423  -0.729  0.00  0.00     0.161 C 
BRANCH  15  16
ATOM     16  N   UNL d   1      26.220 -15.133  -0.376  0.00  0.00    -0.353 N 
ATOM     17  C   UNL d   1      25.818 -16.214  -1.142  0.00  0.00     0.251 C 
ATOM     18  O   UNL d   1      26.441 -16.587  -2.129  0.00  0.00    -0.268 OA
ATOM     19  H   UNL d   1      25.712 -14.881   0.459  0.00  0.00     0.163 HD
BRANCH  17  20
ATOM     20  C   UNL d   1      24.574 -16.946  -0.751  0.00  0.00     0.032 A 
ATOM     21  C   UNL d   1      24.645 -18.340  -0.583  0.00  0.00     0.019 A 
ATOM     22  C   UNL d   1      23.478 -19.117  -0.512  0.00  0.00     0.037 A 
ATOM     23  C   UNL d   1      22.231 -18.485  -0.505  0.00  0.00     0.102 A 
ATOM     24  C   UNL d   1      22.155 -17.083  -0.523  0.00  0.00     0.037 A 
ATOM     25  C   UNL d   1      23.323 -16.318  -0.703  0.00  0.00     0.019 A 
BRANCH  23  26
ATOM     26  N   UNL d   1      20.998 -19.292  -0.539  0.00  0.00    -0.116 N 
ATOM     27  O   UNL d   1      20.440 -19.539   0.539  0.00  0.00    -0.532 OA
ATOM     28  O   UNL d   1      20.604 -19.690  -1.645  0.00  0.00    -0.532 OA
ENDBRANCH  23  26
ENDBRANCH  17  20
ENDBRANCH  15  16
ENDBRANCH   1  15
TORSDOF 4
ENDMDL
MODEL 8
REMARK VINA RESULT:    -7.965      5.588      8.824
REMARK INTER + INTRA:          -9.770
REMARK INTER:                  -9.159
REMARK INTRA:                  -0.611
REMARK CONF_INDEPENDENT:        1.193
REMARK UNBOUND:                -0.611
REMARK  4 active torsions:
REMARK  status: ('A' for Active; 'I' for Inactive)
REMARK       I    between atoms: C_2  and  N_3 
REMARK    1  A    between atoms: C_2  and  C_18 
REMARK    2  A    between atoms: N_3  and  C_4 
REMARK    3  A    between atoms: C_4  and  C_5 
REMARK    4  A    between atoms: C_21  and  N_22 
ROOT
ATOM      1  C   UNL d   1      25.894 -14.624  -3.248  0.00  0.00    -0.040 C 
ATOM      2  C   UNL d   1      27.254 -15.053  -2.873  0.00  0.00     0.011 C 
ATOM      3  C   UNL d   1      27.516 -16.092  -2.031  0.00  0.00     0.030 C 
ATOM      4  C   UNL d   1      26.355 -16.846  -1.460  0.00  0.00     0.039 C 
ATOM      5  C   UNL d   1      25.050 -16.227  -1.680  0.00  0.00    -0.005 C 
ATOM      6  C   UNL d   1      24.846 -15.185  -2.641  0.00  0.00     0.023 C 
ATOM      7  C   UNL d   1      24.218 -16.867  -0.903  0.00  0.00    -0.045 C 
ATOM      8  C   UNL d   1      22.759 -16.720  -0.815  0.00  0.00     0.037 C 
ATOM      9  C   UNL d   1      22.155 -17.692   0.230  0.00  0.00     0.004 C 
ATOM     10  C   UNL d   1      22.017 -18.865  -0.673  0.00  0.00     0.003 C 
ATOM     11  C   UNL d   1      23.727 -19.268  -0.848  0.00  0.00     0.029 C 
ATOM     12  C   UNL d   1      24.770 -18.097  -0.284  0.00  0.00     0.112 C 
ATOM     13  N   UNL d   1      26.223 -17.915  -0.737  0.00  0.00    -0.381 N 
ATOM     14  H   UNL d   1      27.040 -18.329  -0.277  0.00  0.00     0.160 HD
ENDROOT
BRANCH   1  15
ATOM     15  C   UNL d   1      25.657 -13.482  -4.217  0.00  0.00     0.161 C 
BRANCH  15  16
ATOM     16  N   UNL d   1      25.564 -12.214  -3.515  0.00  0.00    -0.353 N 
ATOM     17  C   UNL d   1      26.719 -11.609  -3.048  0.00  0.00     0.251 C 
ATOM     18  O   UNL d   1      27.827 -12.115  -3.185  0.00  0.00    -0.268 OA
ATOM     19  H   UNL d   1      24.673 -11.748  -3.428  0.00  0.00     0.163 HD
BRANCH  17  20
ATOM     20  C   UNL d   1      26.606 -10.292  -2.348  0.00  0.00     0.032 A 
ATOM     21  C   UNL d   1      27.253 -10.138  -1.109  0.00  0.00     0.019 A 
ATOM     22  C   UNL d   1      26.949  -9.055  -0.269  0.00  0.00     0.037 A 
ATOM     23  C   UNL d   1      26.068  -8.065  -0.714  0.00  0.00     0.102 A 
ATOM     24  C   UNL d   1      25.530  -8.136  -2.010  0.00  0.00     0.037 A 
ATOM     25  C   UNL d   1      25.755  -9.277  -2.802  0.00  0.00     0.019 A 
BRANCH  23  26
ATOM     26  N   UNL d   1      25.658  -6.982   0.197  0.00  0.00    -0.116 N 
ATOM     27  O   UNL d   1      25.337  -7.290   1.353  0.00  0.00    -0.532 OA
ATOM     28  O   UNL d   1      25.643  -5.828  -0.255  0.00  0.00    -0.532 OA
ENDBRANCH  23  26
ENDBRANCH  17  20
ENDBRANCH  15  16
ENDBRANCH   1  15
TORSDOF 4
ENDMDL
MODEL 9
REMARK VINA RESULT:    -7.944      5.854      9.181
REMARK INTER + INTRA:          -9.663
REMARK INTER:                  -9.137
REMARK INTRA:                  -0.526
REMARK CONF_INDEPENDENT:        1.193
REMARK UNBOUND:                -0.526
REMARK  4 active torsions:
REMARK  status: ('A' for Active; 'I' for Inactive)
REMARK       I    between atoms: C_2  and  N_3 
REMARK    1  A    between atoms: C_2  and  C_18 
REMARK    2  A    between atoms: N_3  and  C_4 
REMARK    3  A    between atoms: C_4  and  C_5 
REMARK    4  A    between atoms: C_21  and  N_22 
ROOT
ATOM      1  C   UNL d   1      27.692 -15.669  -2.018  0.00  0.00    -0.040 C 
ATOM      2  C   UNL d   1      28.579 -16.227  -0.981  0.00  0.00     0.011 C 
ATOM      3  C   UNL d   1      28.164 -17.094  -0.015  0.00  0.00     0.030 C 
ATOM      4  C   UNL d   1      26.726 -17.509  -0.011  0.00  0.00     0.039 C 
ATOM      5  C   UNL d   1      25.861 -16.744  -0.908  0.00  0.00    -0.005 C 
ATOM      6  C   UNL d   1      26.381 -15.909  -1.948  0.00  0.00     0.023 C 
ATOM      7  C   UNL d   1      24.639 -17.060  -0.576  0.00  0.00    -0.045 C 
ATOM      8  C   UNL d   1      23.386 -16.660  -1.232  0.00  0.00     0.037 C 
ATOM      9  C   UNL d   1      22.154 -17.277  -0.522  0.00  0.00     0.004 C 
ATOM     10  C   UNL d   1      22.160 -18.575  -1.247  0.00  0.00     0.003 C 
ATOM     11  C   UNL d   1      23.604 -19.282  -0.518  0.00  0.00     0.029 C 
ATOM     12  C   UNL d   1      24.526 -18.207   0.359  0.00  0.00     0.112 C 
ATOM     13  N   UNL d   1      26.021 -18.365   0.661  0.00  0.00    -0.381 N 
ATOM     14  H   UNL d   1      26.409 -18.802   1.503  0.00  0.00     0.160 HD
ENDROOT
BRANCH   1  15
ATOM     15  C   UNL d   1      28.211 -14.734  -3.092  0.00  0.00     0.161 C 
BRANCH  15  16
ATOM     16  N   UNL d   1      29.264 -15.365  -3.869  0.00  0.00    -0.353 N 
ATOM     17  C   UNL d   1      29.026 -15.696  -5.193  0.00  0.00     0.251 C 
ATOM     18  O   UNL d   1      27.945 -15.497  -5.736  0.00  0.00    -0.268 OA
ATOM     19  H   UNL d   1      30.179 -15.498  -3.466  0.00  0.00     0.163 HD
BRANCH  17  20
ATOM     20  C   UNL d   1      30.129 -16.325  -5.983  0.00  0.00     0.032 A 
ATOM     21  C   UNL d   1      30.797 -15.539  -6.939  0.00  0.00     0.019 A 
ATOM     22  C   UNL d   1      31.622 -16.131  -7.908  0.00  0.00     0.037 A 
ATOM     23  C   UNL d   1      31.862 -17.507  -7.858  0.00  0.00     0.102 A 
ATOM     24  C   UNL d   1      31.317 -18.278  -6.818  0.00  0.00     0.037 A 
ATOM     25  C   UNL d   1      30.407 -17.696  -5.916  0.00  0.00     0.019 A 
BRANCH  23  26
ATOM     26  N   UNL d   1      32.638 -18.157  -8.930  0.00  0.00    -0.116 N 
ATOM     27  O   UNL d   1      33.833 -17.854  -9.043  0.00  0.00    -0.532 OA
ATOM     28  O   UNL d   1      32.041 -18.956  -9.665  0.00  0.00    -0.532 OA
ENDBRANCH  23  26
ENDBRANCH  17  20
ENDBRANCH  15  16
ENDBRANCH   1  15
TORSDOF 4
ENDMDL
