MODEL 1
REMARK VINA RESULT:    -9.735      0.000      0.000
REMARK INTER + INTRA:         -14.571
REMARK INTER:                 -11.823
REMARK INTRA:                  -2.748
REMARK CONF_INDEPENDENT:        2.088
REMARK UNBOUND:                -2.748
REMARK  7 active torsions:
REMARK  status: ('A' for Active; 'I' for Inactive)
REMARK    1  A    between atoms: C_5  and  C_6 
REMARK    2  A    between atoms: C_6  and  C_7 
REMARK    3  A    between atoms: C_6  and  N_14 
REMARK       I    between atoms: C_7  and  N_9 
REMARK    4  A    between atoms: N_9  and  C_10 
REMARK       I    between atoms: N_14  and  C_15 
REMARK    5  A    between atoms: N_14  and  C_26 
REMARK    6  A    between atoms: C_15  and  C_17 
REMARK    7  A    between atoms: C_21  and  N_22 
ROOT
ATOM      1  N   UNL d   1      27.222 -14.190   0.273  0.00  0.00    -0.296 N 
ATOM      2  C   UNL d   1      27.099 -13.406  -0.964  0.00  0.00     0.259 C 
ATOM      3  O   UNL d   1      27.454 -12.202  -1.027  0.00  0.00    -0.267 OA
ENDROOT
BRANCH   1   4
ATOM      4  C   UNL d   1      27.314 -15.776   0.477  0.00  0.00     0.219 C 
BRANCH   4   5
ATOM      5  C   UNL d   1      26.080 -16.606   0.135  0.00  0.00    -0.020 C 
ATOM      6  C   UNL d   1      25.183 -15.963  -0.684  0.00  0.00     0.011 C 
ATOM      7  C   UNL d   1      23.928 -16.502  -0.907  0.00  0.00     0.007 C 
ATOM      8  C   UNL d   1      23.585 -17.789  -0.554  0.00  0.00    -0.061 C 
ATOM      9  C   UNL d   1      22.167 -18.270  -0.629  0.00  0.00     0.048 C 
ATOM     10  C   UNL d   1      24.617 -18.575  -0.090  0.00  0.00     0.014 C 
ATOM     11  C   UNL d   1      25.854 -17.990   0.285  0.00  0.00    -0.053 C 
ATOM     12  C   UNL d   1      26.946 -18.953   0.605  0.00  0.00     0.049 C 
ENDBRANCH   4   5
BRANCH   4  13
ATOM     13  C   UNL d   1      28.375 -16.476  -0.457  0.00  0.00     0.246 C 
ATOM     14  O   UNL d   1      28.061 -16.936  -1.548  0.00  0.00    -0.271 OA
ATOM     15  N   UNL d   1      29.640 -16.664   0.081  0.00  0.00    -0.351 N 
ATOM     16  H   UNL d   1      29.872 -16.321   0.983  0.00  0.00     0.163 HD
BRANCH  15  17
ATOM     17  C   UNL d   1      30.766 -17.304  -0.571  0.00  0.00     0.022 C 
ATOM     18  C   UNL d   1      31.079 -16.604  -1.894  0.00  0.00     0.037 C 
ATOM     19  C   UNL d   1      31.903 -17.281   0.444  0.00  0.00     0.037 C 
ATOM     20  C   UNL d   1      30.408 -18.777  -0.895  0.00  0.00     0.037 C 
ENDBRANCH  15  17
ENDBRANCH   4  13
ENDBRANCH   1   4
BRANCH   1  21
ATOM     21  C   UNL d   1      27.489 -13.390   1.517  0.00  0.00     0.040 A 
ATOM     22  C   UNL d   1      28.084 -14.002   2.632  0.00  0.00     0.030 A 
ATOM     23  C   UNL d   1      28.207 -13.347   3.873  0.00  0.00     0.004 A 
ATOM     24  C   UNL d   1      27.780 -12.034   4.036  0.00  0.00     0.024 A 
ATOM     25  C   UNL d   1      27.245 -11.383   2.946  0.00  0.00     0.036 A 
ATOM     26 CL   UNL d   1      26.623  -9.780   3.114  0.00  0.00    -0.084 Cl
ATOM     27  C   UNL d   1      27.161 -12.032   1.705  0.00  0.00     0.053 A 
ENDBRANCH   1  21
BRANCH   2  28
ATOM     28  C   UNL d   1      26.576 -13.886  -2.311  0.00  0.00     0.035 A 
ATOM     29  C   UNL d   1      25.425 -13.277  -2.905  0.00  0.00     0.017 A 
ATOM     30  C   UNL d   1      25.043 -13.566  -4.241  0.00  0.00     0.003 A 
ATOM     31  C   UNL d   1      25.829 -14.441  -5.020  0.00  0.00     0.036 A 
ATOM     32  C   UNL d   1      26.997 -15.006  -4.451  0.00  0.00     0.103 A 
ATOM     33  C   UNL d   1      27.322 -14.776  -3.092  0.00  0.00     0.053 A 
BRANCH  32  34
ATOM     34  N   UNL d   1      28.086 -15.535  -5.327  0.00  0.00    -0.116 N 
ATOM     35  O   UNL d   1      28.921 -16.302  -4.841  0.00  0.00    -0.532 OA
ATOM     36  O   UNL d   1      28.068 -15.200  -6.530  0.00  0.00    -0.532 OA
ENDBRANCH  32  34
ENDBRANCH   2  28
TORSDOF 7
ENDMDL
MODEL 2
REMARK VINA RESULT:    -9.322      1.525      1.997
REMARK INTER + INTRA:         -14.683
REMARK INTER:                 -11.410
REMARK INTRA:                  -3.272
REMARK CONF_INDEPENDENT:        2.088
REMARK UNBOUND:                -3.272
REMARK  7 active torsions:
REMARK  status: ('A' for Active; 'I' for Inactive)
REMARK    1  A    between atoms: C_5  and  C_6 
REMARK    2  A    between atoms: C_6  and  C_7 
REMARK    3  A    between atoms: C_6  and  N_14 
REMARK       I    between atoms: C_7  and  N_9 
REMARK    4  A    between atoms: N_9  and  C_10 
REMARK       I    between atoms: N_14  and  C_15 
REMARK    5  A    between atoms: N_14  and  C_26 
REMARK    6  A    between atoms: C_15  and  C_17 
REMARK    7  A    between atoms: C_21  and  N_22 
ROOT
ATOM      1  N   UNL d   1      27.792 -14.283   0.378  0.00  0.00    -0.296 N 
ATOM      2  C   UNL d   1      28.146 -13.430  -0.764  0.00  0.00     0.259 C 
ATOM      3  O   UNL d   1      28.531 -12.243  -0.614  0.00  0.00    -0.267 OA
ENDROOT
BRANCH   1   4
ATOM      4  C   UNL d   1      27.762 -15.880   0.494  0.00  0.00     0.219 C 
BRANCH   4   5
ATOM      5  C   UNL d   1      26.474 -16.595   0.095  0.00  0.00    -0.020 C 
ATOM      6  C   UNL d   1      25.725 -15.917  -0.837  0.00  0.00     0.011 C 
ATOM      7  C   UNL d   1      24.440 -16.333  -1.138  0.00  0.00     0.007 C 
ATOM      8  C   UNL d   1      23.927 -17.549  -0.741  0.00  0.00    -0.061 C 
ATOM      9  C   UNL d   1      22.474 -17.879  -0.913  0.00  0.00     0.048 C 
ATOM     10  C   UNL d   1      24.823 -18.407  -0.142  0.00  0.00     0.014 C 
ATOM     11  C   UNL d   1      26.082 -17.934   0.306  0.00  0.00    -0.053 C 
ATOM     12  C   UNL d   1      27.030 -18.984   0.777  0.00  0.00     0.049 C 
ENDBRANCH   4   5
BRANCH   4  13
ATOM     13  C   UNL d   1      28.781 -16.607  -0.465  0.00  0.00     0.246 C 
ATOM     14  O   UNL d   1      28.440 -17.012  -1.570  0.00  0.00    -0.271 OA
ATOM     15  N   UNL d   1      30.035 -16.881   0.061  0.00  0.00    -0.351 N 
ATOM     16  H   UNL d   1      30.287 -16.581   0.973  0.00  0.00     0.163 HD
BRANCH  15  17
ATOM     17  C   UNL d   1      31.123 -17.561  -0.616  0.00  0.00     0.022 C 
ATOM     18  C   UNL d   1      31.403 -16.895  -1.963  0.00  0.00     0.037 C 
ATOM     19  C   UNL d   1      32.295 -17.542   0.358  0.00  0.00     0.037 C 
ATOM     20  C   UNL d   1      30.721 -19.031  -0.895  0.00  0.00     0.037 C 
ENDBRANCH  15  17
ENDBRANCH   4  13
ENDBRANCH   1   4
BRANCH   1  21
ATOM     21  C   UNL d   1      27.610 -13.564   1.686  0.00  0.00     0.040 A 
ATOM     22  C   UNL d   1      27.119 -12.249   1.703  0.00  0.00     0.030 A 
ATOM     23  C   UNL d   1      27.084 -11.475   2.880  0.00  0.00     0.004 A 
ATOM     24  C   UNL d   1      27.497 -12.003   4.098  0.00  0.00     0.024 A 
ATOM     25  C   UNL d   1      27.929 -13.311   4.128  0.00  0.00     0.036 A 
ATOM     26 CL   UNL d   1      28.530 -13.991   5.598  0.00  0.00    -0.084 Cl
ATOM     27  C   UNL d   1      27.925 -14.085   2.958  0.00  0.00     0.053 A 
ENDBRANCH   1  21
BRANCH   2  28
ATOM     28  C   UNL d   1      28.135 -13.811  -2.239  0.00  0.00     0.035 A 
ATOM     29  C   UNL d   1      29.322 -14.289  -2.877  0.00  0.00     0.017 A 
ATOM     30  C   UNL d   1      29.288 -14.838  -4.185  0.00  0.00     0.003 A 
ATOM     31  C   UNL d   1      28.056 -14.955  -4.863  0.00  0.00     0.036 A 
ATOM     32  C   UNL d   1      26.871 -14.530  -4.213  0.00  0.00     0.103 A 
ATOM     33  C   UNL d   1      26.929 -13.907  -2.943  0.00  0.00     0.053 A 
BRANCH  32  34
ATOM     34  N   UNL d   1      25.539 -15.042  -4.657  0.00  0.00    -0.116 N 
ATOM     35  O   UNL d   1      24.522 -14.450  -4.288  0.00  0.00    -0.532 OA
ATOM     36  O   UNL d   1      25.530 -16.031  -5.420  0.00  0.00    -0.532 OA
ENDBRANCH  32  34
ENDBRANCH   2  28
TORSDOF 7
ENDMDL
MODEL 3
REMARK VINA RESULT:    -9.135      2.588      5.757
REMARK INTER + INTRA:         -13.848
REMARK INTER:                 -11.224
REMARK INTRA:                  -2.624
REMARK CONF_INDEPENDENT:        2.088
REMARK UNBOUND:                -2.624
REMARK  7 active torsions:
REMARK  status: ('A' for Active; 'I' for Inactive)
REMARK    1  A    between atoms: C_5  and  C_6 
REMARK    2  A    between atoms: C_6  and  C_7 
REMARK    3  A    between atoms: C_6  and  N_14 
REMARK       I    between atoms: C_7  and  N_9 
REMARK    4  A    between atoms: N_9  and  C_10 
REMARK       I    between atoms: N_14  and  C_15 
REMARK    5  A    between atoms: N_14  and  C_26 
REMARK    6  A    between atoms: C_15  and  C_17 
REMARK    7  A    between atoms: C_21  and  N_22 
ROOT
ATOM      1  N   UNL d   1      27.344 -14.014  -1.041  0.00  0.00    -0.296 N 
ATOM      2  C   UNL d   1      27.104 -12.679  -0.478  0.00  0.00     0.259 C 
ATOM      3  O   UNL d   1      26.656 -11.734  -1.174  0.00  0.00    -0.267 OA
ENDROOT
BRANCH   1   4
ATOM      4  C   UNL d   1      27.422 -15.437  -0.310  0.00  0.00     0.219 C 
BRANCH   4   5
ATOM      5  C   UNL d   1      26.180 -16.323  -0.354  0.00  0.00    -0.020 C 
ATOM      6  C   UNL d   1      25.290 -15.991  -1.348  0.00  0.00     0.011 C 
ATOM      7  C   UNL d   1      24.031 -16.562  -1.380  0.00  0.00     0.007 C 
ATOM      8  C   UNL d   1      23.674 -17.648  -0.610  0.00  0.00    -0.061 C 
ATOM      9  C   UNL d   1      22.251 -18.113  -0.524  0.00  0.00     0.048 C 
ATOM     10  C   UNL d   1      24.697 -18.237   0.100  0.00  0.00     0.014 C 
ATOM     11  C   UNL d   1      25.939 -17.571   0.259  0.00  0.00    -0.053 C 
ATOM     12  C   UNL d   1      27.021 -18.376   0.895  0.00  0.00     0.049 C 
ENDBRANCH   4   5
BRANCH   4  13
ATOM     13  C   UNL d   1      28.476 -16.422  -0.945  0.00  0.00     0.246 C 
ATOM     14  O   UNL d   1      28.161 -17.215  -1.824  0.00  0.00    -0.271 OA
ATOM     15  N   UNL d   1      29.735 -16.437  -0.362  0.00  0.00    -0.351 N 
ATOM     16  H   UNL d   1      29.967 -15.815   0.376  0.00  0.00     0.163 HD
BRANCH  15  17
ATOM     17  C   UNL d   1      30.855 -17.273  -0.753  0.00  0.00     0.022 C 
ATOM     18  C   UNL d   1      30.405 -18.726  -0.892  0.00  0.00     0.037 C 
ATOM     19  C   UNL d   1      31.410 -16.654  -2.030  0.00  0.00     0.037 C 
ATOM     20  C   UNL d   1      31.945 -17.224   0.347  0.00  0.00     0.037 C 
ENDBRANCH  15  17
ENDBRANCH   4  13
ENDBRANCH   1   4
BRANCH   1  21
ATOM     21  C   UNL d   1      27.331 -14.091  -2.543  0.00  0.00     0.040 A 
ATOM     22  C   UNL d   1      26.178 -13.725  -3.255  0.00  0.00     0.030 A 
ATOM     23  C   UNL d   1      26.055 -13.931  -4.643  0.00  0.00     0.004 A 
ATOM     24  C   UNL d   1      27.100 -14.471  -5.383  0.00  0.00     0.024 A 
ATOM     25  C   UNL d   1      28.269 -14.788  -4.725  0.00  0.00     0.036 A 
ATOM     26 CL   UNL d   1      29.569 -15.538  -5.581  0.00  0.00    -0.084 Cl
ATOM     27  C   UNL d   1      28.395 -14.544  -3.350  0.00  0.00     0.053 A 
ENDBRANCH   1  21
BRANCH   2  28
ATOM     28  C   UNL d   1      27.316 -12.234   0.963  0.00  0.00     0.035 A 
ATOM     29  C   UNL d   1      28.438 -12.708   1.715  0.00  0.00     0.017 A 
ATOM     30  C   UNL d   1      28.766 -12.156   2.979  0.00  0.00     0.003 A 
ATOM     31  C   UNL d   1      28.000 -11.090   3.498  0.00  0.00     0.036 A 
ATOM     32  C   UNL d   1      26.921 -10.584   2.733  0.00  0.00     0.103 A 
ATOM     33  C   UNL d   1      26.551 -11.198   1.511  0.00  0.00     0.053 A 
BRANCH  32  34
ATOM     34  N   UNL d   1      26.391  -9.210   2.987  0.00  0.00    -0.116 N 
ATOM     35  O   UNL d   1      26.859  -8.555   3.921  0.00  0.00    -0.532 OA
ATOM     36  O   UNL d   1      25.519  -8.777   2.203  0.00  0.00    -0.532 OA
ENDBRANCH  32  34
ENDBRANCH   2  28
TORSDOF 7
ENDMDL
MODEL 4
REMARK VINA RESULT:    -8.807      1.840      2.403
REMARK INTER + INTRA:         -13.460
REMARK INTER:                 -10.895
REMARK INTRA:                  -2.565
REMARK CONF_INDEPENDENT:        2.088
REMARK UNBOUND:                -2.565
REMARK  7 active torsions:
REMARK  status: ('A' for Active; 'I' for Inactive)
REMARK    1  A    between atoms: C_5  and  C_6 
REMARK    2  A    between atoms: C_6  and  C_7 
REMARK    3  A    between atoms: C_6  and  N_14 
REMARK       I    between atoms: C_7  and  N_9 
REMARK    4  A    between atoms: N_9  and  C_10 
REMARK       I    between atoms: N_14  and  C_15 
REMARK    5  A    between atoms: N_14  and  C_26 
REMARK    6  A    between atoms: C_15  and  C_17 
REMARK    7  A    between atoms: C_21  and  N_22 
ROOT
ATOM      1  N   UNL d   1      27.350 -13.614   0.047  0.00  0.00    -0.296 N 
ATOM      2  C   UNL d   1      27.291 -12.451  -0.849  0.00  0.00     0.259 C 
ATOM      3  O   UNL d   1      27.522 -11.285  -0.442  0.00  0.00    -0.267 OA
ENDROOT
BRANCH   1   4
ATOM      4  C   UNL d   1      27.585 -15.161  -0.294  0.00  0.00     0.219 C 
BRANCH   4   5
ATOM      5  C   UNL d   1      26.354 -16.057  -0.397  0.00  0.00    -0.020 C 
ATOM      6  C   UNL d   1      25.346 -15.537  -1.172  0.00  0.00     0.011 C 
ATOM      7  C   UNL d   1      24.097 -16.131  -1.188  0.00  0.00     0.007 C 
ATOM      8  C   UNL d   1      23.846 -17.377  -0.657  0.00  0.00    -0.061 C 
ATOM      9  C   UNL d   1      22.448 -17.901  -0.513  0.00  0.00     0.048 C 
ATOM     10  C   UNL d   1      24.954 -18.077  -0.230  0.00  0.00     0.014 C 
ATOM     11  C   UNL d   1      26.200 -17.420  -0.068  0.00  0.00    -0.053 C 
ATOM     12  C   UNL d   1      27.359 -18.311   0.229  0.00  0.00     0.049 C 
ENDBRANCH   4   5
BRANCH   4  13
ATOM     13  C   UNL d   1      28.216 -15.409  -1.718  0.00  0.00     0.246 C 
ATOM     14  O   UNL d   1      27.668 -16.130  -2.543  0.00  0.00    -0.271 OA
ATOM     15  N   UNL d   1      29.482 -14.883  -1.931  0.00  0.00    -0.351 N 
ATOM     16  H   UNL d   1      29.933 -14.332  -1.239  0.00  0.00     0.163 HD
BRANCH  15  17
ATOM     17  C   UNL d   1      30.272 -15.003  -3.142  0.00  0.00     0.022 C 
ATOM     18  C   UNL d   1      30.520 -16.476  -3.466  0.00  0.00     0.037 C 
ATOM     19  C   UNL d   1      29.507 -14.236  -4.214  0.00  0.00     0.037 C 
ATOM     20  C   UNL d   1      31.652 -14.332  -2.928  0.00  0.00     0.037 C 
ENDBRANCH  15  17
ENDBRANCH   4  13
ENDBRANCH   1   4
BRANCH   1  21
ATOM     21  C   UNL d   1      27.383 -13.293   1.516  0.00  0.00     0.040 A 
ATOM     22  C   UNL d   1      27.105 -11.989   1.957  0.00  0.00     0.030 A 
ATOM     23  C   UNL d   1      27.281 -11.596   3.299  0.00  0.00     0.004 A 
ATOM     24  C   UNL d   1      27.699 -12.506   4.263  0.00  0.00     0.024 A 
ATOM     25  C   UNL d   1      27.924 -13.809   3.876  0.00  0.00     0.036 A 
ATOM     26 CL   UNL d   1      28.524 -14.960   5.017  0.00  0.00    -0.084 Cl
ATOM     27  C   UNL d   1      27.710 -14.199   2.546  0.00  0.00     0.053 A 
ENDBRANCH   1  21
BRANCH   2  28
ATOM     28  C   UNL d   1      26.983 -12.451  -2.340  0.00  0.00     0.035 A 
ATOM     29  C   UNL d   1      27.479 -11.410  -3.187  0.00  0.00     0.017 A 
ATOM     30  C   UNL d   1      27.378 -11.496  -4.600  0.00  0.00     0.003 A 
ATOM     31  C   UNL d   1      26.814 -12.645  -5.193  0.00  0.00     0.036 A 
ATOM     32  C   UNL d   1      26.368 -13.700  -4.359  0.00  0.00     0.103 A 
ATOM     33  C   UNL d   1      26.398 -13.567  -2.949  0.00  0.00     0.053 A 
BRANCH  32  34
ATOM     34  N   UNL d   1      26.210 -15.082  -4.905  0.00  0.00    -0.116 N 
ATOM     35  O   UNL d   1      27.130 -15.570  -5.565  0.00  0.00    -0.532 OA
ATOM     36  O   UNL d   1      25.155 -15.692  -4.626  0.00  0.00    -0.532 OA
ENDBRANCH  32  34
ENDBRANCH   2  28
TORSDOF 7
ENDMDL
MODEL 5
REMARK VINA RESULT:    -8.133      2.936      6.588
REMARK INTER + INTRA:         -13.342
REMARK INTER:                 -10.221
REMARK INTRA:                  -3.121
REMARK CONF_INDEPENDENT:        2.088
REMARK UNBOUND:                -3.121
REMARK  7 active torsions:
REMARK  status: ('A' for Active; 'I' for Inactive)
REMARK    1  A    between atoms: C_5  and  C_6 
REMARK    2  A    between atoms: C_6  and  C_7 
REMARK    3  A    between atoms: C_6  and  N_14 
REMARK       I    between atoms: C_7  and  N_9 
REMARK    4  A    between atoms: N_9  and  C_10 
REMARK       I    between atoms: N_14  and  C_15 
REMARK    5  A    between atoms: N_14  and  C_26 
REMARK    6  A    between atoms: C_15  and  C_17 
REMARK    7  A    between atoms: C_21  and  N_22 
ROOT
ATOM      1  N   UNL d   1      27.498 -14.151  -0.291  0.00  0.00    -0.296 N 
ATOM      2  C   UNL d   1      27.125 -13.124   0.691  0.00  0.00     0.259 C 
ATOM      3  O   UNL d   1      26.532 -13.411   1.762  0.00  0.00    -0.267 OA
ENDROOT
BRANCH   1   4
ATOM      4  C   UNL d   1      28.633 -14.126  -1.420  0.00  0.00     0.219 C 
BRANCH   4   5
ATOM      5  C   UNL d   1      29.475 -15.386  -1.604  0.00  0.00    -0.020 C 
ATOM      6  C   UNL d   1      29.339 -15.974  -2.838  0.00  0.00     0.011 C 
ATOM      7  C   UNL d   1      29.871 -17.229  -3.078  0.00  0.00     0.007 C 
ATOM      8  C   UNL d   1      30.758 -17.849  -2.224  0.00  0.00    -0.061 C 
ATOM      9  C   UNL d   1      31.156 -19.282  -2.415  0.00  0.00     0.048 C 
ATOM     10  C   UNL d   1      31.209 -17.081  -1.172  0.00  0.00     0.014 C 
ATOM     11  C   UNL d   1      30.557 -15.868  -0.837  0.00  0.00    -0.053 C 
ATOM     12  C   UNL d   1      31.236 -15.043   0.202  0.00  0.00     0.049 C 
ENDBRANCH   4   5
BRANCH   4  13
ATOM     13  C   UNL d   1      28.071 -13.964  -2.884  0.00  0.00     0.246 C 
ATOM     14  O   UNL d   1      28.789 -13.597  -3.807  0.00  0.00    -0.271 OA
ATOM     15  N   UNL d   1      26.702 -14.124  -3.040  0.00  0.00    -0.351 N 
ATOM     16  H   UNL d   1      26.125 -14.384  -2.276  0.00  0.00     0.163 HD
BRANCH  15  17
ATOM     17  C   UNL d   1      25.956 -13.997  -4.277  0.00  0.00     0.022 C 
ATOM     18  C   UNL d   1      26.355 -12.714  -5.006  0.00  0.00     0.037 C 
ATOM     19  C   UNL d   1      26.222 -15.279  -5.057  0.00  0.00     0.037 C 
ATOM     20  C   UNL d   1      24.442 -13.903  -3.961  0.00  0.00     0.037 C 
ENDBRANCH  15  17
ENDBRANCH   4  13
ENDBRANCH   1   4
BRANCH   1  21
ATOM     21  C   UNL d   1      26.851 -15.494  -0.094  0.00  0.00     0.040 A 
ATOM     22  C   UNL d   1      27.554 -16.525   0.549  0.00  0.00     0.030 A 
ATOM     23  C   UNL d   1      27.061 -17.843   0.615  0.00  0.00     0.004 A 
ATOM     24  C   UNL d   1      25.822 -18.173   0.077  0.00  0.00     0.024 A 
ATOM     25  C   UNL d   1      25.079 -17.173  -0.510  0.00  0.00     0.036 A 
ATOM     26 CL   UNL d   1      23.571 -17.544  -1.267  0.00  0.00    -0.084 Cl
ATOM     27  C   UNL d   1      25.562 -15.856  -0.538  0.00  0.00     0.053 A 
ENDBRANCH   1  21
BRANCH   2  28
ATOM     28  C   UNL d   1      27.395 -11.628   0.608  0.00  0.00     0.035 A 
ATOM     29  C   UNL d   1      27.785 -11.025  -0.630  0.00  0.00     0.017 A 
ATOM     30  C   UNL d   1      27.843  -9.615  -0.779  0.00  0.00     0.003 A 
ATOM     31  C   UNL d   1      27.474  -8.781   0.298  0.00  0.00     0.036 A 
ATOM     32  C   UNL d   1      27.038  -9.375   1.508  0.00  0.00     0.103 A 
ATOM     33  C   UNL d   1      27.064 -10.781   1.673  0.00  0.00     0.053 A 
BRANCH  32  34
ATOM     34  N   UNL d   1      26.214  -8.594   2.481  0.00  0.00    -0.116 N 
ATOM     35  O   UNL d   1      26.275  -8.883   3.678  0.00  0.00    -0.532 OA
ATOM     36  O   UNL d   1      25.530  -7.653   2.027  0.00  0.00    -0.532 OA
ENDBRANCH  32  34
ENDBRANCH   2  28
TORSDOF 7
ENDMDL
MODEL 6
REMARK VINA RESULT:    -7.959      3.011      6.931
REMARK INTER + INTRA:         -13.587
REMARK INTER:                 -10.047
REMARK INTRA:                  -3.540
REMARK CONF_INDEPENDENT:        2.088
REMARK UNBOUND:                -3.540
REMARK  7 active torsions:
REMARK  status: ('A' for Active; 'I' for Inactive)
REMARK    1  A    between atoms: C_5  and  C_6 
REMARK    2  A    between atoms: C_6  and  C_7 
REMARK    3  A    between atoms: C_6  and  N_14 
REMARK       I    between atoms: C_7  and  N_9 
REMARK    4  A    between atoms: N_9  and  C_10 
REMARK       I    between atoms: N_14  and  C_15 
REMARK    5  A    between atoms: N_14  and  C_26 
REMARK    6  A    between atoms: C_15  and  C_17 
REMARK    7  A    between atoms: C_21  and  N_22 
ROOT
ATOM      1  N   UNL d   1      27.822 -13.175  -1.247  0.00  0.00    -0.296 N 
ATOM      2  C   UNL d   1      27.457 -11.795  -0.897  0.00  0.00     0.259 C 
ATOM      3  O   UNL d   1      26.658 -11.121  -1.595  0.00  0.00    -0.267 OA
ENDROOT
BRANCH   1   4
ATOM      4  C   UNL d   1      28.380 -14.355  -0.319  0.00  0.00     0.219 C 
BRANCH   4   5
ATOM      5  C   UNL d   1      28.271 -14.177   1.193  0.00  0.00    -0.020 C 
ATOM      6  C   UNL d   1      29.484 -14.101   1.836  0.00  0.00     0.011 C 
ATOM      7  C   UNL d   1      29.548 -14.151   3.217  0.00  0.00     0.007 C 
ATOM      8  C   UNL d   1      28.442 -14.027   4.030  0.00  0.00    -0.061 C 
ATOM      9  C   UNL d   1      28.522 -14.285   5.505  0.00  0.00     0.048 C 
ATOM     10  C   UNL d   1      27.266 -13.699   3.391  0.00  0.00     0.014 C 
ATOM     11  C   UNL d   1      27.162 -13.801   1.980  0.00  0.00    -0.053 C 
ATOM     12  C   UNL d   1      25.906 -13.256   1.391  0.00  0.00     0.049 C 
ENDBRANCH   4   5
BRANCH   4  13
ATOM     13  C   UNL d   1      27.601 -15.716  -0.484  0.00  0.00     0.246 C 
ATOM     14  O   UNL d   1      28.193 -16.770  -0.686  0.00  0.00    -0.271 OA
ATOM     15  N   UNL d   1      26.217 -15.634  -0.527  0.00  0.00    -0.351 N 
ATOM     16  H   UNL d   1      25.750 -14.767  -0.401  0.00  0.00     0.163 HD
BRANCH  15  17
ATOM     17  C   UNL d   1      25.294 -16.739  -0.699  0.00  0.00     0.022 C 
ATOM     18  C   UNL d   1      25.162 -17.092  -2.180  0.00  0.00     0.037 C 
ATOM     19  C   UNL d   1      25.827 -17.865   0.178  0.00  0.00     0.037 C 
ATOM     20  C   UNL d   1      23.890 -16.324  -0.190  0.00  0.00     0.037 C 
ENDBRANCH  15  17
ENDBRANCH   4  13
ENDBRANCH   1   4
BRANCH   1  21
ATOM     21  C   UNL d   1      27.444 -13.607  -2.637  0.00  0.00     0.040 A 
ATOM     22  C   UNL d   1      26.092 -13.675  -3.008  0.00  0.00     0.030 A 
ATOM     23  C   UNL d   1      25.677 -14.228  -4.237  0.00  0.00     0.004 A 
ATOM     24  C   UNL d   1      26.604 -14.692  -5.163  0.00  0.00     0.024 A 
ATOM     25  C   UNL d   1      27.943 -14.586  -4.855  0.00  0.00     0.036 A 
ATOM     26 CL   UNL d   1      29.132 -15.223  -5.934  0.00  0.00    -0.084 Cl
ATOM     27  C   UNL d   1      28.347 -14.001  -3.646  0.00  0.00     0.053 A 
ENDBRANCH   1  21
BRANCH   2  28
ATOM     28  C   UNL d   1      27.929 -10.994   0.309  0.00  0.00     0.035 A 
ATOM     29  C   UNL d   1      29.323 -10.747   0.519  0.00  0.00     0.017 A 
ATOM     30  C   UNL d   1      29.770  -9.840   1.514  0.00  0.00     0.003 A 
ATOM     31  C   UNL d   1      28.828  -9.133   2.292  0.00  0.00     0.036 A 
ATOM     32  C   UNL d   1      27.447  -9.338   2.051  0.00  0.00     0.103 A 
ATOM     33  C   UNL d   1      27.014 -10.306   1.114  0.00  0.00     0.053 A 
BRANCH  32  34
ATOM     34  N   UNL d   1      26.444  -8.318   2.484  0.00  0.00    -0.116 N 
ATOM     35  O   UNL d   1      26.659  -7.672   3.512  0.00  0.00    -0.532 OA
ATOM     36  O   UNL d   1      25.448  -8.145   1.749  0.00  0.00    -0.532 OA
ENDBRANCH  32  34
ENDBRANCH   2  28
TORSDOF 7
ENDMDL
MODEL 7
REMARK VINA RESULT:    -7.826      3.222      6.597
REMARK INTER + INTRA:         -13.348
REMARK INTER:                  -9.914
REMARK INTRA:                  -3.433
REMARK CONF_INDEPENDENT:        2.088
REMARK UNBOUND:                -3.433
REMARK  7 active torsions:
REMARK  status: ('A' for Active; 'I' for Inactive)
REMARK    1  A    between atoms: C_5  and  C_6 
REMARK    2  A    between atoms: C_6  and  C_7 
REMARK    3  A    between atoms: C_6  and  N_14 
REMARK       I    between atoms: C_7  and  N_9 
REMARK    4  A    between atoms: N_9  and  C_10 
REMARK       I    between atoms: N_14  and  C_15 
REMARK    5  A    between atoms: N_14  and  C_26 
REMARK    6  A    between atoms: C_15  and  C_17 
REMARK    7  A    between atoms: C_21  and  N_22 
ROOT
ATOM      1  N   UNL d   1      27.113 -12.409  -1.593  0.00  0.00    -0.296 N 
ATOM      2  C   UNL d   1      27.382 -10.987  -1.843  0.00  0.00     0.259 C 
ATOM      3  O   UNL d   1      27.243 -10.473  -2.982  0.00  0.00    -0.267 OA
ENDROOT
BRANCH   1   4
ATOM      4  C   UNL d   1      26.743 -13.159  -0.227  0.00  0.00     0.219 C 
BRANCH   4   5
ATOM      5  C   UNL d   1      26.898 -14.677  -0.188  0.00  0.00    -0.020 C 
ATOM      6  C   UNL d   1      25.737 -15.364  -0.454  0.00  0.00     0.011 C 
ATOM      7  C   UNL d   1      25.671 -16.730  -0.250  0.00  0.00     0.007 C 
ATOM      8  C   UNL d   1      26.780 -17.515  -0.022  0.00  0.00    -0.061 C 
ATOM      9  C   UNL d   1      26.652 -18.951   0.391  0.00  0.00     0.048 C 
ATOM     10  C   UNL d   1      27.997 -16.881  -0.154  0.00  0.00     0.014 C 
ATOM     11  C   UNL d   1      28.067 -15.465  -0.206  0.00  0.00    -0.053 C 
ATOM     12  C   UNL d   1      29.411 -14.903  -0.523  0.00  0.00     0.049 C 
ENDBRANCH   4   5
BRANCH   4  13
ATOM     13  C   UNL d   1      27.671 -12.764   0.986  0.00  0.00     0.246 C 
ATOM     14  O   UNL d   1      28.707 -12.132   0.818  0.00  0.00    -0.271 OA
ATOM     15  N   UNL d   1      27.323 -13.287   2.223  0.00  0.00    -0.351 N 
ATOM     16  H   UNL d   1      26.501 -13.830   2.339  0.00  0.00     0.163 HD
BRANCH  15  17
ATOM     17  C   UNL d   1      28.034 -13.088   3.472  0.00  0.00     0.022 C 
ATOM     18  C   UNL d   1      27.972 -11.618   3.887  0.00  0.00     0.037 C 
ATOM     19  C   UNL d   1      27.405 -14.056   4.467  0.00  0.00     0.037 C 
ATOM     20  C   UNL d   1      29.527 -13.458   3.282  0.00  0.00     0.037 C 
ENDBRANCH  15  17
ENDBRANCH   4  13
ENDBRANCH   1   4
BRANCH   1  21
ATOM     21  C   UNL d   1      26.979 -13.264  -2.823  0.00  0.00     0.040 A 
ATOM     22  C   UNL d   1      25.714 -13.481  -3.393  0.00  0.00     0.030 A 
ATOM     23  C   UNL d   1      25.510 -14.400  -4.442  0.00  0.00     0.004 A 
ATOM     24  C   UNL d   1      26.573 -15.106  -4.993  0.00  0.00     0.024 A 
ATOM     25  C   UNL d   1      27.837 -14.874  -4.497  0.00  0.00     0.036 A 
ATOM     26 CL   UNL d   1      29.181 -15.785  -5.089  0.00  0.00    -0.084 Cl
ATOM     27  C   UNL d   1      28.035 -13.930  -3.478  0.00  0.00     0.053 A 
ENDBRANCH   1  21
BRANCH   2  28
ATOM     28  C   UNL d   1      27.826  -9.941  -0.829  0.00  0.00     0.035 A 
ATOM     29  C   UNL d   1      28.917  -9.062  -1.119  0.00  0.00     0.017 A 
ATOM     30  C   UNL d   1      29.216  -7.955  -0.283  0.00  0.00     0.003 A 
ATOM     31  C   UNL d   1      28.402  -7.685   0.838  0.00  0.00     0.036 A 
ATOM     32  C   UNL d   1      27.291  -8.523   1.098  0.00  0.00     0.103 A 
ATOM     33  C   UNL d   1      27.052  -9.672   0.306  0.00  0.00     0.053 A 
BRANCH  32  34
ATOM     34  N   UNL d   1      26.160  -8.040   1.947  0.00  0.00    -0.116 N 
ATOM     35  O   UNL d   1      26.280  -8.072   3.174  0.00  0.00    -0.532 OA
ATOM     36  O   UNL d   1      25.155  -7.585   1.359  0.00  0.00    -0.532 OA
ENDBRANCH  32  34
ENDBRANCH   2  28
TORSDOF 7
ENDMDL
MODEL 8
REMARK VINA RESULT:    -7.555      2.724      5.511
REMARK INTER + INTRA:         -13.331
REMARK INTER:                  -9.643
REMARK INTRA:                  -3.688
REMARK CONF_INDEPENDENT:        2.088
REMARK UNBOUND:                -3.688
REMARK  7 active torsions:
REMARK  status: ('A' for Active; 'I' for Inactive)
REMARK    1  A    between atoms: C_5  and  C_6 
REMARK    2  A    between atoms: C_6  and  C_7 
REMARK    3  A    between atoms: C_6  and  N_14 
REMARK       I    between atoms: C_7  and  N_9 
REMARK    4  A    between atoms: N_9  and  C_10 
REMARK       I    between atoms: N_14  and  C_15 
REMARK    5  A    between atoms: N_14  and  C_26 
REMARK    6  A    between atoms: C_15  and  C_17 
REMARK    7  A    between atoms: C_21  and  N_22 
ROOT
ATOM      1  N   UNL d   1      25.832 -15.463  -1.749  0.00  0.00    -0.296 N 
ATOM      2  C   UNL d   1      25.045 -14.706  -2.732  0.00  0.00     0.259 C 
ATOM      3  O   UNL d   1      23.791 -14.767  -2.770  0.00  0.00    -0.267 OA
ENDROOT
BRANCH   1   4
ATOM      4  C   UNL d   1      27.307 -15.192  -1.188  0.00  0.00     0.219 C 
BRANCH   4   5
ATOM      5  C   UNL d   1      28.235 -14.320  -2.029  0.00  0.00    -0.020 C 
ATOM      6  C   UNL d   1      28.324 -13.019  -1.596  0.00  0.00     0.011 C 
ATOM      7  C   UNL d   1      28.954 -12.064  -2.374  0.00  0.00     0.007 C 
ATOM      8  C   UNL d   1      29.731 -12.374  -3.470  0.00  0.00    -0.061 C 
ATOM      9  C   UNL d   1      30.231 -11.311  -4.401  0.00  0.00     0.048 C 
ATOM     10  C   UNL d   1      29.970 -13.717  -3.670  0.00  0.00     0.014 C 
ATOM     11  C   UNL d   1      29.208 -14.693  -2.979  0.00  0.00    -0.053 C 
ATOM     12  C   UNL d   1      29.672 -16.100  -3.144  0.00  0.00     0.049 C 
ENDBRANCH   4   5
BRANCH   4  13
ATOM     13  C   UNL d   1      27.334 -14.384   0.166  0.00  0.00     0.246 C 
ATOM     14  O   UNL d   1      26.425 -13.621   0.472  0.00  0.00    -0.271 OA
ATOM     15  N   UNL d   1      28.497 -14.478   0.918  0.00  0.00    -0.351 N 
ATOM     16  H   UNL d   1      29.242 -15.071   0.639  0.00  0.00     0.163 HD
BRANCH  15  17
ATOM     17  C   UNL d   1      28.765 -13.809   2.176  0.00  0.00     0.022 C 
ATOM     18  C   UNL d   1      28.663 -12.294   2.001  0.00  0.00     0.037 C 
ATOM     19  C   UNL d   1      27.780 -14.400   3.178  0.00  0.00     0.037 C 
ATOM     20  C   UNL d   1      30.209 -14.131   2.636  0.00  0.00     0.037 C 
ENDBRANCH  15  17
ENDBRANCH   4  13
ENDBRANCH   1   4
BRANCH   1  21
ATOM     21  C   UNL d   1      25.082 -16.543  -1.020  0.00  0.00     0.040 A 
ATOM     22  C   UNL d   1      25.774 -17.450  -0.202  0.00  0.00     0.030 A 
ATOM     23  C   UNL d   1      25.148 -18.575   0.371  0.00  0.00     0.004 A 
ATOM     24  C   UNL d   1      23.791 -18.812   0.186  0.00  0.00     0.024 A 
ATOM     25  C   UNL d   1      23.068 -17.910  -0.564  0.00  0.00     0.036 A 
ATOM     26 CL   UNL d   1      21.398 -18.200  -0.895  0.00  0.00    -0.084 Cl
ATOM     27  C   UNL d   1      23.693 -16.773  -1.099  0.00  0.00     0.053 A 
ENDBRANCH   1  21
BRANCH   2  28
ATOM     28  C   UNL d   1      25.572 -13.753  -3.796  0.00  0.00     0.035 A 
ATOM     29  C   UNL d   1      25.530 -12.337  -3.593  0.00  0.00     0.017 A 
ATOM     30  C   UNL d   1      26.193 -11.444  -4.473  0.00  0.00     0.003 A 
ATOM     31  C   UNL d   1      26.945 -11.955  -5.553  0.00  0.00     0.036 A 
ATOM     32  C   UNL d   1      27.031 -13.358  -5.727  0.00  0.00     0.103 A 
ATOM     33  C   UNL d   1      26.297 -14.235  -4.892  0.00  0.00     0.053 A 
BRANCH  32  34
ATOM     34  N   UNL d   1      28.146 -13.955  -6.522  0.00  0.00    -0.116 N 
ATOM     35  O   UNL d   1      28.931 -13.203  -7.105  0.00  0.00    -0.532 OA
ATOM     36  O   UNL d   1      28.249 -15.200  -6.520  0.00  0.00    -0.532 OA
ENDBRANCH  32  34
ENDBRANCH   2  28
TORSDOF 7
ENDMDL
MODEL 9
REMARK VINA RESULT:    -7.548      2.181      2.857
REMARK INTER + INTRA:         -13.265
REMARK INTER:                  -9.636
REMARK INTRA:                  -3.629
REMARK CONF_INDEPENDENT:        2.088
REMARK UNBOUND:                -3.629
REMARK  7 active torsions:
REMARK  status: ('A' for Active; 'I' for Inactive)
REMARK    1  A    between atoms: C_5  and  C_6 
REMARK    2  A    between atoms: C_6  and  C_7 
REMARK    3  A    between atoms: C_6  and  N_14 
REMARK       I    between atoms: C_7  and  N_9 
REMARK    4  A    between atoms: N_9  and  C_10 
REMARK       I    between atoms: N_14  and  C_15 
REMARK    5  A    between atoms: N_14  and  C_26 
REMARK    6  A    between atoms: C_15  and  C_17 
REMARK    7  A    between atoms: C_21  and  N_22 
ROOT
ATOM      1  N   UNL d   1      29.133 -14.648  -0.093  0.00  0.00    -0.296 N 
ATOM      2  C   UNL d   1      29.402 -13.497  -0.965  0.00  0.00     0.259 C 
ATOM      3  O   UNL d   1      30.060 -12.501  -0.571  0.00  0.00    -0.267 OA
ENDROOT
BRANCH   1   4
ATOM      4  C   UNL d   1      28.784 -16.164  -0.473  0.00  0.00     0.219 C 
BRANCH   4   5
ATOM      5  C   UNL d   1      27.320 -16.591  -0.403  0.00  0.00    -0.020 C 
ATOM      6  C   UNL d   1      27.137 -17.898  -0.019  0.00  0.00     0.011 C 
ATOM      7  C   UNL d   1      25.888 -18.486  -0.112  0.00  0.00     0.007 C 
ATOM      8  C   UNL d   1      24.732 -17.772  -0.342  0.00  0.00    -0.061 C 
ATOM      9  C   UNL d   1      23.432 -18.460  -0.635  0.00  0.00     0.048 C 
ATOM     10  C   UNL d   1      24.865 -16.401  -0.329  0.00  0.00     0.014 C 
ATOM     11  C   UNL d   1      26.150 -15.803  -0.390  0.00  0.00    -0.053 C 
ATOM     12  C   UNL d   1      26.178 -14.326  -0.195  0.00  0.00     0.049 C 
ENDBRANCH   4   5
BRANCH   4  13
ATOM     13  C   UNL d   1      29.098 -16.531  -1.974  0.00  0.00     0.246 C 
ATOM     14  O   UNL d   1      28.202 -16.788  -2.770  0.00  0.00    -0.271 OA
ATOM     15  N   UNL d   1      30.437 -16.681  -2.305  0.00  0.00    -0.351 N 
ATOM     16  H   UNL d   1      31.153 -16.507  -1.640  0.00  0.00     0.163 HD
BRANCH  15  17
ATOM     17  C   UNL d   1      30.967 -17.040  -3.606  0.00  0.00     0.022 C 
ATOM     18  C   UNL d   1      30.204 -16.306  -4.709  0.00  0.00     0.037 C 
ATOM     19  C   UNL d   1      32.457 -16.727  -3.549  0.00  0.00     0.037 C 
ATOM     20  C   UNL d   1      30.779 -18.560  -3.840  0.00  0.00     0.037 C 
ENDBRANCH  15  17
ENDBRANCH   4  13
ENDBRANCH   1   4
BRANCH   1  21
ATOM     21  C   UNL d   1      29.409 -14.425   1.369  0.00  0.00     0.040 A 
ATOM     22  C   UNL d   1      30.725 -14.485   1.853  0.00  0.00     0.030 A 
ATOM     23  C   UNL d   1      31.022 -14.447   3.230  0.00  0.00     0.004 A 
ATOM     24  C   UNL d   1      30.015 -14.301   4.177  0.00  0.00     0.024 A 
ATOM     25  C   UNL d   1      28.716 -14.181   3.733  0.00  0.00     0.036 A 
ATOM     26 CL   UNL d   1      27.418 -14.082   4.869  0.00  0.00    -0.084 Cl
ATOM     27  C   UNL d   1      28.434 -14.183   2.359  0.00  0.00     0.053 A 
ENDBRANCH   1  21
BRANCH   2  28
ATOM     28  C   UNL d   1      28.980 -13.323  -2.418  0.00  0.00     0.035 A 
ATOM     29  C   UNL d   1      29.940 -12.975  -3.420  0.00  0.00     0.017 A 
ATOM     30  C   UNL d   1      29.613 -13.006  -4.800  0.00  0.00     0.003 A 
ATOM     31  C   UNL d   1      28.328 -13.425  -5.205  0.00  0.00     0.036 A 
ATOM     32  C   UNL d   1      27.391 -13.819  -4.218  0.00  0.00     0.103 A 
ATOM     33  C   UNL d   1      27.701 -13.704  -2.841  0.00  0.00     0.053 A 
BRANCH  32  34
ATOM     34  N   UNL d   1      26.230 -14.689  -4.580  0.00  0.00    -0.116 N 
ATOM     35  O   UNL d   1      26.394 -15.582  -5.415  0.00  0.00    -0.532 OA
ATOM     36  O   UNL d   1      25.154 -14.488  -3.979  0.00  0.00    -0.532 OA
ENDBRANCH  32  34
ENDBRANCH   2  28
TORSDOF 7
ENDMDL
