MODEL 1
REMARK VINA RESULT:    -8.598      0.000      0.000
REMARK INTER + INTRA:         -11.562
REMARK INTER:                 -10.388
REMARK INTRA:                  -1.174
REMARK CONF_INDEPENDENT:        1.790
REMARK UNBOUND:                -1.174
REMARK  6 active torsions:
REMARK  status: ('A' for Active; 'I' for Inactive)
REMARK    1  A    between atoms: C_3  and  C_19 
REMARK    2  A    between atoms: C_4  and  C_5 
REMARK    3  A    between atoms: C_8  and  C_9 
REMARK    4  A    between atoms: C_12  and  N_13 
REMARK       I    between atoms: C_19  and  N_21 
REMARK    5  A    between atoms: N_21  and  C_22 
REMARK    6  A    between atoms: C_24  and  C_25 
ROOT
ATOM      1  N   UNL d   1      25.486 -14.888  -4.929  0.00  0.00    -0.096 N 
ATOM      2  C   UNL d   1      26.693 -15.200  -4.734  0.00  0.00     0.025 C 
ATOM      3  C   UNL d   1      28.147 -15.575  -4.499  0.00  0.00     0.101 C 
ATOM      4  C   UNL d   1      28.519 -15.907  -3.238  0.00  0.00     0.064 C 
ENDROOT
BRANCH   3   5
ATOM      5  C   UNL d   1      29.068 -15.554  -5.680  0.00  0.00     0.265 C 
ATOM      6  O   UNL d   1      28.691 -14.971  -6.702  0.00  0.00    -0.267 OA
ATOM      7  N   UNL d   1      30.255 -16.275  -5.616  0.00  0.00    -0.321 N 
ATOM      8  H   UNL d   1      30.386 -16.987  -4.909  0.00  0.00     0.169 HD
BRANCH   7   9
ATOM      9  C   UNL d   1      31.216 -16.262  -6.670  0.00  0.00     0.057 A 
ATOM     10  C   UNL d   1      31.688 -15.017  -7.131  0.00  0.00     0.047 A 
ATOM     11  C   UNL d   1      32.595 -14.939  -8.212  0.00  0.00     0.050 A 
ATOM     12  C   UNL d   1      33.090 -16.122  -8.773  0.00  0.00     0.018 A 
ATOM     13  C   UNL d   1      32.605 -17.354  -8.347  0.00  0.00     0.027 A 
ATOM     14  C   UNL d   1      31.658 -17.431  -7.323  0.00  0.00     0.060 A 
ATOM     15 CL   UNL d   1      30.947 -18.990  -7.069  0.00  0.00    -0.082 Cl
BRANCH  11  16
ATOM     16  C   UNL d   1      32.964 -13.612  -8.838  0.00  0.00     0.417 C 
ATOM     17  F   UNL d   1      31.857 -12.914  -9.219  0.00  0.00    -0.166 F 
ATOM     18  F   UNL d   1      33.659 -12.795  -8.004  0.00  0.00    -0.166 F 
ATOM     19  F   UNL d   1      33.720 -13.738  -9.965  0.00  0.00    -0.166 F 
ENDBRANCH  11  16
ENDBRANCH   7   9
ENDBRANCH   3   5
BRANCH   4  20
ATOM     20  C   UNL d   1      27.587 -16.027  -2.144  0.00  0.00     0.077 A 
ATOM     21  C   UNL d   1      27.656 -15.475  -0.867  0.00  0.00     0.040 A 
ATOM     22  C   UNL d   1      26.508 -15.850  -0.146  0.00  0.00     0.041 A 
ATOM     23  C   UNL d   1      25.746 -16.604  -1.002  0.00  0.00     0.086 A 
ATOM     24  O   UNL d   1      26.377 -16.711  -2.216  0.00  0.00    -0.310 OA
BRANCH  23  25
ATOM     25  C   UNL d   1      24.427 -17.200  -0.848  0.00  0.00    -0.002 A 
ATOM     26  C   UNL d   1      23.254 -16.457  -1.033  0.00  0.00     0.017 A 
ATOM     27  C   UNL d   1      21.996 -17.055  -0.866  0.00  0.00     0.037 A 
ATOM     28  C   UNL d   1      21.909 -18.427  -0.592  0.00  0.00     0.102 A 
ATOM     29  C   UNL d   1      23.070 -19.191  -0.435  0.00  0.00     0.037 A 
ATOM     30  C   UNL d   1      24.319 -18.574  -0.567  0.00  0.00     0.017 A 
BRANCH  28  31
ATOM     31  N   UNL d   1      20.592 -19.077  -0.530  0.00  0.00    -0.116 N 
ATOM     32  O   UNL d   1      19.934 -18.950   0.511  0.00  0.00    -0.532 OA
ATOM     33  O   UNL d   1      20.208 -19.700  -1.532  0.00  0.00    -0.532 OA
ENDBRANCH  28  31
ENDBRANCH  23  25
ENDBRANCH   4  20
TORSDOF 6
ENDMDL
MODEL 2
REMARK VINA RESULT:    -8.531      2.289      2.731
REMARK INTER + INTRA:         -11.519
REMARK INTER:                 -10.321
REMARK INTRA:                  -1.198
REMARK CONF_INDEPENDENT:        1.790
REMARK UNBOUND:                -1.198
REMARK  6 active torsions:
REMARK  status: ('A' for Active; 'I' for Inactive)
REMARK    1  A    between atoms: C_3  and  C_19 
REMARK    2  A    between atoms: C_4  and  C_5 
REMARK    3  A    between atoms: C_8  and  C_9 
REMARK    4  A    between atoms: C_12  and  N_13 
REMARK       I    between atoms: C_19  and  N_21 
REMARK    5  A    between atoms: N_21  and  C_22 
REMARK    6  A    between atoms: C_24  and  C_25 
ROOT
ATOM      1  N   UNL d   1      24.732 -14.075  -4.476  0.00  0.00    -0.096 N 
ATOM      2  C   UNL d   1      25.946 -14.410  -4.527  0.00  0.00     0.025 C 
ATOM      3  C   UNL d   1      27.410 -14.815  -4.589  0.00  0.00     0.101 C 
ATOM      4  C   UNL d   1      27.947 -15.414  -3.497  0.00  0.00     0.064 C 
ENDROOT
BRANCH   3   5
ATOM      5  C   UNL d   1      28.157 -14.525  -5.854  0.00  0.00     0.265 C 
ATOM      6  O   UNL d   1      28.533 -15.482  -6.540  0.00  0.00    -0.267 OA
ATOM      7  N   UNL d   1      28.488 -13.208  -6.150  0.00  0.00    -0.321 N 
ATOM      8  H   UNL d   1      28.453 -12.496  -5.432  0.00  0.00     0.169 HD
BRANCH   7   9
ATOM      9  C   UNL d   1      29.146 -12.838  -7.361  0.00  0.00     0.057 A 
ATOM     10  C   UNL d   1      30.476 -13.259  -7.557  0.00  0.00     0.047 A 
ATOM     11  C   UNL d   1      31.197 -12.873  -8.709  0.00  0.00     0.050 A 
ATOM     12  C   UNL d   1      30.548 -12.130  -9.702  0.00  0.00     0.018 A 
ATOM     13  C   UNL d   1      29.247 -11.680  -9.502  0.00  0.00     0.027 A 
ATOM     14  C   UNL d   1      28.554 -12.006  -8.334  0.00  0.00     0.060 A 
ATOM     15 CL   UNL d   1      27.054 -11.174  -8.090  0.00  0.00    -0.082 Cl
BRANCH  11  16
ATOM     16  C   UNL d   1      32.676 -13.159  -8.846  0.00  0.00     0.417 C 
ATOM     17  F   UNL d   1      33.318 -12.163  -9.518  0.00  0.00    -0.166 F 
ATOM     18  F   UNL d   1      33.316 -13.286  -7.655  0.00  0.00    -0.166 F 
ATOM     19  F   UNL d   1      32.943 -14.300  -9.545  0.00  0.00    -0.166 F 
ENDBRANCH  11  16
ENDBRANCH   7   9
ENDBRANCH   3   5
BRANCH   4  20
ATOM     20  C   UNL d   1      27.175 -15.781  -2.336  0.00  0.00     0.077 A 
ATOM     21  C   UNL d   1      27.431 -15.517  -0.992  0.00  0.00     0.040 A 
ATOM     22  C   UNL d   1      26.389 -16.056  -0.216  0.00  0.00     0.041 A 
ATOM     23  C   UNL d   1      25.503 -16.619  -1.100  0.00  0.00     0.086 A 
ATOM     24  O   UNL d   1      25.957 -16.452  -2.384  0.00  0.00    -0.310 OA
BRANCH  23  25
ATOM     25  C   UNL d   1      24.209 -17.254  -0.895  0.00  0.00    -0.002 A 
ATOM     26  C   UNL d   1      23.007 -16.568  -1.111  0.00  0.00     0.017 A 
ATOM     27  C   UNL d   1      21.775 -17.201  -0.894  0.00  0.00     0.037 A 
ATOM     28  C   UNL d   1      21.742 -18.557  -0.538  0.00  0.00     0.102 A 
ATOM     29  C   UNL d   1      22.933 -19.266  -0.349  0.00  0.00     0.037 A 
ATOM     30  C   UNL d   1      24.156 -18.612  -0.532  0.00  0.00     0.017 A 
BRANCH  28  31
ATOM     31  N   UNL d   1      20.452 -19.251  -0.422  0.00  0.00    -0.116 N 
ATOM     32  O   UNL d   1      19.937 -19.329   0.701  0.00  0.00    -0.532 OA
ATOM     33  O   UNL d   1      19.944 -19.703  -1.461  0.00  0.00    -0.532 OA
ENDBRANCH  28  31
ENDBRANCH  23  25
ENDBRANCH   4  20
TORSDOF 6
ENDMDL
MODEL 3
REMARK VINA RESULT:    -8.337      1.147      1.721
REMARK INTER + INTRA:         -11.339
REMARK INTER:                 -10.127
REMARK INTRA:                  -1.212
REMARK CONF_INDEPENDENT:        1.790
REMARK UNBOUND:                -1.212
REMARK  6 active torsions:
REMARK  status: ('A' for Active; 'I' for Inactive)
REMARK    1  A    between atoms: C_3  and  C_19 
REMARK    2  A    between atoms: C_4  and  C_5 
REMARK    3  A    between atoms: C_8  and  C_9 
REMARK    4  A    between atoms: C_12  and  N_13 
REMARK       I    between atoms: C_19  and  N_21 
REMARK    5  A    between atoms: N_21  and  C_22 
REMARK    6  A    between atoms: C_24  and  C_25 
ROOT
ATOM      1  N   UNL d   1      25.195 -14.003  -4.413  0.00  0.00    -0.096 N 
ATOM      2  C   UNL d   1      26.350 -14.508  -4.427  0.00  0.00     0.025 C 
ATOM      3  C   UNL d   1      27.743 -15.117  -4.445  0.00  0.00     0.101 C 
ATOM      4  C   UNL d   1      28.153 -15.790  -3.341  0.00  0.00     0.064 C 
ENDROOT
BRANCH   3   5
ATOM      5  C   UNL d   1      28.565 -14.934  -5.683  0.00  0.00     0.265 C 
ATOM      6  O   UNL d   1      28.012 -15.093  -6.777  0.00  0.00    -0.267 OA
ATOM      7  N   UNL d   1      29.928 -14.698  -5.553  0.00  0.00    -0.321 N 
ATOM      8  H   UNL d   1      30.402 -14.888  -4.679  0.00  0.00     0.169 HD
BRANCH   7   9
ATOM      9  C   UNL d   1      30.773 -14.453  -6.677  0.00  0.00     0.057 A 
ATOM     10  C   UNL d   1      30.772 -13.165  -7.247  0.00  0.00     0.047 A 
ATOM     11  C   UNL d   1      31.543 -12.879  -8.397  0.00  0.00     0.050 A 
ATOM     12  C   UNL d   1      32.379 -13.872  -8.921  0.00  0.00     0.018 A 
ATOM     13  C   UNL d   1      32.361 -15.156  -8.385  0.00  0.00     0.027 A 
ATOM     14  C   UNL d   1      31.550 -15.458  -7.289  0.00  0.00     0.060 A 
ATOM     15 CL   UNL d   1      31.421 -17.138  -6.887  0.00  0.00    -0.082 Cl
BRANCH  11  16
ATOM     16  C   UNL d   1      31.409 -11.562  -9.128  0.00  0.00     0.417 C 
ATOM     17  F   UNL d   1      32.623 -11.080  -9.517  0.00  0.00    -0.166 F 
ATOM     18  F   UNL d   1      30.655 -11.642 -10.255  0.00  0.00    -0.166 F 
ATOM     19  F   UNL d   1      30.853 -10.576  -8.368  0.00  0.00    -0.166 F 
ENDBRANCH  11  16
ENDBRANCH   7   9
ENDBRANCH   3   5
BRANCH   4  20
ATOM     20  C   UNL d   1      27.299 -16.047  -2.208  0.00  0.00     0.077 A 
ATOM     21  C   UNL d   1      27.475 -15.680  -0.876  0.00  0.00     0.040 A 
ATOM     22  C   UNL d   1      26.372 -16.134  -0.129  0.00  0.00     0.041 A 
ATOM     23  C   UNL d   1      25.530 -16.747  -1.022  0.00  0.00     0.086 A 
ATOM     24  O   UNL d   1      26.069 -16.694  -2.283  0.00  0.00    -0.310 OA
BRANCH  23  25
ATOM     25  C   UNL d   1      24.210 -17.337  -0.854  0.00  0.00    -0.002 A 
ATOM     26  C   UNL d   1      23.039 -16.602  -1.077  0.00  0.00     0.017 A 
ATOM     27  C   UNL d   1      21.780 -17.193  -0.895  0.00  0.00     0.037 A 
ATOM     28  C   UNL d   1      21.690 -18.553  -0.568  0.00  0.00     0.102 A 
ATOM     29  C   UNL d   1      22.850 -19.310  -0.373  0.00  0.00     0.037 A 
ATOM     30  C   UNL d   1      24.100 -18.699  -0.520  0.00  0.00     0.017 A 
BRANCH  28  31
ATOM     31  N   UNL d   1      20.372 -19.201  -0.490  0.00  0.00    -0.116 N 
ATOM     32  O   UNL d   1      20.037 -19.941  -1.423  0.00  0.00    -0.532 OA
ATOM     33  O   UNL d   1      19.681 -18.982   0.518  0.00  0.00    -0.532 OA
ENDBRANCH  28  31
ENDBRANCH  23  25
ENDBRANCH   4  20
TORSDOF 6
ENDMDL
MODEL 4
REMARK VINA RESULT:    -8.139      5.231      6.137
REMARK INTER + INTRA:         -11.111
REMARK INTER:                  -9.929
REMARK INTRA:                  -1.182
REMARK CONF_INDEPENDENT:        1.790
REMARK UNBOUND:                -1.182
REMARK  6 active torsions:
REMARK  status: ('A' for Active; 'I' for Inactive)
REMARK    1  A    between atoms: C_3  and  C_19 
REMARK    2  A    between atoms: C_4  and  C_5 
REMARK    3  A    between atoms: C_8  and  C_9 
REMARK    4  A    between atoms: C_12  and  N_13 
REMARK       I    between atoms: C_19  and  N_21 
REMARK    5  A    between atoms: N_21  and  C_22 
REMARK    6  A    between atoms: C_24  and  C_25 
ROOT
ATOM      1  N   UNL d   1      25.570 -15.372  -5.163  0.00  0.00    -0.096 N 
ATOM      2  C   UNL d   1      26.001 -14.345  -4.571  0.00  0.00     0.025 C 
ATOM      3  C   UNL d   1      26.519 -13.107  -3.857  0.00  0.00     0.101 C 
ATOM      4  C   UNL d   1      26.624 -13.154  -2.505  0.00  0.00     0.064 C 
ENDROOT
BRANCH   3   5
ATOM      5  C   UNL d   1      26.882 -11.922  -4.698  0.00  0.00     0.265 C 
ATOM      6  O   UNL d   1      28.033 -11.480  -4.614  0.00  0.00    -0.267 OA
ATOM      7  N   UNL d   1      25.890 -11.307  -5.452  0.00  0.00    -0.321 N 
ATOM      8  H   UNL d   1      24.913 -11.486  -5.259  0.00  0.00     0.169 HD
BRANCH   7   9
ATOM      9  C   UNL d   1      26.161 -10.212  -6.325  0.00  0.00     0.057 A 
ATOM     10  C   UNL d   1      25.440  -9.015  -6.142  0.00  0.00     0.047 A 
ATOM     11  C   UNL d   1      25.622  -7.917  -7.013  0.00  0.00     0.050 A 
ATOM     12  C   UNL d   1      26.592  -7.999  -8.019  0.00  0.00     0.018 A 
ATOM     13  C   UNL d   1      27.284  -9.187  -8.229  0.00  0.00     0.027 A 
ATOM     14  C   UNL d   1      27.058 -10.296  -7.410  0.00  0.00     0.060 A 
ATOM     15 CL   UNL d   1      27.780 -11.780  -7.934  0.00  0.00    -0.082 Cl
BRANCH  11  16
ATOM     16  C   UNL d   1      24.727  -6.699  -6.944  0.00  0.00     0.417 C 
ATOM     17  F   UNL d   1      25.016  -5.927  -5.859  0.00  0.00    -0.166 F 
ATOM     18  F   UNL d   1      24.834  -5.887  -8.027  0.00  0.00    -0.166 F 
ATOM     19  F   UNL d   1      23.404  -7.008  -6.829  0.00  0.00    -0.166 F 
ENDBRANCH  11  16
ENDBRANCH   7   9
ENDBRANCH   3   5
BRANCH   4  20
ATOM     20  C   UNL d   1      26.374 -14.345  -1.733  0.00  0.00     0.077 A 
ATOM     21  C   UNL d   1      27.173 -14.946  -0.762  0.00  0.00     0.040 A 
ATOM     22  C   UNL d   1      26.510 -16.083  -0.267  0.00  0.00     0.041 A 
ATOM     23  C   UNL d   1      25.307 -16.144  -0.925  0.00  0.00     0.086 A 
ATOM     24  O   UNL d   1      25.204 -15.096  -1.805  0.00  0.00    -0.310 OA
BRANCH  23  25
ATOM     25  C   UNL d   1      24.174 -17.047  -0.782  0.00  0.00    -0.002 A 
ATOM     26  C   UNL d   1      22.853 -16.597  -0.895  0.00  0.00     0.017 A 
ATOM     27  C   UNL d   1      21.780 -17.488  -0.741  0.00  0.00     0.037 A 
ATOM     28  C   UNL d   1      22.032 -18.854  -0.553  0.00  0.00     0.102 A 
ATOM     29  C   UNL d   1      23.346 -19.325  -0.470  0.00  0.00     0.037 A 
ATOM     30  C   UNL d   1      24.407 -18.420  -0.588  0.00  0.00     0.017 A 
BRANCH  28  31
ATOM     31  N   UNL d   1      20.911 -19.804  -0.506  0.00  0.00    -0.116 N 
ATOM     32  O   UNL d   1      20.649 -20.334   0.581  0.00  0.00    -0.532 OA
ATOM     33  O   UNL d   1      20.280 -20.005  -1.556  0.00  0.00    -0.532 OA
ENDBRANCH  28  31
ENDBRANCH  23  25
ENDBRANCH   4  20
TORSDOF 6
ENDMDL
MODEL 5
REMARK VINA RESULT:    -8.019      4.432      5.366
REMARK INTER + INTRA:         -10.975
REMARK INTER:                  -9.809
REMARK INTRA:                  -1.166
REMARK CONF_INDEPENDENT:        1.790
REMARK UNBOUND:                -1.166
REMARK  6 active torsions:
REMARK  status: ('A' for Active; 'I' for Inactive)
REMARK    1  A    between atoms: C_3  and  C_19 
REMARK    2  A    between atoms: C_4  and  C_5 
REMARK    3  A    between atoms: C_8  and  C_9 
REMARK    4  A    between atoms: C_12  and  N_13 
REMARK       I    between atoms: C_19  and  N_21 
REMARK    5  A    between atoms: N_21  and  C_22 
REMARK    6  A    between atoms: C_24  and  C_25 
ROOT
ATOM      1  N   UNL d   1      25.551 -15.628  -5.275  0.00  0.00    -0.096 N 
ATOM      2  C   UNL d   1      25.991 -14.582  -4.723  0.00  0.00     0.025 C 
ATOM      3  C   UNL d   1      26.520 -13.322  -4.058  0.00  0.00     0.101 C 
ATOM      4  C   UNL d   1      26.636 -13.321  -2.706  0.00  0.00     0.064 C 
ENDROOT
BRANCH   3   5
ATOM      5  C   UNL d   1      26.881 -12.169  -4.943  0.00  0.00     0.265 C 
ATOM      6  O   UNL d   1      28.078 -11.896  -5.083  0.00  0.00    -0.267 OA
ATOM      7  N   UNL d   1      25.861 -11.395  -5.483  0.00  0.00    -0.321 N 
ATOM      8  H   UNL d   1      24.925 -11.442  -5.104  0.00  0.00     0.169 HD
BRANCH   7   9
ATOM      9  C   UNL d   1      26.113 -10.317  -6.383  0.00  0.00     0.057 A 
ATOM     10  C   UNL d   1      26.971 -10.544  -7.477  0.00  0.00     0.047 A 
ATOM     11  C   UNL d   1      27.305  -9.498  -8.368  0.00  0.00     0.050 A 
ATOM     12  C   UNL d   1      26.707  -8.244  -8.200  0.00  0.00     0.018 A 
ATOM     13  C   UNL d   1      25.886  -8.001  -7.104  0.00  0.00     0.027 A 
ATOM     14  C   UNL d   1      25.606  -9.016  -6.185  0.00  0.00     0.060 A 
ATOM     15 CL   UNL d   1      24.795  -8.519  -4.738  0.00  0.00    -0.082 Cl
BRANCH  11  16
ATOM     16  C   UNL d   1      28.365  -9.678  -9.432  0.00  0.00     0.417 C 
ATOM     17  F   UNL d   1      28.418  -8.604 -10.270  0.00  0.00    -0.166 F 
ATOM     18  F   UNL d   1      29.617  -9.829  -8.929  0.00  0.00    -0.166 F 
ATOM     19  F   UNL d   1      28.145 -10.757 -10.236  0.00  0.00    -0.166 F 
ENDBRANCH  11  16
ENDBRANCH   7   9
ENDBRANCH   3   5
BRANCH   4  20
ATOM     20  C   UNL d   1      26.388 -14.483  -1.890  0.00  0.00     0.077 A 
ATOM     21  C   UNL d   1      27.182 -15.040  -0.890  0.00  0.00     0.040 A 
ATOM     22  C   UNL d   1      26.522 -16.161  -0.356  0.00  0.00     0.041 A 
ATOM     23  C   UNL d   1      25.326 -16.256  -1.021  0.00  0.00     0.086 A 
ATOM     24  O   UNL d   1      25.223 -15.244  -1.942  0.00  0.00    -0.310 OA
BRANCH  23  25
ATOM     25  C   UNL d   1      24.198 -17.161  -0.853  0.00  0.00    -0.002 A 
ATOM     26  C   UNL d   1      24.378 -18.530  -0.616  0.00  0.00     0.017 A 
ATOM     27  C   UNL d   1      23.272 -19.380  -0.470  0.00  0.00     0.037 A 
ATOM     28  C   UNL d   1      21.976 -18.845  -0.479  0.00  0.00     0.102 A 
ATOM     29  C   UNL d   1      21.780 -17.476  -0.682  0.00  0.00     0.037 A 
ATOM     30  C   UNL d   1      22.890 -16.643  -0.864  0.00  0.00     0.017 A 
BRANCH  28  31
ATOM     31  N   UNL d   1      20.824 -19.717  -0.212  0.00  0.00    -0.116 N 
ATOM     32  O   UNL d   1      20.450 -19.837   0.962  0.00  0.00    -0.532 OA
ATOM     33  O   UNL d   1      20.280 -20.268  -1.182  0.00  0.00    -0.532 OA
ENDBRANCH  28  31
ENDBRANCH  23  25
ENDBRANCH   4  20
TORSDOF 6
ENDMDL
MODEL 6
REMARK VINA RESULT:    -7.937      2.587      3.021
REMARK INTER + INTRA:         -10.951
REMARK INTER:                  -9.727
REMARK INTRA:                  -1.224
REMARK CONF_INDEPENDENT:        1.790
REMARK UNBOUND:                -1.224
REMARK  6 active torsions:
REMARK  status: ('A' for Active; 'I' for Inactive)
REMARK    1  A    between atoms: C_3  and  C_19 
REMARK    2  A    between atoms: C_4  and  C_5 
REMARK    3  A    between atoms: C_8  and  C_9 
REMARK    4  A    between atoms: C_12  and  N_13 
REMARK       I    between atoms: C_19  and  N_21 
REMARK    5  A    between atoms: N_21  and  C_22 
REMARK    6  A    between atoms: C_24  and  C_25 
ROOT
ATOM      1  N   UNL d   1      26.834 -14.880  -4.467  0.00  0.00    -0.096 N 
ATOM      2  C   UNL d   1      27.844 -15.521  -4.069  0.00  0.00     0.025 C 
ATOM      3  C   UNL d   1      29.062 -16.293  -3.589  0.00  0.00     0.101 C 
ATOM      4  C   UNL d   1      29.061 -16.745  -2.310  0.00  0.00     0.064 C 
ENDROOT
BRANCH   3   5
ATOM      5  C   UNL d   1      30.178 -16.505  -4.565  0.00  0.00     0.265 C 
ATOM      6  O   UNL d   1      31.334 -16.532  -4.129  0.00  0.00    -0.267 OA
ATOM      7  N   UNL d   1      29.881 -16.557  -5.921  0.00  0.00    -0.321 N 
ATOM      8  H   UNL d   1      28.992 -16.220  -6.266  0.00  0.00     0.169 HD
BRANCH   7   9
ATOM      9  C   UNL d   1      30.874 -16.815  -6.913  0.00  0.00     0.057 A 
ATOM     10  C   UNL d   1      30.952 -18.110  -7.462  0.00  0.00     0.047 A 
ATOM     11  C   UNL d   1      31.953 -18.441  -8.404  0.00  0.00     0.050 A 
ATOM     12  C   UNL d   1      32.823 -17.440  -8.853  0.00  0.00     0.018 A 
ATOM     13  C   UNL d   1      32.775 -16.168  -8.292  0.00  0.00     0.027 A 
ATOM     14  C   UNL d   1      31.829 -15.857  -7.313  0.00  0.00     0.060 A 
ATOM     15 CL   UNL d   1      32.042 -14.335  -6.515  0.00  0.00    -0.082 Cl
BRANCH  11  16
ATOM     16  C   UNL d   1      32.167 -19.867  -8.859  0.00  0.00     0.417 C 
ATOM     17  F   UNL d   1      31.671 -20.760  -7.956  0.00  0.00    -0.166 F 
ATOM     18  F   UNL d   1      31.567 -20.153 -10.044  0.00  0.00    -0.166 F 
ATOM     19  F   UNL d   1      33.482 -20.195  -9.010  0.00  0.00    -0.166 F 
ENDBRANCH  11  16
ENDBRANCH   7   9
ENDBRANCH   3   5
BRANCH   4  20
ATOM     20  C   UNL d   1      27.926 -16.623  -1.429  0.00  0.00     0.077 A 
ATOM     21  C   UNL d   1      27.793 -15.863  -0.269  0.00  0.00     0.040 A 
ATOM     22  C   UNL d   1      26.497 -16.045   0.248  0.00  0.00     0.041 A 
ATOM     23  C   UNL d   1      25.854 -16.893  -0.617  0.00  0.00     0.086 A 
ATOM     24  O   UNL d   1      26.699 -17.243  -1.641  0.00  0.00    -0.310 OA
BRANCH  23  25
ATOM     25  C   UNL d   1      24.483 -17.382  -0.648  0.00  0.00    -0.002 A 
ATOM     26  C   UNL d   1      23.399 -16.526  -0.883  0.00  0.00     0.017 A 
ATOM     27  C   UNL d   1      22.088 -17.023  -0.895  0.00  0.00     0.037 A 
ATOM     28  C   UNL d   1      21.863 -18.399  -0.753  0.00  0.00     0.102 A 
ATOM     29  C   UNL d   1      22.937 -19.272  -0.549  0.00  0.00     0.037 A 
ATOM     30  C   UNL d   1      24.238 -18.759  -0.502  0.00  0.00     0.017 A 
BRANCH  28  31
ATOM     31  N   UNL d   1      20.500 -18.935  -0.880  0.00  0.00    -0.116 N 
ATOM     32  O   UNL d   1      19.660 -18.577  -0.044  0.00  0.00    -0.532 OA
ATOM     33  O   UNL d   1      20.266 -19.698  -1.829  0.00  0.00    -0.532 OA
ENDBRANCH  28  31
ENDBRANCH  23  25
ENDBRANCH   4  20
TORSDOF 6
ENDMDL
MODEL 7
REMARK VINA RESULT:    -7.848      1.823      2.414
REMARK INTER + INTRA:         -10.834
REMARK INTER:                  -9.638
REMARK INTRA:                  -1.196
REMARK CONF_INDEPENDENT:        1.790
REMARK UNBOUND:                -1.196
REMARK  6 active torsions:
REMARK  status: ('A' for Active; 'I' for Inactive)
REMARK    1  A    between atoms: C_3  and  C_19 
REMARK    2  A    between atoms: C_4  and  C_5 
REMARK    3  A    between atoms: C_8  and  C_9 
REMARK    4  A    between atoms: C_12  and  N_13 
REMARK       I    between atoms: C_19  and  N_21 
REMARK    5  A    between atoms: N_21  and  C_22 
REMARK    6  A    between atoms: C_24  and  C_25 
ROOT
ATOM      1  N   UNL d   1      25.259 -13.948  -4.546  0.00  0.00    -0.096 N 
ATOM      2  C   UNL d   1      26.411 -14.459  -4.519  0.00  0.00     0.025 C 
ATOM      3  C   UNL d   1      27.801 -15.074  -4.487  0.00  0.00     0.101 C 
ATOM      4  C   UNL d   1      28.181 -15.720  -3.356  0.00  0.00     0.064 C 
ENDROOT
BRANCH   3   5
ATOM      5  C   UNL d   1      28.654 -14.925  -5.709  0.00  0.00     0.265 C 
ATOM      6  O   UNL d   1      28.134 -15.137  -6.810  0.00  0.00    -0.267 OA
ATOM      7  N   UNL d   1      30.009 -14.662  -5.552  0.00  0.00    -0.321 N 
ATOM      8  H   UNL d   1      30.461 -14.809  -4.659  0.00  0.00     0.169 HD
BRANCH   7   9
ATOM      9  C   UNL d   1      30.881 -14.448  -6.661  0.00  0.00     0.057 A 
ATOM     10  C   UNL d   1      31.719 -15.504  -7.069  0.00  0.00     0.047 A 
ATOM     11  C   UNL d   1      32.646 -15.331  -8.122  0.00  0.00     0.050 A 
ATOM     12  C   UNL d   1      32.667 -14.117  -8.817  0.00  0.00     0.018 A 
ATOM     13  C   UNL d   1      31.869 -13.057  -8.400  0.00  0.00     0.027 A 
ATOM     14  C   UNL d   1      30.999 -13.205  -7.317  0.00  0.00     0.060 A 
ATOM     15 CL   UNL d   1      30.262 -11.749  -6.738  0.00  0.00    -0.082 Cl
BRANCH  11  16
ATOM     16  C   UNL d   1      33.676 -16.390  -8.447  0.00  0.00     0.417 C 
ATOM     17  F   UNL d   1      33.812 -16.559  -9.793  0.00  0.00    -0.166 F 
ATOM     18  F   UNL d   1      34.916 -16.102  -7.974  0.00  0.00    -0.166 F 
ATOM     19  F   UNL d   1      33.358 -17.622  -7.956  0.00  0.00    -0.166 F 
ENDBRANCH  11  16
ENDBRANCH   7   9
ENDBRANCH   3   5
BRANCH   4  20
ATOM     20  C   UNL d   1      27.298 -15.943  -2.238  0.00  0.00     0.077 A 
ATOM     21  C   UNL d   1      27.381 -15.442  -0.941  0.00  0.00     0.040 A 
ATOM     22  C   UNL d   1      26.284 -15.918  -0.199  0.00  0.00     0.041 A 
ATOM     23  C   UNL d   1      25.538 -16.681  -1.062  0.00  0.00     0.086 A 
ATOM     24  O   UNL d   1      26.130 -16.697  -2.300  0.00  0.00    -0.310 OA
BRANCH  23  25
ATOM     25  C   UNL d   1      24.264 -17.363  -0.890  0.00  0.00    -0.002 A 
ATOM     26  C   UNL d   1      24.192 -18.702  -0.485  0.00  0.00     0.017 A 
ATOM     27  C   UNL d   1      22.950 -19.338  -0.340  0.00  0.00     0.037 A 
ATOM     28  C   UNL d   1      21.768 -18.606  -0.521  0.00  0.00     0.102 A 
ATOM     29  C   UNL d   1      21.822 -17.259  -0.895  0.00  0.00     0.037 A 
ATOM     30  C   UNL d   1      23.067 -16.647  -1.073  0.00  0.00     0.017 A 
BRANCH  28  31
ATOM     31  N   UNL d   1      20.468 -19.240  -0.258  0.00  0.00    -0.116 N 
ATOM     32  O   UNL d   1      20.065 -19.265   0.912  0.00  0.00    -0.532 OA
ATOM     33  O   UNL d   1      19.842 -19.697  -1.227  0.00  0.00    -0.532 OA
ENDBRANCH  28  31
ENDBRANCH  23  25
ENDBRANCH   4  20
TORSDOF 6
ENDMDL
MODEL 8
REMARK VINA RESULT:    -7.628      5.533      6.656
REMARK INTER + INTRA:         -10.606
REMARK INTER:                  -9.418
REMARK INTRA:                  -1.188
REMARK CONF_INDEPENDENT:        1.790
REMARK UNBOUND:                -1.188
REMARK  6 active torsions:
REMARK  status: ('A' for Active; 'I' for Inactive)
REMARK    1  A    between atoms: C_3  and  C_19 
REMARK    2  A    between atoms: C_4  and  C_5 
REMARK    3  A    between atoms: C_8  and  C_9 
REMARK    4  A    between atoms: C_12  and  N_13 
REMARK       I    between atoms: C_19  and  N_21 
REMARK    5  A    between atoms: N_21  and  C_22 
REMARK    6  A    between atoms: C_24  and  C_25 
ROOT
ATOM      1  N   UNL d   1      24.851 -14.050  -4.497  0.00  0.00    -0.096 N 
ATOM      2  C   UNL d   1      25.480 -13.292  -3.710  0.00  0.00     0.025 C 
ATOM      3  C   UNL d   1      26.238 -12.377  -2.762  0.00  0.00     0.101 C 
ATOM      4  C   UNL d   1      26.617 -12.884  -1.562  0.00  0.00     0.064 C 
ENDROOT
BRANCH   3   5
ATOM      5  C   UNL d   1      26.518 -10.979  -3.221  0.00  0.00     0.265 C 
ATOM      6  O   UNL d   1      27.557 -10.436  -2.832  0.00  0.00    -0.267 OA
ATOM      7  N   UNL d   1      25.556 -10.317  -3.974  0.00  0.00    -0.321 N 
ATOM      8  H   UNL d   1      24.604 -10.658  -4.006  0.00  0.00     0.169 HD
BRANCH   7   9
ATOM      9  C   UNL d   1      25.765  -9.008  -4.502  0.00  0.00     0.057 A 
ATOM     10  C   UNL d   1      25.982  -8.871  -5.887  0.00  0.00     0.047 A 
ATOM     11  C   UNL d   1      26.254  -7.607  -6.458  0.00  0.00     0.050 A 
ATOM     12  C   UNL d   1      26.224  -6.470  -5.642  0.00  0.00     0.018 A 
ATOM     13  C   UNL d   1      26.044  -6.599  -4.269  0.00  0.00     0.027 A 
ATOM     14  C   UNL d   1      25.840  -7.855  -3.693  0.00  0.00     0.060 A 
ATOM     15 CL   UNL d   1      25.893  -7.908  -1.962  0.00  0.00    -0.082 Cl
BRANCH  11  16
ATOM     16  C   UNL d   1      26.672  -7.469  -7.905  0.00  0.00     0.417 C 
ATOM     17  F   UNL d   1      27.348  -6.305  -8.122  0.00  0.00    -0.166 F 
ATOM     18  F   UNL d   1      27.489  -8.467  -8.330  0.00  0.00    -0.166 F 
ATOM     19  F   UNL d   1      25.619  -7.444  -8.771  0.00  0.00    -0.166 F 
ENDBRANCH  11  16
ENDBRANCH   7   9
ENDBRANCH   3   5
BRANCH   4  20
ATOM     20  C   UNL d   1      26.433 -14.266  -1.193  0.00  0.00     0.077 A 
ATOM     21  C   UNL d   1      27.351 -15.158  -0.645  0.00  0.00     0.040 A 
ATOM     22  C   UNL d   1      26.715 -16.395  -0.435  0.00  0.00     0.041 A 
ATOM     23  C   UNL d   1      25.413 -16.230  -0.836  0.00  0.00     0.086 A 
ATOM     24  O   UNL d   1      25.223 -14.947  -1.286  0.00  0.00    -0.310 OA
BRANCH  23  25
ATOM     25  C   UNL d   1      24.268 -17.128  -0.787  0.00  0.00    -0.002 A 
ATOM     26  C   UNL d   1      24.413 -18.496  -0.528  0.00  0.00     0.017 A 
ATOM     27  C   UNL d   1      23.293 -19.340  -0.499  0.00  0.00     0.037 A 
ATOM     28  C   UNL d   1      22.009 -18.798  -0.650  0.00  0.00     0.102 A 
ATOM     29  C   UNL d   1      21.844 -17.428  -0.879  0.00  0.00     0.037 A 
ATOM     30  C   UNL d   1      22.973 -16.603  -0.943  0.00  0.00     0.017 A 
BRANCH  28  31
ATOM     31  N   UNL d   1      20.829 -19.662  -0.506  0.00  0.00    -0.116 N 
ATOM     32  O   UNL d   1      20.126 -19.850  -1.507  0.00  0.00    -0.532 OA
ATOM     33  O   UNL d   1      20.617 -20.168   0.607  0.00  0.00    -0.532 OA
ENDBRANCH  28  31
ENDBRANCH  23  25
ENDBRANCH   4  20
TORSDOF 6
ENDMDL
