MODEL 1
REMARK VINA RESULT:    -7.210      0.000      0.000
REMARK INTER + INTRA:          -9.069
REMARK INTER:                  -8.403
REMARK INTRA:                  -0.666
REMARK CONF_INDEPENDENT:        1.193
REMARK UNBOUND:                -0.666
REMARK  4 active torsions:
REMARK  status: ('A' for Active; 'I' for Inactive)
REMARK       I    between atoms: C_2  and  N_3 
REMARK    1  A    between atoms: C_18  and  C_2 
REMARK    2  A    between atoms: N_3  and  C_4 
REMARK    3  A    between atoms: C_4  and  C_5 
REMARK    4  A    between atoms: C_8  and  N_9 
ROOT
ATOM      1  C   UNL d   1      24.781 -17.658  -0.629  0.00  0.00    -0.025 A 
ATOM      2  C   UNL d   1      23.691 -16.777  -0.609  0.00  0.00     0.014 A 
ATOM      3  C   UNL d   1      22.431 -17.188  -0.164  0.00  0.00     0.049 A 
ATOM      4  C   UNL d   1      22.237 -18.498   0.268  0.00  0.00     0.102 A 
ATOM      5  N   UNL d   1      23.297 -19.320   0.229  0.00  0.00    -0.352 N 
ATOM      6  C   UNL d   1      24.524 -18.959  -0.195  0.00  0.00     0.098 A 
ATOM      7  H   UNL d   1      23.107 -20.285   0.487  0.00  0.00     0.166 HD
ENDROOT
BRANCH   1   8
ATOM      8  C   UNL d   1      26.203 -17.279  -1.053  0.00  0.00     0.162 C 
BRANCH   8   9
ATOM      9  N   UNL d   1      26.324 -15.911  -1.503  0.00  0.00    -0.356 N 
ATOM     10  C   UNL d   1      27.306 -15.410  -2.329  0.00  0.00     0.224 C 
ATOM     11  O   UNL d   1      28.263 -16.100  -2.681  0.00  0.00    -0.273 OA
ATOM     12  H   UNL d   1      25.870 -15.232  -0.919  0.00  0.00     0.162 HD
BRANCH  10  13
ATOM     13  C   UNL d   1      27.139 -13.938  -2.766  0.00  0.00     0.109 C 
ATOM     14  C   UNL d   1      27.249 -13.604  -4.271  0.00  0.00     0.048 C 
ATOM     15  C   UNL d   1      25.978 -12.771  -4.532  0.00  0.00     0.122 C 
ATOM     16  C   UNL d   1      24.768 -13.688  -4.600  0.00  0.00     0.034 C 
ATOM     17  O   UNL d   1      25.792 -12.124  -3.253  0.00  0.00    -0.380 OA
ATOM     18  C   UNL d   1      24.608 -14.067  -3.144  0.00  0.00     0.035 C 
ATOM     19  C   UNL d   1      25.768 -13.326  -2.454  0.00  0.00     0.135 C 
ENDBRANCH  10  13
ENDBRANCH   8   9
ENDBRANCH   1   8
BRANCH   4  20
ATOM     20  N   UNL d   1      21.002 -19.069   0.525  0.00  0.00    -0.367 N 
ATOM     21  C   UNL d   1      20.406 -18.950   1.870  0.00  0.00     0.124 C 
ATOM     22  C   UNL d   1      20.140 -20.365   2.405  0.00  0.00     0.020 C 
ATOM     23  C   UNL d   1      18.962 -21.100   1.753  0.00  0.00     0.002 C 
ATOM     24  C   UNL d   1      18.998 -21.147   0.226  0.00  0.00     0.002 C 
ATOM     25  C   UNL d   1      18.783 -19.776  -0.411  0.00  0.00     0.020 C 
ATOM     26  C   UNL d   1      20.071 -18.989  -0.614  0.00  0.00     0.124 C 
ENDBRANCH   4  20
TORSDOF 4
ENDMDL
MODEL 2
REMARK VINA RESULT:    -7.206      7.769      9.592
REMARK INTER + INTRA:          -8.789
REMARK INTER:                  -8.399
REMARK INTRA:                  -0.390
REMARK CONF_INDEPENDENT:        1.193
REMARK UNBOUND:                -0.390
REMARK  4 active torsions:
REMARK  status: ('A' for Active; 'I' for Inactive)
REMARK       I    between atoms: C_2  and  N_3 
REMARK    1  A    between atoms: C_18  and  C_2 
REMARK    2  A    between atoms: N_3  and  C_4 
REMARK    3  A    between atoms: C_4  and  C_5 
REMARK    4  A    between atoms: C_8  and  N_9 
ROOT
ATOM      1  C   UNL d   1      28.464 -13.475   4.059  0.00  0.00    -0.025 A 
ATOM      2  C   UNL d   1      28.831 -14.664   4.705  0.00  0.00     0.014 A 
ATOM      3  C   UNL d   1      28.863 -14.756   6.099  0.00  0.00     0.049 A 
ATOM      4  C   UNL d   1      28.530 -13.649   6.879  0.00  0.00     0.102 A 
ATOM      5  N   UNL d   1      28.191 -12.523   6.232  0.00  0.00    -0.352 N 
ATOM      6  C   UNL d   1      28.152 -12.399   4.891  0.00  0.00     0.098 A 
ATOM      7  H   UNL d   1      28.020 -11.717   6.827  0.00  0.00     0.166 HD
ENDROOT
BRANCH   1   8
ATOM      8  C   UNL d   1      28.356 -13.302   2.542  0.00  0.00     0.162 C 
BRANCH   8   9
ATOM      9  N   UNL d   1      28.211 -14.552   1.830  0.00  0.00    -0.356 N 
ATOM     10  C   UNL d   1      27.237 -14.852   0.903  0.00  0.00     0.224 C 
ATOM     11  O   UNL d   1      26.307 -14.077   0.674  0.00  0.00    -0.273 OA
ATOM     12  H   UNL d   1      28.632 -15.346   2.277  0.00  0.00     0.162 HD
BRANCH  10  13
ATOM     13  C   UNL d   1      27.377 -16.213   0.188  0.00  0.00     0.109 C 
ATOM     14  C   UNL d   1      27.030 -17.495   0.980  0.00  0.00     0.048 C 
ATOM     15  C   UNL d   1      26.067 -18.235   0.031  0.00  0.00     0.122 C 
ATOM     16  C   UNL d   1      24.699 -17.577   0.071  0.00  0.00     0.034 C 
ATOM     17  O   UNL d   1      26.562 -17.818  -1.262  0.00  0.00    -0.380 OA
ATOM     18  C   UNL d   1      24.969 -16.295  -0.685  0.00  0.00     0.035 C 
ATOM     19  C   UNL d   1      26.467 -16.396  -1.032  0.00  0.00     0.135 C 
ENDBRANCH  10  13
ENDBRANCH   8   9
ENDBRANCH   1   8
BRANCH   4  20
ATOM     20  N   UNL d   1      28.729 -13.559   8.246  0.00  0.00    -0.367 N 
ATOM     21  C   UNL d   1      29.920 -14.184   8.855  0.00  0.00     0.124 C 
ATOM     22  C   UNL d   1      29.446 -15.184   9.921  0.00  0.00     0.020 C 
ATOM     23  C   UNL d   1      28.897 -14.556  11.208  0.00  0.00     0.002 C 
ATOM     24  C   UNL d   1      27.808 -13.504  10.998  0.00  0.00     0.002 C 
ATOM     25  C   UNL d   1      28.338 -12.232  10.340  0.00  0.00     0.020 C 
ATOM     26  C   UNL d   1      28.300 -12.272   8.818  0.00  0.00     0.124 C 
ENDBRANCH   4  20
TORSDOF 4
ENDMDL
MODEL 3
REMARK VINA RESULT:    -6.918      4.422      7.064
REMARK INTER + INTRA:          -8.715
REMARK INTER:                  -8.111
REMARK INTRA:                  -0.604
REMARK CONF_INDEPENDENT:        1.193
REMARK UNBOUND:                -0.604
REMARK  4 active torsions:
REMARK  status: ('A' for Active; 'I' for Inactive)
REMARK       I    between atoms: C_2  and  N_3 
REMARK    1  A    between atoms: C_18  and  C_2 
REMARK    2  A    between atoms: N_3  and  C_4 
REMARK    3  A    between atoms: C_4  and  C_5 
REMARK    4  A    between atoms: C_8  and  N_9 
ROOT
ATOM      1  C   UNL d   1      28.098 -14.939  -5.047  0.00  0.00    -0.025 A 
ATOM      2  C   UNL d   1      26.699 -14.867  -5.102  0.00  0.00     0.014 A 
ATOM      3  C   UNL d   1      25.909 -15.193  -3.997  0.00  0.00     0.049 A 
ATOM      4  C   UNL d   1      26.509 -15.607  -2.809  0.00  0.00     0.102 A 
ATOM      5  N   UNL d   1      27.849 -15.675  -2.790  0.00  0.00    -0.352 N 
ATOM      6  C   UNL d   1      28.641 -15.369  -3.836  0.00  0.00     0.098 A 
ATOM      7  H   UNL d   1      28.251 -16.043  -1.932  0.00  0.00     0.166 HD
ENDROOT
BRANCH   1   8
ATOM      8  C   UNL d   1      29.039 -14.553  -6.193  0.00  0.00     0.162 C 
BRANCH   8   9
ATOM      9  N   UNL d   1      29.583 -15.691  -6.898  0.00  0.00    -0.356 N 
ATOM     10  C   UNL d   1      30.458 -16.623  -6.386  0.00  0.00     0.224 C 
ATOM     11  O   UNL d   1      30.950 -16.494  -5.264  0.00  0.00    -0.273 OA
ATOM     12  H   UNL d   1      29.588 -15.606  -7.899  0.00  0.00     0.162 HD
BRANCH  10  13
ATOM     13  C   UNL d   1      30.791 -17.818  -7.304  0.00  0.00     0.109 C 
ATOM     14  C   UNL d   1      32.272 -18.079  -7.661  0.00  0.00     0.048 C 
ATOM     15  C   UNL d   1      32.445 -19.576  -7.339  0.00  0.00     0.122 C 
ATOM     16  C   UNL d   1      32.545 -19.770  -5.836  0.00  0.00     0.034 C 
ATOM     17  O   UNL d   1      31.121 -20.084  -7.619  0.00  0.00    -0.380 OA
ATOM     18  C   UNL d   1      31.115 -19.516  -5.413  0.00  0.00     0.035 C 
ATOM     19  C   UNL d   1      30.405 -19.191  -6.741  0.00  0.00     0.135 C 
ENDBRANCH  10  13
ENDBRANCH   8   9
ENDBRANCH   1   8
BRANCH   4  20
ATOM     20  N   UNL d   1      25.831 -16.154  -1.733  0.00  0.00    -0.367 N 
ATOM     21  C   UNL d   1      26.436 -16.110  -0.387  0.00  0.00     0.124 C 
ATOM     22  C   UNL d   1      26.551 -17.550   0.136  0.00  0.00     0.020 C 
ATOM     23  C   UNL d   1      25.227 -18.199   0.558  0.00  0.00     0.002 C 
ATOM     24  C   UNL d   1      24.117 -18.140  -0.491  0.00  0.00     0.002 C 
ATOM     25  C   UNL d   1      23.602 -16.722  -0.726  0.00  0.00     0.020 C 
ATOM     26  C   UNL d   1      24.372 -15.964  -1.801  0.00  0.00     0.124 C 
ENDBRANCH   4  20
TORSDOF 4
ENDMDL
MODEL 4
REMARK VINA RESULT:    -6.845      5.363      8.310
REMARK INTER + INTRA:          -8.668
REMARK INTER:                  -8.039
REMARK INTRA:                  -0.629
REMARK CONF_INDEPENDENT:        1.193
REMARK UNBOUND:                -0.629
REMARK  4 active torsions:
REMARK  status: ('A' for Active; 'I' for Inactive)
REMARK       I    between atoms: C_2  and  N_3 
REMARK    1  A    between atoms: C_18  and  C_2 
REMARK    2  A    between atoms: N_3  and  C_4 
REMARK    3  A    between atoms: C_4  and  C_5 
REMARK    4  A    between atoms: C_8  and  N_9 
ROOT
ATOM      1  C   UNL d   1      27.755 -14.536   0.460  0.00  0.00    -0.025 A 
ATOM      2  C   UNL d   1      26.880 -13.632   1.079  0.00  0.00     0.014 A 
ATOM      3  C   UNL d   1      27.104 -13.178   2.382  0.00  0.00     0.049 A 
ATOM      4  C   UNL d   1      28.212 -13.628   3.097  0.00  0.00     0.102 A 
ATOM      5  N   UNL d   1      29.026 -14.500   2.481  0.00  0.00    -0.352 N 
ATOM      6  C   UNL d   1      28.840 -14.959   1.228  0.00  0.00     0.098 A 
ATOM      7  H   UNL d   1      29.786 -14.860   3.052  0.00  0.00     0.166 HD
ENDROOT
BRANCH   1   8
ATOM      8  C   UNL d   1      27.613 -15.045  -0.977  0.00  0.00     0.162 C 
BRANCH   8   9
ATOM      9  N   UNL d   1      26.638 -16.102  -1.119  0.00  0.00    -0.356 N 
ATOM     10  C   UNL d   1      26.327 -17.055  -0.174  0.00  0.00     0.224 C 
ATOM     11  O   UNL d   1      26.962 -17.147   0.878  0.00  0.00    -0.273 OA
ATOM     12  H   UNL d   1      26.423 -16.356  -2.067  0.00  0.00     0.162 HD
BRANCH  10  13
ATOM     13  C   UNL d   1      25.156 -17.998  -0.521  0.00  0.00     0.109 C 
ATOM     14  C   UNL d   1      24.037 -18.194   0.528  0.00  0.00     0.048 C 
ATOM     15  C   UNL d   1      22.753 -17.945  -0.287  0.00  0.00     0.122 C 
ATOM     16  C   UNL d   1      22.575 -16.454  -0.520  0.00  0.00     0.034 C 
ATOM     17  O   UNL d   1      23.152 -18.407  -1.598  0.00  0.00    -0.380 OA
ATOM     18  C   UNL d   1      23.659 -16.187  -1.541  0.00  0.00     0.035 C 
ATOM     19  C   UNL d   1      24.318 -17.566  -1.729  0.00  0.00     0.135 C 
ENDBRANCH  10  13
ENDBRANCH   8   9
ENDBRANCH   1   8
BRANCH   4  20
ATOM     20  N   UNL d   1      28.416 -13.417   4.450  0.00  0.00    -0.367 N 
ATOM     21  C   UNL d   1      27.779 -12.264   5.115  0.00  0.00     0.124 C 
ATOM     22  C   UNL d   1      28.883 -11.409   5.756  0.00  0.00     0.020 C 
ATOM     23  C   UNL d   1      29.525 -12.007   7.014  0.00  0.00     0.002 C 
ATOM     24  C   UNL d   1      30.036 -13.439   6.858  0.00  0.00     0.002 C 
ATOM     25  C   UNL d   1      28.908 -14.452   6.684  0.00  0.00     0.020 C 
ATOM     26  C   UNL d   1      28.496 -14.663   5.232  0.00  0.00     0.124 C 
ENDBRANCH   4  20
TORSDOF 4
ENDMDL
MODEL 5
REMARK VINA RESULT:    -6.816      5.246      7.040
REMARK INTER + INTRA:          -8.711
REMARK INTER:                  -8.009
REMARK INTRA:                  -0.702
REMARK CONF_INDEPENDENT:        1.193
REMARK UNBOUND:                -0.702
REMARK  4 active torsions:
REMARK  status: ('A' for Active; 'I' for Inactive)
REMARK       I    between atoms: C_2  and  N_3 
REMARK    1  A    between atoms: C_18  and  C_2 
REMARK    2  A    between atoms: N_3  and  C_4 
REMARK    3  A    between atoms: C_4  and  C_5 
REMARK    4  A    between atoms: C_8  and  N_9 
ROOT
ATOM      1  C   UNL d   1      28.996 -15.518   0.619  0.00  0.00    -0.025 A 
ATOM      2  C   UNL d   1      28.947 -16.680  -0.165  0.00  0.00     0.014 A 
ATOM      3  C   UNL d   1      27.737 -17.178  -0.655  0.00  0.00     0.049 A 
ATOM      4  C   UNL d   1      26.543 -16.520  -0.363  0.00  0.00     0.102 A 
ATOM      5  N   UNL d   1      26.621 -15.417   0.396  0.00  0.00    -0.352 N 
ATOM      6  C   UNL d   1      27.769 -14.910   0.886  0.00  0.00     0.098 A 
ATOM      7  H   UNL d   1      25.728 -14.999   0.646  0.00  0.00     0.166 HD
ENDROOT
BRANCH   1   8
ATOM      8  C   UNL d   1      30.280 -14.878   1.154  0.00  0.00     0.162 C 
BRANCH   8   9
ATOM      9  N   UNL d   1      30.275 -14.692   2.587  0.00  0.00    -0.356 N 
ATOM     10  C   UNL d   1      30.570 -13.525   3.257  0.00  0.00     0.224 C 
ATOM     11  O   UNL d   1      30.981 -12.528   2.661  0.00  0.00    -0.273 OA
ATOM     12  H   UNL d   1      30.393 -15.533   3.124  0.00  0.00     0.162 HD
BRANCH  10  13
ATOM     13  C   UNL d   1      30.368 -13.551   4.787  0.00  0.00     0.109 C 
ATOM     14  C   UNL d   1      29.570 -12.400   5.442  0.00  0.00     0.048 C 
ATOM     15  C   UNL d   1      28.535 -13.146   6.306  0.00  0.00     0.122 C 
ATOM     16  C   UNL d   1      27.432 -13.701   5.421  0.00  0.00     0.034 C 
ATOM     17  O   UNL d   1      29.266 -14.343   6.658  0.00  0.00    -0.380 OA
ATOM     18  C   UNL d   1      28.153 -14.839   4.734  0.00  0.00     0.035 C 
ATOM     19  C   UNL d   1      29.579 -14.756   5.312  0.00  0.00     0.135 C 
ENDBRANCH  10  13
ENDBRANCH   8   9
ENDBRANCH   1   8
BRANCH   4  20
ATOM     20  N   UNL d   1      25.281 -17.032  -0.610  0.00  0.00    -0.367 N 
ATOM     21  C   UNL d   1      24.511 -16.553  -1.775  0.00  0.00     0.124 C 
ATOM     22  C   UNL d   1      23.175 -15.988  -1.270  0.00  0.00     0.020 C 
ATOM     23  C   UNL d   1      22.157 -17.036  -0.804  0.00  0.00     0.002 C 
ATOM     24  C   UNL d   1      22.688 -18.041   0.218  0.00  0.00     0.002 C 
ATOM     25  C   UNL d   1      23.727 -18.990  -0.374  0.00  0.00     0.020 C 
ATOM     26  C   UNL d   1      25.154 -18.463  -0.286  0.00  0.00     0.124 C 
ENDBRANCH   4  20
TORSDOF 4
ENDMDL
MODEL 6
REMARK VINA RESULT:    -6.714      4.814      9.517
REMARK INTER + INTRA:          -8.772
REMARK INTER:                  -7.907
REMARK INTRA:                  -0.865
REMARK CONF_INDEPENDENT:        1.193
REMARK UNBOUND:                -0.865
REMARK  4 active torsions:
REMARK  status: ('A' for Active; 'I' for Inactive)
REMARK       I    between atoms: C_2  and  N_3 
REMARK    1  A    between atoms: C_18  and  C_2 
REMARK    2  A    between atoms: N_3  and  C_4 
REMARK    3  A    between atoms: C_4  and  C_5 
REMARK    4  A    between atoms: C_8  and  N_9 
ROOT
ATOM      1  C   UNL d   1      28.391 -14.723  -5.002  0.00  0.00    -0.025 A 
ATOM      2  C   UNL d   1      29.032 -15.700  -4.227  0.00  0.00     0.014 A 
ATOM      3  C   UNL d   1      29.902 -16.630  -4.802  0.00  0.00     0.049 A 
ATOM      4  C   UNL d   1      30.143 -16.604  -6.174  0.00  0.00     0.102 A 
ATOM      5  N   UNL d   1      29.509 -15.663  -6.890  0.00  0.00    -0.352 N 
ATOM      6  C   UNL d   1      28.663 -14.752  -6.370  0.00  0.00     0.098 A 
ATOM      7  H   UNL d   1      29.654 -15.713  -7.895  0.00  0.00     0.166 HD
ENDROOT
BRANCH   1   8
ATOM      8  C   UNL d   1      27.464 -13.637  -4.447  0.00  0.00     0.162 C 
BRANCH   8   9
ATOM      9  N   UNL d   1      26.572 -14.114  -3.415  0.00  0.00    -0.356 N 
ATOM     10  C   UNL d   1      25.700 -15.176  -3.520  0.00  0.00     0.224 C 
ATOM     11  O   UNL d   1      25.530 -15.764  -4.589  0.00  0.00    -0.273 OA
ATOM     12  H   UNL d   1      26.336 -13.437  -2.713  0.00  0.00     0.162 HD
BRANCH  10  13
ATOM     13  C   UNL d   1      24.947 -15.566  -2.230  0.00  0.00     0.109 C 
ATOM     14  C   UNL d   1      24.576 -17.052  -2.019  0.00  0.00     0.048 C 
ATOM     15  C   UNL d   1      25.099 -17.337  -0.597  0.00  0.00     0.122 C 
ATOM     16  C   UNL d   1      26.610 -17.492  -0.628  0.00  0.00     0.034 C 
ATOM     17  O   UNL d   1      24.943 -16.045   0.031  0.00  0.00    -0.380 OA
ATOM     18  C   UNL d   1      27.046 -16.060  -0.846  0.00  0.00     0.035 C 
ATOM     19  C   UNL d   1      25.713 -15.292  -0.931  0.00  0.00     0.135 C 
ENDBRANCH  10  13
ENDBRANCH   8   9
ENDBRANCH   1   8
BRANCH   4  20
ATOM     20  N   UNL d   1      30.808 -17.594  -6.877  0.00  0.00    -0.367 N 
ATOM     21  C   UNL d   1      32.226 -17.408  -7.242  0.00  0.00     0.124 C 
ATOM     22  C   UNL d   1      32.349 -17.527  -8.769  0.00  0.00     0.020 C 
ATOM     23  C   UNL d   1      32.208 -18.949  -9.326  0.00  0.00     0.002 C 
ATOM     24  C   UNL d   1      30.957 -19.699  -8.870  0.00  0.00     0.002 C 
ATOM     25  C   UNL d   1      30.987 -20.047  -7.384  0.00  0.00     0.020 C 
ATOM     26  C   UNL d   1      30.405 -18.958  -6.491  0.00  0.00     0.124 C 
ENDBRANCH   4  20
TORSDOF 4
ENDMDL
MODEL 7
REMARK VINA RESULT:    -6.424      3.885      6.705
REMARK INTER + INTRA:          -8.183
REMARK INTER:                  -7.618
REMARK INTRA:                  -0.566
REMARK CONF_INDEPENDENT:        1.193
REMARK UNBOUND:                -0.566
REMARK  4 active torsions:
REMARK  status: ('A' for Active; 'I' for Inactive)
REMARK       I    between atoms: C_2  and  N_3 
REMARK    1  A    between atoms: C_18  and  C_2 
REMARK    2  A    between atoms: N_3  and  C_4 
REMARK    3  A    between atoms: C_4  and  C_5 
REMARK    4  A    between atoms: C_8  and  N_9 
ROOT
ATOM      1  C   UNL d   1      26.246 -12.887  -4.605  0.00  0.00    -0.025 A 
ATOM      2  C   UNL d   1      26.167 -14.243  -4.953  0.00  0.00     0.014 A 
ATOM      3  C   UNL d   1      25.718 -15.203  -4.043  0.00  0.00     0.049 A 
ATOM      4  C   UNL d   1      25.343 -14.823  -2.756  0.00  0.00     0.102 A 
ATOM      5  N   UNL d   1      25.438 -13.520  -2.449  0.00  0.00    -0.352 N 
ATOM      6  C   UNL d   1      25.867 -12.568  -3.300  0.00  0.00     0.098 A 
ATOM      7  H   UNL d   1      25.220 -13.285  -1.484  0.00  0.00     0.166 HD
ENDROOT
BRANCH   1   8
ATOM      8  C   UNL d   1      26.679 -11.765  -5.553  0.00  0.00     0.162 C 
BRANCH   8   9
ATOM      9  N   UNL d   1      25.609 -10.855  -5.893  0.00  0.00    -0.356 N 
ATOM     10  C   UNL d   1      25.389  -9.613  -5.339  0.00  0.00     0.224 C 
ATOM     11  O   UNL d   1      26.061  -9.205  -4.390  0.00  0.00    -0.273 OA
ATOM     12  H   UNL d   1      24.801 -11.287  -6.305  0.00  0.00     0.162 HD
BRANCH  10  13
ATOM     13  C   UNL d   1      24.250  -8.782  -5.967  0.00  0.00     0.109 C 
ATOM     14  C   UNL d   1      23.305  -8.003  -5.023  0.00  0.00     0.048 C 
ATOM     15  C   UNL d   1      23.311  -6.584  -5.626  0.00  0.00     0.122 C 
ATOM     16  C   UNL d   1      24.608  -5.879  -5.267  0.00  0.00     0.034 C 
ATOM     17  O   UNL d   1      23.504  -6.870  -7.030  0.00  0.00    -0.380 OA
ATOM     18  C   UNL d   1      25.592  -6.607  -6.156  0.00  0.00     0.035 C 
ATOM     19  C   UNL d   1      24.714  -7.643  -6.883  0.00  0.00     0.135 C 
ENDBRANCH  10  13
ENDBRANCH   8   9
ENDBRANCH   1   8
BRANCH   4  20
ATOM     20  N   UNL d   1      25.090 -15.702  -1.716  0.00  0.00    -0.367 N 
ATOM     21  C   UNL d   1      25.931 -15.664  -0.504  0.00  0.00     0.124 C 
ATOM     22  C   UNL d   1      26.551 -17.056  -0.306  0.00  0.00     0.020 C 
ATOM     23  C   UNL d   1      25.582 -18.139   0.185  0.00  0.00     0.002 C 
ATOM     24  C   UNL d   1      24.302 -18.280  -0.639  0.00  0.00     0.002 C 
ATOM     25  C   UNL d   1      23.376 -17.075  -0.500  0.00  0.00     0.020 C 
ATOM     26  C   UNL d   1      23.656 -15.969  -1.510  0.00  0.00     0.124 C 
ENDBRANCH   4  20
TORSDOF 4
ENDMDL
MODEL 8
REMARK VINA RESULT:    -6.342      6.197      9.920
REMARK INTER + INTRA:          -8.200
REMARK INTER:                  -7.536
REMARK INTRA:                  -0.664
REMARK CONF_INDEPENDENT:        1.193
REMARK UNBOUND:                -0.664
REMARK  4 active torsions:
REMARK  status: ('A' for Active; 'I' for Inactive)
REMARK       I    between atoms: C_2  and  N_3 
REMARK    1  A    between atoms: C_18  and  C_2 
REMARK    2  A    between atoms: N_3  and  C_4 
REMARK    3  A    between atoms: C_4  and  C_5 
REMARK    4  A    between atoms: C_8  and  N_9 
ROOT
ATOM      1  C   UNL d   1      30.304 -16.470  -5.364  0.00  0.00    -0.025 A 
ATOM      2  C   UNL d   1      30.274 -17.766  -4.831  0.00  0.00     0.014 A 
ATOM      3  C   UNL d   1      30.692 -18.870  -5.578  0.00  0.00     0.049 A 
ATOM      4  C   UNL d   1      31.147 -18.698  -6.884  0.00  0.00     0.102 A 
ATOM      5  N   UNL d   1      31.155 -17.447  -7.369  0.00  0.00    -0.352 N 
ATOM      6  C   UNL d   1      30.758 -16.360  -6.679  0.00  0.00     0.098 A 
ATOM      7  H   UNL d   1      31.428 -17.363  -8.345  0.00  0.00     0.166 HD
ENDROOT
BRANCH   1   8
ATOM      8  C   UNL d   1      29.911 -15.201  -4.601  0.00  0.00     0.162 C 
BRANCH   8   9
ATOM      9  N   UNL d   1      28.496 -15.112  -4.323  0.00  0.00    -0.356 N 
ATOM     10  C   UNL d   1      27.480 -15.170  -5.251  0.00  0.00     0.224 C 
ATOM     11  O   UNL d   1      27.715 -15.200  -6.460  0.00  0.00    -0.273 OA
ATOM     12  H   UNL d   1      28.261 -14.651  -3.462  0.00  0.00     0.162 HD
BRANCH  10  13
ATOM     13  C   UNL d   1      26.044 -15.180  -4.685  0.00  0.00     0.109 C 
ATOM     14  C   UNL d   1      25.833 -15.657  -3.230  0.00  0.00     0.048 C 
ATOM     15  C   UNL d   1      24.987 -14.524  -2.615  0.00  0.00     0.122 C 
ATOM     16  C   UNL d   1      25.871 -13.323  -2.325  0.00  0.00     0.034 C 
ATOM     17  O   UNL d   1      24.236 -14.072  -3.765  0.00  0.00    -0.380 OA
ATOM     18  C   UNL d   1      26.129 -12.806  -3.723  0.00  0.00     0.035 C 
ATOM     19  C   UNL d   1      25.369 -13.805  -4.617  0.00  0.00     0.135 C 
ENDBRANCH  10  13
ENDBRANCH   8   9
ENDBRANCH   1   8
BRANCH   4  20
ATOM     20  N   UNL d   1      31.381 -19.727  -7.780  0.00  0.00    -0.367 N 
ATOM     21  C   UNL d   1      31.206 -21.128  -7.348  0.00  0.00     0.124 C 
ATOM     22  C   UNL d   1      32.533 -21.868  -7.571  0.00  0.00     0.020 C 
ATOM     23  C   UNL d   1      32.873 -22.175  -9.035  0.00  0.00     0.002 C 
ATOM     24  C   UNL d   1      32.814 -20.972  -9.976  0.00  0.00     0.002 C 
ATOM     25  C   UNL d   1      31.392 -20.455 -10.182  0.00  0.00     0.020 C 
ATOM     26  C   UNL d   1      30.968 -19.410  -9.158  0.00  0.00     0.124 C 
ENDBRANCH   4  20
TORSDOF 4
ENDMDL
MODEL 9
REMARK VINA RESULT:    -6.230      3.474      5.883
REMARK INTER + INTRA:          -8.159
REMARK INTER:                  -7.423
REMARK INTRA:                  -0.736
REMARK CONF_INDEPENDENT:        1.193
REMARK UNBOUND:                -0.736
REMARK  4 active torsions:
REMARK  status: ('A' for Active; 'I' for Inactive)
REMARK       I    between atoms: C_2  and  N_3 
REMARK    1  A    between atoms: C_18  and  C_2 
REMARK    2  A    between atoms: N_3  and  C_4 
REMARK    3  A    between atoms: C_4  and  C_5 
REMARK    4  A    between atoms: C_8  and  N_9 
ROOT
ATOM      1  C   UNL d   1      26.546 -13.560  -4.634  0.00  0.00    -0.025 A 
ATOM      2  C   UNL d   1      25.188 -13.535  -4.286  0.00  0.00     0.014 A 
ATOM      3  C   UNL d   1      24.702 -14.259  -3.194  0.00  0.00     0.049 A 
ATOM      4  C   UNL d   1      25.572 -15.032  -2.427  0.00  0.00     0.102 A 
ATOM      5  N   UNL d   1      26.864 -15.043  -2.790  0.00  0.00    -0.352 N 
ATOM      6  C   UNL d   1      27.366 -14.359  -3.836  0.00  0.00     0.098 A 
ATOM      7  H   UNL d   1      27.459 -15.667  -2.252  0.00  0.00     0.166 HD
ENDROOT
BRANCH   1   8
ATOM      8  C   UNL d   1      27.169 -12.760  -5.781  0.00  0.00     0.162 C 
BRANCH   8   9
ATOM      9  N   UNL d   1      26.999 -11.332  -5.645  0.00  0.00    -0.356 N 
ATOM     10  C   UNL d   1      25.957 -10.585  -6.149  0.00  0.00     0.224 C 
ATOM     11  O   UNL d   1      25.100 -11.087  -6.878  0.00  0.00    -0.273 OA
ATOM     12  H   UNL d   1      27.845 -10.819  -5.469  0.00  0.00     0.162 HD
BRANCH  10  13
ATOM     13  C   UNL d   1      25.940  -9.092  -5.756  0.00  0.00     0.109 C 
ATOM     14  C   UNL d   1      24.657  -8.517  -5.113  0.00  0.00     0.048 C 
ATOM     15  C   UNL d   1      25.191  -7.803  -3.857  0.00  0.00     0.122 C 
ATOM     16  C   UNL d   1      25.530  -8.828  -2.788  0.00  0.00     0.034 C 
ATOM     17  O   UNL d   1      26.504  -7.388  -4.299  0.00  0.00    -0.380 OA
ATOM     18  C   UNL d   1      26.786  -9.445  -3.363  0.00  0.00     0.035 C 
ATOM     19  C   UNL d   1      26.973  -8.694  -4.695  0.00  0.00     0.135 C 
ENDBRANCH  10  13
ENDBRANCH   8   9
ENDBRANCH   1   8
BRANCH   4  20
ATOM     20  N   UNL d   1      25.176 -15.947  -1.467  0.00  0.00    -0.367 N 
ATOM     21  C   UNL d   1      25.988 -16.128  -0.248  0.00  0.00     0.124 C 
ATOM     22  C   UNL d   1      26.401 -17.605  -0.159  0.00  0.00     0.020 C 
ATOM     23  C   UNL d   1      25.278 -18.575   0.230  0.00  0.00     0.002 C 
ATOM     24  C   UNL d   1      24.010 -18.465  -0.616  0.00  0.00     0.002 C 
ATOM     25  C   UNL d   1      23.260 -17.156  -0.385  0.00  0.00     0.020 C 
ATOM     26  C   UNL d   1      23.714 -16.023  -1.298  0.00  0.00     0.124 C 
ENDBRANCH   4  20
TORSDOF 4
ENDMDL
